#------------------------------------------------------------------------------
#$Date: 2019-06-11 10:05:00 +0300 (Tue, 11 Jun 2019) $
#$Revision: 215813 $
#$URL: file:///home/coder/svn-repositories/cod/cif/1/55/13/1551316.cif $
#------------------------------------------------------------------------------
#
# This file is available in the Crystallography Open Database (COD),
# http://www.crystallography.net/
#
# All data on this site have been placed in the public domain by the
# contributors.
#
data_1551316
loop_
_publ_author_name
'Jun Harada'
'Takafumi Shimojo'
'Hideaki Oyamaguchi'
'Hiroyuki Hasegawa'
'Yukihiro Takahashi'
'Koichiro Satomi'
'Yasutaka Suzuki'
'Jun Kawamata'
'Tamotsu Inabe'
_publ_section_title
;
 Directionally tunable and mechanically deformable ferroelectric crystals
 from rotating polar globular ionic molecules
;
_journal_name_full               'Nature Chemistry'
_journal_page_first              946
_journal_page_last               952
_journal_paper_doi               10.1038/nchem.2567
_journal_volume                  8
_journal_year                    2016
_chemical_formula_moiety         'O4 Re, C7 H14 N'
_chemical_formula_sum            'C7 H14 N O4 Re'
_chemical_formula_weight         362.39
_chemical_name_systematic        'quinuclidinium perrhenate'
_space_group_crystal_system      orthorhombic
_space_group_IT_number           31
_space_group_name_Hall           'P 2ac -2'
_space_group_name_H-M_alt        'P m n 21'
_atom_sites_solution_hydrogens   geom
_atom_sites_solution_primary     direct
_cell_angle_alpha                90
_cell_angle_beta                 90
_cell_angle_gamma                90
_cell_formula_units_Z            2
_cell_length_a                   8.9571(9)
_cell_length_b                   5.9973(6)
_cell_length_c                   9.1546(9)
_cell_measurement_reflns_used    5967
_cell_measurement_temperature    300(2)
_cell_measurement_theta_max      27.501
_cell_measurement_theta_min      3.182
_cell_volume                     491.77(8)
_computing_cell_refinement       'SAINT v8.34A (Bruker, 2013)'
_computing_data_collection       'Bruker APEX2 2014.1-1 (Bruker, 2014)'
_computing_data_reduction        'SAINT v8.34A (Bruker, 2013)'
_computing_molecular_graphics    'Olex2 (Dolomanov et al., 2009)'
_computing_publication_material  'Olex2 (Dolomanov et al., 2009)'
_computing_structure_refinement  'ShelXL (Sheldrick, 2008)'
_computing_structure_solution    'ShelXT (Sheldrick, 2015)'
_diffrn_ambient_temperature      300.15
_diffrn_detector_area_resol_mean 8.3333
_diffrn_measured_fraction_theta_full 1.000
_diffrn_measured_fraction_theta_max 1.000
_diffrn_measurement_device_type  'Bruker APEX-II CCD'
_diffrn_measurement_method       '\f and \w scans'
_diffrn_radiation_type           MoK\a
_diffrn_radiation_wavelength     0.71073
_diffrn_reflns_av_R_equivalents  0.0333
_diffrn_reflns_av_unetI/netI     0.0235
_diffrn_reflns_Laue_measured_fraction_full 1.000
_diffrn_reflns_Laue_measured_fraction_max 1.000
_diffrn_reflns_limit_h_max       11
_diffrn_reflns_limit_h_min       -11
_diffrn_reflns_limit_k_max       7
_diffrn_reflns_limit_k_min       -7
_diffrn_reflns_limit_l_max       11
_diffrn_reflns_limit_l_min       -11
_diffrn_reflns_number            6770
_diffrn_reflns_point_group_measured_fraction_full 1.000
_diffrn_reflns_point_group_measured_fraction_max 1.000
_diffrn_reflns_theta_full        25.242
_diffrn_reflns_theta_max         27.509
_diffrn_reflns_theta_min         3.182
_diffrn_source                   'rotating-anode X-ray tube'
_diffrn_standards_number         0
_exptl_absorpt_coefficient_mu    12.339
_exptl_absorpt_correction_T_max  0.0991
_exptl_absorpt_correction_T_min  0.0435
_exptl_absorpt_correction_type   multi-scan
_exptl_absorpt_process_details
'SADABS-2014/4 (Bruker,2014/4) was used for absorption correction. wR2(int) was 0.1109 before and 0.0529 after correction. The Ratio of minimum to maximum transmission is 0.4390. The \l/2 correction factor is Not present.'
_exptl_crystal_colour            colourless
_exptl_crystal_colour_primary    colourless
_exptl_crystal_density_diffrn    2.447
_exptl_crystal_description       block
_exptl_crystal_F_000             340
_exptl_crystal_size_max          0.3
_exptl_crystal_size_mid          0.28
_exptl_crystal_size_min          0.2
_refine_diff_density_max         0.490
_refine_diff_density_min         -0.747
_refine_diff_density_rms         0.088
_refine_ls_abs_structure_details
;
 Refined as an inversion twin.
;
_refine_ls_abs_structure_Flack   0.07(3)
_refine_ls_extinction_coef       0.110(4)
_refine_ls_extinction_expression Fc^*^=kFc[1+0.001xFc^2^\l^3^/sin(2\q)]^-1/4^
_refine_ls_extinction_method     SHELXL
_refine_ls_goodness_of_fit_ref   1.152
_refine_ls_hydrogen_treatment    constr
_refine_ls_matrix_type           full
_refine_ls_number_parameters     72
_refine_ls_number_reflns         1194
_refine_ls_number_restraints     1
_refine_ls_restrained_S_all      1.151
_refine_ls_R_factor_all          0.0148
_refine_ls_R_factor_gt           0.0147
_refine_ls_shift/su_max          0.000
_refine_ls_shift/su_mean         0.000
_refine_ls_structure_factor_coef Fsqd
_refine_ls_weighting_details
'w=1/[\s^2^(Fo^2^)+(0.0149P)^2^+0.1512P] where P=(Fo^2^+2Fc^2^)/3'
_refine_ls_weighting_scheme      calc
_refine_ls_wR_factor_gt          0.0368
_refine_ls_wR_factor_ref         0.0368
_reflns_Friedel_coverage         0.886
_reflns_Friedel_fraction_full    1.000
_reflns_Friedel_fraction_max     1.000
_reflns_number_gt                1187
_reflns_number_total             1194
_reflns_threshold_expression     'I > 2\s(I)'
_cod_data_source_file            nchem.2567-s2.cif
_cod_data_source_block           QuinuclidiniumReO4_300K
_cod_database_code               1551316
_shelx_space_group_comment
;
The symmetry employed for this shelxl refinement is uniquely defined
by the following loop, which should always be used as a source of
symmetry information in preference to the above space-group names.
They are only intended as comments.
;
_shelx_estimated_absorpt_t_max   0.192
_shelx_estimated_absorpt_t_min   0.119
_olex2_refinement_description
;
1. Twinned data refinement
 Scales: 0.93(3) 0.07(3)
2. Fixed Uiso
 At 1.2 times of:
  All C(H) groups, All C(H,H) groups, All N(H) groups
3. Others
 Fixed Sof: H1A(0.5) H1B(0.5) H2A(0.5) H2B(0.5)
4.a Ternary CH refined with riding coordinates:
 N1(H1), C3(H3)
4.b Secondary CH2 refined with riding coordinates:
 C1(H1A,H1B), C2(H2A,H2B), C4(H4A,H4B), C5(H5A,H5B)
;
_shelx_res_file
;
TITL Quinuclidinium ReO4 in Pmn2(1) at 300 K
CELL 0.71073   8.95710   5.99730   9.15460  90.0000  90.0000  90.0000
ZERR    2.00   0.00090   0.00060   0.00090   0.0000   0.0000   0.0000
LATT -1
SYMM 1/2-X, -Y, 1/2+Z
SYMM 1/2+X, -Y, 1/2+Z
SYMM -X, Y, Z
SFAC C H N O RE
UNIT 14 28 2 8 2
TEMP 27
SIZE 0.20 0.28 0.30
L.S. 5
BOND $H
CONF
LIST 4
ACTA
FMAP 2
PLAN 20
EQIV $1 -x+1/2, -y+1, z+1/2
HTAB N1 O1_$1
EQIV $2 -x+1/2, -y, z+1/2
HTAB N1 O2_$2
TWIN
WGHT    0.014900    0.151200
EXTI    0.110383
BASF   0.06888
FVAR       0.28534
RE1   5    0.000000    0.012258    0.500016    10.50000    0.03474    0.03127 =
         0.03052    0.00307    0.00000    0.00000
O1    4    0.000000    0.201313    0.363057    10.50000    0.12891    0.05685 =
         0.05501    0.02453    0.00000    0.00000
O2    4    0.000000   -0.253087    0.430347    10.50000    0.08083    0.04075 =
         0.07274   -0.00695    0.00000    0.00000
O3    4    0.155667    0.047361    0.608717    11.00000    0.04667    0.09336 =
         0.07149   -0.00759   -0.01568   -0.00936
N1    3    0.500000    0.470757    0.627329    10.50000    0.03908    0.04426 =
         0.01727    0.00021    0.00000    0.00000
AFIX  13
H1    2    0.500000    0.484185    0.734017    10.50000   -1.20000
AFIX   0
C1    1    0.500000    0.232485    0.591425    10.50000    0.05775    0.04474 =
         0.04976    0.02028    0.00000    0.00000
AFIX  23
H1A   2    0.412117    0.160968    0.631900    10.50000   -1.20000
H1B   2    0.587883    0.160968    0.631900    10.50000   -1.20000
AFIX   0
C2    1    0.500000    0.212260    0.426768    10.50000    0.08090    0.02780 =
         0.06621   -0.00737    0.00000    0.00000
AFIX  23
H2A   2    0.412423    0.129476    0.396053    10.50000   -1.20000
H2B   2    0.587577    0.129477    0.396053    10.50000   -1.20000
AFIX   0
C3    1    0.500000    0.440341    0.352764    10.50000    0.04982    0.04917 =
         0.02231   -0.00732    0.00000    0.00000
AFIX  13
H3    2    0.499999    0.426498    0.246099    10.50000   -1.20000
AFIX   0
C4    1    0.361600    0.560221    0.406993    11.00000    0.05123    0.06564 =
         0.03930    0.00700   -0.00699    0.00542
AFIX  23
H4A   2    0.357004    0.707519    0.363459    11.00000   -1.20000
H4B   2    0.273461    0.478365    0.376751    11.00000   -1.20000
AFIX   0
C5    1    0.362515    0.581750    0.571792    11.00000    0.04304    0.05470 =
         0.04938   -0.00210    0.00475    0.02388
AFIX  23
H5A   2    0.362149    0.737797    0.599654    11.00000   -1.20000
H5B   2    0.274566    0.511163    0.612826    11.00000   -1.20000
AFIX   0
HKLF 4

REM  Quinuclidinium ReO4 in Pmn2(1) at 300 K
REM R1 =  0.0147 for    1187 Fo > 4sig(Fo)  and  0.0148 for all    1194 data
REM     72 parameters refined using      1 restraints

END

WGHT      0.0149      0.1512

REM Highest difference peak  0.490,  deepest hole -0.747,  1-sigma level  0.088
Q1    1   0.0000  0.0345  0.6001  10.50000  0.05    0.49
Q2    1   0.0000  0.0346  0.4043  10.50000  0.05    0.44
Q3    1   0.0392  0.0160  0.7010  11.00000  0.05    0.31
Q4    1   0.0399  0.0136  0.3009  11.00000  0.05    0.29
Q5    1   0.0000 -0.1668  0.3364  10.50000  0.05    0.29
Q6    1   0.5000  0.1713  0.1594  10.50000  0.05    0.26
Q7    1   0.5000  0.0760  0.7368  10.50000  0.05    0.25
Q8    1   0.5000  0.0790  0.2637  10.50000  0.05    0.23
Q9    1   0.0000  0.1944  0.6760  10.50000  0.05    0.22
Q10   1   0.5000  0.7883  0.4314  10.50000  0.05    0.22
Q11   1   0.5000  0.7744  0.5710  10.50000  0.05    0.21
Q12   1   0.5000 -0.0125  0.4718  10.50000  0.05    0.20
Q13   1   0.5000  0.1990  0.5615  10.50000  0.05    0.20
Q14   1   0.4564  0.2206  0.4240  11.00000  0.05    0.19
Q15   1   0.2680  0.1147  0.5087  11.00000  0.05    0.19
Q16   1   0.5000  0.4853  0.1612  10.50000  0.05    0.19
Q17   1   0.2719  0.8828  0.4988  11.00000  0.05    0.18
Q18   1   0.5000  0.0505  0.3733  10.50000  0.05    0.16
Q19   1   0.0386 -0.3247  0.3179  11.00000  0.05    0.16
Q20   1   0.5000  0.5728  0.1262  10.50000  0.05    0.15
;
_shelx_res_checksum              43973
_shelx_hkl_file
;
   1   0   0    0.14    0.04
   2   0   0  812.57   41.37
   2   0   0  841.72   42.39
   2   0   0  925.09   41.66
  -2   0   0 1000.00   41.94
   3   0   0    0.05    0.08
  -3   0   0    0.04    0.06
   3   0   0    0.01    0.05
   3   0   0    0.08    0.06
   4   0   0  615.72   29.79
  -4   0   0  708.24   31.51
   4   0   0  671.33   29.65
   4   0   0  629.84   29.65
   5   0   0    0.11    0.09
  -5   0   0    0.07    0.10
   5   0   0    0.05    0.14
  -5   0   0    0.17    0.11
   6   0   0  671.95   32.48
   6   0   0  672.70   30.43
  -6   0   0  662.45   30.24
  -7   0   0    0.18    0.18
  -7   0   0    0.33    0.15
   7   0   0    0.26    0.23
   7   0   0    0.35    0.16
   8   0   0  325.55   14.79
   8   0   0  324.11   14.97
  -8   0   0  326.36   14.81
   9   0   0    0.04    0.18
  -9   0   0    0.37    0.23
   9   0   0    0.28    0.30
 -10   0   0   86.68    4.15
  10   0   0   86.09    4.13
  10   0   0   89.30    4.39
  11   0   0    0.25    0.26
 -11   0   0    0.11    0.27
  11   0   0    0.36    0.40
   0  -1   0  469.83   22.58
   0  -1   0  471.34   22.31
  -1  -1   0    0.21    0.07
  -1  -1   0    0.25    0.06
   1  -1   0    0.33    0.06
  -1   1   0    0.38    0.07
   1   1   0    0.26    0.05
   1  -1   0    0.55    0.09
   1  -1   0    0.13    0.05
  -1   1   0    0.24    0.06
   1   1   0    0.18    0.04
   1   1   0    0.20    0.05
   2  -1   0  590.92   26.80
   2   1   0  645.36   27.77
  -2  -1   0  574.62   26.63
   2   1   0  532.42   27.84
  -2   1   0  540.79   27.99
   2   1   0  671.74   28.24
   2  -1   0  618.45   26.92
   2  -1   0  541.60   26.64
  -3  -1   0   61.16    2.78
  -3   1   0   61.33    2.72
  -3   1   0   57.54    2.78
   3  -1   0   62.70    2.78
  -3   1   0   59.26    2.77
  -3  -1   0   65.16    2.83
   3   1   0   57.05    2.77
   3   1   0   59.57    2.77
   3   1   0   58.58    2.80
   4   1   0  519.16   23.99
   4   1   0  553.27   24.04
   4  -1   0  518.28   25.29
  -4   1   0  515.74   23.94
  -4  -1   0  593.96   24.20
  -4   1   0  505.64   24.09
   4  -1   0  519.01   24.21
   4   1   0  520.06   24.07
  -4   1   0  519.86   24.05
   5   1   0    3.42    0.27
   5  -1   0    3.42    0.38
   5  -1   0    3.85    0.28
  -5   1   0    3.75    0.26
  -5   1   0    3.33    0.18
  -5  -1   0    3.59    0.33
   5   1   0    3.58    0.28
   5   1   0    3.58    0.34
  -5   1   0    3.43    0.30
   6   1   0  367.12   16.62
   6  -1   0  362.68   16.73
   6   1   0  364.67   16.59
  -6   1   0  348.22   16.60
   6   1   0  344.70   16.68
  -6  -1   0  409.61   16.71
   6  -1   0  371.34   16.70
  -6   1   0  362.83   16.71
   7  -1   0    2.55    0.44
   7   1   0    2.39    0.39
   7  -1   0    2.69    0.29
   7   1   0    2.72    0.31
   7   1   0    2.94    0.31
  -7  -1   0    2.57    0.36
  -7   1   0    2.68    0.33
   8   1   0  151.13    7.14
   8  -1   0  152.20    7.33
  -8  -1   0  176.14    7.19
   8   1   0  149.21    7.28
   8   1   0  151.82    7.14
  -8   1   0  149.39    7.15
   8  -1   0  155.31    7.14
   9  -1   0    0.21    0.19
  -9  -1   0    0.04    0.22
   9   1   0    0.34    0.21
   9  -1   0    0.04    0.30
   9   1   0    0.20    0.30
  -9   1   0    0.31    0.24
  10   1   0   80.68    4.13
  10  -1   0   84.10    4.18
 -10   1   0   82.14    3.93
 -10  -1   0   84.37    3.95
  10   1   0   82.37    3.92
  10  -1   0   80.48    3.91
  11   1   0    0.24    0.38
  11  -1   0   -0.30    0.36
 -11  -1   0    0.29    0.29
 -11   1   0    0.29    0.28
  11  -1   0   -0.09    0.22
  11   1   0    0.18    0.25
   0  -2   0  739.23   33.41
   0   2   0  664.69   33.34
   0   2   0  698.55   33.35
   0  -2   0  847.44   33.46
   0  -2   0  736.93   35.23
  -1   2   0   22.69    1.15
   1  -2   0   25.50    1.16
   1  -2   0   24.52    1.17
  -1  -2   0   23.62    1.16
   1   2   0   24.76    1.15
  -1  -2   0   24.52    1.19
   1  -2   0   22.83    1.15
   1   2   0   21.96    1.14
  -1   2   0   23.29    1.15
   1   2   0   23.95    1.12
   2   2   0  485.97   20.18
  -2   2   0  443.00   21.38
  -2   2   0  414.15   20.13
   2  -2   0  479.85   20.18
  -2  -2   0  480.17   20.36
   2  -2   0  405.65   20.20
  -2  -2   0  451.33   20.16
   2  -2   0  408.53   20.15
   2   2   0  461.57   20.20
   2   2   0  418.82   20.17
  -3   2   0   67.43    3.13
  -3  -2   0   70.73    3.21
   3  -2   0   74.04    3.09
  -3  -2   0   66.64    3.14
   3   2   0   63.33    3.11
   3   2   0   64.20    3.12
   3   2   0   65.21    3.13
  -3   2   0   65.09    3.14
   3  -2   0   70.72    3.15
   3  -2   0   68.49    3.21
   4  -2   0  341.38   15.98
  -4   2   0  350.15   15.95
   4   2   0  341.77   16.01
  -4  -2   0  365.76   16.01
  -4   2   0  336.69   15.98
  -4  -2   0  347.72   15.93
   4   2   0  338.66   16.00
   4  -2   0  380.97   15.85
   4   2   0  362.02   16.01
   4  -2   0  352.70   16.08
   5   2   0   37.62    1.90
   5  -2   0   41.90    1.88
   5  -2   0   38.55    1.99
   5   2   0   38.25    1.87
  -5   2   0   39.16    1.85
  -5   2   0   37.44    1.88
  -5  -2   0   36.74    1.94
  -5  -2   0   40.91    1.87
   5   2   0   37.84    1.86
  -6   2   0  368.76   17.31
   6   2   0  387.08   17.30
   6  -2   0  384.91   17.46
   6   2   0  396.10   17.35
   6   2   0  371.57   17.36
   6  -2   0  383.92   17.37
  -6  -2   0  379.91   17.38
   7  -2   0    5.59    0.59
   7   2   0    5.07    0.42
   7   2   0    5.02    0.49
  -7   2   0    5.15    0.45
   7  -2   0    5.60    0.43
  -7  -2   0    4.77    0.51
   7   2   0    5.78    0.43
   8  -2   0  188.01    8.57
  -8  -2   0  199.03    8.67
   8   2   0  177.81    8.67
   8   2   0  181.80    8.56
   8  -2   0  184.80    8.77
  -8   2   0  183.28    8.58
   8   2   0  191.60    8.58
   9   2   0    2.71    0.47
   9   2   0    2.84    0.37
  -9   2   0    2.63    0.39
  -9  -2   0    2.94    0.46
   9  -2   0    2.75    0.36
   9   2   0    2.88    0.38
   9  -2   0    2.52    0.52
  10   2   0   63.37    3.04
 -10   2   0   62.26    3.05
  10  -2   0   62.87    3.03
  10   2   0   63.74    3.04
  10  -2   0   59.41    3.26
 -11   2   0    3.42    0.48
  11  -2   0    3.16    0.65
  11   2   0    3.48    0.46
 -11  -2   0    3.46    0.51
  11  -2   0    2.99    0.42
   0  -3   0  410.39   18.38
   0  -3   0  411.92   18.36
   0  -3   0  392.24   18.29
   0   3   0  402.31   18.28
   0   3   0  399.18   18.28
   1  -3   0  131.51    5.84
   1   3   0  128.46    5.81
  -1   3   0  125.93    5.82
   1   3   0  130.14    5.82
  -1  -3   0  133.11    5.84
  -1  -3   0  131.24    5.88
  -1  -3   0  117.47    5.77
   1  -3   0  120.75    5.81
   1  -3   0  123.23    5.82
  -1   3   0  126.63    5.82
   2   3   0  406.17   17.66
   2   3   0  371.22   17.65
  -2   3   0  383.51   17.60
  -2   3   0  388.87   17.68
   2  -3   0  367.44   17.60
  -2  -3   0  383.56   17.61
   2   3   0  415.70   17.58
   2  -3   0  360.23   17.72
  -2  -3   0  407.25   17.58
   2  -3   0  391.50   17.61
  -3   3   0    3.03    0.30
   3   3   0    3.25    0.28
   3   3   0    3.26    0.24
   3  -3   0    3.18    0.26
  -3  -3   0    3.29    0.40
  -3  -3   0    3.42    0.30
   3   3   0    3.59    0.28
   3  -3   0    3.00    0.34
  -3   3   0    3.00    0.27
   3  -3   0    3.39    0.29
  -4   3   0  301.89   13.87
   4   3   0  308.56   13.87
   4  -3   0  328.08   13.85
  -4   3   0  302.73   13.89
   4  -3   0  307.90   13.89
   4   3   0  299.30   13.87
   4   3   0  287.23   14.22
  -4  -3   0  304.40   13.97
  -4  -3   0  312.04   13.90
   4  -3   0  303.65   13.97
   5  -3   0   18.26    1.09
   5   3   0   18.60    0.96
  -5  -3   0   16.71    1.06
   5   3   0   16.87    0.95
   5   3   0   18.44    0.97
   5  -3   0   19.10    0.98
   6  -3   0  231.85   10.53
   6   3   0  226.46   10.36
  -6  -3   0  215.37   10.47
  -6   3   0  224.58   10.38
   6   3   0  233.70   10.38
   6  -3   0  239.23   10.40
   6   3   0  218.79   10.39
  -7   3   0   32.30    1.67
   7  -3   0   32.73    1.83
   7  -3   0   33.69    1.67
   7   3   0   33.11    1.67
  -7  -3   0   30.98    1.77
   7   3   0   33.17    1.66
   8  -3   0  117.00    5.50
  -8  -3   0  117.35    5.62
  -8   3   0  117.24    5.51
   8  -3   0  120.79    5.71
   8   3   0  115.17    5.50
   8   3   0  120.00    5.50
  -9  -3   0    4.33    0.58
   9   3   0    4.22    0.45
  -9   3   0    4.38    0.50
   9   3   0    4.40    0.48
   9  -3   0    3.73    0.43
   9  -3   0    3.63    0.60
  10  -3   0   54.48    2.94
  10   3   0   54.53    2.68
 -10   3   0   53.55    2.70
  10  -3   0   51.89    2.67
  10   3   0   56.44    2.70
   0   4   0  546.59   24.58
   0   4   0  557.10   24.52
   0  -4   0  543.23   24.59
   0  -4   0  526.92   24.46
   0  -4   0  530.33   24.60
  -1   4   0   65.45    2.96
   1  -4   0   62.24    2.99
  -1  -4   0   59.22    2.89
  -1  -4   0   61.25    3.03
   1   4   0   62.88    2.96
  -1  -4   0   62.85    2.98
  -1   4   0   61.87    2.96
   1  -4   0   60.67    2.96
   1  -4   0   63.11    2.96
   1   4   0   64.60    2.96
   2   4   0  476.31   22.04
  -2  -4   0  489.63   22.13
  -2   4   0  489.86   22.12
   2  -4   0  484.51   22.08
   2  -4   0  466.12   22.12
   2   4   0  488.48   22.14
  -2   4   0  481.16   22.06
   2   4   0  486.45   22.06
  -2  -4   0  517.83   22.07
   3   4   0   65.19    3.12
   3   4   0   66.19    3.13
  -3   4   0   69.47    3.13
   3  -4   0   66.00    3.19
   3  -4   0   67.12    3.13
   3  -4   0   66.53    3.15
  -3   4   0   63.19    3.14
  -3  -4   0   64.15    3.23
   4   4   0  392.79   17.15
   4   4   0  391.78   17.14
   4  -4   0  378.03   17.24
   4  -4   0  375.43   17.16
  -4  -4   0  352.04   17.23
  -4   4   0  375.26   17.16
   5   4   0   43.99    2.21
   5  -4   0   46.85    2.24
  -5   4   0   43.41    2.22
  -5  -4   0   42.78    2.33
   5   4   0   46.87    2.22
   5  -4   0   47.40    2.35
   6   4   0  238.75   10.80
  -6  -4   0  221.56   10.91
  -6   4   0  225.83   10.80
   6   4   0  244.90   10.79
   6  -4   0  241.94   10.82
   6  -4   0  242.04   10.95
   7   4   0   14.05    0.87
   7  -4   0   15.47    1.08
  -7  -4   0   13.45    1.01
   7  -4   0   15.39    0.90
  -7   4   0   14.58    0.90
   7   4   0   14.67    0.89
   8  -4   0  101.91    4.95
   8   4   0  100.93    4.74
  -8  -4   0   98.63    4.88
   8  -4   0  101.04    4.75
  -8   4   0   99.20    4.75
   8   4   0  101.51    4.76
   9  -4   0    7.45    0.87
  -9  -4   0    8.06    0.77
   9   4   0    8.62    0.66
   9   4   0    8.48    0.67
  -9   4   0    8.26    0.67
   9  -4   0    8.26    0.64
   0  -5   0  317.92   14.77
   0  -5   0  318.34   14.75
   0   5   0  331.49   14.76
   0  -5   0  323.01   14.83
   0   5   0  330.00   14.76
   1  -5   0   29.24    1.57
   1   5   0   29.81    1.52
  -1   5   0   30.41    1.52
  -1  -5   0   29.83    1.62
  -1   5   0   29.19    1.52
   1  -5   0   28.04    1.52
   1   5   0   30.38    1.53
   1  -5   0   28.60    1.50
  -2  -5   0  263.47   12.26
   2   5   0  266.48   12.15
   2   5   0  269.99   12.15
   2  -5   0  261.64   12.18
  -2   5   0  265.10   12.16
  -2   5   0  274.36   12.16
   2  -5   0  265.60   12.17
   2  -5   0  262.42   12.17
   3  -5   0    4.08    0.46
  -3   5   0    4.30    0.46
  -3  -5   0    4.07    0.55
   3   5   0    3.57    0.40
   3  -5   0    3.97    0.42
   3  -5   0    4.46    0.43
   3   5   0    4.28    0.43
   4   5   0  174.70    7.92
  -4  -5   0  164.54    8.04
   4  -5   0  175.21    8.00
  -4   5   0  167.75    7.93
   4   5   0  175.69    7.92
   4  -5   0  171.67    7.94
   5  -5   0   11.54    0.76
   5   5   0   12.03    0.76
   5   5   0   11.21    0.75
  -5   5   0   11.34    0.76
  -5  -5   0   10.63    0.88
   5  -5   0   11.51    0.85
  -6  -5   0  113.94    5.88
   6   5   0  124.78    5.76
  -6   5   0  117.54    5.76
   6  -5   0  123.97    5.89
   6   5   0  128.47    5.77
   6  -5   0  129.70    5.79
   7  -5   0   15.18    0.91
  -7   5   0   13.35    0.89
   7   5   0   13.56    0.89
   7   5   0   13.84    0.89
  -7  -5   0   12.27    1.02
   7  -5   0   15.01    1.05
   8   5   0   71.66    3.36
  -8   5   0   65.19    3.33
   8   5   0   70.55    3.34
   8  -5   0   69.42    3.53
   8  -5   0   68.81    3.35
  -8  -5   0   66.09    3.48
   0   6   0   96.71    4.70
   0  -6   0  100.00    4.80
   0   6   0  103.39    4.73
  -1   6   0   38.37    1.97
  -1  -6   0   37.44    2.07
   1  -6   0   38.53    2.05
   1   6   0   39.48    1.98
   1   6   0   40.65    1.99
   2   6   0  112.29    5.32
   2   6   0  115.96    5.33
  -2   6   0  111.62    5.33
  -2  -6   0  111.74    5.45
   2  -6   0  115.48    5.38
  -3   6   0   31.68    1.70
   3   6   0   31.80    1.69
   3  -6   0   32.35    1.74
  -3  -6   0   31.13    1.83
   3   6   0   35.06    1.72
  -4   6   0   96.01    4.81
   4   6   0  103.30    4.82
  -4  -6   0   93.97    4.95
   4  -6   0  106.24    4.86
   4  -6   0  104.92    4.90
   4   6   0  107.21    4.84
   5   6   0   22.74    1.24
   5   6   0   21.60    1.23
  -5  -6   0   19.94    1.38
   5  -6   0   21.71    1.25
  -5   6   0   19.38    1.22
   5  -6   0   22.87    1.34
   6  -6   0   54.55    2.61
   6   6   0   52.79    2.57
   6  -6   0   53.39    2.71
  -6   6   0   46.32    2.55
  -6  -6   0   47.67    2.72
   6   6   0   53.88    2.59
   7   6   0   12.03    0.86
   7  -6   0   12.41    0.99
   7  -6   0   12.70    0.87
  -7   6   0   11.71    0.85
   7   6   0   12.26    0.86
  -7  -6   0   12.10    1.04
   0   7   0   63.75    3.18
   0  -7   0   66.92    3.30
  -1  -7   0   27.98    1.63
   1  -7   0   28.44    1.60
  -1   7   0   25.96    1.48
   1   7   0   26.53    1.49
  -2  -7   0   55.02    2.79
  -2   7   0   49.69    2.60
   2   7   0   52.85    2.61
   3   7   0   19.62    1.17
   3   7   0   21.80    1.20
  -3  -7   0   19.02    1.33
  -3   7   0   18.22    1.17
  -4   7   0   36.19    1.98
  -4  -7   0   36.09    2.15
   4   7   0   36.49    1.98
   4   7   0   42.77    2.03
  -5  -7   0   17.18    1.29
   5   7   0   16.65    1.07
   5   7   0   17.90    1.08
  -5   7   0   15.51    1.06
   0   0  -1    0.14    0.02
   0   0  -1    0.18    0.02
   0   0  -1    0.11    0.03
   0   0   1    0.08    0.04
   1   0  -1  426.22   19.10
   1   0  -1  447.53   19.15
   1   0  -1  432.48   19.50
   1   0  -1  372.74   19.02
  -1   0  -1  424.64   19.87
   1   0   1  384.66   19.85
  -1   0  -1  464.54   19.76
  -1   0  -1  408.66   19.40
   2   0  -1    0.08    0.04
   2   0   1    0.04    0.06
  -2   0  -1    0.01    0.04
   2   0   1    0.04    0.05
  -2   0  -1    0.02    0.04
   2   0  -1    0.11    0.03
   2   0  -1    0.06    0.03
  -2   0  -1    0.10    0.05
   2   0  -1    0.13    0.07
  -3   0  -1  637.39   31.53
   3   0   1  650.24   30.02
  -3   0  -1  659.75   29.84
   3   0   1  598.03   31.65
  -3   0  -1  735.18   29.90
   3   0  -1  617.08   30.92
   3   0  -1  658.48   29.98
   3   0  -1  712.05   31.11
   4   0  -1    0.41    0.11
   4   0   1    0.12    0.09
   4   0  -1    0.17    0.08
  -4   0  -1    0.11    0.08
   4   0  -1    0.11    0.06
   4   0   1    0.17    0.13
  -4   0  -1    0.10    0.08
  -4   0  -1    0.03    0.08
   4   0  -1    0.19    0.13
  -5   0  -1  530.23   23.91
  -5   0  -1  520.17   23.97
   5   0  -1  476.00   23.86
  -5   0  -1  582.83   23.96
   5   0  -1  574.96   24.02
   5   0  -1  528.33   23.93
   5   0   1  502.94   23.94
   5   0  -1  512.85   24.11
   5   0   1  523.14   24.16
  -6   0   1    0.17    0.14
  -6   0  -1    0.20    0.12
   6   0  -1    0.15    0.10
   6   0   1    0.47    0.22
   6   0   1    0.24    0.13
   6   0  -1    0.37    0.12
  -6   0  -1    0.37    0.14
  -6   0  -1    0.24    0.15
   6   0  -1    0.30    0.22
  -6   0   1    0.21    0.14
  -7   0  -1  238.15   11.36
  -7   0  -1  272.34   11.33
   7   0   1  245.08   11.52
   7   0   1  251.78   11.37
   7   0  -1  240.21   11.49
   7   0  -1  246.32   11.34
  -7   0   1  252.12   11.38
  -8   0   1    0.42    0.22
   8   0  -1   -0.03    0.25
  -8   0  -1    0.46    0.20
   8   0   1    0.31    0.19
   8   0  -1    0.12    0.15
   8   0   1    0.25    0.28
   9   0  -1  116.35    5.16
   9   0   1  109.27    5.18
  -9   0  -1  111.09    5.19
  -9   0   1  108.89    5.19
   9   0  -1  113.47    5.37
   9   0   1  106.31    5.39
 -10   0   1   -0.10    0.23
  10   0   1    0.19    0.22
  10   0  -1    0.15    0.20
 -10   0  -1    0.35    0.26
  10   0   1    0.10    0.34
  10   0  -1    0.39    0.35
 -11   0   1   64.20    3.10
  11   0   1   62.08    3.38
  11   0  -1   61.75    3.31
  11   0  -1   61.69    3.05
 -11   0  -1   67.41    3.11
  11   0   1   60.84    3.07
   0   1   1   27.50    1.25
   0   1   1   26.03    1.25
   0  -1   1   27.12    1.25
   0  -1  -1   27.42    1.27
   0  -1   1   28.40    1.24
   0   1  -1   27.48    1.26
   0  -1  -1   26.51    1.28
   0  -1  -1   26.38    1.29
   0   1  -1   25.84    1.25
   1  -1   1  774.82   37.89
   1   1  -1  725.18   37.27
   1   1  -1  733.34   36.72
   1  -1   1  768.89   37.84
  -1  -1  -1  786.86   38.08
  -1   1   1  900.92   37.70
   1   1  -1  744.18   37.17
   1   1   1  929.54   39.13
  -1   1  -1  799.47   37.94
  -1  -1   1  901.59   38.58
   1   1   1  791.15   37.73
  -1   1  -1  708.78   37.61
  -1   1  -1  908.12   37.64
   2  -1   1   43.40    2.04
  -2  -1  -1   43.29    2.01
   2   1  -1   44.57    1.99
  -2   1   1   41.22    2.00
   2   1  -1   43.62    1.99
   2   1  -1   43.81    2.00
   2   1  -1   43.12    1.98
   2  -1  -1   46.08    2.00
   2  -1  -1   41.81    1.99
   2   1   1   46.97    2.05
   2   1   1   43.22    1.98
  -2   1  -1   41.63    2.00
   2  -1  -1   40.38    1.96
   2  -1  -1   43.47    2.05
   2   1   1   40.61    2.00
  -2   1  -1   42.16    1.97
  -2   1  -1   44.99    2.01
  -3   1   1  431.46   20.77
   3   1  -1  411.63   20.72
   3   1  -1  525.08   20.84
   3  -1   1  441.45   20.92
   3   1  -1  455.33   20.77
   3  -1   1  444.34   20.84
   3   1  -1  459.03   20.86
  -3  -1  -1  457.95   20.77
  -3  -1  -1  493.99   20.93
  -3   1  -1  438.00   20.81
   3   1   1  453.09   20.77
  -3  -1   1  522.74   20.91
   3  -1  -1  472.26   20.82
   3  -1  -1  456.94   20.99
   3   1   1  427.34   20.79
   3  -1  -1  416.14   20.73
  -3   1  -1  454.32   20.79
  -3   1  -1  449.03   21.26
   3   1   1  502.56   20.92
   4   1  -1   30.38    1.54
   4  -1   1   32.21    1.65
   4   1  -1   33.80    1.55
   4   1  -1   34.13    1.61
  -4   1   1   30.86    1.57
  -4  -1  -1   34.24    1.63
  -4  -1  -1   33.71    1.57
  -4   1  -1   31.97    1.51
  -4   1  -1   32.77    1.57
   4  -1  -1   34.49    1.67
   4   1   1   30.67    1.55
   4   1   1   32.77    1.57
   4  -1  -1   36.39    1.56
   4   1   1   31.52    1.63
   4  -1  -1   29.89    1.54
  -4  -1   1   35.34    1.61
   5  -1   1  523.32   23.14
  -5   1   1  489.70   22.83
   5   1  -1  541.19   23.00
  -5  -1  -1  533.37   22.91
   5   1  -1  470.84   22.88
   5   1  -1  520.35   22.97
  -5  -1  -1  505.49   22.93
   5   1  -1  509.56   23.13
   5  -1   1  512.89   23.00
   5  -1  -1  445.17   22.87
   5  -1  -1  514.15   22.98
   5  -1  -1  505.77   23.19
  -5   1  -1  478.80   22.94
  -5   1  -1  491.15   23.52
   5   1   1  517.72   22.88
  -5   1  -1  503.43   22.93
   5   1   1  524.72   23.14
   5   1   1  506.48   22.97
   6   1  -1    6.55    0.52
   6   1  -1    6.26    0.44
   6  -1   1    6.97    0.45
  -6   1   1    7.09    0.46
   6  -1   1    6.90    0.57
  -6  -1  -1    6.68    0.43
  -6  -1  -1    6.23    0.48
   6   1  -1    6.54    0.42
  -6   1  -1    6.82    0.42
   6   1   1    6.30    0.42
  -6   1  -1    5.82    0.44
  -6  -1   1    6.57    0.48
  -6   1  -1    6.36    0.35
   6  -1  -1    6.70    0.42
   6   1   1    6.45    0.54
   6  -1  -1    5.76    0.55
   6   1   1    6.93    0.45
   7   1  -1  408.49   17.82
   7   1  -1  379.78   17.91
   7  -1   1  390.71   17.98
   7   1  -1  390.13   17.81
  -7   1   1  395.01   17.82
  -7  -1  -1  421.94   17.85
   7  -1   1  399.07   17.82
   7   1   1  391.52   17.79
   7  -1  -1  393.43   17.96
   7   1   1  401.38   17.82
   7   1   1  380.59   17.94
   7  -1  -1  386.75   17.84
  -7   1  -1  366.14   17.80
   8  -1   1    1.49    0.41
   8  -1   1    1.54    0.27
   8   1  -1    1.02    0.25
   8   1  -1    1.26    0.33
   8   1  -1    1.29    0.24
  -8  -1  -1    1.31    0.27
  -8   1   1    1.49    0.30
  -8  -1  -1    1.22    0.26
   8   1   1    1.24    0.26
  -8   1  -1    1.56    0.28
  -8  -1   1    2.19    0.35
   8  -1  -1    1.02    0.21
   8   1   1    1.09    0.34
   8  -1  -1    0.93    0.34
   9  -1   1  134.46    6.12
   9   1  -1  126.24    6.25
   9   1  -1  135.08    6.09
  -9   1   1  131.59    6.12
  -9  -1  -1  130.84    6.12
   9   1  -1  134.34    6.12
   9  -1   1  128.28    6.33
  -9  -1   1  129.91    6.13
   9   1   1  130.53    6.11
   9   1   1  130.88    6.31
   9  -1  -1  132.01    6.31
  -9   1  -1  127.93    6.11
   9  -1  -1  136.60    6.09
  10  -1   1    1.28    0.29
 -10   1   1    1.48    0.33
  10   1  -1    1.54    0.30
 -10  -1  -1    1.17    0.31
  10  -1   1    1.28    0.47
  10   1  -1    2.11    0.47
 -10   1  -1    1.26    0.32
  10   1   1    1.80    0.34
  10  -1  -1    1.24    0.28
 -10  -1   1    1.26    0.34
  10   1   1    1.27    0.44
  10  -1  -1    1.37    0.43
 -11  -1  -1   52.99    2.51
 -11   1   1   49.54    2.49
  11   1  -1   48.39    2.45
  11  -1   1   48.73    2.48
  11  -1   1   49.59    2.79
  11   1  -1   49.82    2.69
  11  -1  -1   49.70    2.75
 -11  -1   1   50.03    2.51
  11   1   1   49.83    2.50
  11   1   1   48.15    2.76
  11  -1  -1   49.10    2.45
 -11   1  -1   50.22    2.50
   0  -2   1  199.43    8.94
   0  -2  -1  191.81    8.93
   0   2  -1  198.48    8.93
   0  -2  -1  215.03    8.97
   0  -2   1  201.96    8.95
   0  -2  -1  194.93    8.94
   0  -2   1  189.23    8.91
   0   2   1  202.13    8.96
   0   2   1  191.41    8.94
   0   2  -1  181.74    8.91
   1   2  -1  542.53   25.39
   1  -2   1  569.36   25.40
   1  -2   1  569.08   25.39
   1  -2   1  549.16   25.41
  -1   2   1  630.64   25.43
  -1   2   1  551.46   25.37
   1   2  -1  599.21   25.42
  -1  -2  -1  622.94   25.55
  -1  -2  -1  520.87   25.33
   1   2   1  550.78   25.39
  -1   2  -1  499.94   25.37
   1  -2  -1  624.98   25.41
  -1   2  -1  526.69   25.41
   1  -2  -1  485.32   25.38
   1   2   1  553.52   25.36
   2   2  -1   23.28    1.10
   2  -2   1   22.40    1.06
  -2  -2  -1   22.89    1.10
  -2   2   1   19.94    1.06
  -2   2   1   20.69    1.07
   2   2  -1   21.76    1.00
   2   2  -1   21.66    1.06
   2  -2   1   21.66    1.08
   2  -2   1   20.60    1.10
   2  -2  -1   22.96    1.08
   2  -2  -1   23.31    1.07
  -2   2  -1   22.94    1.09
   2   2   1   20.49    1.07
   2   2   1   19.77    1.05
   2  -2  -1   23.19    1.13
  -2  -2   1   22.40    1.13
   2   2   1   23.01    1.11
  -3   2   1  497.86   22.85
  -3   2   1  497.94   22.88
   3   2  -1  546.19   22.94
   3  -2   1  476.00   23.00
   3  -2   1  483.39   24.00
   3   2  -1  482.46   24.43
   3  -2   1  508.17   22.81
  -3  -2  -1  531.62   23.02
  -3  -2  -1  491.29   22.89
   3   2  -1  479.32   22.81
   3   2  -1  492.92   22.87
   3   2   1  557.76   23.02
  -3  -2   1  553.16   23.06
   3   2   1  487.88   24.67
   3  -2  -1  522.85   22.77
  -3   2  -1  488.64   22.83
   3  -2  -1  475.27   22.88
   3   2   1  517.73   22.88
  -3   2  -1  500.65   22.82
   3  -2  -1  481.06   23.08
  -4  -2  -1    2.51    0.33
   4   2  -1    2.62    0.23
   4   2  -1    2.39    0.22
  -4  -2  -1    2.84    0.26
   4   2  -1    2.95    0.23
   4   2  -1    2.50    0.24
  -4   2  -1    2.73    0.27
   4  -2  -1    2.84    0.34
   4  -2  -1    2.93    0.24
  -4   2  -1    2.78    0.24
   5   2  -1  392.52   18.41
   5   2  -1  364.96   17.58
   5   2  -1  389.71   17.64
  -5  -2  -1  402.71   17.62
  -5  -2  -1  380.15   17.69
  -5   2   1  383.53   17.61
   5  -2   1  395.89   17.79
   5   2  -1  384.79   17.61
   5  -2   1  391.11   17.62
   5  -2  -1  388.66   17.60
  -5  -2   1  409.82   17.68
   5   2   1  397.20   17.65
   5   2   1  387.72   17.74
  -5   2  -1  362.91   17.61
  -5   2  -1  398.66   17.62
   5   2   1  391.21   17.62
   6  -2   1   20.44    1.05
   6   2  -1   18.90    1.04
   6   2  -1   19.89    1.03
   6   2  -1   19.50    1.08
  -6  -2  -1   18.71    1.13
  -6   2   1   20.03    1.05
   6  -2   1   21.23    1.20
  -6   2  -1   18.14    1.05
   6   2   1   19.40    1.12
   6   2   1   20.09    1.03
   6   2   1   20.06    1.05
   6  -2  -1   20.04    1.18
  -6  -2   1   20.70    1.13
   6  -2  -1   20.26    1.03
   7   2  -1  212.27   10.18
   7  -2   1  229.80   10.32
   7   2  -1  217.91   10.13
  -7  -2  -1  213.01   10.20
  -7   2   1  225.87   10.14
   7  -2   1  227.10   10.14
   7   2  -1  214.85   10.11
   7   2   1  225.57   10.11
   7   2   1  226.23   10.14
  -7   2  -1  210.55   10.13
  -7  -2   1  236.37   10.22
   7   2   1  217.59   10.24
   7  -2  -1  223.81   10.12
   8   2  -1    9.52    0.72
  -8  -2  -1    9.82    0.73
  -8   2   1   10.01    0.66
   8   2  -1    8.81    0.63
   8   2  -1    9.28    0.61
   8  -2   1    9.10    0.83
   8  -2   1    9.40    0.63
   8   2   1    9.91    0.63
  -8  -2   1   10.17    0.73
   8  -2  -1    9.16    0.81
   8  -2  -1    9.44    0.61
  -8   2  -1    9.32    0.66
   8   2   1    9.69    0.65
   8   2   1    8.66    0.74
   9   2  -1  103.73    4.93
   9  -2   1  100.97    4.92
  -9  -2  -1  113.88    5.01
   9   2  -1  107.69    4.92
   9  -2   1  104.02    5.17
  -9   2   1  104.62    4.94
   9   2   1  103.11    4.90
   9  -2  -1  103.02    5.13
   9   2   1  102.22    5.09
   9  -2  -1  108.88    4.91
  -9   2  -1  103.05    4.93
   9   2   1  103.72    4.94
  10  -2   1    0.58    0.26
 -10   2   1    0.37    0.28
  10  -2   1    0.52    0.42
  10   2  -1    0.75    0.30
  10   2  -1    0.62    0.25
  10  -2  -1    0.60    0.40
  10  -2  -1    0.62    0.25
 -10   2  -1    0.73    0.30
  10   2   1    0.47    0.26
  10   2   1    0.47    0.37
  10   2   1    0.38    0.26
  11  -2   1   49.84    2.53
 -11  -2  -1   50.86    2.56
  11   2  -1   49.32    2.50
 -11   2   1   51.26    2.54
  11   2  -1   52.45    2.55
  11  -2   1   48.05    2.81
  11  -2  -1   50.49    2.79
 -11  -2   1   49.46    2.56
 -11   2  -1   51.29    2.55
  11   2   1   52.16    2.55
  11  -2  -1   49.52    2.50
   0  -3  -1   29.67    1.59
   0  -3  -1   31.49    1.59
   0  -3   1   35.52    1.64
   0  -3   1   32.97    1.59
   0   3  -1   30.45    1.58
   0   3   1   34.12    1.58
   0  -3  -1   31.15    1.63
   0  -3   1   34.29    1.55
   0   3   1   35.46    1.58
   0   3  -1   31.14    1.59
   1  -3   1  654.33   29.20
  -1  -3  -1  684.27   29.35
   1   3  -1  635.66   29.20
   1  -3   1  645.25   29.14
  -1   3   1  652.82   29.12
  -1   3   1  649.35   29.15
  -1  -3  -1  649.34   29.18
   1   3  -1  667.32   29.22
   1  -3   1  644.22   29.18
   1   3   1  580.94   29.16
  -1  -3   1  666.73   29.31
   1  -3  -1  678.82   29.28
   1   3   1  652.47   29.19
  -1  -3   1  619.85   29.31
  -1  -3   1  696.22   29.19
  -1   3  -1  620.50   29.18
   1  -3  -1  589.68   29.25
   1  -3  -1  568.78   29.13
   1   3   1  678.90   29.87
  -1   3  -1  624.62   29.21
   2   3  -1   43.85    2.04
   2  -3   1   41.78    2.05
  -2   3   1   40.75    2.04
  -2  -3  -1   44.28    2.09
   2  -3   1   43.22    2.08
   2  -3   1   43.41    2.06
  -2  -3  -1   44.29    2.14
  -2   3   1   41.21    2.05
   2   3   1   41.69    2.05
  -2  -3   1   44.10    2.07
   2   3   1   41.95    2.03
   2  -3  -1   42.34    2.05
   2  -3  -1   44.25    2.06
   2  -3  -1   43.34    2.10
   2   3   1   42.99    2.07
  -2   3  -1   43.70    2.05
  -2  -3   1   42.19    2.12
  -3   3   1  468.06   20.75
   3  -3   1  445.45   20.95
  -3  -3  -1  442.95   20.80
   3   3  -1  448.64   20.85
   3  -3   1  465.24   20.79
  -3   3   1  466.55   20.81
   3  -3   1  453.51   20.83
   3   3  -1  460.55   20.83
  -3  -3  -1  443.25   20.74
   3   3   1  483.19   20.81
  -3   3  -1  448.21   20.80
  -3  -3   1  485.45   20.76
  -3  -3   1  460.42   20.79
   3   3   1  478.48   20.84
   3  -3  -1  426.00   20.81
   3  -3  -1  436.57   20.95
   3   3   1  469.24   22.84
   3  -3  -1  468.70   20.76
  -3   3  -1  448.21   21.70
   4  -3   1   48.43    2.43
   4   3  -1   50.22    2.27
   4  -3   1   50.48    2.30
   4   3  -1   49.20    2.35
  -4   3   1   44.20    2.33
  -4  -3  -1   46.87    2.44
  -4   3   1   50.27    2.33
  -4  -3  -1   51.94    2.38
   4  -3   1   49.50    2.36
   4   3  -1   49.91    2.33
   4   3   1   47.49    2.34
   4  -3  -1   46.21    2.26
   4   3   1   46.07    2.35
   4  -3  -1   52.73    2.46
  -4   3  -1   48.60    2.36
   4  -3  -1   53.57    2.36
  -4  -3   1   46.30    2.42
   4   3   1   46.85    2.31
  -4   3  -1   51.27    2.34
   5  -3   1  385.13   17.11
  -5   3   1  370.84   16.98
  -5  -3  -1  362.83   17.08
   5   3  -1  365.48   16.99
   5   3  -1  379.66   16.98
   5  -3   1  381.26   17.00
  -5   3  -1  365.34   16.96
   5  -3  -1  377.92   16.98
  -5  -3   1  384.93   17.08
   5   3   1  365.82   17.00
  -5   3  -1  355.62   16.98
   5  -3  -1  378.57   17.11
   5   3   1  379.10   16.98
   5   3   1  386.71   16.95
   6  -3   1   17.93    1.09
   6   3  -1   15.70    0.92
   6   3  -1   15.67    0.90
  -6  -3  -1   15.21    1.02
   6  -3   1   17.72    0.94
  -6   3   1   15.55    0.92
   6  -3  -1   17.50    0.92
   6   3   1   16.98    0.93
  -6  -3   1   16.23    1.02
  -6   3  -1   15.75    0.93
   6   3   1   16.65    0.97
   6   3   1   16.65    0.90
   6  -3  -1   16.43    1.07
  -7   3   1  222.18   10.13
   7   3  -1  214.69   10.12
   7   3  -1  222.38   10.14
   7  -3   1  227.29   10.15
   7  -3   1  232.10   10.33
  -7  -3  -1  207.22   10.22
   7   3   1  228.40   10.11
   7   3   1  225.85   10.15
   7   3   1  214.87   10.21
   7  -3  -1  224.16   10.31
   7  -3  -1  221.06   10.12
  -7  -3   1  219.51   10.23
  -7   3  -1  216.05   10.14
   8  -3   1    4.91    0.46
  -8   3   1    4.81    0.47
   8  -3   1    5.22    0.66
  -8  -3  -1    5.07    0.60
   8   3  -1    4.14    0.48
   8   3  -1    3.84    0.42
   8  -3  -1    4.55    0.63
   8   3   1    4.57    0.45
   8   3   1    4.38    0.44
   8  -3  -1    5.14    0.44
  -8   3  -1    5.03    0.50
  -8  -3   1    4.64    0.58
   9   3  -1   88.52    4.21
   9  -3   1   86.99    4.45
  -9   3   1   89.74    4.23
  -9  -3  -1   91.34    4.34
   9  -3   1   87.73    4.23
   9   3  -1   85.13    4.22
   9  -3  -1   89.14    4.44
  -9   3  -1   88.24    4.23
  -9  -3   1   97.94    4.36
   9   3   1   88.78    4.24
   9  -3  -1   86.50    4.20
   9   3   1   87.96    4.20
 -10   3   1    4.25    0.52
  10  -3   1    5.90    0.81
  10  -3   1    4.32    0.50
  10   3  -1    4.70    0.53
  10   3  -1    4.97    0.51
  10  -3  -1    6.17    0.77
 -10   3  -1    5.24    0.57
  10   3   1    4.36    0.48
  10  -3  -1    4.91    0.49
  10   3   1    5.27    0.54
   0   4  -1   58.70    2.89
   0  -4   1   63.22    2.84
   0  -4  -1   56.32    2.90
   0  -4   1   62.12    2.96
   0   4   1   66.59    2.89
   0  -4  -1   57.66    2.95
   0   4   1   65.71    2.90
   0  -4   1   62.62    2.90
   0   4  -1   57.83    2.89
   0  -4  -1   58.45    2.89
   1  -4   1  407.47   18.51
   1  -4   1  393.38   18.38
  -1  -4  -1  407.55   18.46
   1   4  -1  411.29   18.48
   1  -4   1  398.34   18.42
  -1   4   1  421.73   18.38
  -1   4   1  399.15   18.37
  -1  -4  -1  426.11   18.41
   1   4  -1  421.51   18.40
   1   4   1  409.11   18.42
   1   4   1  365.58   18.42
  -1  -4   1  374.86   18.33
   1  -4  -1  417.10   18.43
   1   4   1  404.09   18.36
  -1   4  -1  413.65   18.39
  -1   4  -1  423.05   18.46
  -1  -4   1  401.63   18.46
   1  -4  -1  397.04   19.28
   1  -4  -1  388.94   18.38
  -1  -4   1  428.15   18.40
   2  -4   1   12.92    0.72
   2  -4   1   12.52    0.71
  -2  -4  -1   10.33    0.70
   2   4  -1   10.77    0.69
   2   4  -1   10.47    0.66
  -2   4   1   12.40    0.69
  -2   4   1   13.13    0.69
   2  -4   1   12.73    0.70
  -2  -4  -1    8.95    0.74
   2   4   1   12.08    0.68
   2   4   1   12.60    0.68
   2   4   1   12.67    0.69
  -2  -4   1   13.20    0.71
   2  -4  -1    9.91    0.67
   2  -4  -1    9.81    0.69
  -2   4  -1   10.26    0.68
   2  -4  -1   10.72    0.72
  -2   4  -1   11.01    0.68
   3  -4   1  291.43   13.83
  -3   4   1  304.15   13.85
  -3  -4  -1  316.00   13.90
   3  -4   1  295.74   13.89
  -3  -4  -1  298.48   13.95
   3   4  -1  316.28   13.84
   3  -4   1  297.80   13.85
  -3   4   1  300.17   13.84
   3   4  -1  315.81   13.86
  -3   4  -1  320.17   13.85
   3  -4  -1  303.17   13.85
   3  -4  -1  308.25   13.92
   3   4   1  299.93   13.84
   3   4   1  306.72   13.82
  -3  -4   1  283.15   13.93
   3   4   1  293.79   13.83
   3  -4  -1  323.72   13.85
  -3   4  -1  302.71   13.86
   4   4  -1    3.18    0.33
  -4  -4  -1    2.98    0.46
   4  -4   1    3.51    0.44
   4  -4   1    3.78    0.37
   4   4  -1    3.31    0.38
  -4   4   1    4.27    0.39
   4  -4   1    3.87    0.34
  -4  -4   1    3.14    0.44
  -4   4  -1    3.03    0.33
   4   4   1    3.38    0.35
   4   4   1    3.92    0.34
  -4   4  -1    2.53    0.35
   4  -4  -1    3.23    0.35
   4  -4  -1    3.17    0.44
   5   4  -1  212.47    9.65
  -5   4   1  203.98    9.64
   5  -4   1  213.77    9.66
   5  -4   1  204.92    9.74
  -5  -4  -1  196.38    9.75
   5   4  -1  212.12    9.63
   5  -4  -1  219.32    9.78
  -5   4  -1  206.36    9.66
  -5  -4   1  209.28    9.76
   5   4   1  217.58    9.65
   5  -4  -1  219.78    9.66
   5   4   1  208.83    9.61
   6   4  -1   19.85    1.12
  -6   4   1   22.23    1.15
   6   4  -1   20.27    1.15
   6  -4   1   22.08    1.29
  -6  -4  -1   17.49    1.25
   6  -4   1   22.43    1.17
   6  -4  -1   20.59    1.14
   6  -4  -1   20.07    1.29
  -6  -4   1   20.19    1.26
   6   4   1   22.68    1.16
  -6   4  -1   19.83    1.15
   6   4   1   21.78    1.13
   7  -4   1  129.91    6.23
  -7  -4  -1  124.64    6.19
  -7   4   1  127.74    6.06
   7   4  -1  133.16    6.06
   7   4  -1  130.40    6.07
   7  -4   1  129.75    6.08
  -7  -4   1  122.40    6.17
   7   4   1  134.96    6.04
   7   4   1  134.06    6.08
   7  -4  -1  134.51    6.07
   7  -4  -1  132.91    6.25
  -7   4  -1  127.72    6.07
   8   4  -1    8.93    0.69
  -8  -4  -1    8.18    0.79
   8  -4   1    9.06    0.85
  -8   4   1    9.36    0.68
   8  -4   1    9.10    0.67
   8   4  -1    8.59    0.65
  -8   4  -1    8.06    0.67
   8  -4  -1    9.75    0.66
   8   4   1    9.41    0.68
  -8  -4   1    8.17    0.78
   8  -4  -1    9.56    0.86
   8   4   1    9.39    0.65
  -9   4   1   61.27    3.06
   9  -4   1   63.38    3.29
   9   4  -1   62.61    3.06
  -9  -4  -1   62.56    3.19
   9   4  -1   66.23    3.09
   9  -4   1   60.22    3.06
   9   4   1   62.89    3.04
   9  -4  -1   62.65    3.28
  -9  -4   1   65.42    3.21
   9   4   1   61.71    3.07
   9  -4  -1   61.74    3.05
  -9   4  -1   60.83    3.06
   0  -5   1   45.72    2.31
   0  -5  -1   42.90    2.24
   0   5   1   50.50    2.25
   0  -5  -1   43.87    2.30
   0  -5  -1   43.76    2.21
   0   5  -1   45.41    2.24
   0   5  -1   43.71    2.23
   0   5   1   47.71    2.22
  -1   5   1  213.81   10.03
   1   5  -1  224.18   10.05
   1  -5   1  219.41   10.06
   1   5  -1  218.96   10.04
  -1   5   1  231.07   10.05
   1  -5   1  208.25   10.08
   1  -5   1  220.54   10.01
  -1  -5  -1  215.95   10.13
  -1  -5  -1  223.41   10.07
  -1   5  -1  219.29   10.05
   1  -5  -1  210.28   10.05
   1   5   1  223.79   10.05
   1  -5  -1  215.20   10.04
  -1  -5   1  217.43   10.13
   1   5   1  216.75   10.02
   1  -5  -1  215.07   10.09
  -1   5  -1  232.97   10.05
   2   5  -1   48.56    2.29
   2  -5   1   49.65    2.31
   2   5  -1   45.59    2.30
  -2   5   1   46.35    2.28
   2  -5   1   44.90    2.31
  -2  -5  -1   43.99    2.39
   2  -5   1   46.95    2.30
  -2   5  -1   47.24    2.31
   2   5   1   46.06    2.27
   2  -5  -1   44.44    2.29
  -2  -5   1   45.81    2.40
  -2   5  -1   49.76    2.30
   2  -5  -1   44.84    2.31
   2  -5  -1   45.22    2.32
   2   5   1   48.63    2.30
   3  -5   1  204.36    9.60
   3   5  -1  207.54    9.59
  -3  -5  -1  198.07    9.70
   3  -5   1  212.85    9.64
  -3   5   1  208.18    9.59
   3   5  -1  216.55    9.61
   3  -5   1  205.50    9.61
   3  -5  -1  213.28    9.66
   3  -5  -1  211.18    9.62
   3   5   1  213.49    9.60
  -3   5  -1  211.79    9.59
  -3   5  -1  206.35    9.61
  -3  -5   1  203.67    9.71
   3   5   1  210.40    9.58
   3  -5  -1  212.16    9.61
   4  -5   1   41.54    2.10
   4   5  -1   41.88    2.10
  -4  -5  -1   39.46    2.20
  -4   5   1   40.15    2.07
   4   5  -1   42.36    2.07
   4  -5   1   41.82    2.15
  -4   5  -1   38.37    2.09
   4   5   1   41.99    2.06
   4  -5  -1   41.76    2.18
  -4  -5   1   40.99    2.22
   4  -5  -1   43.53    2.10
   4   5   1   44.68    2.10
   5   5  -1  147.28    6.80
   5  -5   1  148.27    6.83
  -5   5   1  143.61    6.80
   5   5  -1  146.47    6.81
  -5  -5  -1  139.06    6.93
   5  -5   1  146.81    6.90
   5   5   1  150.97    6.78
  -5   5  -1  141.24    6.81
   5   5   1  154.01    6.82
   5  -5  -1  149.26    6.93
  -5  -5   1  140.81    6.93
   5  -5  -1  150.87    6.82
   6  -5   1   21.75    1.30
   6   5  -1   19.62    1.17
  -6  -5  -1   18.76    1.30
   6   5  -1   20.04    1.15
  -6   5   1   20.10    1.16
   6  -5   1   21.91    1.19
   6   5   1   23.42    1.20
   6  -5  -1   19.57    1.30
   6   5   1   21.57    1.15
   6  -5  -1   20.07    1.17
  -6   5  -1   18.71    1.17
  -6  -5   1   20.27    1.31
   7   5  -1   69.33    3.36
   7  -5   1   69.64    3.38
   7  -5   1   69.92    3.52
  -7   5   1   68.24    3.35
  -7  -5  -1   65.75    3.50
   7   5  -1   70.46    3.38
   7   5   1   73.18    3.35
   7  -5  -1   70.20    3.54
  -7   5  -1   67.57    3.37
  -7  -5   1   64.35    3.49
   7  -5  -1   71.87    3.38
   7   5   1   72.15    3.38
   8   5  -1    9.80    0.77
   8  -5   1    9.62    0.92
   8  -5   1   10.20    0.74
   8   5  -1   10.22    0.74
  -8  -5  -1    8.98    0.89
  -8   5   1    9.38    0.72
   8   5   1   10.34    0.73
   8   5   1   11.20    0.76
   8  -5  -1    9.57    0.72
  -8   5  -1    8.61    0.72
   8  -5  -1    9.73    0.93
  -8  -5   1    9.24    0.87
   0   6  -1   49.42    2.52
   0   6  -1   56.02    2.54
   0  -6   1   49.08    2.60
   0  -6  -1   52.06    2.62
   0   6   1   48.39    2.49
   1  -6   1  139.01    6.65
  -1   6   1  139.89    6.57
   1   6  -1  146.28    6.60
   1   6  -1  139.17    6.59
  -1  -6  -1  138.60    6.69
  -1   6  -1  153.03    6.61
  -1  -6   1  139.50    6.70
   1  -6  -1  140.04    6.66
   1   6   1  139.60    6.56
  -1   6  -1  140.48    6.59
   2  -6   1   33.44    1.81
  -2  -6  -1   34.26    1.89
  -2   6   1   31.91    1.74
   2   6  -1   35.73    1.76
   2   6  -1   34.23    1.77
   2  -6  -1   35.02    1.77
   2   6   1   33.87    1.73
   2   6   1   34.58    1.76
   2  -6  -1   34.49    1.81
   2  -6  -1   32.28    1.83
  -2  -6   1   30.77    1.87
  -2   6  -1   34.64    1.77
   3   6  -1   98.44    4.61
   3   6  -1  102.56    4.62
  -3   6   1   94.15    4.59
  -3  -6  -1   96.16    4.75
   3  -6  -1   99.22    4.66
   3   6   1   97.28    4.59
  -3   6  -1   91.87    4.61
   3   6   1  102.20    4.62
   3  -6  -1   97.31    4.62
  -3  -6   1   93.73    4.74
   4   6  -1   23.95    1.35
  -4   6   1   22.25    1.31
   4  -6   1   23.54    1.39
   4   6  -1   25.72    1.34
  -4  -6  -1   22.88    1.49
  -4  -6   1   22.52    1.47
   4   6   1   25.99    1.37
   4  -6  -1   25.81    1.37
   4   6   1   22.68    1.30
   4  -6  -1   25.94    1.43
  -4   6  -1   22.94    1.35
   5   6  -1   74.07    3.51
  -5   6   1   67.91    3.48
   5   6  -1   72.85    3.52
  -5  -6  -1   70.32    3.66
   5  -6   1   76.26    3.60
   5   6   1   72.62    3.48
  -5   6  -1   67.96    3.49
  -5  -6   1   67.86    3.64
   5  -6  -1   74.20    3.53
   5  -6  -1   73.60    3.63
   5   6   1   77.65    3.52
   6  -6   1   21.52    1.36
   6   6  -1   21.74    1.24
  -6  -6  -1   22.17    1.44
  -6   6   1   20.08    1.23
   6   6  -1   21.40    1.26
  -6   6  -1   21.57    1.26
   6   6   1   21.86    1.23
   6  -6  -1   23.17    1.27
   6   6   1   22.96    1.28
  -6  -6   1   20.62    1.42
   6  -6  -1   20.63    1.37
   7   6  -1   54.08    2.59
  -7  -6  -1   49.06    2.73
   7  -6   1   50.98    2.71
   7   6  -1   51.25    2.59
  -7   6   1   47.94    2.55
  -7   6  -1   50.05    2.58
   7  -6  -1   52.56    2.74
   7   6   1   51.94    2.59
  -7  -6   1   49.86    2.75
   7  -6  -1   52.12    2.59
   7   6   1   53.28    2.56
   0   7  -1   31.80    1.73
   0   7   1   32.16    1.70
   0  -7  -1   33.35    1.83
   0  -7   1   32.22    1.82
   1   7  -1   69.01    3.24
   1   7  -1   62.80    3.21
   1  -7   1   66.74    3.31
  -1   7   1   65.07    3.20
  -1  -7  -1   67.72    3.35
  -1   7  -1   62.18    3.21
  -1  -7   1   63.99    3.33
   1  -7  -1   68.54    3.32
   1   7   1   67.07    3.20
  -2   7   1   23.90    1.42
   2   7  -1   26.54    1.46
   2   7  -1   28.39    1.47
  -2  -7  -1   27.79    1.61
   2   7   1   24.40    1.42
  -2  -7   1   25.47    1.60
  -2   7  -1   26.25    1.47
  -3   7   1   64.64    3.26
   3   7  -1   65.84    3.27
   3   7  -1   72.73    3.32
  -3  -7  -1   68.65    3.44
   3   7   1   68.03    3.25
  -3  -7   1   66.49    3.43
  -3   7  -1   62.42    3.28
  -4  -7  -1   19.60    1.32
  -4   7   1   16.76    1.11
   4   7  -1   18.97    1.16
   4   7  -1   19.78    1.14
  -4   7  -1   18.06    1.15
   4   7   1   18.17    1.11
  -4  -7   1   17.86    1.30
   5   7  -1   43.75    2.24
  -5   7   1   40.10    2.19
   5   7  -1   43.40    2.23
  -5  -7  -1   44.26    2.42
   5   7   1   45.28    2.22
  -5   7  -1   42.10    2.23
   0   0   2  893.98   40.67
   0   0  -2  769.79   38.45
   0   0  -2  834.18   39.26
   0   0  -2  854.51   38.58
   1   0  -2    0.08    0.02
   1   0  -2    0.12    0.02
   1   0   2    0.08    0.04
   1   0  -2    0.05    0.06
   1   0  -2    0.08    0.04
   1   0  -2    0.06    0.04
   1   0   2    0.11    0.08
  -1   0  -2    0.08    0.04
  -2   0  -2  682.62   30.77
   2   0  -2  611.08   28.84
   2   0   2  570.97   28.57
   2   0   2  732.39   28.86
   2   0  -2  637.03   28.81
  -2   0  -2  628.62   30.22
   2   0  -2  635.07   30.09
   2   0  -2  592.55   28.70
  -2   0  -2  604.07   29.21
   3   0  -2    0.25    0.11
   3   0  -2    0.07    0.04
   3   0   2    0.10    0.11
   3   0   2    0.13    0.08
  -3   0  -2    0.05    0.06
   3   0  -2    0.09    0.04
  -3   0   2    0.42    0.09
   3   0  -2    0.08    0.07
  -3   0  -2    0.10    0.07
  -3   0  -2    0.05    0.07
   4   0  -2  505.37   24.50
  -4   0  -2  564.19   24.42
   4   0  -2  585.79   24.41
  -4   0   2  580.11   24.39
  -4   0  -2  576.92   24.41
   4   0  -2  510.51   24.27
  -4   0  -2  492.35   24.27
   4   0   2  510.03   24.59
   4   0   2  490.89   24.38
   4   0  -2  557.86   25.33
   5   0  -2    0.22    0.12
  -5   0  -2    0.15    0.11
   5   0   2    0.13    0.11
  -5   0  -2    0.25    0.12
   5   0  -2    0.08    0.07
  -5   0   2    0.23    0.12
   5   0  -2    0.00    0.14
  -5   0  -2    0.06    0.10
   5   0   2    0.41    0.19
   5   0  -2    0.15    0.08
   6   0  -2  431.00   19.67
   6   0   2  443.11   19.75
  -6   0  -2  441.71   19.61
   6   0   2  438.92   19.67
   6   0  -2  397.25   19.58
  -6   0  -2  468.92   19.62
   6   0  -2  456.25   19.67
  -6   0  -2  399.01   19.58
   6   0  -2  420.03   19.80
  -7   0  -2    0.09    0.14
   7   0   2    0.27    0.17
  -7   0  -2    0.08    0.15
   7   0  -2    0.10    0.22
   7   0   2    0.28    0.27
   7   0  -2    0.27    0.13
  -7   0   2    0.13    0.17
   8   0  -2  221.35   10.32
   8   0   2  221.36   10.19
   8   0  -2  231.83   10.13
   8   0   2  223.56   10.38
  -8   0  -2  211.79   10.16
  -8   0   2  224.11   10.19
  -9   0  -2    0.11    0.21
   9   0  -2   -0.05    0.27
   9   0  -2    0.13    0.17
  -9   0   2    0.26    0.24
   9   0   2    0.06    0.32
   9   0   2    0.51    0.23
  10   0  -2   80.99    4.02
  10   0   2   80.36    4.10
 -10   0  -2   82.00    3.83
  10   0   2   76.91    3.83
  10   0  -2   81.69    3.78
 -10   0   2   78.22    3.83
 -11   0  -2    0.40    0.28
  11   0   2   -0.09    0.42
  11   0   2    0.13    0.25
  11   0  -2    0.12    0.21
 -11   0   2    0.04    0.26
  11   0  -2    0.28    0.36
   0   1  -2  663.87   25.53
   0  -1   2  656.74   27.37
   0   1  -2  495.78   25.42
   0  -1  -2  503.93   25.60
   0   1  -2  517.67   26.67
   0   1  -2  599.17   26.93
   0  -1  -2  517.70   25.46
   1   1  -2    0.28    0.05
   1   1  -2    0.37    0.08
   1   1  -2    0.30    0.05
  -1  -1  -2    0.21    0.07
  -1  -1  -2    0.36    0.10
   1   1  -2    0.16    0.06
  -1   1  -2    0.48    0.08
   1  -1  -2    0.34    0.06
  -1   1  -2    0.36    0.07
   1  -1  -2    0.38    0.07
  -1   1  -2    0.23    0.06
   2   1  -2  648.59   30.63
   2  -1   2  650.18   30.01
  -2  -1  -2  736.17   30.07
   2   1  -2  645.30   30.57
  -2  -1  -2  667.69   29.90
   2  -1   2  627.59   29.90
   2   1  -2  681.68   31.70
  -2   1   2  705.65   31.72
   2  -1  -2  597.85   30.04
  -2  -1   2  701.47   30.01
  -2   1  -2  669.98   31.49
  -2   1  -2  615.96   31.60
  -2   1  -2  692.85   31.90
   2   1   2  659.99   30.54
   2   1   2  602.27   29.86
   2  -1  -2  672.88   30.67
  -3   1   2    6.72    0.44
   3   1  -2    8.82    0.42
   3   1  -2    8.58    0.43
  -3  -1  -2    8.76    0.51
   3  -1   2    8.47    0.47
   3   1  -2    8.85    0.48
  -3  -1  -2    9.19    0.47
   3  -1   2    7.39    0.51
  -3   1  -2    8.38    0.45
  -3   1  -2    8.08    0.43
   3   1   2    7.92    0.53
   3   1   2    7.63    0.46
  -3  -1   2    7.65    0.48
   3  -1  -2    8.87    0.54
   3   1   2    7.09    0.42
  -3   1  -2    8.56    0.46
   3  -1  -2    9.00    0.43
   3  -1  -2    8.52    0.43
   3  -1  -2    8.49    0.41
   4   1  -2  612.22   28.15
   4  -1   2  584.23   28.11
   4   1  -2  636.79   28.04
  -4  -1  -2  642.62   31.02
   4   1  -2  713.70   28.19
  -4  -1  -2  624.09   28.11
  -4   1   2  679.53   28.53
   4   1  -2  586.74   28.00
  -4   1   2  601.47   28.08
   4   1   2  597.99   28.02
  -4   1  -2  611.32   28.09
   4  -1  -2  582.69   28.19
  -4  -1   2  669.04   28.16
   4   1   2  585.08   28.14
  -4   1  -2  588.85   28.09
   4   1   2  650.06   28.39
   4  -1  -2  621.39   28.06
   4  -1  -2  570.74   27.99
  -4   1  -2  623.22   28.03
   5  -1   2    0.20    0.19
  -5   1   2    0.30    0.14
   5  -1   2    0.41    0.15
   5   1  -2    0.11    0.14
  -5   1   2    0.44    0.09
   5   1  -2    0.24    0.10
  -5  -1  -2    0.26    0.15
   5   1  -2    0.32    0.09
  -5  -1  -2    0.15    0.11
  -5   1  -2    0.25    0.12
   5  -1  -2    0.35    0.11
   5  -1  -2    0.21    0.08
  -5   1  -2    0.17    0.08
   5   1   2    0.25    0.11
  -5  -1   2    0.25    0.14
   5   1   2    0.33    0.13
  -5   1  -2    0.12    0.12
   5   1   2    0.38    0.18
  -6  -1  -2  363.76   16.23
   6  -1   2  382.66   16.41
   6   1  -2  358.88   16.24
   6  -1   2  365.05   16.25
  -6  -1  -2  376.55   16.28
  -6   1   2  373.61   16.24
   6   1  -2  331.61   16.18
   6   1  -2  355.07   16.31
   6   1  -2  367.35   16.20
   6   1   2  373.81   16.25
   6   1   2  370.54   16.30
   6  -1  -2  364.52   16.28
   6  -1  -2  343.58   16.36
  -6   1  -2  333.48   16.22
   6  -1  -2  309.62   16.18
   6   1   2  359.78   16.37
  -6   1  -2  347.85   16.21
  -6   1  -2  367.79   16.23
  -7   1   2    2.56    0.32
   7  -1   2    2.63    0.46
   7   1  -2    2.08    0.30
   7  -1   2    2.10    0.28
  -7  -1  -2    2.29    0.32
   7   1  -2    1.84    0.34
   7   1  -2    1.90    0.24
  -7  -1  -2    2.08    0.28
   7  -1  -2    1.89    0.38
   7   1   2    2.21    0.40
  -7   1  -2    1.79    0.28
  -7  -1   2    2.78    0.36
   7   1   2    2.57    0.32
   7  -1  -2    1.78    0.23
   8   1  -2  180.76    8.11
   8  -1   2  177.02    8.17
  -8  -1  -2  188.24    8.18
  -8   1   2  176.07    8.16
  -8  -1  -2  174.87    8.15
   8   1  -2  173.08    8.16
   8  -1   2  177.74    8.37
   8   1  -2  173.30    8.26
   8  -1  -2  179.63    8.33
   8   1   2  174.93    8.17
  -8   1  -2  176.44    8.16
   8   1   2  175.17    8.35
   8  -1  -2  178.59    8.11
   9   1  -2    0.72    0.27
   9  -1   2    0.52    0.37
  -9   1   2    0.55    0.26
   9   1  -2    0.62    0.20
  -9  -1  -2    0.74    0.25
   9  -1   2    0.50    0.24
   9   1  -2    0.47    0.30
   9  -1  -2    0.58    0.20
   9   1   2    0.54    0.24
  -9   1  -2    0.63    0.25
   9   1   2    0.32    0.33
   9  -1  -2    0.96    0.36
  10   1  -2   91.53    4.26
 -10  -1  -2   89.37    4.31
  10   1  -2   91.23    4.48
  10  -1   2   88.61    4.59
 -10   1   2   92.48    4.33
  10  -1   2   88.55    4.33
  10  -1  -2   92.79    4.54
  10   1   2   89.97    4.57
 -10   1  -2   92.85    4.32
 -10  -1   2   90.09    4.34
  10  -1  -2   95.11    4.28
  10   1   2   88.24    4.33
 -11   1   2    0.51    0.29
 -11  -1  -2   -0.11    0.26
  11  -1   2    0.34    0.26
  11  -1   2    0.29    0.45
  11   1  -2    0.12    0.22
  11   1   2    0.03    0.40
  11   1   2    0.13    0.26
 -11   1  -2    0.20    0.27
  11  -1  -2    0.37    0.40
 -11  -1   2    0.13    0.30
  11  -1  -2    0.32    0.23
   0  -2  -2  536.50   27.06
   0  -2   2  654.37   27.02
   0  -2   2  612.78   27.16
   0   2  -2  580.20   26.99
   0  -2   2  596.53   28.01
   0   2   2  626.27   27.06
   0  -2  -2  643.27   27.12
   0   2  -2  539.34   26.99
   0  -2  -2  535.71   27.10
   0   2   2  652.57   28.92
   1   2  -2    3.11    0.25
   1   2  -2    3.35    0.24
  -1   2   2    3.72    0.24
  -1  -2  -2    3.64    0.28
   1  -2   2    4.06    0.26
   1   2  -2    3.20    0.23
   1  -2   2    4.12    0.27
  -1   2   2    3.86    0.25
  -1  -2  -2    3.21    0.30
   1  -2  -2    3.26    0.25
   1   2   2    3.90    0.23
  -1   2  -2    2.94    0.24
  -1   2  -2    3.63    0.27
   1  -2  -2    3.39    0.27
   1   2   2    4.30    0.32
  -1  -2   2    4.11    0.20
  -1   2  -2    3.42    0.24
   1   2   2    4.06    0.26
  -2  -2  -2  436.96   21.59
  -2   2   2  533.41   21.64
  -2  -2  -2  464.33   21.59
   2   2  -2  441.12   21.60
   2   2  -2  461.07   21.58
   2   2  -2  499.97   21.68
   2  -2   2  465.08   21.75
   2  -2   2  492.18   21.64
   2  -2  -2  403.06   21.57
  -2   2  -2  491.37   21.64
   2   2   2  541.72   21.59
  -2  -2   2  513.72   21.77
   2  -2  -2  474.61   21.62
   2  -2  -2  416.37   21.62
  -2   2  -2  433.09   21.57
  -2   2  -2  473.72   21.64
   2   2   2  545.13   21.90
   2   2   2  495.05   21.66
   3  -2   2   23.91    1.36
  -3   2   2   22.66    1.29
   3   2  -2   29.91    1.30
  -3  -2  -2   28.02    1.33
   3   2  -2   29.72    1.27
   3   2  -2   28.27    1.32
  -3  -2  -2   28.47    1.40
   3   2  -2   26.75    1.28
   3  -2   2   25.84    1.32
   3  -2  -2   29.37    1.30
  -3   2  -2   29.20    1.31
   3   2   2   24.82    1.38
   3  -2  -2   24.71    1.29
  -3  -2   2   24.14    1.35
   3  -2  -2   26.73    1.26
  -3   2  -2   29.57    1.34
   3   2   2   22.50    1.26
   3  -2  -2   28.24    1.40
  -3   2  -2   28.76    1.27
   3   2   2   23.32    1.30
   4  -2   2  381.01   17.53
   4   2  -2  363.84   16.73
   4   2  -2  350.07   16.80
  -4  -2  -2  379.23   16.81
   4  -2   2  392.24   16.86
   4   2  -2  374.21   16.76
   4   2  -2  358.33   16.80
  -4   2   2  380.22   16.83
  -4  -2  -2  373.39   16.85
   4  -2  -2  367.58   16.92
   4  -2  -2  329.05   16.68
   4  -2  -2  361.60   16.77
  -4   2  -2  372.32   16.77
  -4   2  -2  371.98   17.87
   4  -2  -2  323.00   16.72
   4   2   2  384.17   16.78
   4   2   2  403.30   16.99
  -4  -2   2  402.30   16.87
   4   2   2  374.41   16.85
  -4   2  -2  361.51   16.79
   5   2  -2   12.96    0.68
   5   2  -2   13.31    0.72
   5  -2   2   13.07    0.83
   5  -2   2   12.58    0.72
  -5   2   2   11.92    0.70
  -5  -2  -2   11.67    0.78
  -5  -2  -2   13.30    0.73
   5   2  -2   12.45    0.68
   5   2   2   12.21    0.72
   5  -2  -2   12.60    0.68
   5  -2  -2   13.49    0.69
   5   2   2   11.52    0.67
  -5  -2   2   12.92    0.78
  -5   2  -2   13.09    0.71
  -5   2  -2   12.51    0.72
  -5   2  -2   12.88    0.63
   5   2   2   11.98    0.79
  -6  -2  -2  279.39   13.83
   6  -2   2  326.35   13.94
   6   2  -2  289.52   13.79
   6   2  -2  301.60   13.78
   6   2  -2  291.93   13.73
  -6   2   2  317.41   13.78
   6  -2   2  316.22   13.79
   6   2   2  316.91   13.79
  -6   2  -2  301.02   13.76
  -6   2  -2  276.15   13.76
   6  -2  -2  294.38   13.91
  -6  -2   2  316.59   13.84
   6   2   2  314.00   13.73
   6   2   2  303.81   13.89
   6  -2  -2  298.31   13.74
   7  -2   2    3.81    0.51
   7   2  -2    2.43    0.29
  -7   2   2    3.30    0.37
   7   2  -2    2.73    0.37
  -7  -2  -2    1.98    0.36
   7   2  -2    2.88    0.36
   7  -2  -2    2.47    0.29
  -7  -2   2    3.62    0.44
   7   2   2    3.47    0.35
   7  -2  -2    2.78    0.48
  -7   2  -2    2.49    0.33
   7   2   2    2.84    0.44
   7   2   2    2.81    0.31
   8  -2   2  150.64    7.15
  -8  -2  -2  153.20    7.21
   8   2  -2  150.05    7.15
   8  -2   2  160.43    7.37
   8   2  -2  152.97    7.10
  -8   2   2  153.18    7.14
   8  -2  -2  152.87    7.11
   8   2   2  158.21    7.17
   8  -2  -2  155.06    7.33
  -8  -2   2  170.31    7.23
   8   2   2  151.51    7.31
  -8   2  -2  149.05    7.14
   8   2   2  152.50    7.10
  -9  -2  -2    2.45    0.42
   9  -2   2    2.61    0.38
   9   2  -2    2.66    0.34
   9   2  -2    2.68    0.39
   9  -2   2    1.60    0.49
  -9   2   2    2.17    0.36
   9  -2  -2    2.49    0.32
  -9   2  -2    2.67    0.38
   9   2   2    2.06    0.46
   9   2   2    1.49    0.30
   9   2   2    2.21    0.37
   9  -2  -2    2.40    0.51
 -10  -2  -2   61.46    3.03
  10  -2   2   62.30    3.31
  10  -2   2   59.32    3.02
  10   2  -2   63.77    2.98
 -10   2   2   61.45    3.03
  10   2  -2   58.55    3.02
  10   2   2   61.32    3.25
  10   2   2   65.21    3.06
 -10   2  -2   63.88    3.03
  10  -2  -2   62.15    3.25
  10  -2  -2   61.34    2.98
  11   2  -2    1.83    0.33
  11  -2   2    1.83    0.59
  11   2  -2    2.09    0.43
  11  -2   2    2.07    0.40
 -11  -2  -2    1.63    0.38
 -11   2   2    1.78    0.39
 -11   2  -2    1.49    0.37
  11  -2  -2    1.69    0.51
  11   2   2    2.09    0.41
  11  -2  -2    2.33    0.37
   0   3  -2  506.78   23.87
   0  -3  -2  492.30   23.86
   0  -3   2  561.40   23.90
   0  -3  -2  521.17   23.96
   0   3   2  531.56   23.87
   0   3  -2  519.07   23.92
   0  -3   2  552.06   23.85
   0  -3  -2  499.81   23.96
   0   3   2  551.62   23.90
   0  -3   2  523.01   23.96
   1  -3   2  115.53    5.04
  -1  -3  -2  102.92    5.12
   1   3  -2  104.90    5.04
   1  -3   2  116.16    5.09
  -1   3   2  117.17    5.04
  -1   3   2  110.24    5.04
   1  -3   2  111.82    5.05
  -1  -3  -2  106.57    5.08
  -1  -3   2  109.88    5.05
   1   3   2  114.59    5.05
   1   3   2  117.51    5.03
   1  -3  -2  107.08    5.09
  -1  -3   2  112.67    5.12
   1   3   2  109.24    5.10
   1  -3  -2  100.67    5.09
  -1  -3   2  112.68    4.94
  -1   3  -2  106.71    5.05
  -1   3  -2  107.38    5.06
   1  -3  -2   98.32    5.04
   2   3  -2  463.59   22.19
   2  -3   2  502.53   22.31
   2   3  -2  515.06   22.36
  -2  -3  -2  488.53   22.34
  -2   3   2  515.35   22.33
  -2   3   2  510.80   22.31
   2   3  -2  490.09   22.25
   2  -3   2  484.45   22.24
  -2  -3  -2  467.30   22.26
   2  -3   2  482.55   22.39
   2  -3  -2  508.78   22.30
   2  -3  -2  456.97   22.40
  -2  -3   2  476.76   22.26
   2   3   2  497.28   22.31
  -2   3  -2  490.49   22.27
   2   3   2  500.70   22.31
   2  -3  -2  450.67   22.32
   2   3   2  535.03   22.31
   3  -3   2   31.21    1.58
  -3  -3  -2   34.53    1.65
  -3   3   2   30.15    1.58
   3  -3   2   31.61    1.65
   3   3  -2   33.06    1.61
   3  -3   2   32.38    1.61
   3   3  -2   33.03    1.58
   3   3  -2   36.14    1.61
  -3  -3  -2   32.61    1.70
  -3   3   2   32.51    1.58
  -3   3  -2   36.67    1.64
  -3   3  -2   33.67    1.60
   3   3   2   30.20    1.65
   3  -3  -2   31.85    1.57
   3  -3  -2   33.22    1.69
   3  -3  -2   35.12    1.60
  -3  -3   2   29.36    1.66
   3   3   2   30.09    1.56
   3   3   2   31.69    1.60
   4  -3   2  389.99   17.21
   4  -3   2  374.69   17.27
   4  -3   2  379.65   17.21
  -4  -3  -2  385.99   17.23
   4   3  -2  384.11   18.50
  -4   3   2  372.61   17.63
   4   3  -2  391.48   17.20
  -4  -3  -2  365.94   17.29
   4  -3  -2  346.45   17.12
  -4   3  -2  386.27   17.18
  -4  -3   2  389.38   17.28
   4   3   2  376.55   17.18
  -4   3  -2  371.36   17.21
   4  -3  -2  376.47   17.22
   4   3   2  377.44   17.25
   4  -3  -2  380.98   17.30
   4   3   2  395.87   17.20
  -5  -3  -2   29.80    1.49
   5  -3   2   31.39    1.40
  -5  -3  -2   27.77    1.55
   5   3  -2   27.99    1.41
   5  -3   2   28.39    1.56
   5  -3   2   30.04    1.47
   5   3  -2   26.03    1.45
  -5   3   2   28.19    1.44
  -5   3  -2   25.82    1.45
  -5  -3   2   27.39    1.52
   5   3   2   28.99    1.40
   5   3   2   27.77    1.51
  -5   3  -2   28.78    1.43
   5   3   2   28.68    1.45
   5  -3  -2   28.88    1.43
   5  -3  -2   29.22    1.58
   6  -3   2  241.26   10.94
  -6  -3  -2  225.66   10.89
   6  -3   2  242.39   10.81
   6   3  -2  230.86   10.79
  -6   3   2  233.68   10.77
   6   3  -2  234.63   10.76
   6  -3  -2  232.39   10.76
   6   3   2  242.47   10.80
  -6   3  -2  229.04   10.79
  -6  -3   2  240.43   10.88
   6   3   2  243.20   10.74
   6   3   2  229.18   10.87
   6  -3  -2  242.62   10.95
   7   3  -2   22.41    1.29
   7  -3   2   25.92    1.48
   7  -3   2   25.96    1.31
  -7  -3  -2   21.65    1.38
  -7   3   2   25.16    1.29
   7   3  -2   22.89    1.25
   7   3   2   23.53    1.39
   7  -3  -2   24.49    1.46
   7   3   2   24.11    1.30
  -7   3  -2   22.52    1.28
   7   3   2   25.75    1.26
  -7  -3   2   24.29    1.40
   7  -3  -2   24.62    1.26
   8   3  -2  122.80    5.84
   8  -3   2  125.36    5.89
  -8  -3  -2  121.56    5.97
  -8   3   2  126.63    5.88
   8   3  -2  123.25    5.88
   8  -3   2  126.70    6.09
   8  -3  -2  128.06    5.85
   8   3   2  125.65    5.83
  -8  -3   2  130.68    5.98
  -8   3  -2  126.05    5.88
   8  -3  -2  127.08    6.07
   8   3   2  128.04    5.89
   9   3  -2    6.20    0.59
  -9   3   2    5.77    0.56
  -9  -3  -2    6.01    0.66
   9  -3   2    5.62    0.54
   9  -3   2    5.50    0.77
   9   3  -2    6.08    0.51
  -9  -3   2    5.51    0.66
   9  -3  -2    5.90    0.73
   9   3   2    6.03    0.56
   9   3   2    6.16    0.52
  -9   3  -2    6.87    0.59
   9  -3  -2    6.00    0.50
 -10  -3  -2   62.11    3.02
  10   3  -2   58.83    2.91
 -10   3   2   56.37    2.89
  10   3  -2   61.00    2.87
  10  -3   2   54.26    2.89
  10  -3   2   55.23    3.15
  10  -3  -2   58.38    2.86
  10  -3  -2   60.07    3.15
  10   3   2   59.52    2.86
 -10   3  -2   60.38    2.91
  10   3   2   60.45    2.93
   0  -4  -2  405.96   18.65
   0   4   2  414.80   18.60
   0  -4   2  386.64   18.63
   0   4   2  408.38   18.58
   0   4  -2  409.36   18.59
   0  -4  -2  402.32   18.60
   0   4  -2  425.42   18.62
   0  -4   2  419.62   18.59
   0  -4   2  421.63   18.58
   0  -4  -2  402.85   18.59
  -1  -4  -2   39.02    2.25
  -1  -4  -2   41.56    2.20
   1   4  -2   41.85    2.17
   1  -4   2   51.10    2.18
   1  -4   2   52.79    2.21
  -1   4   2   47.62    2.18
   1  -4   2   47.95    2.24
   1   4  -2   40.93    2.19
  -1   4   2   48.47    2.17
   1  -4  -2   40.26    2.22
   1   4   2   49.09    2.24
   1  -4  -2   38.99    2.18
   1  -4  -2   39.14    2.20
  -1   4  -2   48.38    2.20
   1   4   2   48.92    2.17
  -1  -4   2   46.11    2.27
   1   4   2   48.43    2.19
  -1   4  -2   41.02    2.19
   2  -4   2  380.20   17.19
   2   4  -2  392.19   17.21
  -2   4   2  381.57   17.16
  -2   4   2  404.52   17.18
   2  -4   2  378.71   17.19
   2   4  -2  380.36   17.20
   2  -4   2  376.59   17.20
  -2  -4  -2  358.68   17.27
  -2  -4  -2  390.50   17.23
   2   4   2  391.61   17.21
   2  -4  -2  356.06   17.17
  -2  -4   2  367.27   17.27
  -2   4  -2  374.51   17.20
   2  -4  -2  394.46   17.22
   2  -4  -2  358.95   17.23
   2   4   2  388.46   17.18
  -2   4  -2  389.23   17.18
   2   4   2  350.06   17.20
   3  -4   2   48.47    2.36
  -3  -4  -2   49.02    2.40
   3   4  -2   47.45    2.33
   3  -4   2   48.62    2.37
   3  -4   2   48.07    2.40
  -3   4   2   47.74    2.35
   3   4  -2   50.01    2.38
  -3  -4  -2   47.62    2.47
   3   4   2   47.22    2.39
  -3  -4   2   48.90    2.46
   3  -4  -2   50.56    2.45
   3   4   2   47.33    2.31
  -3   4  -2   50.21    2.35
   3  -4  -2   46.14    2.35
   3  -4  -2   49.57    2.36
   3   4   2   50.72    2.37
  -3   4  -2   49.83    2.38
   4  -4   2  293.54   13.75
  -4   4   2  299.05   13.67
   4  -4   2  303.86   13.66
  -4  -4  -2  292.26   13.80
   4   4  -2  303.31   13.70
   4   4  -2  300.49   13.66
   4  -4   2  314.83   13.71
   4   4   2  308.80   13.64
  -4   4  -2  295.27   13.66
   4   4   2  297.90   13.72
   4  -4  -2  301.71   13.79
   4  -4  -2  295.24   13.68
  -4  -4   2  288.73   13.77
   4   4   2  310.11   13.69
  -4   4  -2  300.03   13.70
   5  -4   2   28.59    1.47
  -5  -4  -2   26.16    1.57
   5  -4   2   28.47    1.57
   5   4  -2   28.19    1.43
   5   4  -2   27.12    1.47
  -5   4   2   28.12    1.45
  -5   4  -2   27.03    1.48
   5  -4  -2   29.20    1.60
   5   4   2   28.38    1.41
  -5  -4   2   26.40    1.56
   5  -4  -2   29.44    1.46
   5   4   2   29.45    1.47
  -6   4   2  175.66    8.28
   6  -4   2  185.92    8.45
   6   4  -2  179.01    8.31
   6  -4   2  183.96    8.32
   6   4  -2  177.07    8.27
  -6  -4  -2  168.39    8.41
   6  -4  -2  182.52    8.46
   6   4   2  190.47    8.26
  -6  -4   2  173.47    8.40
   6  -4  -2  186.70    8.30
   6   4   2  186.56    8.32
  -6   4  -2  171.64    8.31
   7   4  -2    9.75    0.68
   7   4  -2    9.29    0.71
   7  -4   2   12.08    0.90
   7  -4   2   10.99    0.73
  -7   4   2   11.64    0.73
  -7  -4  -2    9.18    0.83
  -7   4  -2    9.10    0.72
  -7  -4   2   11.05    0.87
   7   4   2   11.42    0.68
   7  -4  -2    9.72    0.68
   7   4   2   11.67    0.74
   7  -4  -2   10.01    0.90
  -8   4   2   83.99    4.06
   8  -4   2   81.61    4.08
   8   4  -2   82.37    4.05
   8   4  -2   87.85    4.10
  -8  -4  -2   79.93    4.18
   8  -4   2   85.25    4.27
   8  -4  -2   84.29    4.05
  -8  -4   2   84.26    4.18
   8  -4  -2   88.05    4.29
  -8   4  -2   82.98    4.07
   8   4   2   92.71    4.11
   8   4   2   91.11    4.04
  -9   4   2    6.21    0.61
   9  -4   2    5.96    0.58
   9   4  -2    6.04    0.55
   9  -4   2    5.84    0.79
  -9  -4  -2    6.24    0.70
   9   4  -2    7.26    0.65
   9   4   2    6.88    0.60
   9  -4  -2    5.86    0.54
  -9  -4   2    6.36    0.74
   9   4   2    6.10    0.55
   9  -4  -2    5.92    0.80
  -9   4  -2    6.81    0.62
   0  -5  -2  267.77   12.07
   0   5  -2  253.92   11.98
   0  -5  -2  267.55   11.98
   0   5  -2  275.84   11.98
   0   5   2  257.42   11.94
   0  -5   2  250.71   12.04
   0  -5  -2  261.19   11.99
   1   5  -2   38.18    2.00
  -1  -5  -2   40.39    2.12
   1  -5   2   41.13    2.08
  -1   5   2   43.01    2.00
  -1  -5  -2   39.71    2.03
   1   5  -2   40.62    2.03
   1  -5  -2   38.65    2.04
   1  -5  -2   38.54    2.07
  -1  -5   2   39.63    2.11
  -1   5  -2   38.52    2.02
   1   5   2   41.15    2.01
   1   5   2   42.89    1.99
  -1   5  -2   42.43    2.03
   1  -5  -2   39.71    2.02
   1   5   2   41.44    2.05
   2  -5   2  220.54   10.31
   2   5  -2  238.82   10.33
  -2  -5  -2  240.18   10.37
   2   5  -2  229.01   10.34
   2  -5   2  209.27   10.34
  -2  -5  -2  227.37   10.44
  -2   5   2  210.55   10.28
   2  -5  -2  219.18   10.36
   2   5   2  220.44   10.28
  -2   5  -2  240.72   10.33
   2   5   2  232.97   10.33
  -2   5  -2  232.06   10.35
   2  -5  -2  219.04   10.32
  -2  -5   2  204.38   10.40
   2  -5  -2  233.62   10.37
   3   5  -2   21.94    1.21
  -3   5   2   20.41    1.16
   3  -5   2   21.11    1.19
  -3  -5  -2   20.76    1.31
   3   5  -2   22.77    1.18
   3  -5   2   21.47    1.21
  -3   5  -2   23.36    1.18
   3  -5  -2   21.54    1.25
   3   5   2   21.28    1.14
  -3  -5   2   19.17    1.27
   3   5   2   21.59    1.19
  -3   5  -2   22.65    1.22
   3  -5  -2   22.58    1.19
   4  -5   2  154.26    7.34
   4   5  -2  159.83    7.31
   4   5  -2  160.61    7.27
  -4   5   2  151.26    7.26
  -4  -5  -2  154.57    7.42
   4  -5  -2  162.78    7.30
   4   5   2  156.20    7.24
   4  -5  -2  163.02    7.40
   4   5   2  162.37    7.30
  -4  -5   2  145.31    7.39
  -4   5  -2  160.71    7.31
   5  -5   2   21.90    1.27
  -5  -5  -2   20.33    1.32
   5   5  -2   20.35    1.20
  -5   5   2   20.81    1.16
   5   5  -2   21.40    1.16
   5   5   2   21.78    1.19
   5  -5  -2   21.24    1.18
   5  -5  -2   22.11    1.33
  -5   5  -2   18.38    1.17
   5   5   2   21.42    1.13
  -5  -5   2   19.85    1.30
   6  -5   2  107.96    5.22
  -6  -5  -2  100.38    5.22
  -6   5   2  101.58    5.07
   6   5  -2  108.68    5.08
   6   5  -2  110.31    5.13
   6  -5  -2  112.36    5.27
   6   5   2  112.22    5.06
   6  -5  -2  113.32    5.11
   6   5   2  112.21    5.12
  -6  -5   2  105.54    5.24
  -6   5  -2  106.71    5.11
  -7  -5  -2   13.47    1.05
   7  -5   2   14.61    1.08
  -7   5   2   14.53    0.91
   7   5  -2   14.16    0.95
   7   5  -2   14.04    0.89
  -7   5  -2   14.35    0.93
  -7  -5   2   14.23    1.06
   7  -5  -2   14.40    0.91
   7   5   2   14.96    0.89
   7  -5  -2   15.16    1.11
   7   5   2   15.60    0.94
   8   5  -2   61.19    2.97
   8   5  -2   57.83    2.99
  -8  -5  -2   58.36    3.11
  -8   5   2   57.73    2.95
   8  -5   2   60.84    3.15
   8   5   2   64.68    3.01
  -8   5  -2   59.95    2.98
   8  -5  -2   63.11    3.19
  -8  -5   2   58.19    3.11
   8  -5  -2   60.02    2.97
   8   5   2   62.46    2.94
   0  -6   2  104.44    5.07
   0  -6  -2  105.74    5.08
   0   6  -2  102.64    4.99
   0  -6  -2  105.97    5.00
   0   6   2  105.15    4.95
   0   6  -2  110.94    4.99
   1   6  -2   25.53    1.41
   1   6  -2   25.75    1.40
  -1  -6  -2   25.02    1.50
  -1   6   2   26.11    1.38
   1  -6   2   25.34    1.46
  -1   6  -2   25.79    1.42
   1   6   2   26.51    1.37
  -1   6  -2   27.58    1.40
  -1  -6   2   24.99    1.50
   1  -6  -2   26.18    1.48
   1  -6  -2   24.32    1.40
   2  -6   2  105.74    5.23
  -2   6   2  110.66    5.17
  -2  -6  -2  110.95    5.33
   2   6  -2  112.00    5.21
   2   6  -2  111.37    5.20
   2  -6  -2  111.32    5.22
   2  -6  -2  110.88    5.26
   2  -6  -2  109.14    5.23
  -2   6  -2  108.57    5.21
  -2   6  -2  113.31    5.20
   2   6   2  113.15    5.17
  -2  -6   2  108.78    5.32
  -3  -6  -2   25.37    1.46
   3   6  -2   23.10    1.30
  -3   6   2   21.11    1.25
   3   6  -2   24.48    1.29
  -3   6  -2   24.76    1.33
   3  -6  -2   24.34    1.36
   3  -6  -2   23.96    1.30
   3   6   2   22.03    1.24
  -3  -6   2   18.60    1.38
   4   6  -2   90.27    4.30
  -4   6   2   88.79    4.28
   4   6  -2   89.94    4.34
  -4  -6  -2   89.09    4.45
  -4   6  -2   84.88    4.32
   4  -6  -2   90.12    4.32
   4   6   2   97.04    4.28
  -4  -6   2   88.90    4.46
   4  -6  -2   94.54    4.42
  -5   6   2   14.41    0.93
  -5  -6  -2   14.73    1.11
   5   6  -2   14.98    0.94
   5  -6   2   14.92    1.02
   5   6  -2   15.75    1.00
   5  -6  -2   15.90    1.09
  -5   6  -2   15.28    0.98
   5  -6  -2   15.15    0.96
   5   6   2   15.34    0.91
  -5  -6   2   13.57    1.11
   6   6  -2   51.14    2.61
  -6   6   2   48.43    2.54
   6  -6   2   52.77    2.69
  -6  -6  -2   47.76    2.71
   6   6  -2   49.48    2.55
   6   6   2   58.39    2.63
  -6  -6   2   49.39    2.73
   6  -6  -2   53.32    2.59
   6   6   2   52.35    2.53
   6  -6  -2   53.40    2.74
  -6   6  -2   48.35    2.57
  -7  -6  -2    8.18    0.87
   7  -6   2    8.56    0.83
   7   6  -2    8.22    0.74
  -7   6   2    8.99    0.71
   7   6  -2    9.29    0.71
   7   6   2    9.70    0.73
   7   6   2    9.06    0.68
  -7  -6   2    8.72    0.92
   7  -6  -2    8.04    0.69
   7  -6  -2    8.95    0.90
  -7   6  -2    7.04    0.70
   0   7  -2   60.60    3.08
   0  -7   2   58.92    3.17
   0   7  -2   68.44    3.10
   0   7   2   59.30    3.02
   0  -7  -2   65.56    3.18
  -1   7   2   23.00    1.32
  -1  -7  -2   24.13    1.48
   1   7  -2   23.54    1.38
   1  -7   2   21.40    1.42
   1   7  -2   26.57    1.39
  -1  -7   2   23.29    1.49
   1  -7  -2   26.15    1.47
  -1   7  -2   23.97    1.38
   1   7   2   24.22    1.33
  -2  -7  -2   58.22    2.83
   2   7  -2   56.64    2.68
  -2   7   2   50.45    2.63
   2   7  -2   50.66    2.67
   2   7   2   52.32    2.62
  -2  -7   2   50.29    2.81
  -2   7  -2   54.75    2.70
   3   7  -2   22.08    1.21
   3   7  -2   19.70    1.22
  -3   7   2   18.99    1.16
  -3  -7  -2   21.64    1.37
  -3   7  -2   19.01    1.23
   3   7   2   19.88    1.15
  -3  -7   2   19.40    1.36
   4   7  -2   39.69    2.07
  -4   7   2   37.26    2.00
   4   7  -2   39.80    2.04
  -4  -7  -2   38.04    2.20
   4   7   2   39.89    2.01
   4  -7  -2   41.73    2.08
  -4  -7   2   38.11    2.22
  -4   7  -2   38.03    2.06
   0   0  -3    0.08    0.03
   0   0  -3    0.08    0.04
   0   0  -3    0.03    0.04
   0   0   3    0.29    0.12
   0   0  -3    0.02    0.06
   1   0  -3  641.01   30.73
   1   0  -3  627.58   29.14
  -1   0  -3  659.91   29.28
   1   0  -3  594.85   28.90
   1   0  -3  574.87   29.11
  -1   0  -3  706.85   31.28
  -1   0  -3  589.60   29.01
  -1   0  -3  699.08   28.76
  -2   0  -3    0.01    0.06
  -2   0  -3    0.06    0.07
  -2   0  -3    0.09    0.05
   2   0  -3    0.21    0.11
   2   0   3    0.07    0.07
   2   0  -3    0.17    0.08
   2   0   3    0.10    0.11
   2   0  -3    0.05    0.06
  -3   0  -3  730.85   30.12
   3   0   3  719.39   30.27
   3   0  -3  668.98   30.03
  -3   0  -3  637.23   29.95
   3   0  -3  638.31   30.15
  -3   0  -3  685.26   32.34
   3   0  -3  639.99   30.19
   3   0  -3  617.34   30.20
   3   0   3  627.46   32.14
  -4   0  -3    0.14    0.09
  -4   0  -3    0.15    0.10
   4   0  -3    0.06    0.05
   4   0  -3    0.15    0.14
   4   0   3    0.08    0.10
   4   0   3    0.34    0.18
   4   0  -3    0.12    0.05
  -4   0  -3    0.09    0.11
  -4   0   3    0.18    0.10
   4   0  -3    0.22    0.11
   5   0  -3  465.77   22.10
   5   0  -3  467.97   21.83
   5   0   3  466.67   21.86
   5   0  -3  483.35   21.85
  -5   0   3  538.91   21.96
  -5   0  -3  455.45   21.87
   5   0  -3  495.55   21.85
  -5   0  -3  501.59   21.92
   5   0   3  475.69   22.04
  -5   0  -3  480.73   21.92
  -6   0  -3    0.23    0.14
   6   0  -3    0.15    0.08
  -6   0  -3    0.18    0.13
   6   0  -3    0.17    0.15
   6   0  -3    0.32    0.20
   6   0   3    0.18    0.14
   6   0  -3    0.29    0.10
   6   0   3    0.34    0.23
  -6   0  -3    0.07    0.14
  -6   0   3    0.44    0.15
   7   0  -3  246.45   11.81
  -7   0  -3  243.25   11.67
  -7   0   3  262.44   11.70
   7   0   3  252.95   11.71
  -7   0  -3  272.15   11.67
   7   0  -3  258.73   11.66
   7   0   3  259.21   11.89
   8   0   3    0.20    0.19
  -8   0   3    0.10    0.21
   8   0   3    0.28    0.30
   8   0  -3    0.59    0.29
  -8   0  -3    0.17    0.18
   8   0  -3    0.48    0.15
   9   0  -3  147.29    6.55
   9   0   3  137.47    6.87
  -9   0   3  141.60    6.64
  -9   0  -3  141.96    6.61
   9   0  -3  144.60    6.79
   9   0   3  143.81    6.65
  10   0  -3    0.18    0.32
 -10   0   3    0.03    0.26
  10   0   3    0.05    0.39
  10   0   3    0.29    0.25
  10   0  -3    0.03    0.17
 -10   0  -3    0.19    0.23
  11   0   3   60.30    3.24
  11   0   3   57.76    2.90
 -11   0   3   56.28    2.88
 -11   0  -3   58.50    2.88
  11   0  -3   58.91    3.09
  11   0  -3   59.24    2.80
   0   1  -3    9.73    0.47
   0   1  -3    8.85    0.47
   0  -1  -3    9.31    0.48
   0  -1  -3    9.22    0.51
   0   1  -3   10.49    0.47
   0  -1  -3    8.24    0.47
   0  -1  -3    8.74    0.56
   0   1  -3    9.32    0.50
  -1  -1  -3  447.48   21.52
   1   1  -3  478.67   21.53
   1  -1   3  546.69   21.76
   1   1  -3  532.70   21.54
   1   1  -3  415.63   21.43
   1   1  -3  447.01   22.19
  -1   1   3  544.67   21.48
   1  -1  -3  489.33   21.57
   1  -1  -3  407.17   21.45
  -1   1  -3  418.00   21.46
  -1   1  -3  468.00   21.49
   1   1   3  472.81   21.47
   1  -1  -3  444.66   21.68
   1   1   3  521.89   21.70
  -1   1  -3  483.72   21.57
  -2  -1  -3    2.12    0.19
   2   1  -3    1.86    0.12
   2   1  -3    1.74    0.17
   2   1  -3    2.06    0.12
   2   1  -3    2.14    0.20
   2   1  -3    1.95    0.19
  -2   1  -3    2.07    0.17
  -2   1  -3    1.66    0.16
   2  -1  -3    1.83    0.15
   2  -1  -3    1.70    0.23
  -2   1  -3    1.98    0.16
   2  -1  -3    1.69    0.16
   2  -1  -3    2.36    0.14
  -3   1   3  532.12   23.32
  -3  -1  -3  519.18   23.33
   3  -1   3  493.40   25.20
   3  -1   3  529.50   23.59
   3   1  -3  584.70   23.38
  -3  -1  -3  545.64   23.50
   3   1  -3  509.52   23.61
   3   1  -3  482.65   23.21
   3   1  -3  525.52   23.44
  -3   1  -3  515.86   23.32
   3   1   3  500.49   23.30
   3  -1  -3  464.24   23.24
   3   1   3  565.82   23.60
  -3   1  -3  501.65   23.35
   3   1   3  497.23   23.23
   3  -1  -3  497.83   23.28
   3  -1  -3  474.54   23.47
   3  -1  -3  485.84   23.23
  -3   1  -3  532.69   23.36
  -3  -1   3  525.51   23.43
  -4  -1  -3    0.62    0.15
   4   1  -3    0.56    0.14
   4   1  -3    0.57    0.09
   4   1  -3    0.45    0.08
   4  -1   3    1.37    0.25
  -4  -1  -3    0.36    0.15
   4   1  -3    0.57    0.16
   4  -1  -3    0.47    0.19
   4   1   3    1.32    0.26
   4  -1  -3    0.77    0.11
   4  -1  -3    0.55    0.10
  -4   1  -3    0.28    0.10
  -4   1  -3    0.56    0.14
  -4   1  -3    0.70    0.15
   4  -1  -3    0.44    0.08
  -5  -1  -3  345.87   15.87
   5  -1   3  361.15   15.89
   5   1  -3  348.73   15.87
  -5  -1  -3  347.81   15.91
   5   1  -3  363.76   16.63
   5   1  -3  334.58   15.92
   5  -1   3  351.25   16.00
   5   1  -3  329.12   15.84
  -5   1   3  403.68   16.34
  -5   1   3  362.28   15.89
   5   1   3  351.29   15.89
  -5   1  -3  327.26   15.85
   5  -1  -3  341.45   15.84
  -5   1  -3  340.54   15.88
  -5   1  -3  348.57   15.89
  -5  -1   3  391.65   15.92
   5  -1  -3  333.69   15.98
   5  -1  -3  307.82   15.83
   5   1   3  363.70   16.02
   5   1   3  354.79   15.88
  -6  -1  -3    1.61    0.27
   6   1  -3    1.24    0.16
  -6  -1  -3    1.49    0.22
  -6  -1  -3    1.83    0.26
  -6   1   3    2.13    0.26
   6   1  -3    1.31    0.23
   6   1  -3    1.55    0.28
   6  -1   3    2.66    0.42
   6   1  -3    1.38    0.17
   6  -1  -3    1.73    0.34
   6  -1  -3    1.21    0.16
  -6   1  -3    1.37    0.18
  -6   1  -3    1.28    0.21
   6  -1  -3    1.55    0.19
  -6   1  -3    1.51    0.23
   7  -1   3  206.15    9.18
  -7   1   3  210.19    9.16
   7  -1   3  211.85    9.37
  -7  -1  -3  201.49    9.19
  -7  -1  -3  185.64    9.13
   7   1  -3  191.99    9.16
   7   1  -3  203.28    9.09
   7   1  -3  192.95    9.24
  -7   1  -3  182.79    9.14
   7  -1  -3  198.95    9.31
  -7   1  -3  194.75    9.08
   7  -1  -3  204.38    9.10
   7   1   3  211.62    9.19
   7   1   3  204.95    9.35
  -8  -1  -3    0.61    0.24
   8   1  -3    0.55    0.16
   8  -1   3    0.51    0.34
   8   1  -3    0.54    0.27
  -8  -1  -3    0.55    0.21
  -8   1   3    0.99    0.26
   8  -1   3    0.97    0.25
   8   1  -3    0.55    0.23
   8   1   3    0.57    0.23
   8   1   3    0.60    0.34
   8  -1  -3    0.64    0.18
   8  -1  -3    0.72    0.32
  -8   1  -3    0.51    0.21
   9   1  -3  101.30    4.90
   9   1  -3  106.13    4.82
   9  -1   3  105.15    5.16
  -9   1   3  103.16    4.89
  -9  -1  -3   96.11    4.86
   9  -1   3  107.50    4.92
   9   1  -3  103.32    5.02
   9  -1  -3  105.76    5.08
   9  -1  -3  107.71    4.83
   9   1   3  105.82    5.16
   9   1   3  105.81    4.92
  -9   1  -3  101.68    4.88
 -10   1   3    0.17    0.27
  10  -1   3    0.54    0.43
  10   1  -3    0.62    0.21
  10  -1   3    0.58    0.28
 -10  -1  -3    0.43    0.25
  10   1   3    0.64    0.29
 -10   1  -3    0.65    0.27
  10  -1  -3    0.88    0.40
  10   1   3    0.58    0.42
  10  -1  -3    0.60    0.21
 -10  -1   3    0.59    0.30
 -11   1   3   44.76    2.34
  11  -1   3   46.28    2.67
  11  -1   3   48.12    2.37
  11   1  -3   43.80    2.24
  11  -1  -3   43.87    2.54
  11   1   3   49.58    2.70
 -11   1  -3   46.48    2.34
  11   1   3   47.29    2.37
  11  -1  -3   44.88    2.25
 -11  -1   3   47.54    2.37
   0  -2  -3   16.20    0.90
   0  -2  -3   15.92    0.83
   0  -2  -3   15.52    0.86
   0   2  -3   16.93    0.81
   0   2  -3   15.30    0.79
   0   2  -3   15.98    0.82
   1   2  -3  577.87   28.94
   1   2  -3  641.58   29.00
   1   2  -3  631.00   29.01
  -1  -2  -3  635.85   29.07
   1  -2   3  647.96   29.10
  -1  -2  -3  561.53   29.01
  -1   2   3  732.88   31.05
   1  -2   3  685.90   29.02
  -1   2  -3  677.44   29.03
   1  -2  -3  602.41   29.19
   1   2   3  676.53   29.18
  -1   2  -3  572.11   28.95
   1  -2  -3  573.67   28.95
  -1  -2   3  623.39   28.99
   1   2   3  703.55   29.04
  -1   2  -3  627.94   28.99
   1  -2  -3  638.33   29.08
   1   2   3  739.97   30.37
   2   2  -3   23.94    1.19
  -2  -2  -3   26.57    1.26
   2   2  -3   26.29    1.24
   2   2  -3   25.37    1.20
  -2   2   3   24.26    1.21
   2  -2   3   24.21    1.27
  -2  -2  -3   25.24    1.31
   2   2   3   24.91    1.33
   2  -2  -3   25.41    1.23
   2   2   3   24.19    1.17
   2  -2  -3   25.02    1.22
  -2   2  -3   25.30    1.22
   2  -2  -3   20.88    1.20
  -2   2  -3   25.14    1.21
  -2  -2   3   27.71    1.20
   2   2   3   24.42    1.23
  -2  -2   3   25.64    1.29
  -2   2  -3   26.98    1.25
  -3  -2  -3  616.50   27.80
   3   2  -3  678.57   27.83
   3   2  -3  597.84   27.66
   3  -2   3  582.02   27.86
  -3  -2  -3  611.84   30.89
   3  -2   3  601.98   27.66
   3   2  -3  573.88   27.63
   3   2  -3  590.68   27.65
  -3   2   3  647.90   27.69
   3   2   3  639.34   28.30
   3  -2  -3  558.01   28.81
  -3   2  -3  600.25   27.71
  -3  -2   3  615.78   27.88
   3   2   3  654.09   28.09
   3   2   3  632.00   27.79
  -3   2  -3  641.91   27.73
   3  -2  -3  585.20   27.65
  -3   2  -3  627.94   27.73
   3  -2  -3  554.56   27.74
   4   2  -3   23.87    1.13
   4   2  -3   25.06    1.15
  -4  -2  -3   24.32    1.28
   4   2  -3   23.89    1.20
  -4   2   3   21.23    1.16
  -4  -2  -3   25.86    1.23
   4  -2   3   21.89    1.27
   4  -2   3   24.14    1.20
   4   2  -3   24.16    1.17
  -4   2  -3   23.43    1.14
   4  -2  -3   24.83    1.16
   4  -2  -3   24.10    1.16
  -4   2  -3   25.11    1.19
   4   2   3   21.44    1.29
  -4  -2   3   21.93    1.24
  -4   2  -3   24.80    1.20
   4   2   3   21.42    1.12
   4  -2  -3   24.80    1.31
   4   2   3   21.71    1.19
   4  -2  -3   21.45    1.10
   5   2  -3  401.49   18.27
  -5  -2  -3  382.17   18.27
   5  -2   3  417.76   18.23
  -5   2   3  406.19   18.19
   5   2  -3  398.63   18.21
  -5  -2  -3  411.11   18.23
   5  -2   3  413.11   18.34
   5   2  -3  398.93   18.21
   5   2  -3  395.10   18.20
  -5  -2   3  432.88   18.28
   5   2   3  408.30   18.33
   5  -2  -3  392.07   18.33
   5   2   3  418.39   18.33
   5  -2  -3  393.34   18.28
  -5   2  -3  403.88   18.20
  -5   2  -3  388.52   18.24
   5  -2  -3  355.35   18.15
  -5   2  -3  403.40   18.22
   5   2   3  411.54   18.22
  -6  -2  -3   10.32    0.66
  -6   2   3   10.53    0.64
   6  -2   3   11.18    0.81
  -6  -2  -3    9.70    0.71
   6   2  -3   10.34    0.66
   6  -2   3   11.78    0.68
   6   2  -3    9.87    0.57
  -6   2  -3   10.16    0.55
   6  -2  -3   10.24    0.60
   6  -2  -3    9.59    0.78
   6   2   3   10.99    0.59
  -6   2  -3   10.25    0.63
  -6   2  -3    9.47    0.64
   6   2   3   10.83    0.66
   6   2   3   10.37    0.78
  -6  -2   3   11.90    0.72
  -7  -2  -3  202.04    9.97
   7   2  -3  211.10    9.92
   7  -2   3  224.07    9.94
   7   2  -3  212.66    9.85
  -7   2   3  218.63    9.91
   7  -2   3  224.09   10.12
   7   2   3  223.32    9.86
   7   2   3  222.00    9.94
  -7  -2   3  230.61    9.98
   7   2   3  220.58   10.09
  -7   2  -3  204.90    9.90
   7  -2  -3  206.04   10.07
   7  -2  -3  215.05    9.87
   8   2  -3    4.91    0.40
   8  -2   3    5.35    0.48
  -8  -2  -3    5.46    0.54
   8   2  -3    5.53    0.50
   8  -2   3    4.96    0.66
  -8   2   3    5.66    0.48
  -8   2  -3    5.13    0.48
   8  -2  -3    5.71    0.65
   8   2   3    5.22    0.43
   8   2   3    5.84    0.50
   8  -2  -3    5.39    0.41
   8   2   3    5.00    0.62
  -8  -2   3    5.99    0.57
   9  -2   3  117.91    5.62
  -9  -2  -3  117.74    5.40
  -9  -2  -3  109.85    5.32
  -9   2   3  113.50    5.34
   9   2  -3  111.85    5.36
   9   2  -3  111.96    5.27
   9  -2   3  111.49    5.36
   9  -2  -3  114.78    5.55
   9   2   3  115.03    5.58
   9  -2  -3  110.99    5.28
  -9   2  -3  113.84    5.34
   9   2   3  118.60    5.38
  10  -2   3    2.37    0.62
  10   2  -3    4.02    0.50
  10   2  -3    2.43    0.32
  10  -2   3    1.99    0.38
 -10   2   3    2.53    0.41
  10  -2  -3    2.83    0.35
  10  -2  -3    2.27    0.53
 -10   2  -3    2.84    0.42
  10   2   3    2.65    0.58
  10   2   3    2.58    0.41
   0  -3  -3   17.80    1.09
   0  -3   3   21.44    1.10
   0  -3   3   20.73    1.03
   0   3  -3   19.02    1.03
   0   3   3   21.53    1.04
   0  -3  -3   19.25    1.06
   0  -3  -3   18.49    1.10
   0   3  -3   20.17    1.06
   0  -3   3   22.08    1.00
   0   3   3   22.23    1.02
  -1   3   3  449.73   20.23
   1  -3   3  444.54   20.30
  -1  -3  -3  445.42   20.24
   1   3  -3  464.92   20.29
   1   3  -3  386.58   20.13
   1  -3   3  444.61   20.31
  -1  -3  -3  418.27   20.19
   1   3  -3  440.75   20.28
   1  -3   3  486.16   20.17
  -1   3   3  478.68   20.19
   1  -3  -3  435.64   20.27
   1  -3  -3  418.69   20.24
  -1  -3   3  441.23   20.27
   1   3   3  454.59   20.21
   1   3   3  490.99   20.25
   1  -3  -3  422.67   20.32
   1   3   3  453.11   20.44
  -1   3  -3  438.95   20.18
  -1   3  -3  440.88   20.25
  -1  -3   3  455.77   20.14
   2   3  -3   30.79    1.46
   2  -3   3   29.76    1.49
  -2   3   3   28.40    1.46
  -2  -3  -3   31.16    1.58
  -2  -3  -3   32.43    1.54
   2  -3   3   28.73    1.50
   2   3  -3   28.61    1.49
   2   3  -3   30.30    1.46
   2  -3   3   28.27    1.50
   2   3   3   29.10    1.43
  -2   3  -3   31.59    1.49
   2   3   3   30.97    1.50
  -2   3  -3   32.02    1.51
   2  -3  -3   30.75    1.48
   2   3   3   28.65    1.57
   2  -3  -3   30.31    1.57
   2  -3  -3   29.38    1.50
   3   3  -3  414.83   18.82
  -3  -3  -3  420.05   18.87
  -3   3   3  437.83   18.86
   3   3  -3  389.71   18.73
   3   3  -3  394.17   18.82
   3  -3   3  429.94   18.78
   3  -3   3  404.10   18.92
  -3  -3  -3  403.92   18.80
  -3   3  -3  411.69   18.82
   3   3   3  425.15   18.87
   3   3   3  435.76   18.75
   3   3   3  443.60   19.69
  -3   3  -3  434.90   18.79
  -3  -3   3  417.40   18.85
   3  -3  -3  393.13   18.91
  -3   3  -3  405.04   18.83
   3  -3  -3  385.53   18.75
  -4   3   3   23.85    1.29
   4   3  -3   26.36    1.27
  -4  -3  -3   26.64    1.43
   4  -3   3   25.74    1.33
   4   3  -3   25.02    1.32
   4  -3   3   23.99    1.38
  -4  -3  -3   28.89    1.38
   4  -3  -3   28.41    1.46
   4   3   3   24.73    1.32
   4   3   3   23.05    1.39
  -4   3  -3   27.81    1.26
  -4  -3   3   23.44    1.39
  -4   3  -3   27.22    1.34
   4   3   3   23.46    1.24
   4  -3  -3   27.38    1.30
   4  -3  -3   23.87    1.23
  -4   3  -3   27.59    1.31
  -5   3   3  273.44   12.61
  -5  -3  -3  265.57   12.73
   5   3  -3  274.15   12.65
  -5  -3  -3  273.66   12.67
   5  -3   3  283.80   12.76
   5  -3   3  289.62   12.66
   5   3  -3  266.97   12.59
   5   3   3  276.98   12.75
  -5   3  -3  276.46   12.62
   5   3   3  286.04   12.65
  -5  -3   3  279.60   12.73
   5   3   3  282.12   12.57
  -5   3  -3  263.85   12.64
  -5   3  -3  292.01   12.62
   5  -3  -3  275.39   12.78
   5  -3  -3  277.10   12.61
   6  -3   3    9.43    0.75
   6  -3   3    8.82    0.61
   6   3  -3    7.11    0.59
  -6   3   3    9.59    0.59
  -6  -3  -3    7.79    0.68
   6   3  -3    9.15    0.54
   6  -3  -3    8.74    0.56
  -6   3  -3    7.79    0.58
  -6  -3   3    7.63    0.67
   6   3   3    8.54    0.70
   6   3   3    9.01    0.61
   6   3   3    8.70    0.53
   6  -3  -3    8.39    0.74
  -7  -3  -3  137.03    7.00
  -7   3   3  151.23    6.90
   7  -3   3  154.13    7.11
   7  -3   3  153.65    6.94
   7   3  -3  145.96    6.86
   7   3  -3  140.41    6.92
   7  -3  -3  154.25    6.88
   7   3   3  157.45    6.94
  -7   3  -3  139.80    6.90
   7   3   3  153.29    6.85
   7   3   3  151.90    7.06
   7  -3  -3  151.19    7.10
  -7  -3   3  150.72    7.00
   8   3  -3    4.84    0.41
  -8  -3  -3    4.66    0.57
  -8   3   3    5.46    0.50
   8   3  -3    4.54    0.50
   8  -3   3    4.45    0.48
   8  -3   3    5.29    0.71
  -8   3  -3    4.63    0.47
   8  -3  -3    4.90    0.42
   8  -3  -3    5.02    0.66
   8   3   3    4.32    0.42
   8   3   3    4.48    0.62
   8   3   3    4.10    0.48
  -8  -3   3    4.86    0.59
  -9  -3  -3   76.93    3.74
   9   3  -3   73.21    3.57
   9  -3   3   73.04    3.65
   9  -3   3   75.83    3.89
  -9   3   3   76.03    3.63
   9   3  -3   70.48    3.64
   9   3   3   78.52    3.66
  -9  -3   3   83.22    3.75
   9  -3  -3   74.26    3.84
   9  -3  -3   75.58    3.58
  -9   3  -3   74.17    3.63
  10   3  -3    3.46    0.40
  10  -3   3    2.56    0.45
 -10   3   3    3.09    0.46
 -10  -3  -3    3.47    0.55
  10  -3   3    3.02    0.66
  10   3  -3    3.32    0.49
  10  -3  -3    3.07    0.62
  10  -3  -3    3.54    0.41
 -10   3  -3    3.53    0.48
  10   3   3    3.55    0.49
   0  -4   3   65.04    3.07
   0   4   3   68.75    2.97
   0  -4  -3   59.04    3.03
   0   4   3   67.63    2.99
   0   4  -3   58.33    3.00
   0  -4  -3   60.47    3.00
   0  -4   3   67.82    2.92
   0   4  -3   60.61    2.98
   0  -4  -3   57.79    3.05
   1  -4   3  362.30   16.45
  -1  -4  -3  359.35   16.48
   1   4  -3  369.47   16.42
  -1   4   3  355.31   16.35
  -1  -4  -3  376.07   16.43
   1   4  -3  369.45   16.38
   1  -4   3  337.14   16.42
  -1  -4   3  338.35   16.46
  -1   4  -3  356.04   16.41
  -1   4  -3  371.72   16.39
   1  -4  -3  352.49   16.40
   1  -4  -3  359.95   16.46
   1   4   3  366.96   16.67
   1   4   3  383.18   16.40
   1  -4  -3  368.34   16.45
   1   4   3  349.83   16.46
   2   4  -3   54.44    2.65
  -2   4   3   56.19    2.65
   2  -4   3   57.90    2.68
  -2  -4  -3   54.72    2.78
   2   4  -3   56.43    2.70
   2  -4   3   55.37    2.70
  -2  -4  -3   59.67    2.73
   2   4   3   53.34    2.73
   2  -4  -3   53.01    2.69
   2   4   3   56.74    2.62
   2  -4  -3   52.98    2.74
   2  -4  -3   55.13    2.67
   2   4   3   58.30    2.68
  -2   4  -3   54.76    2.66
  -2   4  -3   54.68    2.69
  -2  -4   3   56.18    2.77
   3  -4   3  290.44   13.93
  -3   4   3  297.02   13.87
  -3  -4  -3  315.85   14.03
   3   4  -3  325.92   13.94
   3  -4   3  308.12   13.92
  -3  -4  -3  315.15   13.96
   3   4  -3  309.65   13.88
   3  -4   3  287.65   13.90
   3   4   3  308.38   13.84
   3  -4  -3  302.85   13.89
   3  -4  -3  304.33   14.00
   3   4   3  286.04   13.97
  -3   4  -3  317.40   13.93
  -3   4  -3  315.65   13.89
  -3  -4   3  291.88   13.99
   3  -4  -3  298.15   13.89
   3   4   3  317.23   13.91
   4  -4   3   40.57    2.01
   4   4  -3   39.49    1.96
  -4  -4  -3   40.48    2.05
   4   4  -3   38.47    2.01
   4  -4   3   40.18    2.06
   4  -4   3   40.62    1.98
  -4   4   3   39.51    1.97
  -4  -4  -3   39.94    2.12
  -4   4  -3   39.71    1.97
   4  -4  -3   41.06    2.11
  -4   4  -3   42.20    2.03
   4   4   3   40.26    1.93
   4   4   3   42.39    2.01
   4   4   3   38.52    2.07
  -4  -4   3   37.71    2.10
   4  -4  -3   41.46    1.99
   5   4  -3  198.70    9.31
   5  -4   3  197.38    9.38
  -5  -4  -3  202.60    9.42
   5   4  -3  205.44    9.25
  -5   4   3  193.99    9.25
   5  -4   3  198.74    9.33
  -5   4  -3  206.71    9.31
   5   4   3  196.68    9.22
   5  -4  -3  217.28    9.46
   5   4   3  192.33    9.36
  -5  -4   3  194.81    9.39
   5   4   3  208.91    9.30
   5  -4  -3  216.09    9.29
   6  -4   3   22.23    1.31
  -6   4   3   22.34    1.16
  -6  -4  -3   18.49    1.27
   6   4  -3   19.45    1.18
   6   4  -3   20.25    1.12
   6   4   3   22.97    1.11
  -6  -4   3   21.33    1.28
  -6   4  -3   19.03    1.18
   6   4   3   23.65    1.20
   6  -4  -3   21.27    1.34
   6  -4  -3   20.90    1.15
   7   4  -3  113.30    5.51
   7  -4   3  120.32    5.68
   7   4  -3  117.76    5.45
  -7  -4  -3  109.43    5.60
  -7   4   3  112.54    5.46
   7   4   3  121.24    5.43
   7  -4  -3  121.33    5.70
   7   4   3  121.79    5.52
   7  -4  -3  122.80    5.48
  -7   4  -3  114.16    5.50
  -7  -4   3  114.67    5.60
  -8   4   3    9.38    0.71
  -8  -4  -3    9.92    0.85
   8   4  -3    9.60    0.67
   8  -4   3   11.04    0.97
   8   4  -3    9.47    0.76
  -8   4  -3   10.04    0.73
   8  -4  -3   11.25    0.95
   8  -4  -3   10.32    0.69
   8   4   3   10.59    0.76
  -8  -4   3   10.22    0.88
  -9   4   3   58.46    2.93
   9  -4   3   58.79    3.20
   9   4  -3   59.78    2.90
  -9  -4  -3   58.54    3.06
   9   4  -3   57.70    2.97
  -9   4  -3   58.57    2.95
  -9  -4   3   63.21    3.08
   9  -4  -3   61.63    3.19
   9   4   3   60.53    2.97
   9  -4  -3   61.47    2.92
   0   5  -3   25.72    1.35
   0  -5   3   31.08    1.48
   0  -5  -3   24.36    1.39
   0   5  -3   23.97    1.38
   0  -5  -3   25.37    1.44
   0  -5  -3   24.83    1.37
   1   5  -3  178.37    8.17
  -1  -5  -3  180.32    8.29
  -1   5   3  174.76    8.14
   1   5  -3  174.41    8.20
   1  -5   3  182.16    8.25
  -1  -5  -3  177.44    8.20
  -1   5  -3  181.10    8.18
   1   5   3  183.15    8.13
  -1  -5   3  174.46    8.27
   1  -5  -3  178.58    8.25
   1   5   3  175.55    8.24
   1  -5  -3  174.29    8.18
   1  -5  -3  174.73    8.23
  -1   5  -3  176.29    8.20
   2  -5   3   27.10    1.41
  -2  -5  -3   25.11    1.39
   2   5  -3   25.10    1.38
   2   5  -3   24.35    1.33
  -2  -5  -3   24.56    1.46
  -2   5   3   26.38    1.32
   2   5   3   26.41    1.41
   2  -5  -3   23.96    1.38
   2   5   3   28.68    1.32
   2  -5  -3   24.31    1.41
   2  -5  -3   23.24    1.34
  -2  -5   3   26.12    1.48
  -2   5  -3   25.63    1.34
  -2   5  -3   24.32    1.37
   3  -5   3  159.15    7.37
  -3   5   3  161.78    7.33
   3  -5   3  155.46    7.37
   3   5  -3  154.20    7.33
   3   5  -3  162.99    7.39
  -3  -5  -3  156.96    7.48
   3  -5  -3  157.67    7.35
   3   5   3  164.42    7.30
  -3  -5   3  154.51    7.47
  -3   5  -3  162.90    7.39
   3  -5  -3  155.25    7.44
  -3   5  -3  162.57    7.35
  -4   5   3   18.83    1.03
   4   5  -3   17.55    1.08
   4   5  -3   17.98    1.03
   4  -5   3   19.31    1.11
  -4  -5  -3   17.22    1.19
  -4   5  -3   18.04    1.03
  -4   5  -3   19.21    1.10
  -4  -5   3   18.35    1.19
   4   5   3   19.15    1.00
   4  -5  -3   17.75    1.05
   4  -5  -3   18.65    1.18
  -5   5   3  108.57    4.98
   5   5  -3  109.51    4.99
   5   5  -3  106.33    5.04
  -5  -5  -3   99.56    5.13
   5  -5   3  110.67    5.10
  -5   5  -3  102.53    5.02
   5  -5  -3  107.38    5.15
  -5  -5   3  100.37    5.12
   5   5   3  111.37    4.94
   6   5  -3   10.30    0.70
   6  -5   3   12.42    0.89
   6   5  -3    8.90    0.77
  -6   5   3   10.89    0.72
  -6  -5  -3    9.45    0.87
  -6  -5   3   11.36    0.93
   6  -5  -3   10.69    0.73
   6   5   3   12.94    0.84
   6   5   3   12.25    0.69
   6  -5  -3    9.17    0.87
  -6   5  -3    7.97    0.72
   7   5  -3   62.53    3.11
   7   5  -3   63.34    3.04
  -7   5   3   62.48    3.03
   7  -5   3   61.95    3.21
  -7  -5  -3   61.56    3.20
   7  -5  -3   67.15    3.28
  -7   5  -3   60.28    3.07
   7  -5  -3   64.22    3.06
  -7  -5   3   59.46    3.20
   8   5  -3    5.74    0.55
  -8  -5  -3    6.17    0.74
  -8   5   3    6.66    0.59
   8  -5   3    7.44    0.81
   8   5  -3    6.02    0.68
  -8   5  -3    5.45    0.61
   8  -5  -3    6.59    0.81
   8  -5  -3    6.01    0.56
  -8  -5   3    6.20    0.75
   0  -6   3   29.05    1.72
   0   6  -3   33.41    1.66
   0  -6  -3   31.53    1.66
   0   6   3   29.78    1.59
   0   6  -3   30.63    1.67
   0  -6  -3   33.11    1.76
   1  -6   3  107.54    5.08
  -1  -6  -3  107.04    5.11
   1   6  -3  105.96    4.99
  -1  -6  -3  101.63    5.05
   1   6  -3  102.57    5.02
  -1   6   3  107.36    4.96
  -1   6  -3   99.22    5.00
   1  -6  -3  110.29    5.08
   1  -6  -3  102.20    5.00
  -1   6  -3  110.29    5.00
   1  -6  -3  106.25    5.03
  -1  -6   3  106.04    5.12
   1   6   3  112.13    4.96
  -2  -6  -3   33.44    1.85
   2  -6   3   30.36    1.75
   2   6  -3   32.19    1.74
  -2   6   3   30.07    1.67
   2   6  -3   35.76    1.73
   2  -6  -3   34.73    1.74
  -2  -6   3   30.01    1.83
  -2   6  -3   36.20    1.73
   2  -6  -3   33.38    1.78
   2   6   3   31.31    1.66
  -2   6  -3   34.05    1.76
   3   6  -3   85.86    4.15
  -3  -6  -3   88.04    4.27
   3   6  -3   85.63    4.10
  -3   6   3   85.42    4.08
   3   6   3   89.97    4.07
  -3  -6   3   79.76    4.23
  -3   6  -3   86.14    4.15
   3  -6  -3   89.11    4.14
   3  -6  -3   86.95    4.21
   4   6  -3   25.30    1.48
   4   6  -3   27.45    1.43
  -4  -6  -3   25.68    1.59
  -4   6   3   24.58    1.40
   4   6   3   27.20    1.39
   4  -6  -3   28.23    1.58
   4  -6  -3   27.65    1.46
  -4  -6   3   22.66    1.56
  -4   6  -3   26.99    1.48
  -5  -6  -3   59.55    3.22
   5   6  -3   64.64    3.13
  -5   6   3   61.11    3.04
   5   6  -3   63.65    3.07
   5   6   3   64.62    3.02
   5  -6  -3   66.57    3.24
   5  -6  -3   63.31    3.08
  -5   6  -3   61.12    3.10
  -5  -6   3   59.96    3.23
   6  -6   3   14.96    1.05
   6   6  -3   13.93    0.99
  -6   6   3   14.45    0.92
   6   6  -3   14.85    0.92
  -6  -6  -3   14.97    1.11
  -6  -6   3   12.59    1.10
   6  -6  -3   14.89    1.10
   6  -6  -3   14.29    0.93
  -6   6  -3   13.58    0.96
   0   7  -3   19.95    1.14
   0  -7   3   18.32    1.25
   0   7   3   18.90    1.09
   0   7  -3   18.07    1.16
   0  -7  -3   19.28    1.25
   1   7  -3   66.19    3.09
  -1  -7  -3   61.64    3.18
   1   7  -3   60.54    3.09
  -1   7   3   61.31    3.03
   1  -7   3   60.23    3.15
   1   7   3   63.08    3.03
  -1  -7   3   61.69    3.20
  -1   7  -3   61.77    3.10
  -1   7  -3   65.76    3.09
   2   7  -3   17.57    1.13
   2   7  -3   18.35    1.09
  -2  -7  -3   19.80    1.27
  -2   7   3   16.48    1.04
   2   7   3   16.05    1.02
   2  -7  -3   18.95    1.11
  -2   7  -3   18.02    1.12
  -2  -7   3   17.11    1.23
  -3  -7  -3   53.12    2.78
   3   7  -3   52.72    2.62
  -3   7   3   51.09    2.58
   3   7  -3   51.19    2.65
  -3   7  -3   52.46    2.66
   3  -7  -3   52.95    2.64
  -3  -7   3   48.45    2.76
   3   7   3   55.29    2.57
  -4   7   3   10.57    0.84
   4   7  -3   14.40    0.89
   4   7  -3   12.82    0.94
  -4  -7  -3   14.83    1.09
   4  -7  -3   13.36    0.92
  -4  -7   3   11.43    1.05
  -4   7  -3   13.68    0.95
   0   0  -4  161.74    6.94
   0   0  -4  149.13    6.94
   0   0  -4  156.82    7.20
   0   0  -4  145.38    6.98
  -1   0  -4    0.08    0.07
  -1   0  -4    0.12    0.03
  -1   0   4    0.04    0.10
  -1   0  -4    0.08    0.08
   1   0   4    0.06    0.12
   1   0  -4    0.01    0.03
  -1   0  -4    0.02    0.06
   1   0  -4    0.06    0.05
   1   0  -4   -0.13    0.09
   1   0  -4    0.17    0.05
   1   0  -4    0.14    0.08
   2   0   4  494.70   21.14
  -2   0  -4  473.09   20.94
  -2   0  -4  444.20   20.79
   2   0  -4  522.59   21.24
   2   0  -4  438.66   20.95
   2   0  -4  433.32   22.04
   2   0   4  429.97   21.87
  -2   0  -4  446.13   21.95
   3   0  -4    0.04    0.08
  -3   0  -4    0.25    0.08
  -3   0  -4    0.12    0.11
   3   0  -4    0.32    0.16
  -3   0  -4    0.06    0.09
   3   0   4    0.12    0.10
   3   0  -4    0.05    0.09
   3   0   4    0.15    0.17
   4   0  -4  429.36   20.82
   4   0   4  472.78   20.90
  -4   0  -4  463.27   20.78
  -4   0  -4  425.95   20.59
   4   0  -4  439.38   20.66
   4   0   4  451.28   20.59
   4   0  -4  493.90   20.62
  -4   0  -4  464.50   20.65
   5   0  -4    0.10    0.13
   5   0  -4    0.18    0.06
  -5   0   4    0.09    0.13
   5   0  -4    0.16    0.06
  -5   0  -4    0.12    0.13
  -5   0  -4    0.01    0.10
   5   0   4    0.30    0.23
   5   0   4    0.02    0.13
  -5   0  -4    0.19    0.14
   5   0  -4    0.40    0.20
   6   0  -4  180.88    8.76
   6   0  -4  188.73    8.98
  -6   0  -4  194.35    8.87
   6   0  -4  194.50    8.78
  -6   0   4  224.14    8.88
   6   0  -4  190.26    8.87
  -6   0  -4  176.04    8.82
   6   0   4  196.67    8.89
  -6   0  -4  192.36    8.86
   6   0   4  201.44    9.06
  -7   0  -4    0.26    0.16
   7   0   4    0.67    0.32
   7   0   4    0.31    0.19
   7   0  -4    0.14    0.10
  -7   0   4    0.13    0.19
   7   0  -4    0.11    0.09
   7   0  -4    0.18    0.22
  -7   0  -4    0.09    0.15
  -8   0   4  117.36    5.32
   8   0  -4  114.16    5.20
   8   0  -4  112.39    5.45
   8   0   4  113.24    5.33
  -8   0  -4  107.96    5.27
   8   0   4  114.93    5.55
  -8   0  -4  116.27    5.28
  -9   0   4    0.31    0.26
   9   0   4    0.12    0.36
  -9   0  -4    0.11    0.20
   9   0   4    0.26    0.23
   9   0  -4    0.16    0.14
   9   0  -4    0.10    0.29
  10   0   4   75.52    3.79
  10   0  -4   68.67    3.60
 -10   0   4   71.47    3.45
  10   0  -4   72.35    3.32
  10   0   4   68.37    3.46
   0   1   4  676.65   30.38
   0   1  -4  659.53   30.06
   0  -1   4  689.86   30.33
   0  -1  -4  567.61   30.05
   0  -1  -4  667.20   30.18
   0   1  -4  669.92   30.05
   0   1   4  729.54   30.74
  -1  -1  -4   15.13    0.75
  -1  -1  -4   14.00    0.74
   1   1  -4   15.16    0.73
   1   1  -4   16.07    0.70
   1   1  -4   14.16    0.76
  -1  -1  -4   14.78    0.79
   1   1  -4   14.48    0.70
  -1   1  -4   14.92    0.72
   1  -1  -4   12.40    0.70
  -1   1  -4   14.54    0.73
   1  -1  -4   14.25    0.72
   1  -1  -4   15.08    0.85
  -1   1  -4   16.27    0.74
  -1   1  -4   13.75    0.75
   1  -1  -4   13.59    0.76
   2  -1   4  588.13   26.79
  -2   1   4  652.18   27.59
   2   1  -4  567.26   26.91
   2   1  -4  627.42   27.16
  -2  -1  -4  575.66   26.84
   2  -1   4  615.57   26.93
   2   1  -4  532.23   26.90
  -2  -1  -4  639.19   26.93
   2   1  -4  591.16   26.85
  -2   1  -4  557.34   26.76
   2  -1  -4  522.96   26.71
  -2   1  -4  597.30   26.81
   2  -1  -4  584.03   26.84
   2  -1  -4  575.35   26.93
   2   1   4  579.05   26.82
  -2   1  -4  588.94   26.74
   2   1   4  664.56   27.16
   3   1  -4   18.13    0.97
   3   1  -4   16.97    0.90
   3  -1   4   19.71    1.03
  -3   1   4   17.78    0.89
  -3  -1  -4   18.17    0.97
   3   1  -4   17.73    0.81
   3  -1   4   19.92    0.93
   3   1  -4   18.79    0.81
   3   1  -4   17.70    0.93
  -3  -1  -4   17.47    0.84
  -3  -1  -4   17.27    0.92
  -3   1  -4   18.06    0.91
  -3   1  -4   16.04    0.90
   3   1   4   19.52    1.07
   3  -1  -4   17.62    0.86
   3  -1  -4   17.67    0.85
  -3   1  -4   18.59    0.90
   3  -1  -4   16.37    0.89
   3  -1  -4   16.58    1.01
   3   1   4   18.57    0.92
   4   1  -4  465.89   22.50
  -4  -1  -4  500.08   22.75
  -4   1   4  524.12   22.69
   4  -1   4  491.60   22.69
  -4  -1  -4  486.71   22.58
  -4  -1  -4  519.73   22.80
   4   1  -4  495.47   22.70
   4  -1   4  528.67   22.94
   4   1  -4  540.49   22.68
   4   1  -4  520.09   22.81
  -4  -1   4  515.63   22.79
   4   1   4  492.76   22.69
  -4   1  -4  496.42   22.68
   4   1   4  532.75   22.87
  -4   1  -4  493.52   22.69
  -4   1  -4  496.23   22.67
   4  -1  -4  466.08   22.78
   4  -1  -4  458.34   22.55
   4  -1  -4  469.79   23.10
  -5  -1  -4    6.16    0.43
  -5   1   4    6.69    0.42
  -5  -1  -4    5.94    0.47
   5  -1   4    6.85    0.45
   5   1  -4    6.09    0.31
   5  -1   4    7.76    0.59
   5   1  -4    5.67    0.48
   5   1  -4    5.22    0.42
  -5  -1  -4    5.68    0.37
   5  -1  -4    6.05    0.34
  -5   1  -4    5.82    0.39
   5  -1  -4    5.74    0.37
   5   1   4    6.39    0.58
   5   1   4    6.68    0.45
   5  -1  -4    5.37    0.33
  -5   1  -4    6.27    0.41
   5  -1  -4    5.97    0.53
  -5   1  -4    5.84    0.42
  -5  -1   4    6.58    0.47
   6   1  -4  283.96   13.06
  -6  -1  -4  290.12   13.10
  -6  -1  -4  267.69   13.00
   6   1  -4  273.78   12.96
  -6  -1  -4  293.23   13.07
   6  -1   4  289.07   13.08
   6  -1   4  294.90   13.24
   6   1  -4  279.69   13.13
  -6   1   4  292.67   13.05
   6   1  -4  289.64   12.99
  -6   1  -4  293.40   13.06
   6   1   4  297.61   13.26
   6  -1  -4  292.85   13.21
  -6  -1   4  319.75   13.11
   6   1   4  296.58   13.09
   6  -1  -4  260.81   12.97
  -6   1  -4  283.57   13.01
   6  -1  -4  282.72   13.67
  -6   1  -4  271.83   13.03
  -7  -1  -4    1.49    0.29
   7   1  -4    1.54    0.32
   7   1  -4    1.52    0.18
   7   1  -4    1.17    0.27
   7  -1   4    2.15    0.45
   7   1  -4    1.55    0.17
  -7   1   4    1.63    0.28
   7  -1   4    2.24    0.33
  -7  -1  -4    1.33    0.23
  -7  -1   4    2.69    0.35
   7   1   4    2.10    0.42
  -7   1  -4    1.38    0.21
   7  -1  -4    1.72    0.21
  -7   1  -4    1.59    0.26
   7   1   4    2.54    0.35
   7  -1  -4    1.49    0.36
   8   1  -4  178.54    8.20
   8  -1   4  173.29    8.11
  -8  -1  -4  161.00    8.04
  -8   1   4  176.94    8.08
   8   1  -4  172.21    8.09
  -8  -1  -4  184.13    8.11
   8  -1   4  176.96    8.33
   8   1  -4  181.57    7.98
   8  -1  -4  174.11    8.25
   8   1   4  180.99    8.33
  -8   1  -4  171.20    8.06
   8   1   4  176.19    8.11
   8  -1  -4  173.99    7.99
   9   1  -4    1.66    0.39
   9   1  -4    1.53    0.21
   9   1  -4    1.56    0.35
  -9   1   4    1.68    0.33
   9  -1   4    1.21    0.46
   9  -1   4    2.03    0.35
   9  -1  -4    1.43    0.41
   9  -1  -4    1.46    0.23
   9   1   4    1.51    0.33
  -9   1  -4    1.47    0.31
   9   1   4    1.16    0.46
  10  -1   4   81.65    4.11
  10   1  -4   76.89    3.65
 -10   1   4   78.41    3.77
  10  -1  -4   77.05    3.66
  10   1   4   76.16    3.80
 -10  -1   4   77.85    3.79
  10  -1  -4   77.82    3.97
  10   1   4   83.66    4.12
   0   2   4  462.37   19.59
   0  -2   4  483.02   19.60
   0   2  -4  441.86   19.42
   0   2  -4  398.83   19.22
   0  -2  -4  406.27   19.40
   0  -2  -4  388.84   19.33
   0  -2  -4  422.96   19.43
   0   2  -4  426.94   19.33
   0   2  -4  401.11   19.33
   1   2  -4    7.95    0.47
   1   2  -4    8.68    0.50
  -1  -2  -4    9.17    0.53
   1   2  -4    8.81    0.52
   1   2  -4    8.93    0.47
   1  -2  -4    8.57    0.61
   1  -2  -4    7.51    0.47
  -1   2  -4    9.14    0.51
   1  -2  -4    9.06    0.54
   1  -2  -4    8.40    0.50
  -1   2  -4    9.12    0.52
  -1   2  -4    9.31    0.50
  -1   2  -4    9.05    0.51
   2   2  -4  564.77   24.50
   2   2  -4  533.29   24.53
  -2  -2  -4  525.39   24.49
   2   2  -4  483.93   24.35
   2  -2   4  557.35   24.49
   2  -2   4  531.19   24.63
   2   2  -4  509.98   24.38
  -2   2   4  598.00   24.43
  -2  -2  -4  497.32   24.42
   2  -2  -4  519.25   24.63
  -2  -2   4  600.38   25.88
   2  -2  -4  496.28   24.44
   2  -2  -4  542.37   24.42
  -2   2  -4  538.69   25.30
   2   2   4  592.07   24.33
   2   2   4  555.20   24.43
   2   2   4  576.66   24.70
  -2   2  -4  519.42   24.39
  -2   2  -4  502.29   24.47
   3  -2   4    7.34    0.50
  -3  -2  -4    5.71    0.48
   3   2  -4    5.26    0.33
  -3   2   4    6.87    0.38
   3   2  -4    5.18    0.40
   3  -2   4    7.51    0.43
  -3  -2  -4    5.50    0.42
   3   2  -4    5.22    0.33
   3   2   4    6.84    0.33
   3  -2  -4    4.88    0.35
   3  -2  -4    5.02    0.37
  -3   2  -4    5.75    0.40
  -3  -2   4    7.79    0.50
  -3  -2   4    7.00    0.40
   3  -2  -4    5.50    0.36
   3   2   4    6.98    0.42
  -3   2  -4    5.14    0.38
  -3   2  -4    5.91    0.40
   3  -2  -4    5.03    0.47
   3   2   4    7.53    0.58
   4   2  -4  438.58   19.07
   4   2  -4  384.12   19.00
   4  -2   4  427.49   19.19
  -4  -2  -4  421.83   19.11
   4  -2   4  434.69   19.05
   4   2  -4  423.43   20.55
  -4  -2  -4  420.80   19.05
   4   2  -4  411.53   19.02
  -4   2   4  448.42   19.10
   4  -2  -4  370.06   19.00
   4  -2  -4  394.74   19.14
   4   2   4  442.66   19.20
  -4   2  -4  420.33   19.10
  -4   2  -4  435.08   19.03
  -4  -2   4  441.63   19.10
   4   2   4  437.45   19.05
  -4   2  -4  421.73   19.10
   4  -2  -4  375.25   18.99
   4   2   4  437.91   19.98
   5   2  -4    2.70    0.33
  -5  -2  -4    2.88    0.40
  -5   2   4    4.31    0.32
   5  -2   4    4.62    0.48
   5   2  -4    2.77    0.23
   5   2  -4    3.16    0.33
  -5  -2  -4    3.09    0.34
   5   2  -4    2.91    0.23
  -5  -2   4    4.61    0.41
   5  -2  -4    3.24    0.27
  -5   2  -4    2.92    0.32
  -5   2  -4    3.00    0.27
   5  -2  -4    2.80    0.25
   5  -2  -4    3.14    0.44
   5   2   4    4.47    0.49
  -5   2  -4    3.12    0.31
  -6   2   4  207.36    9.46
   6   2  -4  200.79    9.53
   6   2  -4  200.94    9.49
   6   2  -4  201.60    9.39
   6  -2   4  216.06    9.66
  -6  -2  -4  199.16    9.55
  -6  -2  -4  207.31    9.50
  -6  -2   4  218.56    9.56
  -6   2  -4  206.94    9.47
   6  -2  -4  207.11    9.42
  -6   2  -4  201.94    9.41
   6   2   4  221.68    9.68
  -6   2  -4  189.75    9.46
   6  -2  -4  206.12    9.65
   6   2   4  214.60    9.50
   6   2   4  214.12    9.41
   7   2  -4    3.20    0.27
  -7   2   4    3.42    0.38
  -7  -2  -4    2.97    0.43
   7  -2   4    3.80    0.40
   7  -2   4    4.01    0.58
   7   2  -4    2.67    0.38
   7  -2  -4    3.21    0.50
  -7  -2   4    3.01    0.43
   7  -2  -4    3.02    0.30
   7   2   4    3.24    0.31
   7   2   4    3.37    0.53
  -7   2  -4    3.50    0.39
   7   2   4    3.39    0.39
  -8  -2  -4  114.85    5.48
   8   2  -4  112.56    5.31
   8   2  -4  116.31    5.43
   8  -2   4  114.03    5.44
  -8   2   4  112.62    5.39
   8  -2   4  115.27    5.64
   8  -2  -4  115.16    5.60
   8   2   4  120.32    5.65
  -8  -2   4  129.81    5.50
   8  -2  -4  112.69    5.33
   8   2   4  118.57    5.44
  -8   2  -4  108.12    5.39
   9   2  -4    2.38    0.28
  -9   2   4    2.66    0.39
   9  -2   4    3.02    0.61
   9   2  -4    2.10    0.39
  -9  -2  -4    2.80    0.45
   9  -2  -4    2.26    0.49
  -9   2  -4    2.40    0.38
   9   2   4    2.95    0.59
   9  -2  -4    2.79    0.31
   9   2   4    2.12    0.39
 -10   2   4   61.45    3.05
  10   2  -4   60.29    2.93
  10  -2   4   63.01    3.37
  10   2  -4   60.56    3.07
  10   2   4   65.34    3.14
 -10   2  -4   60.89    3.04
  10  -2  -4   61.59    2.96
  10   2   4   68.65    3.39
  10  -2  -4   60.59    3.27
   0  -3  -4  469.41   22.00
   0   3  -4  486.99   21.93
   0   3   4  537.97   21.94
   0  -3   4  490.58   22.01
   0  -3  -4  465.29   21.91
   0   3   4  509.64   21.89
   0  -3   4  479.00   23.59
   0   3  -4  490.07   22.02
   0  -3  -4  491.33   22.00
   0   3  -4  419.23   21.87
   1  -3   4   22.80    1.17
   1   3  -4   22.60    1.19
   1  -3   4   21.84    1.17
  -1   3   4   23.09    1.14
  -1  -3  -4   23.43    1.21
   1   3  -4   21.97    1.14
  -1  -3  -4   22.98    1.26
   1   3  -4   22.49    1.16
   1  -3  -4   24.07    1.19
  -1   3  -4   24.37    1.18
  -1   3  -4   23.38    1.18
   1   3   4   21.25    1.28
  -1   3  -4   24.92    1.21
  -1  -3   4   22.97    1.25
   1  -3  -4   23.23    1.23
   1   3   4   24.02    1.12
   1  -3  -4   24.21    1.30
  -1  -3   4   22.15    1.11
   1   3   4   24.14    1.19
   2   3  -4  453.40   21.50
  -2   3   4  500.43   21.09
   2  -3   4  492.80   20.99
  -2  -3  -4  449.54   21.02
   2  -3   4  444.68   21.13
   2   3  -4  404.62   20.98
   2   3  -4  460.38   21.01
  -2  -3  -4  462.32   21.08
   2  -3  -4  451.97   21.14
  -2   3  -4  468.03   21.07
  -2  -3   4  465.89   21.06
  -2  -3   4  466.21   20.95
   2  -3  -4  456.39   21.06
  -2   3  -4  440.52   21.03
   2   3   4  463.30   22.73
  -2   3  -4  477.97   21.10
   2   3   4  506.33   21.01
   2   3   4  483.81   21.01
   2  -3  -4  457.15   21.08
   3  -3   4   55.57    2.61
   3   3  -4   53.31    2.61
  -3  -3  -4   56.31    2.65
  -3  -3  -4   55.07    2.71
   3  -3   4   52.63    2.65
  -3   3   4   52.16    2.56
   3   3  -4   53.95    2.55
   3   3  -4   51.77    2.54
  -3  -3   4   50.15    2.67
  -3   3  -4   55.32    2.57
   3   3   4   52.35    2.72
   3   3   4   53.39    2.52
   3  -3  -4   55.84    2.72
   3   3   4   56.24    2.61
   3  -3  -4   51.34    2.58
   3  -3  -4   57.39    2.59
  -3   3  -4   59.11    2.61
  -3   3  -4   58.08    2.62
   4   3  -4  339.76   15.91
   4   3  -4  336.10   15.92
  -4  -3  -4  357.46   15.96
  -4   3   4  357.22   15.88
  -4  -3  -4  349.27   16.02
   4  -3   4  341.82   15.99
   4  -3   4  360.39   15.93
   4   3   4  350.61   16.06
   4  -3  -4  350.85   16.04
   4  -3  -4  335.78   15.90
   4   3   4  371.46   15.83
  -4   3  -4  358.14   15.93
   4   3   4  369.74   15.93
  -4  -3   4  359.19   16.02
  -4   3  -4  349.10   15.90
  -4   3  -4  358.22   15.92
   4  -3  -4  309.92   15.85
   5  -3   4   21.81    1.30
  -5   3   4   20.39    1.14
   5   3  -4   21.88    1.19
  -5  -3  -4   23.41    1.23
  -5  -3  -4   21.31    1.28
   5   3  -4   22.76    1.11
   5   3   4   22.79    1.19
  -5   3  -4   22.44    1.16
  -5  -3   4   20.28    1.25
   5   3   4   21.44    1.09
  -5   3  -4   22.84    1.19
   5  -3  -4   22.43    1.14
   5  -3  -4   22.95    1.33
  -5   3  -4   23.17    1.11
   5   3   4   20.38    1.30
   6   3  -4  190.35    9.12
   6  -3   4  200.34    9.27
   6   3  -4  191.51    9.04
  -6   3   4  205.14    9.09
  -6  -3  -4  191.32    9.22
   6   3   4  198.70    9.27
   6  -3  -4  206.14    9.30
  -6  -3   4  197.56    9.21
   6   3   4  210.01    9.04
   6  -3  -4  201.69    9.07
  -6   3  -4  192.28    9.12
  -6   3  -4  188.56    9.09
   6   3   4  206.95    9.14
  -7   3   4    5.15    0.47
   7   3  -4    5.46    0.51
   7  -3   4    5.31    0.66
  -7  -3  -4    4.96    0.56
   7   3  -4    4.59    0.37
   7  -3  -4    5.35    0.66
   7   3   4    5.41    0.64
   7  -3  -4    4.61    0.41
  -7   3  -4    4.81    0.48
   7   3   4    5.75    0.50
  -7  -3   4    5.66    0.59
   8   3  -4  106.17    5.27
   8   3  -4  110.66    5.39
  -8  -3  -4  105.81    5.44
  -8   3   4  114.10    5.35
   8  -3   4  114.56    5.59
   8   3   4  118.92    5.40
   8   3   4  116.32    5.57
   8  -3  -4  118.67    5.31
   8  -3  -4  118.17    5.59
  -8   3  -4  109.24    5.35
  -8  -3   4  125.74    5.48
   9   3  -4    5.61    0.60
   9  -3   4    6.13    0.81
  -9   3   4    5.28    0.54
   9   3  -4    5.20    0.43
  -9  -3  -4    5.31    0.62
   9  -3  -4    6.11    0.79
  -9  -3   4    6.00    0.67
   9  -3  -4    5.57    0.46
   9   3   4    5.75    0.76
  -9   3  -4    5.47    0.55
  10   3  -4   46.89    2.48
  10   3  -4   46.68    2.34
  10  -3  -4   49.85    2.37
 -10   3  -4   48.95    2.44
  10  -3  -4   50.41    2.71
   0   4   4  246.10   10.86
   0  -4  -4  232.72   10.93
   0   4  -4  239.57   10.94
   0  -4   4  223.23   10.97
   0   4  -4  246.04   10.91
   0  -4  -4  246.57   11.01
   0  -4  -4  238.30   11.00
   1  -4   4   25.97    1.38
  -1  -4  -4   25.55    1.36
  -1   4   4   25.55    1.27
   1   4  -4   24.16    1.34
  -1  -4  -4   23.37    1.39
   1   4  -4   26.69    1.30
   1  -4   4   24.94    1.28
   1  -4  -4   24.95    1.37
   1  -4  -4   24.34    1.32
  -1   4  -4   25.58    1.35
   1  -4  -4   25.09    1.40
   1   4   4   26.96    1.26
   1   4   4   25.48    1.42
  -1   4  -4   26.55    1.32
  -1  -4   4   25.13    1.40
  -2   4   4  243.16   10.82
   2  -4   4  234.66   10.85
  -2  -4  -4  243.97   10.91
  -2  -4  -4  237.20   10.97
   2   4  -4  236.96   10.83
   2  -4   4  229.28   10.88
   2   4  -4  241.37   10.88
   2   4   4  251.90   10.79
  -2   4  -4  245.92   10.88
   2  -4  -4  239.37   10.85
   2   4   4  223.78   10.95
   2  -4  -4  225.33   10.88
  -2  -4   4  231.39   10.95
   2  -4  -4  239.21   10.96
  -2   4  -4  239.99   10.85
   3  -4   4   21.78    1.21
  -3  -4  -4   22.99    1.31
  -3  -4  -4   22.84    1.24
  -3   4   4   21.82    1.14
   3   4  -4   22.05    1.14
   3   4  -4   21.53    1.21
   3  -4   4   22.56    1.20
   3  -4  -4   22.01    1.29
  -3  -4   4   21.89    1.29
  -3   4  -4   21.63    1.16
   3  -4  -4   22.45    1.17
   3  -4  -4   20.73    1.17
  -3   4  -4   23.44    1.21
   3   4   4   20.77    1.28
   3   4   4   22.95    1.11
   4  -4   4  175.79    8.07
   4  -4   4  174.86    8.14
   4   4  -4  173.00    8.03
  -4  -4  -4  172.62    8.13
  -4  -4  -4  174.46    8.20
  -4   4   4  179.23    8.04
   4   4  -4  172.69    8.10
  -4  -4   4  171.60    8.19
   4  -4  -4  173.68    8.04
  -4   4  -4  173.47    8.05
  -4   4  -4  180.03    8.09
   4   4   4  168.32    8.18
   4  -4  -4  179.61    8.21
   4   4   4  184.33    7.99
   5   4  -4   10.69    0.65
   5  -4   4   11.24    0.80
   5   4  -4   10.63    0.75
  -5  -4  -4   10.45    0.84
  -5   4   4   11.52    0.69
  -5   4  -4   10.59    0.72
   5   4   4   11.55    0.66
  -5   4  -4   10.57    0.68
   5   4   4   10.98    0.82
  -5  -4   4    9.64    0.81
   5  -4  -4   10.79    0.86
   5  -4  -4   10.98    0.68
   6   4  -4  103.94    4.86
  -6  -4  -4   99.18    5.03
   6  -4   4  109.02    5.07
   6   4  -4  100.21    4.94
  -6   4   4  104.35    4.88
  -6   4  -4  105.34    4.93
   6  -4  -4  110.16    5.10
  -6  -4   4  100.84    5.03
   6   4   4  102.07    5.04
   6  -4  -4  110.08    4.89
   7   4  -4    6.70    0.53
  -7   4   4    7.85    0.58
   7   4  -4    7.34    0.64
   7  -4   4    8.14    0.78
  -7  -4  -4    6.61    0.71
  -7  -4   4    8.23    0.72
   7  -4  -4    7.94    0.57
   7  -4  -4    7.89    0.80
  -7   4  -4    7.29    0.61
  -8   4   4   61.94    3.08
   8   4  -4   61.95    3.14
   8  -4   4   64.51    3.33
  -8  -4  -4   62.50    3.23
   8   4  -4   63.29    3.03
   8  -4  -4   66.26    3.34
   8  -4  -4   65.68    3.06
  -8   4  -4   62.56    3.11
  -8  -4   4   63.32    3.23
  -9   4   4    4.71    0.53
  -9  -4  -4    4.92    0.65
   9  -4   4    5.27    0.76
   9   4  -4    5.34    0.63
   9   4  -4    3.93    0.43
   9  -4  -4    4.22    0.46
  -9  -4   4    6.22    0.73
   9  -4  -4    4.52    0.71
  -9   4  -4    4.65    0.55
   0   5  -4  165.82    7.64
   0   5  -4  164.26    7.68
   0  -5  -4  159.71    7.65
   0   5   4  170.86    7.59
   0  -5   4  163.15    7.73
   0   5   4  168.15    7.77
   0  -5  -4  167.02    7.74
  -1  -5  -4   37.32    1.99
  -1  -5  -4   38.29    1.93
   1   5  -4   37.03    1.87
   1   5  -4   37.83    1.93
  -1   5   4   37.50    1.84
   1  -5   4   36.58    1.95
  -1   5  -4   38.94    1.88
   1   5   4   35.30    1.97
   1  -5  -4   37.47    1.95
  -1  -5   4   36.60    1.99
   1  -5  -4   36.55    1.94
   1  -5  -4   36.92    1.89
  -1   5  -4   35.95    1.90
   1   5   4   38.96    1.83
   2   5  -4  157.93    7.29
  -2  -5  -4  151.44    7.35
  -2  -5  -4  161.81    7.30
   2   5  -4  158.29    7.23
  -2   5   4  156.18    7.20
   2  -5   4  158.59    7.31
   2   5   4  149.87    7.33
  -2   5  -4  153.59    7.27
  -2   5  -4  162.01    7.25
   2  -5  -4  156.18    7.34
   2  -5  -4  153.15    7.24
  -2  -5   4  150.89    7.36
   2   5   4  166.25    7.19
   2  -5  -4  157.06    7.30
  -3  -5  -4   49.40    2.56
   3   5  -4   48.92    2.48
   3   5  -4   49.14    2.41
   3  -5   4   47.87    2.46
   3  -5   4   48.63    2.48
  -3  -5  -4   52.49    2.51
  -3   5   4   50.20    2.40
   3  -5  -4   51.26    2.56
   3  -5  -4   51.60    2.44
   3   5   4   45.59    2.50
  -3   5  -4   49.74    2.42
  -3   5  -4   51.01    2.47
   3   5   4   50.03    2.36
  -3  -5   4   45.27    2.55
   4  -5   4  125.93    6.00
   4   5  -4  128.75    5.93
  -4   5   4  125.56    5.90
  -4  -5  -4  122.96    6.07
   4   5  -4  124.68    5.99
  -4  -5   4  126.33    6.10
  -4   5  -4  128.32    5.93
   4  -5  -4  132.10    6.09
  -4   5  -4  131.88    5.98
   4  -5  -4  127.57    5.94
   5   5  -4   26.17    1.36
  -5  -5  -4   24.69    1.53
  -5   5   4   25.65    1.35
   5   5  -4   25.43    1.44
   5  -5   4   25.63    1.48
   5  -5  -4   26.18    1.38
  -5  -5   4   25.31    1.54
   5  -5  -4   26.37    1.56
  -5   5  -4   25.57    1.42
   6   5  -4   74.98    3.74
   6   5  -4   76.89    3.65
  -6  -5  -4   73.67    3.83
   6  -5   4   79.22    3.83
  -6   5   4   75.29    3.65
  -6   5  -4   75.06    3.70
   6  -5  -4   82.06    3.89
  -6  -5   4   73.65    3.82
   6  -5  -4   79.29    3.68
   7   5  -4    9.49    0.82
   7  -5   4   10.34    0.91
  -7   5   4   10.86    0.72
   7   5  -4   10.23    0.69
  -7  -5  -4    8.70    0.86
   7  -5  -4    9.86    0.70
  -7  -5   4   10.36    0.90
   7  -5  -4   10.97    0.99
  -7   5  -4    8.69    0.74
   8   5  -4   41.27    2.19
   8  -5   4   42.12    2.32
  -8   5   4   41.81    2.09
   8   5  -4   39.63    2.07
  -8   5  -4   37.32    2.12
  -8  -5   4   42.54    2.30
   8  -5  -4   42.90    2.35
   8  -5  -4   42.63    2.10
   0   6  -4  110.82    5.40
   0   6   4  116.78    5.32
   0  -6  -4  115.30    5.47
   0  -6   4  105.91    5.45
   0   6   4  116.55    5.52
   0   6  -4  117.30    5.37
   0  -6  -4  117.16    5.39
   1   6  -4   20.34    1.15
   1   6  -4   19.16    1.19
   1  -6   4   20.12    1.24
  -1  -6  -4   19.36    1.26
  -1   6   4   21.60    1.12
  -1  -6  -4   19.97    1.20
   1   6   4   22.01    1.12
   1  -6  -4   21.23    1.26
  -1   6  -4   20.12    1.15
  -1   6  -4   18.33    1.18
  -1  -6   4   20.25    1.29
   1  -6  -4   20.31    1.17
   1  -6  -4   20.13    1.22
   2   6  -4   95.12    4.70
   2  -6   4   94.50    4.72
  -2  -6  -4   98.11    4.78
  -2   6   4   94.21    4.61
   2   6  -4  104.64    4.67
   2  -6  -4  102.04    4.75
   2  -6  -4  101.03    4.68
  -2  -6   4   93.18    4.79
   2   6   4  101.15    4.60
  -2   6  -4   97.53    4.70
  -2   6  -4  101.39    4.66
   3   6  -4   15.65    0.99
   3  -6   4   16.06    1.08
  -3   6   4   17.57    0.99
   3   6  -4   16.34    1.08
  -3  -6  -4   18.28    1.18
  -3   6  -4   17.30    1.01
  -3   6  -4   17.70    1.08
   3  -6  -4   17.77    1.04
  -3  -6   4   16.68    1.18
   3  -6  -4   17.24    1.15
   4   6  -4   69.79    3.40
   4   6  -4   68.97    3.47
  -4   6   4   70.85    3.37
  -4  -6  -4   70.27    3.56
  -4   6  -4   71.90    3.46
   4  -6  -4   74.55    3.56
   4  -6  -4   71.60    3.42
  -4  -6   4   65.00    3.56
  -5   6   4   11.35    0.75
   5   6  -4   11.13    0.88
  -5  -6  -4   10.79    0.95
   5   6  -4   10.28    0.75
  -5   6  -4   11.65    0.85
   5  -6  -4   11.93    0.95
   5  -6  -4   11.31    0.80
  -5  -6   4   10.26    0.94
   6   6  -4   45.97    2.38
  -6   6   4   46.01    2.37
   6   6  -4   48.18    2.50
  -6  -6  -4   48.15    2.59
  -6  -6   4   44.24    2.58
  -6   6  -4   47.44    2.44
   6  -6  -4   50.52    2.43
   6  -6  -4   52.24    2.64
   0  -7  -4   55.68    2.76
   0   7   4   53.45    2.58
   0  -7   4   50.81    2.76
   0   7  -4   52.59    2.63
   0   7  -4   51.34    2.68
   1  -7   4   16.26    1.15
  -1  -7  -4   19.30    1.21
  -1   7   4   15.32    1.00
   1   7  -4   16.52    1.10
   1   7  -4   16.98    1.05
  -1  -7   4   15.89    1.19
  -1   7  -4   17.97    1.05
   1  -7  -4   17.78    1.08
  -1   7  -4   17.05    1.10
   2   7  -4   49.49    2.60
   2  -7   4   47.88    2.65
   2   7  -4   54.34    2.58
  -2   7   4   49.65    2.51
  -2  -7  -4   54.89    2.73
   2  -7  -4   53.24    2.59
  -2  -7   4   46.65    2.69
  -2   7  -4   54.93    2.57
  -2   7  -4   48.34    2.59
   3   7  -4   15.46    1.10
  -3  -7  -4   17.85    1.22
  -3   7   4   17.18    1.02
   3   7  -4   17.73    1.06
  -3   7  -4   17.10    1.12
   3  -7  -4   17.73    1.08
  -3  -7   4   15.17    1.22
   0   0  -5    0.06    0.05
   0   0   5   -0.04    0.13
   0   0  -5    0.12    0.07
   0   0  -5    0.22    0.11
   0   0  -5    0.10    0.07
  -1   0   5  650.07   28.34
   1   0  -5  586.61   29.11
  -1   0  -5  618.39   28.05
  -1   0  -5  616.51   27.97
   1   0  -5  536.75   27.88
   1   0   5  657.43   28.33
  -1   0  -5  581.09   29.58
  -1   0  -5  652.68   28.22
   1   0  -5  552.03   28.50
   1   0  -5  715.59   27.94
   2   0  -5    0.07    0.15
   2   0  -5    0.40    0.04
   2   0   5    0.36    0.19
   2   0   5    0.27    0.11
   2   0  -5    0.20    0.04
  -2   0  -5    0.11    0.10
   2   0  -5    0.09    0.11
  -2   0  -5    0.23    0.04
  -2   0  -5    0.15    0.13
   2   0  -5    0.09    0.08
   3   0   5  488.50   21.43
   3   0  -5  506.12   21.46
  -3   0  -5  454.84   21.35
   3   0  -5  449.85   22.76
   3   0  -5  438.87   21.50
  -3   0  -5  456.52   21.39
   3   0   5  513.44   21.68
  -3   0  -5  473.03   21.53
   4   0  -5   -0.01    0.17
   4   0  -5    0.07    0.12
  -4   0  -5    0.42    0.11
  -4   0  -5    0.23    0.16
   4   0   5    0.34    0.21
  -4   0  -5    0.01    0.12
   4   0   5    0.17    0.13
   4   0  -5    0.51    0.15
   5   0  -5  292.43   13.94
   5   0   5  329.25   14.16
   5   0  -5  312.11   13.95
  -5   0  -5  290.68   13.90
  -5   0  -5  314.87   13.96
   5   0  -5  290.87   14.06
   5   0   5  317.71   13.98
  -5   0  -5  310.27   13.97
  -6   0  -5    0.00    0.16
   6   0   5    0.27    0.28
   6   0  -5    0.13    0.16
   6   0  -5    0.33    0.23
  -6   0  -5    0.04    0.15
   6   0   5    0.03    0.16
  -6   0   5    0.10    0.15
   7   0  -5  200.75    9.46
  -7   0   5  211.02    9.61
  -7   0  -5  217.28    9.61
   7   0  -5  211.62    9.46
   7   0   5  210.15    9.84
   7   0  -5  207.90    9.74
  -8   0  -5    0.06    0.19
   8   0  -5    0.30    0.29
   8   0  -5    0.21    0.09
  -8   0   5   -0.07    0.21
   8   0   5    0.41    0.37
  -9   0   5  112.92    5.24
   9   0  -5  109.04    5.08
   9   0   5  113.09    5.54
   9   0  -5  111.33    5.40
  10   0  -5    0.19    0.13
 -10   0   5    0.22    0.28
  10   0  -5    0.23    0.34
  10   0   5    0.16    0.45
   0  -1  -5    2.88    0.28
   0   1  -5    2.97    0.20
   0  -1  -5    2.98    0.22
   0   1  -5    2.62    0.20
   0   1  -5    2.75    0.20
   0  -1  -5    2.70    0.21
   0   1  -5    3.03    0.27
   1   1  -5  361.06   16.46
  -1  -1  -5  360.08   16.45
   1  -1   5  404.75   16.62
  -1   1   5  404.76   16.37
   1   1  -5  383.93   16.37
   1   1  -5  350.74   16.50
  -1  -1  -5  320.25   16.34
  -1  -1  -5  354.99   16.37
   1   1  -5  378.79   16.37
   1  -1  -5  347.54   16.47
   1  -1  -5  303.98   16.32
   1  -1  -5  342.09   16.39
   1  -1  -5  341.90   16.49
  -1  -1   5  399.33   16.49
  -1   1  -5  327.79   17.16
  -1   1  -5  385.38   16.42
  -1   1  -5  350.36   16.37
   1   1   5  382.90   16.51
  -1   1  -5  365.40   16.42
   2   1  -5    4.02    0.29
  -2  -1  -5    4.10    0.37
   2   1  -5    4.33    0.22
   2   1  -5    4.15    0.34
   2   1  -5    4.09    0.22
  -2  -1  -5    4.47    0.32
   2  -1  -5    5.25    0.45
  -2   1  -5    4.11    0.33
  -2   1  -5    4.32    0.27
   2  -1  -5    3.65    0.24
  -2   1  -5    4.56    0.30
   2  -1  -5    4.45    0.25
   2  -1  -5    3.84    0.32
   3  -1   5  576.33   24.34
   3  -1   5  535.57   24.22
  -3  -1  -5  562.91   24.41
  -3  -1  -5  536.74   24.30
   3   1  -5  516.40   24.21
   3   1  -5  517.26   26.14
   3   1  -5  583.78   24.27
  -3   1   5  566.01   24.25
   3  -1  -5  462.00   24.11
   3  -1  -5  489.81   24.12
  -3   1  -5  529.99   24.23
   3   1   5  570.14   24.34
   3  -1  -5  505.01   24.20
  -3   1  -5  546.36   25.24
   3  -1  -5  534.02   24.50
   3   1   5  535.75   24.25
  -3   1  -5  519.54   24.21
   4   1  -5    4.20    0.36
  -4  -1  -5    3.96    0.39
   4   1  -5    3.88    0.32
  -4  -1  -5    4.04    0.34
   4   1  -5    4.51    0.41
   4  -1  -5    3.66    0.23
   4  -1  -5    3.85    0.22
   4  -1  -5    4.26    0.46
   4  -1  -5    3.78    0.31
  -4   1  -5    4.16    0.31
  -4   1  -5    4.13    0.34
  -4   1  -5    4.38    0.34
   5  -1   5  297.20   13.29
   5   1  -5  292.03   13.35
   5   1  -5  287.60   13.26
   5  -1   5  305.41   13.44
  -5  -1  -5  299.62   13.32
  -5  -1  -5  301.00   13.28
  -5   1   5  298.81   13.24
   5  -1  -5  273.13   13.16
  -5   1  -5  289.62   13.24
   5   1   5  298.74   13.28
  -5  -1   5  302.57   13.31
   5  -1  -5  269.83   13.22
  -5   1  -5  285.20   13.23
   5  -1  -5  278.64   13.17
   5   1   5  306.04   13.47
   5  -1  -5  273.84   13.39
  -5   1  -5  300.56   13.27
  -6  -1  -5    1.15    0.25
   6   1  -5    0.91    0.26
  -6   1   5    1.69    0.25
   6   1  -5    0.96    0.23
  -6  -1  -5    1.08    0.26
   6  -1   5    1.38    0.37
   6   1   5    2.07    0.31
  -6   1  -5    0.89    0.21
  -6   1  -5    0.87    0.20
   6  -1  -5    0.97    0.12
   6  -1  -5    0.92    0.31
  -6   1  -5    1.28    0.22
   6   1   5    1.76    0.41
  -6  -1   5    1.54    0.28
   7   1  -5  121.41    5.86
   7   1  -5  122.43    5.95
  -7   1   5  131.07    5.85
   7   1  -5  125.96    5.70
  -7  -1  -5  126.41    5.90
   7  -1   5  133.01    6.10
   7  -1  -5  126.15    5.74
   7  -1  -5  116.96    5.73
   7   1   5  129.45    6.10
  -7   1  -5  121.12    5.81
   7  -1  -5  128.95    6.03
  -7   1  -5  116.91    5.82
  -7  -1   5  143.44    5.93
  -8  -1  -5    0.81    0.27
   8  -1   5    1.35    0.47
   8   1  -5    1.35    0.30
   8   1  -5    1.15    0.13
   8   1  -5    0.99    0.32
  -8   1   5    0.97    0.27
   8   1   5    0.99    0.40
   8  -1  -5    1.26    0.17
   8  -1  -5    1.27    0.38
   9   1  -5   88.94    4.27
  -9   1   5   88.69    4.24
   9   1  -5   86.88    4.09
   9  -1   5   92.44    4.56
  -9  -1  -5   90.11    4.27
   9  -1  -5   86.94    4.43
   9   1   5   95.44    4.57
   9  -1  -5   88.37    4.12
  10   1  -5    0.57    0.14
  10  -1   5    0.16    0.44
 -10   1   5    0.36    0.29
  10  -1  -5    0.16    0.15
  10   1   5    0.46    0.46
 -10  -1   5    0.21    0.29
  10  -1  -5    0.45    0.38
   0   2  -5    1.06    0.15
   0   2  -5    1.05    0.16
   0  -2  -5    0.83    0.15
   0   2  -5    1.06    0.20
   0  -2  -5    1.05    0.22
   0   2  -5    0.90    0.16
   0  -2  -5    1.16    0.19
  -1  -2  -5  460.64   20.76
   1  -2   5  461.05   20.74
   1   2  -5  460.45   20.59
   1   2  -5  440.15   20.61
   1   2  -5  456.07   20.73
  -1  -2  -5  432.92   20.62
   1   2  -5  424.49   20.63
  -1   2  -5  454.02   20.68
  -1   2  -5  423.57   20.65
  -1   2  -5  460.18   21.59
  -1   2  -5  446.76   20.66
   1   2   5  459.16   20.74
   1   2   5  511.90   20.55
   1  -2  -5  458.00   20.79
   1   2   5  460.94   20.65
   1  -2  -5  467.44   20.75
  -1  -2   5  501.85   20.72
   1  -2  -5  415.26   20.60
   2   2  -5   14.34    0.83
   2   2  -5   16.00    0.77
   2   2  -5   14.78    0.86
  -2   2   5   16.47    0.80
   2   2  -5   14.32    0.77
   2  -2   5   15.76    0.91
   2  -2   5   16.81    0.85
  -2  -2  -5   16.24    0.87
  -2  -2  -5   15.88    0.92
  -2   2  -5   15.51    0.84
   2   2   5   15.36    0.84
  -2  -2   5   17.53    0.87
   2  -2  -5   14.93    0.86
   2  -2  -5   15.23    0.81
  -2   2  -5   15.44    0.83
   2   2   5   15.83    0.73
  -2   2  -5   15.88    0.83
   2  -2  -5   16.99    0.99
   2   2   5   15.84    0.99
   3   2  -5  379.22   17.50
   3   2  -5  366.46   17.39
  -3  -2  -5  378.95   17.53
   3   2  -5  349.79   17.40
   3   2  -5  391.06   17.44
   3  -2   5  396.07   17.54
  -3  -2  -5  383.53   17.47
  -3   2   5  414.02   17.43
  -3  -2   5  416.90   17.57
   3   2   5  404.12   17.62
  -3   2  -5  384.47   17.52
   3  -2  -5  356.23   17.42
   3  -2  -5  371.26   17.47
   3  -2  -5  372.07   17.57
   3   2   5  403.63   17.45
  -3   2  -5  373.91   17.48
  -3   2  -5  387.58   17.43
  -3  -2   5  399.05   17.53
   4   2  -5   25.62    1.33
  -4   2   5   25.99    1.30
  -4  -2  -5   28.02    1.38
  -4  -2  -5   26.36    1.43
   4  -2   5   27.74    1.46
   4   2  -5   26.19    1.23
   4   2  -5   27.18    1.23
   4   2  -5   25.47    1.34
   4   2   5   27.61    1.53
  -4   2  -5   27.22    1.33
   4  -2  -5   26.73    1.28
  -4   2  -5   25.42    1.31
  -4   2  -5   26.64    1.33
   4  -2  -5   26.85    1.48
   4   2   5   27.56    1.36
   4  -2  -5   23.86    1.27
   4  -2  -5   23.60    1.29
  -4  -2   5   26.24    1.41
  -5  -2  -5  254.36   11.41
   5  -2   5  254.43   11.53
  -5  -2  -5  251.14   11.47
   5   2  -5  254.80   11.28
   5   2  -5  247.08   11.39
   5   2  -5  240.69   11.26
  -5   2   5  252.71   11.35
   5   2  -5  254.61   11.39
  -5   2  -5  251.10   11.37
   5   2   5  261.63   11.59
   5  -2  -5  242.80   11.53
  -5   2  -5  250.28   11.37
   5  -2  -5  220.74   11.30
  -5  -2   5  256.92   11.46
   5   2   5  260.94   11.46
   5  -2  -5  241.56   11.30
  -5   2  -5  246.76   11.34
   6   2  -5    2.24    0.18
   6   2  -5    2.58    0.35
   6   2  -5    2.26    0.18
  -6  -2  -5    3.09    0.37
  -6  -2  -5    2.81    0.41
  -6   2   5    2.85    0.32
   6  -2   5    2.90    0.47
   6  -2  -5    2.75    0.47
  -6  -2   5    2.93    0.41
  -6   2  -5    3.00    0.36
   6   2   5    2.37    0.45
  -6   2  -5    3.13    0.33
  -6   2  -5    2.14    0.27
  -7  -2  -5  152.65    7.30
   7  -2   5  157.83    7.43
   7   2  -5  158.83    7.08
  -7   2   5  153.77    7.20
   7   2  -5  149.36    7.23
   7   2  -5  149.39    7.10
  -7   2  -5  149.89    7.20
   7  -2  -5  161.46    7.14
  -7  -2   5  167.43    7.31
   7  -2  -5  161.74    7.41
   7   2   5  157.61    7.46
  -8   2   5    1.71    0.32
   8   2  -5    0.73    0.30
   8  -2   5    1.63    0.49
   8   2  -5    1.42    0.17
  -8  -2  -5    1.30    0.35
  -8   2  -5    1.19    0.27
   8  -2  -5    1.69    0.45
   8   2   5    1.15    0.42
   8  -2  -5    1.49    0.22
  -8  -2   5    1.84    0.39
   9   2  -5   76.19    3.88
   9   2  -5   78.55    3.71
   9  -2   5   84.54    4.17
  -9  -2  -5   80.62    3.92
  -9   2   5   81.96    3.85
   9   2   5   85.09    4.17
   9  -2  -5   81.84    4.09
   9  -2  -5   78.64    3.75
 -10   2   5    2.74    0.43
  10   2  -5    2.65    0.46
  10  -2   5    2.96    0.68
  10   2  -5    2.65    0.25
  10  -2  -5    2.93    0.31
  10   2   5    3.26    0.69
  10  -2  -5    2.66    0.58
   0   3  -5   37.95    1.74
   0   3  -5   36.13    1.76
   0   3   5   36.66    1.68
   0   3   5   31.89    1.87
   0  -3   5   32.94    1.72
   0  -3  -5   36.64    1.77
   0  -3  -5   35.85    1.83
   0   3  -5   36.95    1.77
  -1  -3  -5  290.33   13.56
   1  -3   5  279.99   13.47
   1   3  -5  293.52   13.44
  -1   3   5  312.16   13.46
   1   3  -5  293.03   13.48
  -1  -3  -5  288.46   13.50
   1  -3  -5  289.27   13.52
  -1  -3   5  291.11   13.56
  -1   3  -5  297.95   13.46
   1  -3  -5  314.22   13.62
  -1   3  -5  299.63   13.47
  -1  -3   5  288.74   13.46
   1   3   5  289.52   13.62
   1  -3  -5  296.64   13.48
   1   3   5  320.31   13.52
  -1   3  -5  297.44   13.48
  -2  -3  -5   25.66    1.34
   2   3  -5   24.50    1.31
   2   3  -5   24.76    1.25
  -2   3   5   26.27    1.26
   2  -3   5   24.35    1.33
  -2   3  -5   26.55    1.29
   2   3   5   25.86    1.20
   2   3   5   24.73    1.44
   2  -3  -5   26.79    1.30
  -2   3  -5   26.73    1.32
  -2  -3   5   24.89    1.39
   2  -3  -5   24.18    1.33
   2  -3  -5   26.11    1.44
  -2   3  -5   25.15    1.29
  -3  -3  -5  305.48   13.88
   3   3  -5  297.51   13.73
  -3   3   5  322.80   13.73
  -3  -3  -5  307.78   13.82
   3   3  -5  299.59   13.79
   3  -3   5  288.01   13.82
  -3   3  -5  304.51   13.78
   3  -3  -5  305.24   13.74
  -3  -3   5  305.17   13.87
   3  -3  -5  286.53   13.76
  -3   3  -5  304.74   13.76
   3   3   5  300.26   13.94
  -3   3  -5  301.82   13.74
   3  -3  -5  309.18   13.92
  -4  -3  -5   11.17    0.74
   4   3  -5   10.98    0.62
  -4  -3  -5   11.17    0.81
   4   3  -5   11.24    0.72
  -4   3   5   12.57    0.67
   4  -3   5   12.30    0.80
  -4   3  -5   11.26    0.69
  -4   3  -5   11.87    0.71
  -4  -3   5   12.29    0.81
   4  -3  -5   11.20    0.66
   4  -3  -5   10.82    0.84
  -4   3  -5   10.90    0.66
   4   3   5   12.50    0.88
  -5  -3  -5  172.36    8.31
   5  -3   5  179.69    8.34
  -5  -3  -5  185.67    8.27
  -5   3   5  177.82    8.17
   5   3  -5  173.14    8.12
   5   3  -5  182.12    8.24
   5   3   5  176.92    8.39
  -5   3  -5  181.35    8.21
  -5   3  -5  177.05    8.15
  -5  -3   5  177.43    8.32
   5  -3  -5  181.85    8.16
   5  -3  -5  180.67    8.37
  -5   3  -5  174.81    8.19
  -6  -3  -5    9.23    0.76
   6   3  -5    9.69    0.69
   6   3  -5    9.65    0.55
  -6   3   5    9.72    0.63
   6  -3   5   10.14    0.83
   6   3   5    9.19    0.83
   6  -3  -5    9.76    0.59
  -6   3  -5   10.00    0.65
   6  -3  -5   10.62    0.85
  -6   3  -5   10.00    0.66
  -6  -3   5    9.43    0.75
   7   3  -5   94.07    4.63
  -7   3   5   98.76    4.58
   7  -3   5  102.89    4.83
   7   3  -5   94.97    4.49
  -7  -3  -5   92.60    4.70
   7  -3  -5  100.42    4.82
  -7  -3   5   98.48    4.72
   7   3   5   98.76    4.81
  -7   3  -5   99.18    4.61
  -8   3   5    7.60    0.63
  -8  -3  -5    8.05    0.76
   8   3  -5    9.28    0.52
   8  -3   5    8.26    0.88
   8   3  -5    7.79    0.68
   8  -3  -5    9.03    0.86
   8   3   5    7.92    0.84
  -8  -3   5    8.88    0.75
  -8   3  -5    8.58    0.65
   8  -3  -5    9.09    0.57
   9   3  -5   55.33    2.74
  -9  -3  -5   57.33    2.99
   9   3  -5   55.84    2.91
  -9   3   5   60.16    2.87
   9  -3   5   60.22    3.18
   9  -3  -5   60.36    2.80
   9  -3  -5   58.73    3.12
   9   3   5   63.82    3.17
  -9   3  -5   56.08    2.90
   0   4   5   18.15    0.86
   0   4   5   16.20    1.06
   0  -4  -5   14.90    0.98
   0   4  -5   16.49    0.90
   0  -4   5   15.57    0.99
   0  -4  -5   15.79    0.94
   0   4  -5   16.45    0.96
  -1   4   5  256.23   11.15
   1  -4   5  246.58   11.28
  -1  -4  -5  239.19   11.30
  -1  -4  -5  246.90   11.24
   1   4  -5  246.39   11.24
   1   4  -5  247.26   11.18
   1  -4   5  230.95   11.17
   1   4   5  248.21   11.36
  -1   4  -5  246.67   11.19
   1  -4  -5  242.71   11.32
   1   4   5  263.97   11.13
  -1  -4   5  240.39   11.30
  -1   4  -5  245.53   11.23
   1  -4  -5  236.05   11.27
   1  -4  -5  241.91   11.21
  -2  -4  -5   40.40    2.09
   2  -4   5   38.21    1.97
  -2  -4  -5   41.98    2.03
   2   4  -5   38.66    2.00
   2  -4   5   38.38    2.01
  -2   4   5   40.07    1.92
   2   4  -5   37.73    1.92
  -2  -4   5   39.51    2.08
   2  -4  -5   41.95    2.10
   2  -4  -5   37.87    2.00
   2   4   5   37.57    2.10
  -2   4  -5   42.45    2.00
   2  -4  -5   40.05    1.96
  -2   4  -5   40.18    1.95
  -3  -4  -5  210.08    9.95
   3   4  -5  217.76    9.86
   3   4  -5  212.11    9.93
   3  -4   5  214.77    9.94
  -3   4   5  227.27    9.86
   3  -4   5  221.89    9.94
  -3  -4  -5  218.02   10.02
   3  -4  -5  195.24    9.89
  -3   4  -5  211.86    9.88
  -3   4  -5  223.04    9.93
   3   4   5  213.23   10.04
   3  -4  -5  225.50   10.05
   3  -4  -5  218.84    9.88
  -3  -4   5  214.75   10.02
  -4  -4  -5   41.20    2.16
  -4  -4  -5   41.28    2.11
   4   4  -5   40.24    1.97
   4   4  -5   39.38    2.06
   4  -4   5   38.96    2.09
   4  -4   5   41.36    2.05
  -4   4   5   39.07    1.98
  -4   4  -5   40.73    2.01
   4  -4  -5   42.85    2.01
  -4   4  -5   42.98    2.06
   4  -4  -5   42.95    2.20
  -4  -4   5   40.02    2.16
   4   4   5   36.75    2.15
  -4   4  -5   41.69    1.98
  -5   4   5  149.48    6.82
   5   4  -5  143.38    6.90
   5   4  -5  145.56    6.80
  -5  -4  -5  147.93    6.99
   5  -4   5  151.07    6.98
  -5   4  -5  145.75    6.85
  -5   4  -5  150.10    6.80
   5  -4  -5  149.35    7.04
   5   4   5  141.65    7.01
  -5   4  -5  152.30    6.88
  -5  -4   5  144.16    6.99
   5  -4  -5  156.43    6.84
  -6   4   5    9.55    0.63
   6   4  -5    8.21    0.70
   6   4  -5    8.22    0.56
  -6  -4  -5    9.62    0.80
   6  -4   5    9.05    0.78
   6  -4  -5    8.62    0.82
   6   4   5    8.27    0.78
  -6  -4   5    9.64    0.80
   6  -4  -5    8.52    0.59
  -6   4  -5    8.88    0.66
  -7  -4  -5   79.18    4.06
  -7   4   5   84.40    3.91
   7   4  -5   79.21    3.85
   7  -4   5   86.64    4.15
   7   4  -5   78.51    3.98
   7  -4  -5   86.80    4.17
  -7  -4   5   84.47    4.09
  -7   4  -5   79.57    3.94
   7   4   5   82.01    4.19
   7  -4  -5   84.33    3.89
   8   4  -5    4.65    0.41
  -8   4   5    5.78    0.54
  -8  -4  -5    5.73    0.70
   8   4  -5    5.40    0.60
   8  -4   5    5.98    0.80
   8  -4  -5    5.03    0.46
  -8   4  -5    5.38    0.55
   8  -4  -5    6.03    0.78
  -8  -4   5    5.96    0.66
   0  -5   5   24.06    1.42
   0   5   5   23.54    1.45
   0  -5  -5   25.19    1.43
   0   5  -5   24.45    1.31
   0   5  -5   24.01    1.36
   0  -5  -5   25.23    1.35
   0   5   5   25.56    1.26
  -1  -5  -5  165.20    7.63
  -1   5   5  167.31    7.46
   1  -5   5  158.07    7.59
  -1  -5  -5  162.28    7.55
   1   5  -5  163.79    7.50
   1   5  -5  162.27    7.56
  -1  -5   5  158.64    7.64
   1   5   5  163.10    7.67
   1  -5  -5  161.54    7.52
   1  -5  -5  157.79    7.59
  -1   5  -5  161.96    7.55
  -1   5  -5  162.02    7.51
   1  -5  -5  169.89    7.64
   2  -5   5   19.52    1.15
   2   5  -5   19.30    1.06
  -2  -5  -5   19.19    1.13
  -2   5   5   20.44    1.04
  -2  -5  -5   18.55    1.22
   2   5  -5   17.72    1.12
   2  -5  -5   18.54    1.14
   2  -5  -5   18.46    1.08
   2  -5  -5   18.88    1.19
   2   5   5   19.37    1.22
  -2   5  -5   20.69    1.09
  -2  -5   5   20.43    1.24
  -2   5  -5   18.24    1.12
   3   5  -5  119.93    5.67
   3   5  -5  122.30    5.76
  -3   5   5  128.30    5.66
   3  -5   5  118.53    5.74
  -3  -5  -5  126.46    5.77
  -3  -5  -5  123.21    5.84
  -3   5  -5  120.26    5.68
   3  -5  -5  123.68    5.70
   3   5   5  118.87    5.82
  -3  -5   5  120.26    5.85
  -3   5  -5  119.58    5.73
   3  -5  -5  123.21    5.84
  -4   5   5   14.03    0.76
   4   5  -5   10.95    0.84
   4  -5   5   13.04    0.83
   4  -5   5   13.68    0.86
  -4  -5  -5   11.44    0.93
   4   5  -5   10.75    0.73
   4   5   5   12.22    0.95
   4  -5  -5   11.66    0.93
  -4   5  -5   11.09    0.76
  -4   5  -5   10.45    0.79
   4  -5  -5   11.92    0.77
  -4  -5   5   12.50    0.95
   5  -5   5   83.25    4.04
   5   5  -5   80.36    4.00
   5   5  -5   82.98    3.90
  -5  -5  -5   81.16    4.09
  -5   5   5   81.84    3.89
   5  -5  -5   88.44    4.14
  -5  -5   5   80.87    4.11
  -5   5  -5   78.53    3.96
   5  -5  -5   81.06    3.92
  -5   5  -5   87.20    3.98
   6   5  -5    9.56    0.80
   6   5  -5    9.55    0.65
  -6  -5  -5    9.30    0.86
  -6   5   5    9.91    0.68
   6  -5   5    9.47    0.84
  -6   5  -5    9.37    0.74
   6  -5  -5    9.21    0.68
  -6  -5   5    9.38    0.87
   6  -5  -5   11.06    0.94
   7   5  -5   55.80    2.81
  -7   5   5   54.37    2.69
  -7  -5  -5   54.42    2.88
   7  -5   5   55.46    2.90
   7   5  -5   54.99    2.68
   7  -5  -5   60.18    2.98
  -7   5  -5   52.62    2.73
  -7  -5   5   50.74    2.87
   7  -5  -5   57.74    2.71
   0   6  -5   13.75    0.97
   0  -6  -5   15.55    0.96
   0   6   5   15.02    1.07
   0   6  -5   14.08    0.90
   0  -6  -5   15.20    1.03
   0  -6   5   14.31    1.04
  -1  -6  -5   79.79    3.94
   1  -6   5   79.04    3.93
   1   6  -5   80.18    3.88
   1   6  -5   75.92    3.80
  -1  -6  -5   78.41    3.85
  -1   6   5   84.80    3.78
  -1   6  -5   79.49    3.82
  -1  -6   5   79.05    3.96
   1  -6  -5   80.20    3.84
  -1   6  -5   74.66    3.86
   1  -6  -5   81.27    3.93
   1  -6  -5   85.12    3.93
  -2   6   5   20.76    1.11
   2   6  -5   20.88    1.15
   2   6  -5   19.94    1.22
   2  -6   5   17.15    1.21
  -2  -6  -5   19.19    1.30
  -2  -6  -5   20.59    1.20
  -2   6  -5   20.51    1.14
  -2   6  -5   19.72    1.20
   2  -6  -5   20.36    1.27
  -2  -6   5   18.62    1.30
   2  -6  -5   20.79    1.17
   3  -6   5   78.42    3.80
   3   6  -5   74.95    3.70
  -3   6   5   79.50    3.68
  -3  -6  -5   78.74    3.88
   3   6  -5   77.97    3.80
   3  -6  -5   78.78    3.73
  -3   6  -5   76.42    3.71
   3  -6  -5   80.15    3.87
  -3   6  -5   75.14    3.77
  -3  -6   5   75.12    3.89
   4   6  -5   15.94    0.99
  -4   6   5   18.99    0.99
  -4  -6  -5   15.96    1.16
   4   6  -5   15.84    1.10
  -4   6  -5   15.38    1.04
  -4  -6   5   16.99    1.23
   4  -6  -5   16.50    1.01
  -4   6  -5   16.82    1.05
   4  -6  -5   16.15    1.16
  -5  -6  -5   50.36    2.74
   5   6  -5   55.84    2.69
  -5   6   5   50.09    2.53
   5   6  -5   50.70    2.56
  -5   6  -5   49.81    2.62
   5  -6  -5   54.59    2.79
   5  -6  -5   53.08    2.59
  -5  -6   5   49.91    2.77
   0  -7  -5   15.80    1.00
   0   7  -5   15.36    0.96
   0  -7  -5   14.26    1.07
   0  -7   5   13.49    1.09
   0   7  -5   14.96    1.04
   1   7  -5   43.34    2.31
   1  -7   5   38.29    2.34
   1   7  -5   45.56    2.26
  -1  -7  -5   48.74    2.43
  -1   7  -5   45.62    2.33
   1  -7  -5   45.32    2.29
  -1   7  -5   46.63    2.27
  -1  -7   5   41.23    2.40
   0   0  -6  249.10   11.75
   0   0  -6  279.49   11.71
   0   0  -6  243.13   11.72
   0   0  -6  259.66   11.80
   0   0   6  264.04   11.90
  -1   0  -6    0.03    0.09
  -1   0  -6   -0.01    0.04
   1   0  -6    0.08    0.06
  -1   0  -6    0.07    0.14
  -1   0   6    0.41    0.20
   1   0  -6    0.11    0.07
   1   0   6   -0.11    0.16
   1   0  -6    0.02    0.07
  -1   0  -6    0.13    0.09
   1   0  -6    0.06    0.14
   2   0  -6  438.65   18.05
   2   0  -6  371.48   18.14
  -2   0  -6  401.60   18.05
  -2   0   6  411.66   18.27
   2   0  -6  349.89   17.98
  -2   0  -6  419.10   18.15
   2   0   6  428.72   18.24
   2   0  -6  372.26   17.98
   3   0  -6    0.21    0.20
  -3   0  -6    0.01    0.12
   3   0   6    0.23    0.23
   3   0  -6    0.10    0.11
  -3   0  -6    0.14    0.16
   3   0  -6    0.16    0.15
   4   0  -6  354.85   17.12
  -4   0  -6  389.16   17.16
   4   0   6  385.58   17.31
   4   0  -6  392.42   17.12
   4   0  -6  366.25   17.25
  -4   0  -6  377.46   17.12
  -5   0  -6    0.21    0.18
  -5   0  -6   -0.05    0.16
   5   0  -6    0.07    0.15
   5   0  -6    0.27    0.16
   5   0  -6    0.22    0.22
   5   0   6    0.12    0.27
   6   0   6  158.30    7.61
  -6   0  -6  161.72    7.42
  -6   0  -6  160.87    7.41
  -6   0   6  162.03    7.41
   6   0  -6  157.74    7.53
   6   0  -6  162.98    7.39
   7   0   6    0.15    0.31
  -7   0  -6    0.15    0.20
   7   0  -6    0.37    0.28
  -7   0   6   -0.09    0.20
  -7   0  -6    0.19    0.21
  -8   0   6   94.25    4.31
   8   0  -6   86.65    4.44
   8   0   6   91.77    4.57
  -8   0  -6   91.10    4.29
   9   0   6    0.29    0.41
   9   0  -6    0.00    0.30
  -9   0   6    0.17    0.26
 -10   0   6   61.21    2.97
  10   0   6   61.89    3.31
  10   0  -6   57.65    3.13
   0   1  -6  476.60   20.33
   0  -1  -6  453.68   20.36
   0  -1  -6  400.34   20.28
   0   1  -6  472.88   20.36
   0  -1  -6  462.10   20.84
   0   1   6  449.79   20.45
   0   1  -6  445.87   20.34
   0  -1   6  469.64   20.45
   0   1  -6  408.21   20.33
  -1   1   6   17.04    0.97
  -1  -1  -6   14.66    0.85
   1   1  -6   14.22    0.73
  -1   1   6   16.83    0.72
   1   1  -6   14.67    0.72
   1  -1   6   16.86    0.93
   1   1  -6   14.20    0.74
  -1  -1  -6   15.11    0.78
   1   1  -6   13.31    0.81
  -1  -1  -6   13.63    0.78
   1  -1  -6   13.59    0.83
  -1   1  -6   13.82    0.73
  -1  -1   6   16.36    0.89
   1   1   6   16.84    0.97
  -1   1  -6   14.89    0.76
   1  -1  -6   14.77    0.74
  -1   1  -6   14.25    0.82
  -1   1  -6   14.37    0.76
   1  -1  -6   12.62    0.73
  -2  -1  -6  357.01   17.06
   2   1  -6  375.73   17.17
   2   1  -6  306.54   16.33
   2  -1   6  390.78   16.45
  -2   1   6  391.33   16.33
  -2  -1  -6  370.42   16.37
   2   1  -6  335.02   16.31
   2   1  -6  347.20   16.23
   2  -1  -6  348.21   16.32
   2  -1  -6  354.19   16.28
  -2  -1   6  382.89   16.45
  -2   1  -6  352.26   16.30
   2   1   6  393.33   16.50
   2  -1  -6  353.65   16.45
  -2   1  -6  331.77   16.25
  -2   1  -6  367.39   16.32
  -3   1   6   24.92    1.17
   3   1  -6   22.58    1.24
   3   1  -6   23.72    1.20
  -3  -1  -6   24.26    1.29
   3  -1   6   26.89    1.39
  -3  -1  -6   24.54    1.23
  -3   1  -6   23.75    1.16
   3  -1  -6   23.64    1.36
  -3   1  -6   23.07    1.23
  -3   1  -6   25.22    1.22
   3  -1  -6   22.65    1.22
   3   1   6   25.09    1.41
  -3  -1   6   24.34    1.31
   3  -1  -6   24.17    1.11
   3  -1  -6   21.82    1.11
   4   1  -6  240.61   11.17
  -4  -1  -6  242.58   11.20
   4  -1   6  272.68   11.37
   4   1  -6  230.86   11.25
   4   1  -6  235.06   11.20
  -4   1   6  263.89   11.15
  -4  -1  -6  247.41   11.25
   4  -1  -6  222.34   11.16
  -4   1  -6  236.86   11.19
   4   1   6  272.02   11.42
  -4   1  -6  241.11   11.18
   4  -1  -6  241.09   11.34
   5   1  -6    8.17    0.55
  -5   1   6    8.49    0.54
   5  -1   6    9.45    0.76
  -5  -1  -6    8.82    0.63
   5   1  -6    8.70    0.65
  -5  -1  -6    8.52    0.58
   5  -1  -6    7.93    0.54
   5  -1  -6    9.32    0.73
   5   1   6    8.46    0.77
  -5   1  -6    9.19    0.58
  -5   1  -6    8.27    0.57
  -5  -1   6    9.13    0.63
  -6  -1  -6  188.78    8.48
   6   1  -6  180.24    8.45
   6  -1   6  182.51    8.66
  -6  -1  -6  186.35    8.51
   6   1  -6  182.71    8.56
  -6   1   6  182.22    8.43
  -6  -1   6  185.14    8.50
  -6   1  -6  187.42    8.47
   6  -1  -6  179.55    8.61
  -6   1  -6  183.42    8.44
   6   1   6  186.80    8.69
  -7   1   6    1.58    0.28
   7   1  -6    1.20    0.33
   7  -1   6    1.32    0.41
   7   1  -6    1.34    0.29
  -7  -1  -6    1.34    0.31
  -7  -1   6    1.47    0.31
   7   1   6    1.88    0.49
  -7   1  -6    1.15    0.24
   7  -1  -6    1.15    0.37
  -7   1  -6    1.62    0.31
   8  -1   6  114.93    5.57
  -8  -1  -6  113.66    5.33
  -8   1   6  113.46    5.28
   8   1  -6  111.60    5.31
   8  -1  -6  111.91    5.48
   8   1   6  113.32    5.58
   9   1  -6    0.97    0.32
  -9  -1  -6    1.33    0.34
   9  -1   6    1.96    0.55
  -9   1   6    1.54    0.33
   9  -1  -6    1.20    0.44
   9   1   6    1.65    0.53
   0   2  -6  352.87   16.33
   0   2  -6  360.67   16.36
   0   2  -6  356.82   16.40
   0   2   6  400.91   16.33
   0  -2  -6  353.80   16.35
   0   2  -6  344.69   16.32
   0  -2  -6  353.69   16.42
   0  -2   6  373.57   16.50
   0   2   6  349.54   16.51
   1   2  -6   28.08    1.39
   1   2  -6   28.82    1.47
  -1  -2  -6   29.22    1.46
   1  -2   6   29.98    1.53
  -1   2   6   28.57    1.61
  -1  -2  -6   27.76    1.52
  -1   2   6   32.18    1.38
   1   2  -6   29.45    1.38
   1   2  -6   27.78    1.42
  -1   2  -6   28.85    1.42
  -1  -2   6   30.93    1.51
   1   2   6   26.81    1.59
   1  -2  -6   28.95    1.42
   1  -2  -6   31.81    1.64
   1  -2  -6   29.00    1.50
  -1   2  -6   27.03    1.41
  -1   2  -6   28.24    1.46
   2  -2   6  406.74   18.81
   2   2  -6  409.14   18.71
   2   2  -6  415.19   18.69
  -2  -2  -6  400.88   18.77
   2   2  -6  406.99   18.79
   2   2  -6  383.39   18.70
  -2   2   6  467.32   18.74
  -2  -2  -6  410.57   18.81
  -2   2  -6  428.54   18.80
   2   2   6  423.44   18.91
   2  -2  -6  423.80   18.89
  -2  -2   6  437.65   18.89
   2  -2  -6  393.98   18.73
   2  -2  -6  407.99   18.76
  -2   2  -6  405.78   18.78
  -2   2  -6  391.55   18.69
   3   2  -6   10.96    0.68
  -3  -2  -6   10.93    0.66
   3   2  -6    9.81    0.52
   3   2  -6   10.62    0.52
  -3  -2  -6   10.80    0.73
   3   2  -6    9.72    0.62
  -3   2  -6   10.63    0.61
   3   2   6   13.08    0.86
   3  -2  -6   10.91    0.80
   3  -2  -6    9.89    0.57
  -3   2  -6    9.94    0.63
  -3   2  -6   10.93    0.63
   3  -2  -6   10.33    0.64
  -4  -2  -6  339.25   15.21
  -4   2   6  351.11   15.07
   4  -2   6  342.46   15.26
  -4  -2  -6  338.71   15.15
   4   2  -6  342.07   15.12
   4  -2  -6  298.71   15.08
  -4  -2   6  341.65   15.15
   4  -2  -6  337.36   15.29
   4   2   6  345.77   15.34
  -4   2  -6  333.07   15.09
  -4   2  -6  334.48   15.11
  -4   2  -6  336.28   15.10
  -4  -2   6  336.89   15.21
   4  -2  -6  326.46   15.05
   4  -2  -6  286.42   15.02
  -5   2   6    5.87    0.43
  -5  -2  -6    5.70    0.49
   5  -2   6    6.67    0.63
   5   2  -6    5.32    0.46
  -5  -2  -6    6.32    0.56
   5  -2  -6    5.16    0.35
  -5  -2   6    6.08    0.54
  -5   2  -6    5.62    0.43
   5  -2  -6    5.63    0.61
  -5   2  -6    6.28    0.47
   5   2   6    6.68    0.68
  -5   2  -6    5.16    0.43
   5  -2  -6    6.05    0.36
  -6  -2  -6  166.27    7.64
  -6   2   6  160.61    7.56
   6  -2   6  164.13    7.79
  -6  -2  -6  166.72    7.70
   6   2  -6  163.05    7.61
   6   2   6  165.07    7.83
   6  -2  -6  163.75    7.78
  -6   2  -6  170.62    7.61
  -6   2  -6  165.05    7.57
  -6  -2   6  160.95    7.68
   6  -2  -6  167.37    7.49
  -7   2   6    7.69    0.58
  -7  -2  -6    8.41    0.70
   7  -2   6    7.85    0.81
   7   2  -6    8.21    0.64
   7   2   6    8.31    0.82
  -7  -2   6    7.61    0.67
   7  -2  -6    9.27    0.48
   7  -2  -6    8.53    0.78
   8  -2   6   96.91    4.71
   8   2  -6   88.13    4.46
  -8   2   6   93.20    4.41
  -8  -2  -6   93.32    4.52
   8  -2  -6   92.83    4.30
   8  -2  -6   96.18    4.66
   8   2   6   97.07    4.73
   9   2  -6    2.91    0.45
  -9  -2  -6    3.25    0.49
   9  -2   6    3.55    0.70
  -9   2   6    3.21    0.42
   9  -2  -6    3.48    0.60
   9  -2  -6    2.69    0.26
   9   2   6    2.99    0.63
   0  -3  -6  271.04   12.58
   0   3   6  279.32   12.68
   0   3  -6  286.05   12.47
   0   3  -6  275.76   12.51
   0  -3  -6  268.83   12.51
   0   3  -6  272.80   12.50
   0  -3   6  267.27   12.49
   1   3  -6    1.32    0.24
   1   3  -6    1.67    0.22
  -1  -3  -6    2.26    0.31
   1  -3   6    0.70    0.21
   1   3  -6    1.79    0.29
  -1  -3  -6    2.11    0.35
   1   3   6    0.45    0.28
  -1   3  -6    1.41    0.22
   1  -3  -6    1.46    0.35
  -1   3  -6    1.27    0.24
   1  -3  -6    2.66    0.36
   1  -3  -6    1.58    0.25
  -1   3  -6    1.57    0.26
  -1  -3   6    0.93    0.20
   2   3  -6  241.40   11.24
  -2  -3  -6  246.54   11.35
  -2   3   6  278.02   11.25
   2  -3   6  247.94   11.36
   2   3  -6  235.24   11.31
  -2  -3  -6  245.65   11.41
  -2   3  -6  242.70   11.29
  -2  -3   6  252.83   11.42
   2  -3  -6  240.44   11.34
   2  -3  -6  243.21   11.28
  -2   3  -6  236.62   11.30
   2   3   6  258.70   11.50
   2  -3  -6  252.06   11.46
  -2   3  -6  247.93   11.29
   3   3  -6   14.92    0.88
  -3  -3  -6   15.72    0.99
  -3  -3  -6   16.89    0.94
  -3   3   6   14.72    0.82
   3   3  -6   15.52    0.80
   3  -3   6   14.24    0.94
   3  -3  -6   14.80    0.88
  -3   3  -6   15.32    0.86
  -3  -3   6   14.14    0.97
   3  -3  -6   16.70    0.85
  -3   3  -6   16.91    0.89
  -3   3  -6   16.07    0.87
   3   3   6   13.48    1.02
   3  -3  -6   16.48    1.04
   4  -3   6  188.49    8.71
  -4  -3  -6  176.08    8.71
   4   3  -6  181.77    8.62
  -4   3   6  198.67    8.56
  -4  -3  -6  187.84    8.66
   4   3  -6  182.06    8.51
  -4   3  -6  187.34    8.60
  -4   3  -6  186.62    8.59
  -4  -3   6  189.48    8.72
   4   3   6  189.83    8.80
  -4   3  -6  183.80    8.57
   4  -3  -6  193.12    8.79
   4  -3  -6  191.42    8.56
  -5  -3  -6    6.19    0.53
  -5   3   6    4.90    0.42
   5   3  -6    4.96    0.49
  -5  -3  -6    5.19    0.58
   5  -3   6    4.64    0.59
   5   3  -6    5.71    0.34
  -5   3  -6    5.61    0.43
  -5   3  -6    5.74    0.47
  -5   3  -6    6.32    0.48
  -5  -3   6    4.89    0.55
   5  -3  -6    6.39    0.41
   5  -3  -6    5.65    0.64
   5   3   6    4.39    0.63
  -6   3   6  129.68    5.83
  -6  -3  -6  120.31    5.98
   6  -3   6  124.86    6.04
   6   3  -6  122.24    5.72
   6   3  -6  124.69    5.90
  -6   3  -6  125.08    5.85
   6  -3  -6  130.37    5.79
  -6   3  -6  131.90    5.88
  -6  -3   6  125.59    5.98
   6   3   6  124.30    6.09
  -6   3  -6  124.38    5.81
   6  -3  -6  128.05    6.07
   7   3  -6    0.39    0.11
  -7   3   6    0.55    0.25
   7   3  -6    0.19    0.27
  -7  -3  -6    0.76    0.34
   7  -3   6    0.75    0.40
   7   3   6    1.10    0.42
   7  -3  -6    0.51    0.37
   7  -3  -6    0.35    0.18
  -7  -3   6    0.75    0.34
   8   3  -6   63.62    3.13
   8   3  -6   64.51    3.35
  -8   3   6   71.25    3.30
   8  -3   6   71.50    3.59
  -8  -3  -6   64.59    3.42
   8  -3  -6   67.87    3.21
   8   3   6   69.15    3.58
   8  -3  -6   71.65    3.57
  -8  -3   6   74.98    3.47
   9   3   6    1.80    0.54
   0   4  -6  184.15    8.17
   0   4  -6  177.91    8.21
   0   4   6  174.56    8.36
   0  -4  -6  179.91    8.21
   0  -4   6  171.90    8.28
   0  -4  -6  178.88    8.28
   1   4  -6   25.02    1.33
  -1  -4  -6   26.29    1.35
   1  -4   6   22.43    1.37
  -1  -4  -6   24.91    1.42
   1   4  -6   26.62    1.28
   1  -4  -6   23.67    1.37
  -1   4  -6   26.23    1.34
   1  -4  -6   27.31    1.48
   1   4   6   21.24    1.43
   1  -4  -6   25.39    1.31
  -1   4  -6   24.75    1.28
  -1  -4   6   21.80    1.39
   2  -4   6  149.01    7.36
  -2   4   6  171.53    7.30
   2   4  -6  157.46    7.38
  -2  -4  -6  158.92    7.48
   2   4  -6  161.85    7.31
  -2  -4  -6  154.99    7.40
   2  -4  -6  167.21    7.51
   2  -4  -6  150.42    7.40
  -2   4  -6  162.38    7.34
  -2   4  -6  159.86    7.37
   2   4   6  159.10    7.53
  -2   4  -6  155.14    7.33
  -2  -4   6  154.53    7.47
   2  -4  -6  168.02    7.36
  -3  -4  -6    9.10    0.70
   3  -4   6   11.08    0.71
   3   4  -6    9.31    0.69
  -3  -4  -6    8.79    0.77
   3   4  -6    8.68    0.58
  -3   4   6   12.10    0.62
   3   4   6   10.63    0.84
  -3   4  -6    9.63    0.63
   3  -4  -6    8.75    0.68
  -3  -4   6   11.39    0.81
   3  -4  -6    9.92    0.63
   3  -4  -6    9.38    0.81
  -3   4  -6    8.53    0.61
  -3   4  -6    9.40    0.67
   4   4  -6  110.88    5.20
  -4  -4  -6  111.37    5.40
   4  -4   6  112.08    5.35
  -4   4   6  118.76    5.22
   4   4  -6  106.86    5.30
  -4  -4  -6  116.06    5.36
   4   4   6  106.35    5.43
  -4   4  -6  113.74    5.26
   4  -4  -6  119.58    5.25
   4  -4  -6  120.83    5.47
  -4   4  -6  113.25    5.29
  -4   4  -6  109.58    5.23
  -4  -4   6  106.51    5.40
   5   4  -6    7.74    0.66
  -5  -4  -6    7.62    0.74
  -5  -4  -6    8.07    0.68
  -5   4   6    8.24    0.56
   5  -4   6    8.47    0.74
   5   4  -6    7.72    0.51
   5  -4  -6    8.98    0.57
  -5   4  -6    8.69    0.62
   5   4   6    7.01    0.75
   5  -4  -6    9.19    0.81
  -5   4  -6    7.42    0.58
  -5  -4   6    8.13    0.74
  -5   4  -6    8.23    0.55
   6   4  -6   73.65    3.69
   6   4  -6   71.17    3.53
   6  -4   6   76.87    3.80
  -6   4   6   76.26    3.60
  -6  -4  -6   76.51    3.79
   6   4   6   70.23    3.81
   6  -4  -6   79.89    3.87
  -6  -4   6   73.21    3.78
  -6   4  -6   80.66    3.67
  -6   4  -6   78.20    3.65
   6  -4  -6   80.12    3.60
   7   4  -6    9.41    0.80
   7   4  -6   10.68    0.61
   7  -4   6    9.62    0.91
  -7  -4  -6   11.05    0.90
  -7   4   6   10.43    0.71
   7  -4  -6   11.57    0.68
   7   4   6    9.43    0.89
  -7   4  -6   11.04    0.75
  -7  -4   6   10.71    0.91
   7  -4  -6   11.02    0.98
   8   4  -6   46.48    2.31
   8  -4   6   50.20    2.70
  -8   4   6   49.63    2.43
  -8  -4  -6   47.37    2.60
   8   4  -6   46.70    2.51
   8  -4  -6   51.47    2.72
  -8  -4   6   49.52    2.61
   8  -4  -6   51.82    2.39
   0  -5  -6  105.36    5.08
   0  -5  -6  104.32    4.98
   0   5   6  112.10    5.17
   0   5  -6  100.98    5.00
   0  -5   6  106.08    5.09
   0   5  -6  105.34    4.95
   1   5  -6   19.40    1.06
   1  -5   6   19.44    1.19
  -1  -5  -6   17.54    1.18
  -1  -5  -6   19.82    1.12
  -1   5   6   19.11    1.28
   1   5  -6   18.20    1.14
   1  -5  -6   18.02    1.16
  -1  -5   6   19.50    1.22
  -1   5  -6   18.69    1.13
   1   5   6   20.25    1.26
  -1   5  -6   19.08    1.07
   1  -5  -6   18.80    1.10
  -2  -5  -6  107.83    5.19
   2   5  -6  105.22    5.02
  -2  -5  -6  110.41    5.12
   2   5  -6  105.50    5.11
   2  -5   6  109.79    5.15
  -2  -5   6  105.13    5.20
   2  -5  -6  110.42    5.20
   2  -5  -6  107.98    5.06
  -2   5  -6  109.31    5.05
  -2   5  -6  106.56    5.09
   2   5   6  109.90    5.23
   2  -5  -6  104.72    5.12
   3   5  -6   28.60    1.45
  -3   5   6   29.77    1.44
  -3  -5  -6   29.10    1.56
  -3  -5  -6   27.71    1.63
   3   5  -6   27.45    1.55
   3  -5   6   27.76    1.55
   3  -5  -6   27.51    1.48
   3  -5  -6   28.84    1.65
   3   5   6   26.77    1.64
  -3   5  -6   27.61    1.47
  -3  -5   6   27.89    1.66
  -3   5  -6   27.52    1.53
   4  -5   6   88.91    4.35
  -4  -5  -6   92.57    4.41
  -4   5   6   95.67    4.26
   4   5  -6   90.25    4.27
  -4  -5  -6   91.78    4.46
   4   5  -6   89.49    4.37
  -4   5  -6   89.76    4.29
   4  -5  -6   94.39    4.30
  -4   5  -6   90.98    4.33
   4   5   6   84.86    4.44
  -4  -5   6   86.55    4.47
   4  -5  -6   94.19    4.50
  -5  -5  -6   12.29    0.99
   5   5  -6   12.55    0.77
  -5   5   6   14.31    0.81
   5  -5   6   12.72    0.94
   5   5  -6   12.84    0.91
  -5   5  -6   11.66    0.84
   5  -5  -6   13.03    1.04
  -5   5  -6   12.03    0.80
   5  -5  -6   12.65    0.80
  -5  -5   6   11.97    1.00
   6   5  -6   46.86    2.60
  -6   5   6   51.58    2.49
   6   5  -6   50.11    2.47
  -6  -5  -6   52.62    2.71
   6  -5   6   53.21    2.69
   6  -5  -6   52.63    2.51
  -6  -5   6   49.58    2.73
  -6   5  -6   50.09    2.56
   6  -5  -6   52.37    2.77
   0  -6   6   86.54    4.54
   0  -6  -6   98.54    4.46
   0   6  -6   89.67    4.47
   0   6  -6   94.58    4.42
   0  -6  -6   97.91    4.56
   0   6   6   91.27    4.60
  -1  -6  -6   26.41    1.55
  -1  -6  -6   27.48    1.46
   1   6  -6   24.81    1.48
   1  -6   6   23.90    1.52
   1   6  -6   25.83    1.39
  -1   6   6   25.88    1.61
   1  -6  -6   27.55    1.54
   1   6   6   23.86    1.55
  -1  -6   6   22.08    1.52
  -1   6  -6   24.89    1.47
  -1   6  -6   27.70    1.42
   1  -6  -6   26.67    1.44
  -2  -6  -6   75.11    3.67
   2  -6   6   67.86    3.62
   2   6  -6   70.18    3.50
   2   6  -6   71.79    3.60
  -2  -6  -6   80.23    3.61
  -2   6  -6   76.55    3.53
  -2  -6   6   67.28    3.68
   2  -6  -6   77.20    3.68
  -2   6  -6   70.72    3.57
   2  -6  -6   74.82    3.55
   3  -6   6   17.47    1.20
   3   6  -6   19.09    1.21
   3   6  -6   17.24    1.07
  -3  -6  -6   19.85    1.28
  -3  -6   6   18.62    1.30
   3  -6  -6   20.48    1.29
   3  -6  -6   19.78    1.12
  -3   6  -6   19.48    1.11
  -3   6  -6   18.07    1.15
   4   6  -6   50.38    2.55
  -4  -6  -6   48.75    2.62
   4   6  -6   47.52    2.42
  -4   6  -6   48.31    2.49
  -4   6  -6   49.80    2.45
   4  -6  -6   50.17    2.45
   4  -6  -6   50.66    2.64
  -4  -6   6   44.75    2.62
   0   0   7    0.14    0.22
   0   0  -7    0.15    0.17
   0   0  -7    0.15    0.10
   0   0  -7    0.10    0.09
   1   0  -7  339.18   16.16
  -1   0   7  360.29   16.33
  -1   0  -7  377.34   16.25
   1   0  -7  384.70   16.61
  -1   0  -7  366.89   17.62
   1   0  -7  357.80   16.23
   1   0   7  359.76   16.35
   1   0  -7  315.26   16.10
   2   0  -7    0.22    0.07
   2   0  -7    0.10    0.17
  -2   0  -7    0.04    0.12
   2   0  -7    0.18    0.06
  -2   0   7    0.15    0.21
   2   0   7    0.11    0.22
  -2   0  -7    0.17    0.18
   2   0  -7    0.02    0.10
   3   0  -7  214.74   10.42
   3   0  -7  211.14   10.53
  -3   0  -7  227.93   10.40
  -3   0  -7  231.44   10.45
   3   0  -7  227.48   10.35
   3   0   7  255.94   10.63
  -4   0  -7    0.11    0.16
   4   0  -7   -0.02    0.16
   4   0  -7    0.15    0.14
   4   0  -7    0.18    0.22
   4   0   7    0.09    0.27
  -4   0  -7    0.17    0.20
   5   0  -7  164.10    7.63
  -5   0  -7  169.21    7.68
   5   0  -7  164.71    7.80
   5   0  -7  154.79    7.66
   5   0   7  177.47    7.90
  -5   0  -7  168.92    7.70
  -6   0  -7    0.23    0.23
   6   0  -7    0.01    0.25
   6   0  -7    0.33    0.19
  -6   0   7   -0.04    0.18
   6   0   7    0.58    0.35
  -6   0  -7    0.03    0.20
   7   0  -7  131.45    6.36
   7   0   7  125.95    6.44
  -7   0  -7  135.56    6.22
  -7   0   7  139.26    6.20
  -7   0  -7  134.01    6.22
  -8   0   7    0.24    0.24
  -8   0  -7    0.07    0.25
   8   0  -7    0.55    0.34
   8   0   7    0.31    0.40
   9   0   7   57.54    3.05
   9   0  -7   51.17    2.87
  -9   0   7   56.74    2.73
   0  -1  -7   13.77    0.70
   0   1  -7   13.26    0.68
   0   1  -7   12.75    0.69
   0   1  -7   12.83    0.66
   0  -1  -7   12.77    0.80
   0   1  -7   12.98    0.77
   0   1   7   12.45    0.89
   0  -1   7   12.20    0.83
   1   1  -7  340.43   16.21
   1  -1   7  349.72   15.91
   1   1  -7  357.27   15.82
  -1   1   7  345.77   15.96
   1   1  -7  359.77   16.24
   1   1  -7  344.49   15.76
  -1  -1  -7  357.75   16.82
  -1  -1  -7  371.34   15.86
  -1   1  -7  357.09   15.82
   1  -1  -7  350.81   15.81
   1  -1  -7  349.07   15.84
   1  -1  -7  302.89   15.72
  -1   1  -7  331.30   15.78
   1   1   7  350.59   15.96
  -1  -1   7  352.74   15.89
  -2  -1  -7    5.97    0.51
   2   1  -7    5.34    0.29
  -2  -1  -7    6.09    0.42
  -2   1   7    5.39    0.57
   2   1  -7    5.74    0.38
   2   1  -7    5.31    0.29
   2  -1   7    6.31    0.57
  -2   1   7    5.81    0.34
   2   1  -7    5.12    0.45
  -2   1  -7    5.79    0.39
   2  -1  -7    5.60    0.45
   2  -1  -7    4.94    0.32
   2   1   7    5.47    0.59
  -2  -1   7    5.12    0.50
   2  -1  -7    5.79    0.32
  -2   1  -7    5.83    0.47
   3   1  -7  352.07   16.12
  -3   1   7  370.97   16.09
   3  -1   7  358.91   16.25
  -3  -1  -7  364.78   16.10
   3   1  -7  366.23   16.06
  -3  -1  -7  371.14   16.17
   3   1   7  351.39   16.29
  -3  -1   7  351.59   16.20
   3  -1  -7  352.62   16.26
  -3   1  -7  367.82   16.13
   3  -1  -7  327.82   16.10
  -3   1  -7  356.98   16.08
   3  -1  -7  313.60   16.05
   3  -1  -7  358.17   16.28
   4  -1   7    1.67    0.40
   4   1  -7    1.30    0.27
  -4  -1  -7    1.80    0.29
  -4   1   7    2.00    0.24
   4   1  -7    1.40    0.24
  -4  -1  -7    1.68    0.33
   4   1  -7    2.09    0.35
  -4   1  -7    1.69    0.29
   4   1   7    1.78    0.41
   4  -1  -7    1.73    0.28
  -4   1  -7    1.47    0.25
  -4  -1   7    1.60    0.34
   4  -1  -7    1.90    0.38
   5   1  -7  217.54   10.40
   5  -1   7  223.60   10.50
   5   1  -7  225.75   10.30
  -5   1   7  227.29   10.27
  -5  -1  -7  230.81   10.39
   5   1  -7  228.49   10.35
  -5  -1  -7  232.11   10.34
   5   1   7  215.80   10.53
  -5   1  -7  230.21   10.33
   5  -1  -7  227.79   10.49
   5  -1  -7  208.67   10.29
  -5   1  -7  237.65   10.33
  -6   1   7    2.44    0.32
   6   1  -7    2.42    0.41
  -6  -1  -7    2.02    0.33
  -6  -1  -7    2.84    0.41
   6  -1   7    2.22    0.49
   6   1  -7    2.29    0.33
   6  -1  -7    2.93    0.49
  -6   1  -7    2.81    0.36
  -6   1  -7    2.95    0.39
  -6  -1   7    2.17    0.37
   6   1   7    1.91    0.48
  -7   1   7  113.05    5.33
   7   1  -7  109.79    5.35
  -7  -1  -7  116.36    5.42
   7  -1   7  112.58    5.60
  -7  -1  -7  115.52    5.41
   7  -1  -7  114.38    5.55
  -7   1  -7  115.58    5.35
  -7   1  -7  116.95    5.38
  -7  -1   7  118.77    5.45
   7   1   7  113.00    5.62
  -8  -1  -7    1.59    0.36
   8  -1   7    1.41    0.50
  -8   1   7    1.89    0.33
   8   1  -7    1.95    0.36
   8  -1  -7    1.80    0.46
   8   1   7    1.64    0.52
  -9  -1  -7   64.22    3.31
   9   1  -7   62.68    3.29
  -9   1   7   69.31    3.28
   9  -1   7   70.45    3.62
  -9  -1   7   71.23    3.32
   9  -1  -7   65.84    3.48
   9   1   7   70.87    3.62
   0   2  -7    0.67    0.21
   0   2  -7    0.81    0.17
   0  -2   7    1.49    0.29
   0   2   7    1.31    0.34
   0  -2  -7    0.66    0.18
   0  -2  -7    0.94    0.26
   0   2  -7    0.90    0.18
   1   2  -7  236.89   11.07
  -1  -2  -7  250.69   11.20
   1   2  -7  246.87   11.14
  -1  -2  -7  247.32   11.11
   1   2  -7  252.03   11.05
   1  -2   7  237.88   11.19
  -1   2   7  242.80   11.30
   1  -2  -7  248.85   11.07
  -1  -2   7  248.29   11.17
  -1   2  -7  245.29   11.13
   1   2   7  236.50   11.28
  -1   2  -7  224.48   11.05
   1  -2  -7  250.07   11.18
  -1   2  -7  242.20   11.07
   2   2  -7    5.00    0.45
  -2  -2  -7    4.63    0.41
   2   2  -7    4.90    0.39
   2   2  -7    5.08    0.30
   2   2  -7    5.09    0.32
  -2  -2  -7    4.95    0.50
   2  -2   7    5.78    0.52
  -2   2  -7    5.40    0.45
   2  -2  -7    5.07    0.46
  -2   2  -7    5.09    0.39
   2   2   7    4.67    0.57
   2  -2  -7    4.99    0.35
   2  -2  -7    5.31    0.59
  -2   2  -7    5.12    0.36
  -2  -2   7    5.68    0.47
   3   2  -7  163.97    7.56
   3  -2   7  175.52    7.84
  -3  -2  -7  164.36    7.72
   3   2  -7  159.57    7.57
  -3  -2  -7  162.28    7.79
   3   2  -7  167.17    7.74
  -3   2   7  190.24    7.64
   3   2  -7  158.53    7.68
  -3   2  -7  168.44    7.69
   3   2   7  171.88    7.92
   3  -2  -7  172.30    7.88
  -3   2  -7  163.93    7.71
  -3  -2   7  179.31    7.76
   3  -2  -7  156.54    7.72
   3  -2  -7  160.92    7.62
  -4  -2  -7    7.99    0.56
   4   2  -7    7.30    0.53
  -4  -2  -7    8.75    0.66
  -4   2   7    7.27    0.47
   4   2  -7    8.09    0.58
   4  -2   7    7.06    0.66
   4  -2  -7    6.44    0.41
   4   2   7    6.88    0.72
  -4   2  -7    8.03    0.53
   4  -2  -7    7.32    0.69
   4  -2  -7    7.45    0.42
  -4   2  -7    7.40    0.53
  -4  -2   7    7.90    0.64
   4  -2  -7    6.16    0.50
  -4  -2   7    6.93    0.60
  -5   2   7  135.46    5.93
   5  -2   7  126.27    6.14
  -5  -2  -7  128.46    6.08
  -5  -2  -7  130.66    6.01
   5   2  -7  125.63    5.97
   5  -2  -7  125.47    5.84
   5  -2  -7  131.75    6.17
  -5  -2   7  129.53    6.07
  -5   2  -7  128.34    5.97
  -5   2  -7  133.34    5.98
   5   2   7  128.55    6.21
   5  -2  -7  121.69    5.84
  -6  -2  -7    0.78    0.28
  -6   2   7    1.32    0.25
  -6  -2  -7    1.04    0.34
   6   2  -7    1.20    0.29
   6  -2   7    1.27    0.39
  -6   2  -7    1.41    0.30
   6  -2  -7    1.04    0.39
   6  -2  -7    1.07    0.12
  -6  -2   7    0.92    0.31
  -6   2  -7    1.04    0.25
   6  -2  -7    0.84    0.12
   6   2   7    1.10    0.41
  -7   2   7   91.90    4.35
   7  -2   7   93.07    4.63
   7   2  -7   91.93    4.41
  -7  -2  -7   95.01    4.50
  -7   2  -7   98.90    4.42
   7  -2  -7   87.42    4.20
  -7  -2   7   96.90    4.50
   7  -2  -7   87.01    4.20
   7   2   7   92.67    4.66
   7  -2  -7   96.49    4.61
   8  -2   7    1.24    0.50
   8   2  -7    0.66    0.30
  -8   2   7    1.18    0.30
  -8  -2  -7    0.43    0.31
   8  -2  -7    0.80    0.40
   8   2   7    0.95    0.46
   0  -3  -7   34.90    1.75
   0  -3   7   30.04    1.65
   0   3  -7   35.23    1.62
   0   3  -7   29.94    1.61
   0   3   7   30.23    1.82
   0   3  -7   34.13    1.67
   0  -3  -7   33.95    1.65
   1  -3   7  192.98    9.29
  -1  -3  -7  205.41    9.38
   1   3  -7  208.94    9.22
  -1   3   7  198.52    9.47
   1   3  -7  189.76    9.25
  -1  -3  -7  204.88    9.29
   1   3  -7  208.84    9.30
   1   3   7  200.80    9.46
  -1   3  -7  201.45    9.27
  -1   3  -7  211.08    9.24
  -1   3  -7  198.68    9.25
   1  -3  -7  197.44    9.25
   1  -3  -7  210.08    9.35
   2   3  -7   14.71    0.78
  -2  -3  -7   14.28    0.88
   2   3  -7   15.16    0.90
   2   3  -7   13.93    0.85
  -2  -3  -7   13.53    0.95
   2  -3   7   14.95    0.92
  -2   3  -7   14.80    0.84
  -2   3  -7   14.67    0.86
   2  -3  -7   14.64    0.91
  -2   3  -7   15.60    0.84
   2  -3  -7   14.57    0.83
   2  -3  -7   16.66    1.06
   2   3   7   15.22    1.06
   3  -3   7  168.23    8.07
   3   3  -7  169.65    7.89
   3   3  -7  171.52    7.99
  -3  -3  -7  172.49    8.11
  -3  -3  -7  177.16    8.04
  -3   3  -7  177.39    7.98
  -3  -3   7  174.45    8.11
  -3   3  -7  173.31    7.98
   3   3   7  181.82    8.22
   3  -3  -7  175.17    7.94
   3  -3  -7  167.29    8.01
  -3   3  -7  165.46    7.96
   3  -3  -7  183.58    8.18
   4  -3   7    8.25    0.67
  -4  -3  -7    6.22    0.63
   4   3  -7    6.24    0.39
   4   3  -7    5.82    0.52
  -4  -3  -7    6.57    0.56
  -4   3   7    8.70    0.49
   4  -3  -7    6.35    0.45
   4   3   7    7.72    0.73
  -4  -3   7    8.25    0.66
  -4   3  -7    6.07    0.51
   4  -3  -7    6.69    0.69
  -4   3  -7    6.76    0.52
   5  -3   7  119.19    5.68
   5   3  -7  116.10    5.35
  -5  -3  -7  122.33    5.59
   5   3  -7  116.51    5.35
  -5  -3  -7  115.11    5.65
  -5   3   7  122.10    5.47
   5   3  -7  115.73    5.54
  -5  -3   7  113.39    5.64
  -5   3  -7  121.74    5.53
   5  -3  -7  125.38    5.45
   5  -3  -7  123.43    5.74
  -5   3  -7  118.19    5.50
   5   3   7  110.46    5.73
  -6   3   7   10.20    0.67
   6  -3   7    9.96    0.88
  -6  -3  -7   10.72    0.86
  -6  -3  -7   11.76    0.80
   6   3  -7   10.06    0.75
  -6   3  -7   10.13    0.67
  -6  -3   7   10.43    0.83
  -6   3  -7   11.92    0.74
   6  -3  -7   11.18    0.94
   6  -3  -7   11.52    0.62
   6   3   7    9.90    0.92
   7   3  -7   69.44    3.56
   7  -3   7   75.17    3.75
  -7  -3  -7   68.02    3.64
  -7   3   7   77.56    3.50
  -7  -3   7   73.92    3.66
   7   3   7   70.12    3.76
   7  -3  -7   77.35    3.41
   7  -3  -7   75.46    3.77
  -8  -3  -7    7.46    0.76
   8  -3   7    7.65    0.89
  -8   3   7    6.82    0.58
   8   3  -7    6.63    0.65
   8   3   7    7.06    0.87
   8  -3  -7    7.60    0.46
   8  -3  -7    7.31    0.83
  -8  -3   7    7.95    0.75
   0   4  -7    6.34    0.48
   0  -4  -7    5.83    0.60
   0  -4   7    8.07    0.67
   0  -4  -7    5.77    0.51
   0   4   7    7.42    0.72
   0   4  -7    5.75    0.53
  -1  -4  -7  132.06    6.42
  -1   4   7  140.53    6.54
   1   4  -7  130.90    6.32
   1   4  -7  141.30    6.27
  -1  -4  -7  130.02    6.33
   1   4   7  143.31    6.53
   1  -4  -7  133.29    6.39
   1  -4  -7  138.43    6.31
  -1   4  -7  139.46    6.29
  -1   4  -7  132.04    6.31
  -1   4  -7  133.25    6.32
  -1  -4   7  136.70    6.44
  -2  -4  -7   12.96    0.84
  -2  -4  -7   12.25    0.92
   2   4  -7   11.82    0.82
   2   4  -7   13.37    0.74
  -2   4  -7   12.98    0.78
   2  -4  -7   13.81    0.99
   2   4   7   12.58    0.99
   2  -4  -7   12.88    0.78
  -2   4  -7   12.91    0.81
   2  -4  -7   12.23    0.85
  -2   4  -7   12.19    0.79
  -2  -4   7   13.94    0.95
  -3  -4  -7  118.83    5.65
   3   4  -7  117.01    5.51
  -3  -4  -7  120.21    5.73
   3   4  -7  112.67    5.60
   3  -4   7  118.74    5.64
   3   4   7  124.35    5.81
  -3   4  -7  119.79    5.57
   3  -4  -7  121.77    5.76
  -3   4  -7  118.79    5.57
  -3   4  -7  117.66    5.59
   3  -4  -7  127.31    5.57
  -3  -4   7  119.59    5.73
   4  -4   7   12.88    0.90
   4   4  -7   11.99    0.85
   4   4  -7   12.56    0.72
  -4  -4  -7   12.93    0.97
  -4  -4  -7   13.35    0.89
   4  -4  -7   13.63    0.78
   4   4   7   13.24    1.00
   4  -4  -7   14.28    1.02
  -4   4  -7   13.31    0.80
  -4   4  -7   12.18    0.79
  -4   4  -7   12.44    0.81
  -4  -4   7   12.67    0.96
   5   4  -7   83.28    4.01
  -5   4   7   89.23    4.06
   5  -4   7   87.87    4.25
   5   4  -7   78.33    4.14
  -5  -4  -7   85.86    4.27
  -5  -4  -7   88.42    4.22
   5  -4  -7   89.86    4.34
   5  -4  -7   88.77    4.06
  -5   4  -7   87.71    4.12
  -5   4  -7   86.99    4.08
  -5  -4   7   91.27    4.31
   5   4   7   84.13    4.32
  -6   4   7    4.53    0.44
   6   4  -7    3.82    0.51
   6   4  -7    3.25    0.29
  -6  -4  -7    4.58    0.64
   6  -4   7    4.48    0.62
  -6  -4   7    4.37    0.60
   6  -4  -7    3.69    0.63
   6  -4  -7    3.87    0.38
  -6   4  -7    4.22    0.48
   6   4   7    4.76    0.67
   7   4  -7   43.95    2.41
   7   4  -7   42.97    2.16
   7  -4   7   50.68    2.59
  -7  -4  -7   47.22    2.53
  -7   4   7   47.88    2.31
  -7  -4   7   46.41    2.51
   7   4   7   46.07    2.58
   7  -4  -7   49.27    2.27
   7  -4  -7   49.05    2.61
   0  -5  -7   30.67    1.53
   0   5  -7   29.07    1.47
   0   5   7   26.34    1.69
   0  -5  -7   28.40    1.61
   0   5  -7   28.46    1.54
   0  -5   7   24.48    1.59
   1   5  -7  126.00    5.73
   1  -5   7  114.77    5.86
  -1  -5  -7  127.42    5.91
  -1  -5  -7  125.85    5.81
  -1   5   7  121.08    5.98
   1   5  -7  121.39    5.81
   1   5   7  121.85    5.96
   1  -5  -7  123.12    5.87
  -1   5  -7  127.66    5.75
  -1  -5   7  117.31    5.90
  -1   5  -7  123.64    5.80
   1  -5  -7  129.43    5.78
   2   5  -7   19.14    1.18
   2   5  -7   18.51    1.06
  -2  -5  -7   18.14    1.24
   2  -5   7   19.54    1.23
  -2  -5  -7   20.02    1.17
   2  -5  -7   20.97    1.32
  -2  -5   7   18.58    1.26
  -2   5  -7   20.20    1.11
   2  -5  -7   19.77    1.11
   2   5   7   18.39    1.30
  -2   5  -7   19.59    1.16
   3   5  -7   83.31    4.02
  -3  -5  -7   90.34    4.26
  -3  -5  -7   89.34    4.17
   3  -5   7   82.47    4.16
   3   5  -7   82.48    4.13
  -3  -5   7   82.22    4.25
   3   5   7   80.88    4.26
  -3   5  -7   82.38    4.09
  -3   5  -7   84.83    4.06
   3  -5  -7   88.44    4.07
   3  -5  -7   96.06    4.29
   4  -5   7   12.20    0.89
   4   5  -7   13.25    0.77
  -4  -5  -7   13.78    1.02
   4   5  -7   11.73    0.89
  -4  -5  -7   13.02    0.92
   4  -5  -7   12.08    1.03
   4  -5  -7   12.89    0.80
   4   5   7   12.13    1.00
  -4   5  -7   12.84    0.82
  -4   5  -7   11.94    0.85
  -4  -5   7   13.61    1.04
  -5  -5  -7   60.13    3.08
   5   5  -7   57.43    2.82
   5   5  -7   55.36    2.96
  -5   5  -7   59.97    2.94
  -5   5  -7   59.72    2.89
   5  -5  -7   63.95    2.87
  -5  -5   7   57.48    3.09
   5   5   7   55.39    3.07
   5  -5  -7   62.69    3.13
   0   6   7    9.38    0.91
   0   6  -7    9.46    0.69
   0   6  -7    8.44    0.78
   0  -6  -7   10.16    0.74
   0  -6  -7    9.34    0.84
   0  -6   7    9.32    0.89
   1   6  -7   55.34    2.66
   1  -6   7   48.04    2.79
  -1   6   7   54.72    2.90
  -1  -6  -7   55.15    2.72
   1   6  -7   54.08    2.75
  -1  -6  -7   59.95    2.86
   1   6   7   51.30    2.86
  -1   6  -7   53.08    2.73
   1  -6  -7   55.93    2.70
  -1   6  -7   55.67    2.68
  -1  -6   7   50.95    2.84
   2   6  -7    9.74    0.69
   2  -6   7    9.86    0.86
  -2   6   7   11.10    0.97
  -2  -6  -7    9.04    0.90
   2   6  -7    9.05    0.83
  -2  -6  -7    9.37    0.76
   2  -6  -7   10.55    0.75
  -2   6  -7    9.48    0.79
  -2   6  -7   10.34    0.72
  -2  -6   7    9.27    0.91
   0   0   8  282.44   13.38
   0   0  -8  286.81   13.18
   0   0  -8  302.32   13.29
  -1   0  -8    0.24    0.14
  -1   0   8    0.29    0.25
   1   0   8    0.34    0.27
   1   0  -8    0.01    0.10
   1   0  -8    0.18    0.10
   1   0  -8    0.12    0.22
  -1   0  -8    0.12    0.21
   2   0  -8  250.28   11.54
  -2   0  -8  270.36   11.62
   2   0   8  250.87   11.81
  -2   0   8  256.77   11.80
  -2   0  -8  272.06   11.71
   2   0  -8  260.85   11.69
   2   0  -8  225.54   11.50
  -3   0  -8    0.17    0.21
   3   0   8    0.00    0.27
  -3   0   8    0.30    0.26
   3   0  -8    0.31    0.22
  -3   0  -8    0.19    0.17
  -4   0   8  208.57    9.39
  -4   0  -8  210.66    9.45
   4   0  -8  198.56    9.47
   4   0   8  199.77    9.65
   4   0  -8  203.39    9.39
  -4   0  -8  213.60    9.50
   4   0  -8  208.09    9.61
  -5   0  -8    0.17    0.23
   5   0  -8    0.26    0.27
  -5   0   8    0.15    0.18
   5   0  -8    0.17    0.20
  -5   0  -8   -0.02    0.19
   5   0   8    0.19    0.32
  -6   0  -8  134.00    5.98
  -6   0  -8  128.74    5.99
   6   0   8  122.11    6.18
   6   0  -8  121.77    6.09
  -6   0   8  131.66    5.92
  -7   0  -8   -0.02    0.23
  -7   0  -8    0.30    0.25
  -7   0   8    0.09    0.23
   7   0  -8    0.25    0.30
   7   0   8    0.44    0.41
  -8   0   8   73.30    3.39
   8   0  -8   68.86    3.56
  -8   0  -8   69.92    3.41
   8   0   8   68.15    3.67
   0  -1  -8  255.47   11.49
   0   1   8  239.46   11.72
   0  -1   8  245.25   11.68
   0   1  -8  252.72   11.59
   0   1  -8  258.75   11.49
   0  -1  -8  267.24   11.63
  -1  -1  -8    5.44    0.50
  -1  -1  -8    4.39    0.36
   1   1  -8    4.72    0.31
  -1   1   8    3.66    0.53
   1  -1   8    3.77    0.49
   1   1  -8    4.36    0.45
   1   1  -8    4.39    0.30
  -1  -1   8    4.13    0.50
   1  -1  -8    4.25    0.31
  -1   1  -8    4.48    0.45
   1   1   8    4.66    0.60
   1  -1  -8    4.69    0.47
  -1   1  -8    4.50    0.34
   2   1  -8  161.59    8.29
  -2  -1  -8  192.55    8.43
   2   1  -8  169.93    8.30
   2  -1   8  191.77    8.60
   2   1  -8  183.20    8.40
   2   1  -8  182.36    8.47
  -2  -1  -8  194.44    8.53
  -2   1   8  189.82    8.65
  -2  -1   8  189.03    8.56
  -2   1  -8  185.66    8.40
   2  -1  -8  155.38    8.33
   2   1   8  191.26    8.66
   2  -1  -8  191.58    8.50
  -2   1  -8  194.02    8.48
   2  -1  -8  188.70    8.33
   3   1  -8    4.43    0.45
   3   1  -8    4.03    0.34
  -3   1   8    3.95    0.56
   3  -1   8    4.47    0.58
  -3  -1  -8    4.66    0.50
  -3  -1  -8    4.63    0.40
  -3   1  -8    4.72    0.39
   3  -1  -8    3.94    0.22
   3  -1  -8    4.53    0.45
   3  -1  -8    4.73    0.58
  -3   1  -8    5.03    0.47
   3  -1  -8    4.45    0.22
   3   1   8    4.14    0.58
  -3  -1   8    4.86    0.52
   4   1  -8  126.58    5.92
  -4  -1  -8  128.86    5.91
  -4   1   8  132.46    5.82
   4   1  -8  121.84    5.84
   4  -1   8  132.02    6.09
  -4  -1  -8  129.78    5.97
  -4   1  -8  128.66    5.88
   4  -1  -8  117.88    5.90
   4  -1  -8  125.25    6.07
  -4  -1   8  124.58    6.00
  -4   1  -8  128.17    5.92
   4   1   8  125.99    6.11
   5   1  -8    2.32    0.32
  -5  -1  -8    3.17    0.45
  -5  -1  -8    2.36    0.35
   5  -1   8    2.51    0.48
  -5   1   8    2.64    0.30
   5   1  -8    2.70    0.38
  -5  -1   8    2.31    0.43
   5  -1  -8    2.05    0.33
   5  -1  -8    2.36    0.45
   5   1   8    2.52    0.50
  -5   1  -8    2.58    0.35
  -5   1  -8    2.68    0.38
  -6   1   8  113.36    5.15
  -6  -1  -8  111.88    5.22
   6  -1   8  109.82    5.42
   6   1  -8  105.70    5.16
  -6  -1  -8  110.34    5.26
   6  -1  -8  113.04    5.39
  -6  -1   8  110.10    5.26
   6   1   8  104.14    5.43
  -6   1  -8  118.26    5.22
  -6   1  -8  112.09    5.21
   7   1  -8    0.72    0.27
  -7  -1  -8    0.94    0.31
   7  -1   8    0.69    0.42
  -7   1   8    0.97    0.26
  -7  -1  -8    0.89    0.33
  -7   1  -8    0.71    0.27
  -7   1  -8    0.66    0.28
   7  -1  -8    0.80    0.39
   7   1   8    1.08    0.45
   8   1  -8   54.35    2.85
  -8   1   8   59.67    2.83
  -8  -1  -8   58.98    2.91
   8  -1   8   58.89    3.14
   8   1   8   57.33    3.15
   8  -1  -8   59.28    3.07
   0  -2   8  246.80   11.55
   0   2  -8  251.64   11.41
   0  -2  -8  250.66   11.43
   0   2  -8  249.64   11.49
   0   2   8  249.21   11.67
   0  -2  -8  258.49   11.56
   1   2  -8   15.99    0.80
   1   2  -8   15.01    0.82
   1  -2   8   13.55    0.95
  -1   2   8   13.28    1.04
   1   2  -8   15.34    0.92
  -1  -2  -8   16.76    0.99
  -1  -2  -8   16.32    0.87
   1   2   8   13.30    1.04
  -1   2  -8   16.63    0.84
   1  -2  -8   15.92    0.97
  -1  -2   8   13.56    0.92
  -1   2  -8   15.78    0.92
   1  -2  -8   16.41    0.83
   2   2  -8  218.02    9.99
   2   2  -8  214.08    9.98
  -2   2   8  221.62   10.33
  -2  -2  -8  224.01   10.11
  -2  -2  -8  218.78   10.20
   2   2  -8  220.97   10.14
   2   2  -8  215.88   10.06
   2  -2   8  216.18   10.22
  -2  -2   8  221.22   10.17
  -2   2  -8  226.57   10.08
  -2   2  -8  226.89   10.14
   2   2   8  215.47   10.30
   2  -2  -8  224.18   10.03
   2  -2  -8  227.46   10.17
  -3  -2  -8    4.65    0.44
   3   2  -8    4.62    0.48
   3  -2   8    4.86    0.57
   3   2  -8    4.78    0.41
  -3  -2  -8    4.90    0.54
   3  -2  -8    4.83    0.32
  -3  -2   8    4.91    0.48
   3   2   8    4.70    0.63
   3  -2  -8    4.64    0.64
  -3   2  -8    4.61    0.46
   3  -2  -8    4.72    0.47
  -3   2  -8    5.29    0.43
   4   2  -8  165.00    7.70
  -4  -2  -8  174.26    7.76
  -4  -2  -8  168.66    7.83
   4  -2   8  163.59    7.87
   4   2  -8  169.48    7.77
  -4   2  -8  177.41    7.73
   4   2   8  163.49    7.95
  -4   2  -8  168.33    7.73
   4  -2  -8  153.07    7.72
   4  -2  -8  170.40    7.92
   4  -2  -8  168.78    7.59
   5   2  -8    3.89    0.43
  -5  -2  -8    4.54    0.48
  -5  -2  -8    5.15    0.56
   5  -2   8    4.12    0.60
  -5   2  -8    4.59    0.46
  -5  -2   8    4.39    0.54
   5  -2  -8    4.71    0.62
  -5   2  -8    4.95    0.46
   5   2   8    4.18    0.63
  -6  -2  -8  109.12    5.18
  -6  -2  -8  113.03    5.24
   6   2  -8  102.07    5.12
   6  -2   8  108.64    5.34
  -6   2   8  111.24    5.07
   6  -2  -8  111.23    5.34
   6   2   8  107.21    5.39
  -6  -2   8  107.69    5.22
  -6   2  -8  112.95    5.15
  -6   2  -8  110.02    5.13
  -7  -2  -8    5.19    0.61
   7  -2   8    5.28    0.72
  -7   2   8    4.80    0.47
   7   2  -8    5.07    0.54
  -7   2  -8    5.94    0.55
   7   2   8    4.90    0.73
  -7  -2   8    4.79    0.60
   7  -2  -8    5.79    0.75
  -7   2  -8    5.70    0.51
   8  -2   8   63.93    3.28
  -8  -2  -8   60.22    3.08
   8   2  -8   55.09    2.98
  -8   2   8   63.36    2.95
   8   2   8   60.50    3.28
   8  -2  -8   62.94    3.23
   0  -3  -8  155.23    7.02
   0  -3  -8  155.34    7.12
   0  -3   8  146.88    7.07
   0   3  -8  141.36    6.97
   0   3  -8  151.40    7.04
   0   3   8  150.49    7.23
   0   3  -8  162.02    6.98
   1   3  -8    2.25    0.27
   1   3  -8    2.55    0.33
   1   3  -8    3.02    0.41
   1  -3   8    3.60    0.42
  -1  -3  -8    3.01    0.46
  -1   3   8    3.72    0.56
  -1  -3  -8    2.40    0.35
  -1   3  -8    2.93    0.33
  -1   3  -8    1.88    0.33
   1   3   8    4.02    0.57
   1  -3  -8    2.72    0.42
   1  -3  -8    2.73    0.33
   2   3  -8  128.74    6.01
   2   3  -8  130.59    5.87
   2   3  -8  120.95    5.94
  -2   3   8  129.29    6.21
  -2  -3  -8  128.02    6.08
  -2  -3  -8  126.39    5.99
   2  -3   8  129.82    6.04
  -2   3  -8  134.75    5.95
   2  -3  -8  124.70    6.03
   2   3   8  131.92    6.19
   2  -3  -8  128.84    5.92
  -2   3  -8  126.19    5.97
  -3  -3  -8    4.63    0.58
   3   3  -8    4.20    0.43
   3   3  -8    4.16    0.29
  -3  -3  -8    4.29    0.46
   3  -3   8    5.51    0.55
  -3   3  -8    4.32    0.42
   3  -3  -8    3.90    0.35
  -3  -3   8    4.85    0.57
  -3   3  -8    3.89    0.45
   3   3   8    4.87    0.65
   3  -3  -8    4.13    0.60
   3  -3  -8    3.88    0.46
   4  -3   8  103.18    4.79
  -4  -3  -8   98.33    4.79
   4   3  -8   84.83    4.46
  -4  -3  -8   99.83    4.70
   4   3  -8   90.55    4.63
   4   3   8  101.43    4.89
  -4   3  -8  101.84    4.65
  -4  -3   8   99.69    4.78
   4  -3  -8  102.75    4.85
   4  -3  -8   98.46    4.56
  -4   3  -8  108.60    4.66
  -5  -3  -8    2.27    0.48
   5   3  -8    2.70    0.40
   5  -3   8    3.43    0.52
  -5  -3  -8    2.46    0.41
   5  -3  -8    2.56    0.27
   5  -3  -8    2.55    0.51
   5   3   8    2.69    0.55
  -5   3  -8    2.49    0.36
  -5   3  -8    2.82    0.39
  -5  -3   8    3.25    0.50
   6  -3   8   73.61    3.71
  -6  -3  -8   76.11    3.59
  -6  -3  -8   69.75    3.64
   6   3  -8   68.55    3.52
  -6   3  -8   76.74    3.53
  -6   3  -8   72.89    3.48
   6  -3  -8   75.68    3.74
   6   3   8   69.80    3.74
  -6  -3   8   74.14    3.65
   6  -3  -8   73.02    3.37
  -7  -3  -8    1.26    0.43
   7  -3   8    1.73    0.52
   7   3  -8    1.03    0.35
  -7  -3   8    1.66    0.43
   7  -3  -8    1.24    0.48
   7   3   8    2.07    0.54
   7  -3  -8    1.30    0.17
   0   4   8  129.80    6.18
   0   4  -8  123.58    5.93
   0  -4   8  130.53    6.08
   0  -4  -8  124.97    6.04
   0   4  -8  131.98    5.90
   0   4  -8  124.35    5.95
   0  -4  -8  126.22    5.94
  -1  -4  -8   14.90    1.05
  -1   4   8   14.79    1.13
  -1  -4  -8   14.87    0.94
   1   4  -8   14.15    0.91
   1   4  -8   16.65    0.87
  -1   4  -8   15.16    0.91
  -1   4  -8   15.38    0.94
   1   4   8   14.54    1.12
   1  -4  -8   16.34    1.03
   1  -4  -8   15.24    0.91
  -1   4  -8   16.46    0.89
  -1  -4   8   14.44    1.06
  -2   4   8  103.39    5.10
   2   4  -8   96.07    4.85
  -2  -4  -8  101.30    4.90
  -2  -4  -8  101.91    4.98
   2   4  -8  108.91    4.78
   2   4   8  102.88    5.08
   2  -4  -8  100.51    4.92
  -2   4  -8  101.55    4.85
  -2  -4   8  104.68    5.00
   2  -4  -8  104.21    4.83
  -2   4  -8  108.85    4.84
   3   4  -8    6.75    0.60
  -3  -4  -8    6.49    0.61
   3   4  -8    7.48    0.48
  -3  -4  -8    6.71    0.73
   3  -4  -8    7.68    0.79
   3  -4  -8    7.13    0.53
  -3  -4   8    7.94    0.76
   3   4   8    7.62    0.80
  -3   4  -8    6.80    0.55
  -3   4  -8    6.64    0.56
   4  -4   8   73.75    3.61
  -4  -4  -8   74.67    3.60
   4   4  -8   71.90    3.40
   4   4  -8   65.65    3.52
  -4  -4  -8   71.61    3.66
   4   4   8   70.17    3.72
  -4  -4   8   72.56    3.67
  -4   4  -8   75.13    3.51
   4  -4  -8   78.30    3.74
  -4   4  -8   73.97    3.50
   4  -4  -8   77.30    3.46
   5   4  -8    6.68    0.41
  -5  -4  -8    8.13    0.68
   5   4  -8    6.24    0.63
  -5  -4  -8    7.52    0.77
   5  -4   8    6.87    0.73
   5   4   8    6.73    0.78
  -5   4  -8    7.49    0.58
   5  -4  -8    8.26    0.84
   5  -4  -8    8.81    0.53
  -5  -4   8    6.84    0.76
  -5   4  -8    7.29    0.60
   6   4  -8   50.60    2.75
   6  -4   8   56.02    2.90
  -6  -4  -8   56.94    2.91
  -6  -4   8   56.46    2.90
   6  -4  -8   57.46    2.63
   6  -4  -8   57.39    2.98
   6   4   8   51.15    2.92
  -6   4  -8   55.44    2.74
   0   5  -8   66.62    3.11
   0   5   8   61.34    3.35
   0  -5  -8   67.70    3.16
   0  -5  -8   66.98    3.28
   0  -5   8   59.69    3.26
   0   5  -8   64.24    3.16
   1   5  -8   11.67    0.75
   1   5  -8   11.45    0.85
  -1  -5  -8   13.26    0.85
  -1   5   8   13.10    1.05
   1  -5   8   11.98    0.94
  -1  -5  -8   11.13    0.93
  -1   5  -8   11.45    0.83
   1  -5  -8   11.03    0.92
   1   5   8   11.97    1.03
   1  -5  -8   13.18    0.82
  -1   5  -8   12.02    0.78
  -1  -5   8   12.39    0.97
  -2  -5  -8   64.85    3.17
  -2   5   8   61.41    3.35
   2   5  -8   60.70    3.15
   2   5  -8   64.18    3.05
   2  -5   8   62.48    3.23
  -2  -5  -8   66.34    3.27
   2  -5  -8   69.89    3.12
  -2  -5   8   58.77    3.26
  -2   5  -8   67.23    3.11
   2   5   8   63.36    3.33
  -2   5  -8   63.72    3.14
   3   5  -8   10.12    0.63
  -3  -5  -8    9.30    0.76
   3  -5   8    9.33    0.81
   3   5  -8    8.41    0.76
  -3  -5  -8    9.74    0.88
   3   5   8    9.31    0.94
   3  -5  -8   10.23    0.69
   3  -5  -8   10.61    0.94
  -3   5  -8    9.66    0.70
  -3  -5   8    9.47    0.88
   4  -5   8   50.33    2.70
  -4  -5  -8   54.50    2.79
   4   5  -8   52.90    2.53
   4   5  -8   47.48    2.65
  -4  -5  -8   55.96    2.72
  -4  -5   8   48.80    2.79
  -4   5  -8   57.27    2.63
   4  -5  -8   56.81    2.59
   4   5   8   45.31    2.78
   4  -5  -8   57.30    2.86
   0   0  -9    0.21    0.14
   0   0  -9    0.28    0.26
   0   0   9    0.01    0.26
  -1   0  -9  184.97    8.38
   1   0  -9  186.54    8.37
   1   0   9  173.53    8.47
  -1   0  -9  184.32    8.25
  -1   0   9  168.56    8.45
   1   0  -9  184.46    8.20
  -2   0   9    0.11    0.26
   2   0  -9    0.13    0.08
  -2   0  -9    0.08    0.23
   2   0  -9    0.06    0.07
   2   0   9   -0.01    0.28
   2   0  -9   -0.07    0.23
  -2   0  -9    0.17    0.17
   3   0  -9  131.29    6.14
   3   0   9  128.18    6.28
  -3   0  -9  137.78    6.17
  -3   0   9  123.93    6.25
  -3   0  -9  134.34    6.08
  -4   0  -9    0.15    0.20
  -4   0   9    0.12    0.29
   4   0  -9    0.22    0.24
   4   0   9    0.29    0.32
  -4   0  -9    0.18    0.25
   5   0   9  100.70    5.09
  -5   0  -9  106.91    4.93
   5   0  -9  100.53    4.89
  -5   0   9   98.54    5.06
  -5   0  -9  110.94    4.89
   6   0  -9    0.06    0.30
   6   0   9   -0.05    0.35
  -6   0  -9    0.25    0.25
  -6   0  -9    0.18    0.27
   7   0   9   66.60    3.62
  -7   0  -9   69.16    3.41
   7   0  -9   67.17    3.52
  -7   0  -9   69.92    3.40
  -7   0   9   74.79    3.35
   0  -1  -9    4.35    0.52
   0   1  -9    3.46    0.46
   0   1  -9    3.83    0.31
   0  -1  -9    3.42    0.31
   0   1   9    2.63    0.50
   0  -1   9    2.33    0.44
   1   1  -9  196.79    8.88
   1  -1   9  175.59    8.93
  -1  -1  -9  194.13    8.77
   1   1  -9  204.27    8.72
  -1  -1  -9  196.15    8.91
  -1   1   9  185.95    9.01
   1  -1  -9  203.56    8.91
   1  -1  -9  189.67    8.72
  -1   1  -9  199.28    8.88
   1   1   9  180.69    8.99
  -1  -1   9  183.07    8.93
  -1   1  -9  192.89    8.76
  -2   1   9    1.76    0.44
  -2  -1  -9    2.31    0.40
   2  -1   9    1.36    0.38
   2   1  -9    1.74    0.34
   2   1  -9    1.97    0.14
  -2  -1  -9    2.00    0.29
   2   1  -9    1.81    0.14
  -2   1  -9    2.27    0.37
  -2   1  -9    2.29    0.30
   2   1   9    1.50    0.42
   2  -1  -9    2.05    0.19
  -2  -1   9    1.84    0.38
   2  -1  -9    2.52    0.40
  -3   1   9  131.56    6.54
   3  -1   9  133.32    6.50
  -3  -1  -9  140.39    6.33
  -3  -1  -9  142.88    6.43
   3   1  -9  135.96    6.38
  -3   1  -9  141.14    6.32
  -3  -1   9  131.03    6.45
   3  -1  -9  139.39    6.39
   3   1   9  128.13    6.53
  -3   1  -9  140.60    6.38
  -4  -1  -9    1.27    0.36
   4  -1   9    1.42    0.42
   4   1  -9    1.78    0.35
  -4  -1  -9    1.79    0.32
  -4   1   9    0.76    0.39
   4  -1  -9    1.13    0.31
  -4  -1   9    0.88    0.33
  -4   1  -9    1.63    0.35
   4   1   9    1.22    0.41
  -4   1  -9    1.62    0.29
  -5  -1  -9  106.85    4.95
   5  -1   9   99.92    5.06
  -5  -1  -9  106.80    4.88
   5   1  -9  103.30    4.89
   5   1   9   95.37    5.06
  -5   1  -9  106.84    4.86
  -5   1  -9  106.48    4.90
  -5  -1   9   97.28    4.97
   5  -1  -9  106.05    5.07
  -6  -1  -9    1.85    0.37
  -6  -1  -9    1.77    0.41
   6   1  -9    1.59    0.31
   6  -1   9    0.83    0.42
  -6   1  -9    1.50    0.35
  -6  -1   9    0.99    0.33
   6  -1  -9    1.22    0.42
   6   1   9    1.14    0.46
  -6   1  -9    1.55    0.34
   7  -1   9   67.66    3.53
   7   1  -9   65.21    3.25
  -7  -1  -9   67.68    3.36
  -7  -1  -9   68.93    3.32
   7  -1  -9   66.53    3.46
  -7   1  -9   68.61    3.30
  -7   1  -9   68.30    3.29
   7   1   9   66.88    3.55
   0   2   9    3.57    0.59
   0  -2  -9    4.32    0.53
   0   2  -9    3.34    0.44
   0  -2  -9    3.74    0.36
   0  -2   9    3.88    0.50
   0   2  -9    4.01    0.34
  -1  -2  -9  150.18    7.00
   1  -2   9  146.53    7.13
   1   2  -9  156.53    6.94
  -1  -2  -9  158.08    7.15
   1   2  -9  151.14    7.07
  -1   2   9  145.93    7.25
  -1   2  -9  152.69    7.06
   1   2   9  144.86    7.24
  -1   2  -9  161.38    6.99
  -1  -2   9  146.85    7.10
   1  -2  -9  157.00    7.13
   1  -2  -9  152.22    6.96
  -2  -2  -9    2.83    0.36
  -2   2   9    2.56    0.52
   2   2  -9    3.31    0.42
  -2  -2  -9    2.92    0.48
   2  -2   9    3.79    0.52
   2   2  -9    2.53    0.22
   2  -2  -9    3.06    0.45
  -2   2  -9    3.03    0.34
   2  -2  -9    2.58    0.27
   2   2   9    2.44    0.51
  -2  -2   9    3.39    0.45
  -2   2  -9    2.86    0.41
   3  -2   9  110.67    5.60
  -3   2   9  112.59    5.71
  -3  -2  -9  120.82    5.49
   3   2  -9  121.04    5.52
  -3  -2  -9  122.03    5.59
   3   2   9  108.40    5.67
  -3   2  -9  118.46    5.51
   3  -2  -9  115.89    5.53
  -3   2  -9  124.19    5.46
   3  -2  -9  116.61    5.34
  -4  -2  -9    1.58    0.33
   4   2  -9    2.57    0.41
   4  -2   9    1.94    0.44
  -4  -2  -9    2.17    0.43
   4  -2  -9    1.85    0.13
   4  -2  -9    2.18    0.50
  -4   2  -9    2.27    0.38
  -4   2  -9    2.38    0.35
   4  -2  -9    1.68    0.13
   4   2   9    2.26    0.53
   4  -2  -9    1.71    0.34
   5   2  -9   89.92    4.29
   5  -2   9   85.31    4.49
  -5  -2  -9   91.94    4.36
  -5  -2  -9   91.11    4.43
   5  -2  -9   93.02    4.53
  -5   2  -9   95.47    4.33
  -5   2  -9   96.57    4.35
  -5  -2   9   91.51    4.43
   5   2   9   85.01    4.54
   6  -2   9    2.11    0.51
   6   2  -9    1.78    0.35
  -6  -2  -9    1.83    0.38
  -6  -2  -9    2.35    0.48
  -6  -2   9    1.86    0.41
  -6   2  -9    2.18    0.37
   6  -2  -9    1.77    0.48
  -6   2  -9    1.98    0.37
   6   2   9    1.31    0.48
   7   2  -9   51.80    2.58
   0   3  -9    8.09    0.64
   0  -3  -9    7.82    0.70
   0   3   9    7.72    0.82
   0  -3  -9    7.36    0.56
   0   3  -9    8.16    0.54
  -1   3   9  122.92    5.91
  -1  -3  -9  118.78    5.76
   1  -3   9  115.27    5.70
   1   3  -9  117.64    5.68
  -1  -3  -9  118.43    5.65
   1   3  -9  126.86    5.58
   1  -3  -9  121.83    5.75
  -1   3  -9  129.66    5.62
  -1   3  -9  119.78    5.68
   1  -3  -9  119.36    5.61
   1   3   9  121.08    5.89
   2  -3   9    5.12    0.54
  -2  -3  -9    4.52    0.47
   2   3  -9    4.53    0.52
  -2  -3  -9    4.28    0.57
  -2   3   9    5.44    0.70
   2   3  -9    4.96    0.34
   2   3   9    4.88    0.67
  -2   3  -9    4.67    0.50
  -2   3  -9    4.64    0.44
   2  -3  -9    4.90    0.54
   2  -3  -9    4.73    0.40
   3   3  -9   83.60    3.94
   3   3  -9   89.96    4.16
  -3  -3  -9   85.05    4.23
  -3  -3  -9   87.89    4.14
   3  -3   9   84.03    4.20
   3   3  -9   79.50    4.11
  -3   3   9   87.16    4.38
  -3  -3   9   86.02    4.25
  -3   3  -9   88.29    4.12
   3  -3  -9   87.46    4.02
   3  -3  -9   84.18    4.16
   3   3   9   84.90    4.33
  -3   3  -9   96.02    4.11
   4  -3   9    3.76    0.55
  -4  -3  -9    3.79    0.56
  -4  -3  -9    3.81    0.48
   4   3  -9    3.65    0.43
  -4   3  -9    3.08    0.43
   4  -3  -9    3.28    0.30
   4  -3  -9    3.92    0.64
   4   3   9    3.50    0.62
  -4  -3   9    3.80    0.56
  -4   3  -9    3.00    0.41
  -5  -3  -9   61.29    3.29
   5   3  -9   62.55    3.17
   5  -3   9   66.23    3.34
  -5  -3  -9   65.78    3.23
  -5   3  -9   66.88    3.18
  -5   3  -9   70.28    3.19
  -5  -3   9   64.25    3.31
   5   3   9   61.81    3.40
   5  -3  -9   70.32    3.42
   5  -3  -9   64.81    3.02
  -6  -3  -9    4.16    0.62
  -6  -3  -9    4.02    0.55
   6  -3   9    3.87    0.62
   6   3  -9    3.73    0.48
   6  -3  -9    3.64    0.22
   6  -3  -9    4.41    0.67
  -6   3  -9    3.89    0.46
   6   3   9    3.44    0.64
  -6  -3   9    4.33    0.61
  -6   3  -9    4.56    0.51
   0   4  -9   13.25    0.78
   0   4   9   13.17    1.07
   0   4  -9   12.94    0.87
   0  -4  -9   12.01    0.82
   0  -4  -9   13.34    0.97
  -1  -4  -9   75.61    3.72
   1   4  -9   79.41    3.53
  -1   4   9   71.51    3.83
  -1  -4  -9   72.63    3.60
   1  -4  -9   74.29    3.57
  -1   4  -9   73.98    3.60
  -1   4  -9   81.60    3.57
   1   4   9   72.73    3.82
  -1  -4   9   71.80    3.73
   1  -4  -9   72.22    3.68
  -2  -4  -9    9.50    0.84
   2   4  -9   10.49    0.62
  -2   4   9   10.23    0.96
  -2  -4  -9    9.49    0.73
  -2   4  -9   10.31    0.69
  -2  -4   9   10.85    0.91
  -2   4  -9    9.20    0.72
   2   4   9   10.74    0.94
   2  -4  -9   10.44    0.68
   2  -4  -9    9.52    0.79
   3   4  -9   57.32    3.07
  -3  -4  -9   63.81    3.14
   3   4  -9   65.35    2.96
  -3   4   9   64.75    3.37
  -3  -4  -9   62.74    3.23
  -3   4  -9   67.99    3.08
   3  -4  -9   65.62    3.03
   3   4   9   61.06    3.31
  -3   4  -9   63.71    3.09
  -3  -4   9   59.77    3.22
  -4  -4  -9    6.56    0.73
   4   4  -9    5.51    0.36
   4   4  -9    5.18    0.57
  -4  -4  -9    5.99    0.60
   4  -4  -9    7.17    0.84
  -4   4  -9    6.56    0.55
  -4   4  -9    6.00    0.55
  -4  -4   9    6.39    0.72
   4  -4  -9    6.69    0.47
   4   4   9    5.46    0.75
   0   5  -9   13.32    0.81
   0   5   9   11.86    1.07
   0  -5  -9   13.94    0.88
   0  -5   9   11.15    0.98
   0  -5  -9   12.46    0.99
   1   5  -9   59.99    2.82
  -1   5   9   57.28    3.14
  -1  -5  -9   56.34    3.02
  -1  -5  -9   59.92    2.92
   1  -5   9   56.80    3.02
   1  -5  -9   56.73    2.99
  -1   5  -9   62.49    2.86
   1   5   9   57.17    3.12
  -1  -5   9   56.58    3.04
   1  -5  -9   59.70    2.87
   0   0 -10  142.18    6.39
   0   0  10  127.44    6.47
   0   0 -10  136.89    6.21
   1   0 -10    0.18    0.14
  -1   0  10    0.21    0.30
  -1   0 -10    0.32    0.30
  -1   0 -10    0.16    0.17
   1   0  10    0.14    0.30
   1   0 -10    0.21    0.28
  -2   0 -10  106.02    4.81
  -2   0 -10  108.68    4.95
   2   0 -10  105.86    4.94
   2   0  10   96.43    5.03
  -2   0  10   99.03    5.03
   3   0 -10    0.24    0.27
  -3   0  10    0.28    0.30
   3   0  10   -0.06    0.31
  -3   0 -10    0.10    0.21
  -3   0 -10    0.29    0.29
   4   0 -10   69.77    3.46
   4   0  10   68.20    3.63
  -4   0 -10   74.18    3.42
  -4   0  10   71.99    3.62
  -4   0 -10   70.68    3.49
   5   0  10    0.31    0.37
  -5   0 -10    0.42    0.31
   5   0 -10   -0.01    0.25
  -5   0 -10    0.19    0.25
  -5   0  10    0.11    0.32
   6   0  10   57.15    3.15
  -6   0  10   56.82    3.12
  -6   0 -10   61.24    2.93
  -6   0 -10   61.52    2.99
   0   1 -10  132.42    6.13
   0  -1  10  121.99    6.19
   0   1 -10  137.32    5.98
   0   1  10  123.23    6.26
   0  -1 -10  128.94    5.98
   0  -1 -10  136.12    6.17
   1  -1  10    0.69    0.34
   1   1 -10    1.38    0.37
  -1   1  10    0.30    0.35
   1   1 -10    1.29    0.19
  -1  -1 -10    1.28    0.37
  -1  -1 -10    1.15    0.24
   1  -1 -10    1.43    0.20
  -1  -1  10    0.66    0.33
  -1   1 -10    1.45    0.26
  -1   1 -10    1.65    0.38
   1   1  10    0.94    0.40
   1  -1 -10    1.40    0.37
   2  -1  10  107.26    5.76
  -2   1  10  113.01    5.83
  -2  -1 -10  124.54    5.60
   2   1 -10  126.16    5.70
  -2  -1 -10  123.77    5.73
  -2   1 -10  129.08    5.71
  -2   1 -10  125.39    5.59
   2   1  10  109.74    5.82
  -2  -1  10  112.03    5.75
   2  -1 -10  128.59    5.48
   2  -1 -10  124.05    5.72
   3   1 -10    0.28    0.27
  -3   1  10    0.30    0.35
  -3  -1 -10    0.58    0.32
   3  -1  10    0.17    0.32
  -3  -1 -10    0.52    0.25
   3   1  10    0.47    0.38
  -3   1 -10    0.34    0.22
  -3  -1  10    0.29    0.30
  -3   1 -10    0.23    0.28
   3  -1 -10    0.25    0.29
  -4   1  10   91.08    4.85
   4   1 -10  102.68    4.69
  -4  -1 -10  105.08    4.74
   4  -1  10   89.04    4.79
  -4  -1 -10  102.82    4.64
   4  -1 -10  101.81    4.69
  -4   1 -10  106.68    4.70
  -4  -1  10   88.14    4.73
  -4   1 -10  108.95    4.63
   4   1  10   82.35    4.79
  -5   1  10    0.36    0.37
   5   1 -10    0.68    0.31
  -5  -1 -10    0.85    0.37
   5  -1  10    0.26    0.37
  -5  -1 -10    0.59    0.28
  -5   1 -10    0.50    0.26
  -5   1 -10    0.45    0.30
   5   1  10    0.21    0.37
   6  -1  10   60.56    3.40
  -6  -1 -10   68.78    3.23
  -6  -1 -10   67.45    3.29
  -6   1 -10   68.97    3.25
  -6  -1  10   63.47    3.27
   6  -1 -10   66.46    3.40
  -6   1 -10   68.20    3.21
   6   1  10   59.38    3.41
   0  -2 -10  109.67    5.10
   0   2  10  105.30    5.38
   0   2 -10  108.53    5.21
   0  -2 -10  114.22    5.28
   0  -2  10  102.56    5.25
   0   2 -10  119.60    5.10
   1   2 -10    1.66    0.37
  -1   2  10    1.41    0.45
  -1  -2 -10    1.99    0.43
   1  -2  10    1.46    0.39
   1   2 -10    1.39    0.21
  -1  -2 -10    1.32    0.27
   1  -2 -10    1.39    0.23
  -1  -2  10    1.79    0.38
   1   2  10    1.28    0.43
  -1   2 -10    1.60    0.29
   1  -2 -10    0.97    0.36
  -1   2 -10    1.32    0.35
  -2   2  10   80.68    4.34
  -2  -2 -10   84.88    4.09
   2  -2  10   79.17    4.21
   2   2 -10   87.79    3.93
  -2  -2 -10   89.79    4.24
   2   2 -10   86.44    4.16
  -2   2 -10   89.09    4.07
   2  -2 -10   90.36    3.99
  -2   2 -10   88.43    4.16
   2  -2 -10   91.76    4.22
   2   2  10   80.82    4.33
   3  -2  10    1.00    0.38
  -3   2  10    0.88    0.43
  -3  -2 -10    1.23    0.30
  -3  -2 -10    1.65    0.43
   3   2 -10    1.37    0.36
  -3   2 -10    1.33    0.36
   3  -2 -10    1.53    0.17
   3   2  10    1.22    0.44
   3  -2 -10    1.91    0.38
  -3   2 -10    1.73    0.32
   4   2 -10   62.61    3.10
   4  -2  10   59.20    3.19
  -4   2  10   58.84    3.30
  -4  -2 -10   68.99    3.08
  -4  -2 -10   62.40    3.16
  -4   2 -10   65.52    3.09
  -4   2 -10   65.06    3.04
   4   2  10   56.27    3.25
  -5   2  10    1.09    0.48
  -5  -2 -10    1.22    0.42
  -5  -2 -10    1.34    0.36
   5  -2  10    1.19    0.44
  -5   2 -10    1.00    0.35
  -5   2 -10    1.34    0.34
   5   2  10    1.17    0.46
  -5  -2  10    1.05    0.39
   5  -2 -10    1.23    0.46
   0   3  10   82.34    4.47
   0   3 -10   96.66    4.18
   0  -3 -10   88.69    4.21
   0  -3 -10   91.29    4.37
   0   3 -10   87.14    4.28
   1   3 -10   10.81    0.61
   1   3 -10   10.02    0.77
  -1  -3 -10   10.03    0.84
  -1  -3 -10    9.14    0.68
  -1   3  10    9.42    0.93
  -1   3 -10   10.11    0.76
   1  -3 -10    9.90    0.83
   1  -3 -10   10.22    0.65
  -1   3 -10   11.44    0.68
   1   3  10    9.36    0.94
   2   3 -10   88.62    3.77
  -2   3  10   74.86    4.14
  -2  -3 -10   84.38    4.05
  -2  -3 -10   83.02    3.92
   2  -3  10   74.79    4.05
   2   3 -10   83.01    3.96
  -2   3 -10   88.89    3.89
   2  -3 -10   81.37    3.82
  -2   3 -10   80.92    3.94
   2  -3 -10   82.55    4.01
   2   3  10   76.09    4.13
  -3  -3 -10    5.34    0.67
   3   3 -10    5.54    0.59
   3  -3  10    5.04    0.63
  -3   3  10    5.47    0.77
  -3  -3 -10    5.64    0.54
   3   3  10    5.35    0.77
   3  -3 -10    5.05    0.39
  -3  -3  10    4.95    0.68
  -3   3 -10    6.04    0.53
  -3   3 -10    5.26    0.56
  -4  -3 -10   66.20    3.26
   4  -3  10   58.53    3.22
  -4  -3 -10   65.86    3.16
  -4   3  10   60.88    3.39
  -4   3 -10   68.64    3.12
   4   3  10   59.12    3.34
   4  -3 -10   65.24    2.95
  -4  -3  10   61.49    3.25
  -4   3 -10   67.16    3.14
   0  -4 -10   59.04    2.97
   0  -4 -10   59.93    3.11
   0   4  10   58.97    3.23
   0   4 -10   58.64    3.01
   0   4 -10   67.44    2.94
   1   4 -10    5.67    0.44
  -1  -4 -10    5.32    0.69
  -1   4  10    6.15    0.78
  -1  -4 -10    5.24    0.54
  -1   4 -10    5.47    0.59
  -1   4 -10    5.37    0.50
   1  -4 -10    5.12    0.49
   1   4  10    6.52    0.81
  -1  -4  10    6.03    0.74
   1  -4 -10    5.48    0.68
  -2   4  10   53.14    2.94
   2   4  10   53.76    2.92
  -2  -4  10   53.58    2.83
   0   0 -11    0.13    0.17
   0   0 -11    0.41    0.33
   0   0  11    0.43    0.36
   1   0  11   76.42    4.15
  -1   0  11   74.42    4.14
  -1   0 -11   86.87    4.09
  -1   0 -11   84.42    3.91
   1   0 -11   87.58    4.10
   1   0 -11   90.26    3.85
  -2   0 -11   -0.05    0.19
  -2   0 -11    0.12    0.32
  -2   0  11    0.11    0.32
   2   0  11   -0.05    0.33
   2   0 -11    0.31    0.32
   3   0  11   72.77    4.24
  -3   0  11   75.86    4.25
   3   0 -11   95.16    4.19
  -3   0 -11   91.73    4.20
  -3   0 -11   93.10    4.08
  -4   0  11    0.20    0.32
   4   0  11    0.28    0.37
  -4   0 -11   -0.02    0.24
  -4   0 -11    0.10    0.31
   4   0 -11    0.28    0.32
   0   1 -11    0.80    0.21
   0  -1 -11    0.74    0.37
   0  -1 -11    0.79    0.22
   0  -1  11    0.92    0.37
   0   1 -11    0.62    0.35
   0   1  11    0.90    0.42
   1   1 -11   82.00    3.49
  -1  -1 -11   77.34    3.75
  -1   1  11   68.05    3.82
  -1  -1 -11   74.73    3.56
   1  -1  11   68.05    3.77
   1   1 -11   79.59    3.72
  -1  -1  11   67.90    3.75
   1   1  11   67.20    3.82
   1  -1 -11   78.87    3.51
   1  -1 -11   81.76    3.77
  -1   1 -11   82.47    3.58
  -1   1 -11   77.18    3.72
   2  -1  11    0.68    0.36
   2   1 -11    0.48    0.33
  -2  -1 -11    0.45    0.24
  -2  -1 -11    0.60    0.37
  -2   1  11    0.81    0.40
   2   1  11    0.59    0.40
   2  -1 -11    0.29    0.33
  -2   1 -11    0.35    0.24
  -2  -1  11    0.28    0.32
  -2   1 -11    0.30    0.32
   2  -1 -11    0.55    0.12
  -3  -1 -11   50.16    2.60
  -3   1  11   48.05    2.72
   3   1 -11   54.20    2.59
   3  -1  11   47.56    2.65
  -3  -1 -11   50.00    2.47
  -3   1 -11   50.97    2.46
   3   1  11   46.35    2.71
  -3  -1  11   47.46    2.62
  -3   1 -11   52.72    2.58
   3  -1 -11   51.79    2.60
  -4  -1 -11    0.59    0.29
   4  -1  11    0.44    0.38
  -4   1  11    0.49    0.39
  -4  -1 -11    0.77    0.37
   4   1 -11    0.72    0.35
   4  -1 -11    0.65    0.34
   4   1  11    0.12    0.37
  -4   1 -11    0.20    0.26
  -4   1 -11    0.45    0.34
   0  -2 -11    5.42    0.65
   0  -2  11    4.02    0.58
   0   2 -11    4.55    0.57
   0  -2 -11    4.13    0.41
   0   2  11    3.68    0.67
   0   2 -11    5.49    0.41
   1   2 -11   85.55    4.07
   1   2 -11   89.68    3.86
  -1  -2 -11   82.28    4.12
  -1   2  11   77.99    4.24
   1  -2  11   75.65    4.10
  -1  -2 -11   83.63    3.95
   1  -2 -11   85.24    4.13
   1  -2 -11   82.86    3.89
  -1   2 -11   94.45    3.96
   1   2  11   79.70    4.23
  -1   2 -11   81.72    4.05
  -2  -2 -11    3.04    0.41
  -2  -2 -11    2.58    0.51
  -2   2  11    2.50    0.58
   2   2 -11    2.33    0.45
   2  -2  11    1.96    0.46
   2  -2 -11    2.64    0.27
   2  -2 -11    2.98    0.52
  -2   2 -11    3.16    0.39
  -2   2 -11    2.97    0.47
   2   2  11    1.81    0.52
  -3  -2 -11   83.23    3.79
   3  -2  11   67.12    3.88
  -3  -2 -11   82.78    3.93
   3   2 -11   83.57    3.87
  -3   2  11   71.25    4.03
  -3   2 -11   80.78    3.84
  -3   2 -11   84.65    3.76
   3   2  11   70.80    3.99
   3  -2 -11   83.46    3.90
   0   0   0    0.00    0.00
;
_shelx_hkl_checksum              20460
_olex2_submission_special_instructions 'No special instructions were received'
loop_
_space_group_symop_operation_xyz
'x, y, z'
'-x+1/2, -y, z+1/2'
'x+1/2, -y, z+1/2'
'-x, y, z'
loop_
_atom_site_label
_atom_site_type_symbol
_atom_site_fract_x
_atom_site_fract_y
_atom_site_fract_z
_atom_site_U_iso_or_equiv
_atom_site_adp_type
_atom_site_occupancy
_atom_site_site_symmetry_order
_atom_site_calc_flag
_atom_site_refinement_flags_posn
_atom_site_refinement_flags_adp
_atom_site_refinement_flags_occupancy
_atom_site_disorder_assembly
_atom_site_disorder_group
Re1 Re 0.0000 0.01226(3) 0.5000(2) 0.03218(16) Uani 1 2 d S T P . .
O1 O 0.0000 0.2013(12) 0.3631(8) 0.080(2) Uani 1 2 d S T P . .
O2 O 0.0000 -0.2531(10) 0.4303(9) 0.0648(17) Uani 1 2 d S T P . .
O3 O 0.1557(7) 0.0474(9) 0.6087(8) 0.0705(14) Uani 1 1 d . . . . .
N1 N 0.5000 0.4708(16) 0.6273(13) 0.034(3) Uani 1 2 d S T P . .
H1 H 0.5000 0.4842 0.7340 0.040 Uiso 1 2 calc RS T P . .
C1 C 0.5000 0.232(2) 0.5914(10) 0.051(3) Uani 1 2 d S T P . .
H1A H 0.4121 0.1610 0.6319 0.061 Uiso 0.5 1 calc R . . . .
H1B H 0.5879 0.1610 0.6319 0.061 Uiso 0.5 1 calc R . . . .
C2 C 0.5000 0.212(2) 0.4268(14) 0.058(3) Uani 1 2 d S T P . .
H2A H 0.4124 0.1295 0.3961 0.070 Uiso 0.5 1 calc R . . . .
H2B H 0.5876 0.1295 0.3961 0.070 Uiso 0.5 1 calc R . . . .
C3 C 0.5000 0.440(3) 0.3528(15) 0.040(3) Uani 1 2 d S T P . .
H3 H 0.5000 0.4265 0.2461 0.049 Uiso 1 2 calc RS T P . .
C4 C 0.3616(13) 0.5602(18) 0.4070(10) 0.052(2) Uani 1 1 d . . . . .
H4A H 0.3570 0.7075 0.3635 0.062 Uiso 1 1 calc R . . . .
H4B H 0.2735 0.4784 0.3768 0.062 Uiso 1 1 calc R . . . .
C5 C 0.3625(10) 0.5818(17) 0.5718(9) 0.0490(18) Uani 1 1 d . . . . .
H5A H 0.3621 0.7378 0.5997 0.059 Uiso 1 1 calc R . . . .
H5B H 0.2746 0.5112 0.6128 0.059 Uiso 1 1 calc R . . . .
loop_
_atom_site_aniso_label
_atom_site_aniso_U_11
_atom_site_aniso_U_22
_atom_site_aniso_U_33
_atom_site_aniso_U_23
_atom_site_aniso_U_13
_atom_site_aniso_U_12
Re1 0.03474(19) 0.03127(19) 0.0305(2) 0.0031(3) 0.000 0.000
O1 0.129(6) 0.057(4) 0.055(4) 0.025(3) 0.000 0.000
O2 0.081(4) 0.041(3) 0.073(4) -0.007(3) 0.000 0.000
O3 0.047(3) 0.093(3) 0.071(3) -0.008(3) -0.016(2) -0.009(3)
N1 0.039(5) 0.044(5) 0.017(4) 0.000(2) 0.000 0.000
C1 0.058(6) 0.045(7) 0.050(5) 0.020(4) 0.000 0.000
C2 0.081(8) 0.028(5) 0.066(5) -0.007(4) 0.000 0.000
C3 0.050(6) 0.049(5) 0.022(4) -0.007(5) 0.000 0.000
C4 0.051(5) 0.066(5) 0.039(3) 0.007(3) -0.007(3) 0.005(4)
C5 0.043(4) 0.055(4) 0.049(3) -0.002(3) 0.005(3) 0.024(4)
loop_
_atom_type_symbol
_atom_type_description
_atom_type_scat_dispersion_real
_atom_type_scat_dispersion_imag
_atom_type_scat_source
C C 0.0033 0.0016 'International Tables Vol C Tables 4.2.6.8 and 6.1.1.4'
H H 0.0000 0.0000 'International Tables Vol C Tables 4.2.6.8 and 6.1.1.4'
N N 0.0061 0.0033 'International Tables Vol C Tables 4.2.6.8 and 6.1.1.4'
O O 0.0106 0.0060 'International Tables Vol C Tables 4.2.6.8 and 6.1.1.4'
Re Re -1.0185 7.2310 'International Tables Vol C Tables 4.2.6.8 and 6.1.1.4'
loop_
_geom_angle_atom_site_label_1
_geom_angle_atom_site_label_2
_geom_angle_atom_site_label_3
_geom_angle
_geom_angle_site_symmetry_1
_geom_angle_site_symmetry_3
O1 Re1 O2 110.3(4) . .
O1 Re1 O3 110.2(3) . .
O1 Re1 O3 110.2(3) . 4
O2 Re1 O3 109.1(2) . .
O2 Re1 O3 109.1(2) . 4
O3 Re1 O3 107.8(5) . 4
C1 N1 H1 107.7 . .
C1 N1 C5 111.0(7) . .
C1 N1 C5 111.0(7) . 4_655
C5 N1 H1 107.7 4_655 .
C5 N1 H1 107.7 . .
C5 N1 C5 111.6(10) 4_655 .
N1 C1 H1A 110.2 . .
N1 C1 H1B 110.2 . .
N1 C1 C2 107.6(12) . .
H1A C1 H1B 108.5 . .
C2 C1 H1A 110.2 . .
C2 C1 H1B 110.2 . .
C1 C2 H2A 109.3 . .
C1 C2 H2B 109.3 . .
C1 C2 C3 111.7(14) . .
H2A C2 H2B 107.9 . .
C3 C2 H2A 109.3 . .
C3 C2 H2B 109.3 . .
C2 C3 H3 111.5 . .
C4 C3 C2 106.2(9) . .
C4 C3 C2 106.2(9) 4_655 .
C4 C3 H3 111.5 . .
C4 C3 H3 111.5 4_655 .
C4 C3 C4 109.6(12) 4_655 .
C3 C4 H4A 109.4 . .
C3 C4 H4B 109.4 . .
H4A C4 H4B 108.0 . .
C5 C4 C3 111.2(10) . .
C5 C4 H4A 109.4 . .
C5 C4 H4B 109.4 . .
N1 C5 C4 107.8(9) . .
N1 C5 H5A 110.1 . .
N1 C5 H5B 110.1 . .
C4 C5 H5A 110.1 . .
C4 C5 H5B 110.1 . .
H5A C5 H5B 108.5 . .
loop_
_geom_bond_atom_site_label_1
_geom_bond_atom_site_label_2
_geom_bond_distance
_geom_bond_site_symmetry_2
Re1 O1 1.690(7) .
Re1 O2 1.714(7) .
Re1 O3 1.726(6) 4
Re1 O3 1.726(6) .
N1 H1 0.9800 .
N1 C1 1.466(16) .
N1 C5 1.489(9) .
N1 C5 1.489(9) 4_655
C1 H1A 0.9700 .
C1 H1B 0.9700 .
C1 C2 1.512(11) .
C2 H2A 0.9700 .
C2 H2B 0.9700 .
C2 C3 1.526(18) .
C3 H3 0.9800 .
C3 C4 1.517(13) 4_655
C3 C4 1.517(13) .
C4 H4A 0.9700 .
C4 H4B 0.9700 .
C4 C5 1.514(9) .
C5 H5A 0.9700 .
C5 H5B 0.9700 .
loop_
_geom_hbond_atom_site_label_D
_geom_hbond_atom_site_label_H
_geom_hbond_atom_site_label_A
_geom_hbond_distance_DH
_geom_hbond_distance_HA
_geom_hbond_distance_DA
_geom_hbond_angle_DHA
_geom_hbond_site_symmetry_A
N1 H1 O1 0.98 2.23 2.920(14) 126.8 2_565
N1 H1 O2 0.98 2.27 3.066(13) 137.6 2
loop_
_geom_torsion_atom_site_label_1
_geom_torsion_atom_site_label_2
_geom_torsion_atom_site_label_3
_geom_torsion_atom_site_label_4
_geom_torsion
_geom_torsion_site_symmetry_1
_geom_torsion_site_symmetry_2
_geom_torsion_site_symmetry_3
_geom_torsion_site_symmetry_4
N1 C1 C2 C3 0.000(4) . . . .
C1 N1 C5 C4 -62.0(12) . . . .
C1 C2 C3 C4 58.4(7) . . . 4_655
C1 C2 C3 C4 -58.4(7) . . . .
C2 C3 C4 C5 58.5(14) . . . .
C3 C4 C5 N1 -1.4(18) . . . .
C4 C3 C4 C5 -55.9(19) 4_655 . . .
C5 N1 C1 C2 -62.4(7) 4_655 . . .
C5 N1 C1 C2 62.4(7) . . . .
C5 N1 C5 C4 62.4(16) 4_655 . . .
loop_
_twin_individual_id
_twin_individual_mass_fraction_refined
1 0.93(3)
2 0.07(3)
