#------------------------------------------------------------------------------
#$Date: 2019-06-13 12:01:32 +0300 (Thu, 13 Jun 2019) $
#$Revision: 215926 $
#$URL: file:///home/coder/svn-repositories/cod/cif/1/55/13/1551397.cif $
#------------------------------------------------------------------------------
#
# This file is available in the Crystallography Open Database (COD),
# http://www.crystallography.net/
#
# All data on this site have been placed in the public domain by the
# contributors.
#
data_1551397
loop_
_publ_author_name
'Shun Sakaida'
'Kazuya Otsubo'
'Osami Sakata'
'Chulho Song'
'Akihiko Fujiwara'
'Masaki Takata'
'Hiroshi Kitagawa'
_publ_section_title
;
 Crystalline coordination framework endowed with dynamic gate-opening
 behaviour by being downsized to a thin film
;
_journal_name_full               'Nature Chemistry'
_journal_page_first              377
_journal_page_last               383
_journal_paper_doi               10.1038/nchem.2469
_journal_volume                  8
_journal_year                    2016
_chemical_formula_moiety         'C14 H10 Fe N6 Pt'
_chemical_formula_sum            'C14 H10 Fe N6 Pt'
_chemical_formula_weight         513.21
_space_group_crystal_system      orthorhombic
_space_group_IT_number           65
_space_group_name_Hall           '-C 2 2'
_space_group_name_H-M_alt        'C m m m'
_atom_sites_solution_hydrogens   geom
_atom_sites_solution_primary     direct
_atom_sites_solution_secondary   difmap
_cell_angle_alpha                90.0000
_cell_angle_beta                 90.0000
_cell_angle_gamma                90.0000
_cell_formula_units_Z            2
_cell_length_a                   7.5075(8)
_cell_length_b                   15.2605(16)
_cell_length_c                   7.4436(8)
_cell_measurement_reflns_used    4720
_cell_measurement_temperature    298(2)
_cell_measurement_theta_max      27.97
_cell_measurement_theta_min      2.67
_cell_volume                     852.80(16)
_computing_cell_refinement       'APEX2 (Bruker, 2006)'
_computing_data_collection       'APEX2 (Bruker, 2006)'
_computing_data_reduction        'CrystalStructure 3.8.0'
_computing_publication_material  'CrystalStructure 3.8.0'
_computing_structure_refinement  'SHELXL-2014 (Sheldrick, 2014)'
_computing_structure_solution    'SIR2004 (Giacovazzo, 2005)'
_diffrn_ambient_temperature      298(2)
_diffrn_detector_area_resol_mean 8.333
_diffrn_measured_fraction_theta_full 1.000
_diffrn_measured_fraction_theta_max 0.997
_diffrn_measurement_device_type  'Bruker SMART APEXII CCD detector'
_diffrn_measurement_method       'phi and omega scans'
_diffrn_radiation_monochromator  graphite
_diffrn_radiation_type           MoK\a
_diffrn_radiation_wavelength     0.71073
_diffrn_reflns_av_R_equivalents  0.0176
_diffrn_reflns_av_unetI/netI     0.0091
_diffrn_reflns_Laue_measured_fraction_full 1.000
_diffrn_reflns_Laue_measured_fraction_max 0.997
_diffrn_reflns_limit_h_max       9
_diffrn_reflns_limit_h_min       -9
_diffrn_reflns_limit_k_max       19
_diffrn_reflns_limit_k_min       -19
_diffrn_reflns_limit_l_max       9
_diffrn_reflns_limit_l_min       -9
_diffrn_reflns_number            4737
_diffrn_reflns_point_group_measured_fraction_full 1.000
_diffrn_reflns_point_group_measured_fraction_max 0.997
_diffrn_reflns_theta_full        25.240
_diffrn_reflns_theta_max         27.534
_diffrn_reflns_theta_min         2.669
_diffrn_source                   'rotating anode with a mirror focusing unit'
_exptl_absorpt_coefficient_mu    9.047
_exptl_absorpt_correction_T_max  0.660
_exptl_absorpt_correction_T_min  0.573
_exptl_absorpt_correction_type   multi-scan
_exptl_absorpt_process_details   '(SADABS; Sheldrick, 1996)'
_exptl_crystal_colour            colorless
_exptl_crystal_density_diffrn    1.999
_exptl_crystal_density_method    'not measured'
_exptl_crystal_description       block
_exptl_crystal_F_000             480.00
_exptl_crystal_size_max          0.200
_exptl_crystal_size_mid          0.200
_exptl_crystal_size_min          0.050
_refine_diff_density_max         0.243
_refine_diff_density_min         -0.455
_refine_diff_density_rms         0.067
_refine_ls_extinction_coef       0.00072(15)
_refine_ls_extinction_expression Fc^*^=kFc[1+0.001xFc^2^\l^3^/sin(2\q)]^-1/4^
_refine_ls_extinction_method     SHELXL
_refine_ls_goodness_of_fit_ref   1.014
_refine_ls_hydrogen_treatment    constr
_refine_ls_matrix_type           full
_refine_ls_number_parameters     41
_refine_ls_number_reflns         587
_refine_ls_number_restraints     0
_refine_ls_restrained_S_all      1.014
_refine_ls_R_factor_all          0.0072
_refine_ls_R_factor_gt           0.0072
_refine_ls_shift/su_max          0.000
_refine_ls_shift/su_mean         0.000
_refine_ls_structure_factor_coef Fsqd
_refine_ls_weighting_details
'w=1/[\s^2^(Fo^2^)+(0.0109P)^2^+0.4171P] where P=(Fo^2^+2Fc^2^)/3'
_refine_ls_weighting_scheme      calc
_refine_ls_wR_factor_gt          0.0173
_refine_ls_wR_factor_ref         0.0173
_reflns_Friedel_coverage         0.000
_reflns_Friedel_fraction_full    .
_reflns_Friedel_fraction_max     .
_reflns_number_gt                587
_reflns_number_total             587
_reflns_threshold_expression     'I > 2\s(I)'
_cod_data_source_file            nchem.2469-s2.cif
_cod_data_source_block           Fe(py)2[Pt(CN)4]
_cod_database_code               1551397
_shelx_estimated_absorpt_t_min   0.265
_shelx_estimated_absorpt_t_max   0.660
_shelxl_version_number           2014-3
_shelx_res_file
;
TITL FepyPt_298K_0615
REM  Yadorkari-X generated
CELL 0.71069 7.5075 15.2605 7.4436 90.0000 90.0000 90.0000
ZERR 2.0 0.0008 0.0016 0.0008 0.0000 0.0000 0.0000
LATT 7
SYMM    -X,    +Y,    +Z
SYMM    +X,    -Y,    +Z
SYMM    -X,    -Y,    +Z
REM  SPGR Cmmm orthorhombic
SFAC C H N Fe Pt
UNIT 28 20 12 2 2
SIZE 0.20 0.20 0.05
TEMP 25.0
L.S. 5
FMAP 2
PLAN -20
ACTA
CONF
BOND$H
OMIT -10.000000 55.300000

SHEL 99999.000000 0.000000
WGHT    0.010900    0.417100
EXTI    0.000724
FVAR       0.12719   0.00000
PT1   5    1.000000    1.000000    1.000000    10.12500    0.01216    0.03161 =
         0.01310    0.00000    0.00000    0.00000
FE1   4    0.500000    1.000000    0.500000    10.12500    0.01248    0.03601 =
         0.01406    0.00000    0.00000    0.00000
N1    3    0.702749    1.000000    0.704755    10.50000    0.02253    0.05112 =
         0.02330    0.00000   -0.00578    0.00000
N2    3    0.500000    0.855218    0.500000    10.25000    0.02676    0.03789 =
         0.04116    0.00000    0.00000    0.00000
C1    1    0.811640    1.000000    0.812321    10.50000    0.01843    0.03841 =
         0.01909    0.00000    0.00181    0.00000
C2    1    0.500000    0.810080    0.347722    10.50000    0.06287    0.04674 =
         0.05047   -0.00823    0.00000    0.00000
AFIX  43
H1    2    0.500000    0.840585    0.239563    10.50000   -1.20000
AFIX   0
C3    1    0.500000    0.718771    0.343266    10.50000    0.08204    0.04797 =
         0.08009   -0.02202    0.00000    0.00000
AFIX  43
H2    2    0.500000    0.689314    0.233891    10.50000   -1.20000
AFIX   0
C4    1    0.500000    0.673148    0.500000    10.25000    0.05887    0.03847 =
         0.10400    0.00000    0.00000    0.00000
AFIX  43
H3    2    0.500000    0.612206    0.499998    10.25000   -1.20000

AFIX   0
HKLF 4

REM  FepyPt_298K_0615
REM R1 =  0.0072 for     587 Fo > 4sig(Fo)  and  0.0072 for all     587 data
REM     41 parameters refined using      0 restraints

END

WGHT      0.0108      0.2144

REM Highest difference peak  0.243,  deepest hole -0.455,  1-sigma level  0.067
Q1    1   1.0000  1.0335  1.0846  10.50000  0.05    0.24
Q2    1   0.6664  1.0000  0.3726  10.50000  0.05    0.21
Q3    1   1.2014  1.0000  1.2803  10.50000  0.05    0.20
Q4    1   1.0766  1.0414  1.0000  10.50000  0.05    0.15
Q5    1   0.7239  0.9795  1.1999  11.00000  0.05    0.14
Q6    1   0.7263  0.6114  0.4354  11.00000  0.05    0.14
Q7    1   1.1665  1.0000  1.1446  10.50000  0.05    0.14
Q8    1   0.7135  0.6657  0.5000  10.50000  0.05    0.13
Q9    1   0.6898  1.1041  0.7707  11.00000  0.05    0.12
Q10   1   0.5000  0.9010  0.5000  10.25000  0.05    0.12
Q11   1   0.6735  0.8934  1.0000  10.50000  0.05    0.12
Q12   1   0.5530  0.7631  0.3627  11.00000  0.05    0.11
Q13   1   1.1646  1.1576  1.0000  10.50000  0.05    0.11
Q14   1   0.7161  1.1599  0.9499  11.00000  0.05    0.11
Q15   1   0.6355  0.5991  0.5000  10.50000  0.05    0.11
Q16   1   0.8157  0.8907  0.7935  11.00000  0.05    0.11
Q17   1   0.6499  0.5743  0.5000  10.50000  0.05    0.11
Q18   1   1.2500  1.2500  1.0650  10.50000  0.05    0.11
Q19   1   0.8180  0.9275  0.6545  11.00000  0.05    0.10
Q20   1   0.8016  0.7968  1.0000  10.50000  0.05    0.10
;
_shelx_res_checksum              55944
_shelx_hkl_file
;
   0  -2   0  573.25   12.78
   0   2   0  573.04   13.36
   0   0   1    4.16    0.09
   0   0  -1    4.14    0.10
   0   0   1    4.05    0.10
   1   1   0  126.69    2.88
  -1  -1   0  122.90    2.75
  -1   1   0  129.66    2.76
   1   1   0  125.84    2.80
  -1  -1   0  124.68    2.70
   1  -1   0  126.98    2.79
   0  -2   1  362.56    7.61
   0  -2   1  353.60    7.79
   0   2   1  367.42    8.11
   0   2   1  352.23    7.88
   0   2   1  342.64    7.78
   0   2  -1  365.99    7.88
  -1   1   1  673.83   14.26
  -1  -1   1  605.00   14.98
  -1  -1  -1  672.45   15.22
   1   1  -1  656.04   15.89
  -1   1   1  654.06   14.48
   1  -1  -1  687.38   14.85
   1  -1   1  651.57   14.62
   1  -1  -1  669.33   14.98
   1   1  -1  682.43   14.93
  -1  -1   1  633.40   14.61
   1   1   1  648.14   15.31
  -1   1  -1  616.28   15.68
  -1   1  -1  651.82   14.73
   1  -1   1  686.78   15.28
   1   3   0  192.55    4.24
   1   3   0  188.90    4.36
  -1   3   0  189.71    5.06
   1  -3   0  188.79    4.24
  -1  -3   0  193.55    4.12
  -1  -3   0  186.68    4.19
   1  -3   0  191.83    4.10
  -1   3   0  203.64    4.19
   0  -4   0  855.36   20.58
   0   4   0 1000.00   20.45
   0  -4   0  917.19   20.49
   0   4   0  948.13   22.40
  -2   0   0  740.13   17.35
  -2   0   0  812.36   18.87
   2   0   0  852.98   18.44
  -2   0   0  789.30   18.62
   0   0   2  239.08    5.55
   0   0  -2  256.39    5.77
   0   0   2  265.54    5.61
  -1   3  -1  508.58   11.59
   1   3   1  519.21   10.94
  -1  -3   1  500.44   11.14
  -1  -3   1  514.42   10.91
   1  -3   1  514.17   10.90
  -1   3   1  512.18   11.15
  -1   3   1  534.20   11.64
   1   3   1  528.28   11.30
  -1   3  -1  530.85   11.63
   1   3  -1  500.32   11.29
  -1  -3  -1  496.87   11.14
   1  -3   1  502.70   11.27
  -1   3   1  516.97   10.91
   1   3  -1  509.58   11.61
   1   3   1  496.93   11.91
  -1   3   1  517.82   11.29
   0  -4  -1  171.13    3.84
   0  -4   1  175.40    3.77
   0   4   1  172.44    3.91
   0   4  -1  174.75    3.99
   0   4   1  178.34    4.00
   0   4  -1  174.68    3.89
   0   4   1  184.08    3.78
   2   2   0   42.98    0.98
  -2  -2   0   42.15    0.92
  -2   2   0   42.70    0.99
  -2   2   0   44.47    0.95
  -2  -2   0   43.28    0.95
   2  -2   0   42.41    0.96
   2   2   0   43.63    0.96
  -2   0  -1    9.48    0.22
   2   0   1    9.46    0.23
   2   0  -1    9.46    0.23
  -2   0   1    9.92    0.22
   2   0  -1    9.34    0.22
   2   0   1    9.35    0.21
  -2   0  -1    9.50    0.23
  -2   0   1    9.46    0.21
   0   2  -2  265.64    6.08
   0   2   2  273.34    5.72
   0  -2  -2  266.75    6.05
   0   2   2  262.38    5.84
   0   2   2  261.01    5.88
   0  -2   2  277.12    5.72
   0  -2   2  251.61    5.82
   0  -2   2  275.55    5.87
  -1   1   2  139.73    2.93
   1  -1   2  139.35    3.02
  -1  -1  -2  139.58    3.01
  -1  -1  -2  129.74    3.12
  -1  -1   2  135.65    2.94
  -1   1   2  142.15    3.00
   1   1  -2  141.41    3.14
   1  -1  -2  138.01    3.04
  -1  -1   2  135.44    3.00
   1   1   2  138.35    3.04
   1  -1  -2  137.26    3.11
  -1   1  -2  134.35    3.14
  -1   1  -2  142.04    3.01
   1   1   2  131.09    2.93
   1   1  -2  135.73    3.05
   1  -1   2  139.62    2.93
  -2   2   1  279.27    6.35
   2  -2   1  281.79    6.16
   2   2  -1  277.03    6.15
   2   2   1  276.04    6.16
   2   2  -1  279.39    6.34
   2  -2  -1  278.96    6.13
  -2  -2   1  286.27    6.09
   2   2   1  275.85    5.95
  -2  -2   1  282.25    5.93
   2   2   1  273.64    6.30
  -2  -2  -1  281.82    6.08
  -2   2   1  274.25    5.92
  -2   2  -1  273.84    6.31
   2  -2   1  271.85    5.92
  -2   2  -1  279.17    6.06
  -2   2   1  277.19    6.07
   1   5   0  155.18    3.36
   1  -5   0  149.72    3.27
  -1   5   0  157.98    3.40
  -1   5   0  152.40    3.48
  -1  -5   0  148.92    3.50
   1   5   0  152.97    3.49
  -1   5   0  154.24    3.33
  -1  -5   0  151.50    3.25
  -1  -3   2  125.96    2.74
  -1  -3   2  123.83    2.69
   1   3   2  127.77    2.69
  -1   3  -2  127.99    2.75
  -1  -3  -2  121.49    2.74
  -1   3   2  126.76    2.68
   1  -3   2  130.04    2.78
   1   3   2  126.45    2.77
  -1   3   2  130.62    2.75
   1   3  -2  122.93    2.79
  -1   3  -2  127.35    2.86
  -1   3   2  128.66    2.79
  -1  -3  -2  123.30    2.89
   1  -3   2  122.68    2.69
   2   4   0  200.90    4.43
  -2   4   0  189.27    4.45
  -2  -4   0  189.68    4.16
   2  -4   0  194.96    4.17
   2   4   0  195.33    4.30
  -2   4   0  205.44    4.25
  -2  -4   0  193.73    4.27
   2  -4   0  192.78    4.33
   0   4  -2  125.13    2.72
   0   4   2  128.51    2.82
   0   4  -2  121.40    2.83
   0   4   2  124.91    2.66
   0   4  -2  125.35    2.74
   0   4   2  125.48    2.74
   0  -4   2  122.61    2.65
   1   5   1  421.68    8.93
  -1   5   1  429.92    8.88
  -1   5  -1  427.27    9.05
  -1  -5  -1  415.95    9.08
  -1   5   1  418.62    9.19
  -1   5  -1  407.67   10.46
   2   0  -2  722.30   15.92
   1   5   1  415.28    9.22
  -1   5   1  441.60    9.09
   1   5  -1  398.87    9.21
   1   5  -1  416.66    9.47
   1   5   1  409.19    9.43
  -1   5   1  420.20    9.48
  -1  -5   1  391.39    9.04
  -1  -5   1  420.48    8.90
   2   0   2  720.96   15.43
  -2   0  -2  716.25   16.40
  -2   0   2  757.33   15.42
   1  -5   1  410.12    8.88
  -2   0   2  690.99   15.80
   2   0   2  742.07   15.96
  -2   0  -2  729.54   15.78
   0  -6   0  912.12   20.89
   0   6   0  994.55   21.48
   0   6   0  946.00   20.88
   0  -6   0  944.71   20.17
  -2  -4   1  149.61    3.25
   2   4  -1  152.48    3.36
  -2   4  -1  152.46    3.26
  -2   4   1  149.92    3.16
  -2   4   1  151.31    3.37
  -2  -4  -1  147.15    3.25
  -2   4   1  151.03    3.23
   2  -4   1  145.24    3.28
  -2   4  -1  151.25    3.37
   2   4   1  147.44    3.38
   2   4   1  152.24    3.27
   2  -4   1  145.99    3.17
   2   4  -1  145.04    3.27
   2   4   1  146.15    3.17
   2  -4  -1  142.75    3.29
  -2  -4   1  151.13    3.16
   2   2   2  707.04   15.44
   2  -2   2  720.25   15.42
  -2  -2   2  679.18   15.26
  -2  -2  -2  659.32   16.05
  -2   2  -2  705.14   15.87
  -2   2   2  687.22   15.26
   2   2   2  708.27   14.92
   2   2  -2  702.46   15.39
  -2  -2  -2  699.71   15.27
  -2   2  -2  707.96   15.25
  -2  -2   2  709.67   14.91
   2  -2   2  714.47   14.90
   2  -2  -2  709.97   15.39
   2   2  -2  693.55   15.88
  -2   2   2  711.87   14.89
   0   0   3  163.16    3.64
   0   0  -3  169.85    3.78
   0   0   3  165.19    3.58
   0   0   3  171.77    3.70
  -3   1   0  100.99    2.24
   3  -1   0  105.38    2.27
  -3   1   0  103.35    2.34
  -3  -1   0  102.78    2.24
  -3   1   0  104.29    2.21
   3   1   0  104.37    2.33
   3   1   0  100.53    2.27
  -3  -1   0  101.39    2.28
   0   6   1   53.99    1.21
   0  -6   1   52.92    1.14
   0   6  -1   51.58    1.18
   0   6   1   52.71    1.19
   0   6  -1   53.86    1.22
   0  -6  -1   52.69    1.16
   0  -6  -1   53.20    1.14
   0   2   3   55.27    1.22
   0   2   3   58.24    1.26
   0  -2   3   58.77    1.25
   0  -2   3   56.81    1.22
   0  -2  -3   55.90    1.30
   0   2  -3   56.05    1.30
  -3   1  -1  357.90    8.03
   3  -1   1  366.07    7.84
   3  -1  -1  376.83    8.14
   3  -1   1  374.16    8.14
  -3   1   1  377.53    8.07
   3   1   1  366.70    7.87
  -3  -1  -1  363.33    8.06
   3   1  -1  366.25    8.38
  -3  -1  -1  369.84    8.35
  -3  -1   1  373.95    7.83
  -3   1  -1  358.42    8.35
  -3   1   1  370.48    7.83
   3   1   1  360.29    8.11
  -3  -1   1  378.91    8.05
   3   1  -1  360.69    8.14
  -1  -1  -3  325.61    7.53
   1   1  -3  343.31    7.53
   1  -1  -3  333.47    7.33
   1   1   3  345.80    7.32
   1  -1   3  334.16    7.13
  -1  -1  -3  322.46    7.27
  -1   1   3  328.93    7.06
   1  -1  -3  324.92    7.56
   1  -1   3  339.27    7.32
  -1   1   3  335.56    7.27
  -1   1  -3  323.19    7.55
  -1  -1   3  325.04    7.26
  -1   1  -3  329.41    7.24
  -1  -1   3  333.94    7.08
   1   1   3  333.84    7.07
  -1  -5  -2  126.07    2.79
   1  -5   2  123.33    2.73
  -1   5  -2  128.78    2.80
   1   5  -2  127.29    2.82
  -1  -5   2  128.73    2.73
  -1   5   2  133.74    2.80
   1   5   2  131.35    2.74
  -1   5  -2  129.42    2.91
   1   5   2  124.83    2.83
   1   5  -2  127.92    2.91
   1   5   2  130.43    2.90
  -1   5   2  129.87    2.73
  -1   5   2  129.69    2.82
  -1   5   2  129.76    2.91
   1  -5   2  125.79    2.82
  -1  -5   2  126.17    2.79
  -3  -3   0  145.47    3.17
  -3   3   0  144.64    3.38
  -3   3   0  153.32    3.24
  -3  -3   0  149.73    3.24
   3   3   0  147.71    3.28
   3   3   0  152.21    3.39
   3  -3   0  150.98    3.28
   2   4   2  433.58    9.42
  -2   4   2  431.98    9.07
  -2   4   2  446.83    9.73
   2   4  -2  433.40    9.70
  -2   4  -2  435.89    9.27
  -2  -4   2  418.81    9.26
   2  -4   2  418.49    9.38
  -2  -4   2  415.80    9.08
   2  -4   2  422.83    9.06
  -2   4  -2  426.65   10.81
   2  -4  -2  412.56    9.37
  -2   4   2  427.00    9.28
   2   4   2  420.16    9.09
   2   4  -2  420.57    9.38
  -2  -4  -2  420.47    9.28
   3   3  -1  277.52    6.26
  -3   3   1  293.80    6.10
  -3  -3   1  279.53    5.95
  -3   3  -1  263.95    6.30
  -3  -3   1  273.58    6.08
   3  -3   1  278.58    6.75
  -3   3   1  277.40    6.29
  -3   3   1  282.26    5.93
   3  -3  -1  278.73    6.15
   3   3  -1  284.65    6.30
  -3   3  -1  281.45    6.08
   3   3   1  271.18    6.11
  -3  -3  -1  272.94    6.05
   3   3   1  279.43    5.94
   3   3   1  278.65    6.29
   3  -3   1  272.59    5.92
   1   3  -3  327.55    7.41
  -1   3   3  317.09    6.94
   1   3  -3  315.45    7.13
  -1  -3   3  317.38    7.09
   1   3   3  317.98    6.91
  -1   3   3  332.52    7.03
   1  -3   3  330.17    6.93
  -1  -3  -3  327.63    7.35
  -1   3   3  338.98    7.15
   1   3   3  333.58    7.13
  -1  -3  -3  311.01    7.05
  -1  -3   3  321.08    6.92
  -1   3  -3  314.05    7.37
   1  -3  -3  312.91    7.35
   1  -3   3  344.24    7.15
  -1   3  -3  326.77    7.06
   2  -6   0  283.44    6.09
  -2  -6   0  279.43    6.23
  -2   6   0  283.04    6.50
  -2  -6   0  283.13    6.11
  -2   6   0  296.04    6.22
   2  -6   0  274.86    6.31
   2   6   0  289.64    6.25
   2   6   0  290.61    6.48
   0   6  -2  221.03    5.11
   0   6   2  237.79    4.89
   0   6  -2  231.17    5.01
   0   6   2  242.46    5.25
   0   6  -2  223.34    5.22
   0  -6   2  233.21    4.93
   0   6   2  229.36    5.10
   0  -6  -2  223.95    5.00
  -1   7   0   44.34    0.93
   1   7   0   41.88    0.96
   1   7   0   42.74    0.98
  -1  -7   0   41.78    0.92
   1  -7   0   41.47    0.92
  -1   7   0   42.39    0.96
  -1  -7   0   42.60    0.93
  -1   7   0   41.52    0.98
   0   4   3  201.16    4.40
   0  -4   3  200.51    4.41
   0  -4  -3  194.65    4.51
   0   4  -3  197.86    4.53
   0  -4   3  195.04    4.25
   0   4   3  199.51    4.24
   0  -4  -3  202.32    4.35
   0   4  -3  204.11    4.36
   2   0   3  126.68    2.74
   2   0  -3  127.34    2.92
  -2   0  -3  135.39    2.81
  -2   0   3  127.36    2.81
  -2   0   3  131.84    2.74
   2   0   3  127.17    2.83
  -2   0  -3  132.04    2.91
   2   0  -3  122.10    2.83
   3   1  -2   90.92    2.01
  -3  -1  -2   92.57    2.00
   3  -1   2   88.41    1.94
   3   1   2   89.71    1.95
   3   1   2   90.23    2.02
   3  -1  -2   91.69    2.08
  -3  -1   2   91.74    1.99
   3   1  -2   89.55    2.08
  -3   1   2   91.58    2.00
  -3  -1   2   92.48    1.94
  -3  -1  -2   90.63    2.06
  -3   1  -2   92.69    1.99
  -3   1  -2   89.06    2.07
  -3   1   2   94.39    1.94
   3  -1  -2   92.02    2.01
   3  -1   2   90.42    2.02
  -2  -6   1   51.86    1.13
  -2   6   1   52.10    1.20
   2   6   1   51.24    1.17
  -2   6  -1   54.47    1.14
   2   6  -1   49.37    1.17
  -2  -6  -1   52.03    1.15
   2   6  -1   51.44    1.20
   2  -6  -1   51.55    1.12
   2  -6   1   52.26    1.16
   2   6   1   51.84    1.18
  -2  -6  -1   52.55    1.13
   2  -6   1   52.28    1.12
   2  -6  -1   51.55    1.16
  -2   6   1   53.54    1.15
  -2  -6   1   52.98    1.14
  -2   6  -1   52.04    1.21
   1   7   1  402.16    8.99
  -1  -7  -1  407.15    8.69
  -1  -7   1  404.62    8.69
  -1   7  -1  405.26    8.97
  -1   7   1  435.96    8.85
   1   7  -1  399.86    8.99
  -1  -7  -1  411.82    8.98
   1  -7  -1  397.47    8.66
  -1   7   1  402.64    9.00
  -1  -7   1  390.94    8.82
  -1   7  -1  410.05    8.84
   1  -7   1  403.22    8.64
   1   7   1  411.96    9.21
  -1   7   1  401.60    9.19
   1   7  -1  406.16    9.24
  -1   7  -1  406.21    9.28
   2   2   3   52.57    1.17
  -2   2   3   52.27    1.16
   2   2  -3   52.82    1.21
  -2  -2   3   50.94    1.16
   2  -2  -3   51.68    1.21
  -2   2  -3   53.58    1.16
   2  -2  -3   52.76    1.15
  -2  -2  -3   52.88    1.19
   2  -2   3   53.01    1.13
   2   2  -3   52.69    1.16
  -2  -2   3   52.15    1.13
  -2   2   3   51.90    1.13
   2  -2   3   52.93    1.17
  -2  -2  -3   52.51    1.16
  -2   2  -3   53.24    1.21
   2   2   3   49.80    1.13
  -3  -5   0  112.06    2.39
  -3  -5   0  112.20    2.44
  -3   5   0  115.64    2.44
  -3   5   0  111.50    2.56
   3   5   0  113.40    2.48
   3   5   0  114.46    2.54
   3  -5   0  109.41    2.38
   3  -5   0  108.60    2.48
   3   3   2   89.96    1.94
  -3   3   2   92.31    1.92
   3   3  -2   90.32    2.06
   3  -3  -2   89.93    1.99
   3  -3   2   89.74    1.93
  -3   3   2   90.59    2.07
  -3   3   2   90.63    1.98
   3   3  -2   92.69    2.00
  -3  -3   2   87.95    1.93
   3   3   2   90.44    2.00
  -3  -3  -2   91.98    1.98
   3  -3   2   91.27    2.00
   3   3   2   89.64    2.05
  -3  -3   2   91.48    1.98
  -3   3  -2   88.76    2.06
  -3   3  -2   88.88    1.97
   0  -8   0  380.74    8.31
   0  -8   0  397.39    8.47
   0   8   0  386.70    8.61
   0   8   0  390.24    8.86
  -4   0   0  693.63   15.78
  -4   0   0  687.12   14.78
   4   0   0  714.35   15.39
  -4   0   0  693.02   15.21
   3   5  -1  246.68    5.45
   3  -5  -1  243.18    5.40
  -3  -5   1  247.56    5.26
   3   5   1  240.39    5.58
   3   5   1  251.62    5.44
   3  -5   1  247.12    5.25
  -3   5  -1  241.33    5.57
  -3  -5   1  248.43    5.34
  -3  -5  -1  246.00    5.36
  -3   5   1  256.69    5.40
   3  -5   1  239.97    5.43
  -3   5   1  238.80    5.57
  -3   5  -1  252.46    5.38
   3  -5  -1  240.05    5.25
   3   5  -1  252.34    5.62
  -3  -5  -1  251.41    5.30
  -1   5  -3  229.07    4.78
   1   5  -3  222.71    4.99
  -1  -5   3  223.49    4.80
   1   5  -3  221.27    4.83
   1  -5  -3  212.64    5.00
   1  -5   3  219.51    4.87
  -1   5  -3  214.60    4.99
  -1  -5   3  214.72    4.68
  -1  -5  -3  216.77    4.81
   1   5   3  222.19    4.69
   1  -5   3  214.28    4.68
   1   5   3  223.32    4.86
  -1   5   3  218.21    4.68
  -1   5   3  234.24    4.80
  -1  -5  -3  215.17    5.00
  -1   5   3  227.00    4.88
   0   0   4  379.30    8.15
   0   0  -4  376.44    8.38
   0   0   4  391.19    8.43
   0   0  -4  386.76    8.73
   0   8  -1  104.77    2.40
   0  -8  -1  101.98    2.25
   0  -8   1  105.44    2.25
   0   8  -1  106.66    2.33
   0  -8  -1  108.55    2.29
   0   8   1  105.41    2.39
   0   8   1  103.52    2.33
   2   6  -2  462.25   10.61
   2  -6   2  469.40   10.61
  -2   6   2  490.11   10.92
  -2  -6   2  471.38   10.45
  -2   6   2  489.14   10.27
  -2  -6  -2  480.21   10.49
  -2  -6   2  491.52   10.30
   2  -6   2  464.67   10.25
   2   6   2  487.56   10.29
  -2   6  -2  483.76   10.44
  -2   6   2  499.97   10.53
   2  -6  -2  471.51   10.62
   2   6  -2  482.75   10.93
   2   6   2  482.44   10.63
  -2   6  -2  483.61   10.97
  -1   7   2   80.64    1.71
   1  -7   2   75.57    1.67
   1   7  -2   76.26    1.78
  -1  -7   2   77.74    1.67
   1   7   2   75.53    1.73
   1   7   2   78.74    1.68
  -1   7  -2   78.30    1.69
   1   7  -2   77.32    1.73
  -1   7   2   80.33    1.68
  -1  -7   2   75.30    1.69
  -1   7   2   77.97    1.73
   1   7   2   78.76    1.77
  -1   7   2   78.87    1.78
  -1  -7  -2   77.93    1.70
   1  -7   2   77.66    1.73
  -4  -2   0  236.28    4.95
  -4   2   0  234.91    5.05
  -4   2   0  231.70    5.26
   4   2   0  230.40    5.11
   4  -2   0  236.89    5.13
   4   2   0  230.21    5.28
  -4  -2   0  228.97    5.08
  -4   0  -1   23.39    0.55
  -4   0   1   24.50    0.55
   4   0  -1   23.90    0.57
  -4   0  -1   23.19    0.56
  -4   0   1   23.40    0.51
   4   0  -1   23.89    0.55
   4   0   1   23.16    0.55
   4   0   1   24.69    0.52
   2  -4   3  158.76    3.33
  -2   4  -3  161.73    3.40
  -2   4   3  154.60    3.33
   2   4  -3  156.04    3.44
   2   4   3  153.74    3.34
   2   4  -3  156.97    3.56
  -2  -4  -3  155.18    3.41
   2  -4  -3  153.20    3.47
   2  -4   3  161.28    3.45
   2  -4  -3  154.83    3.55
  -2  -4   3  151.71    3.41
  -2  -4   3  153.65    3.33
   2   4   3  162.43    3.45
  -2   4  -3  159.09    3.56
  -2   4   3  157.72    3.42
   0  -2  -4  406.68    9.02
   0   2   4  399.43    8.80
   0  -2   4  405.61    9.42
   0   2  -4  432.84    9.46
   0   2  -4  422.55    9.09
   0   2   4  417.60    9.12
   0  -2  -4  418.19    9.40
   1   1   4   80.84    1.76
  -1   1   4   81.61    1.75
  -1   1  -4   80.39    1.86
  -1  -1  -4   79.84    1.80
  -1  -1   4   83.94    1.76
   1  -1   4   81.81    1.76
  -1  -1  -4   80.97    1.86
   1  -1  -4   80.93    1.87
  -1   1  -4   80.85    1.79
   1   1   4   84.75    1.80
  -1  -1   4   83.16    1.80
   1  -1   4   81.92    1.80
  -1   1   4   80.02    1.80
   1   1  -4   82.53    1.87
   0   6  -3   62.98    1.34
   0  -6   3   59.86    1.33
   0   6  -3   59.47    1.42
   0  -6  -3   60.94    1.36
   0   6   3   63.30    1.38
   0   6   3   62.84    1.34
   0  -6  -3   61.69    1.41
   4   2   1  137.05    3.08
   4   2  -1  140.66    3.16
  -4  -2  -1  135.81    3.04
  -4   2   1  140.60    3.04
   4  -2  -1  138.74    3.07
  -4   2  -1  137.34    3.16
   4  -2   1  138.56    2.96
  -4   2   1  137.32    3.17
  -4  -2   1  143.26    2.96
  -4   2  -1  139.67    3.04
   4   2   1  145.46    3.15
   4  -2   1  139.78    3.08
  -4  -2   1  141.35    3.04
   4   2  -1  137.87    3.07
   3   1   3  462.07   10.02
   3  -1   3  478.05   10.34
   3  -1   3  458.85    9.96
  -3   1  -3  468.83   10.21
  -3  -1  -3  477.25   10.59
   3   1  -3  480.45   10.29
   3  -1  -3  477.12   10.28
   3   1  -3  452.03   10.64
  -3   1   3  458.32   10.23
  -3  -1   3  453.84   10.21
   3  -1  -3  436.68   10.63
  -3   1   3  479.27    9.95
   3   1   3  465.42   10.32
  -3  -1  -3  477.15   10.22
  -3  -1   3  474.01    9.98
  -3   1  -3  481.56   10.60
   3   5  -2   92.35    2.11
   3   5  -2   92.66    2.04
   3  -5  -2   91.39    2.04
   3   5   2   91.07    1.99
  -3  -5  -2   92.49    2.03
  -3  -5   2   92.22    1.98
  -3   5   2   92.46    2.02
   3   5   2   93.09    2.05
  -3   5   2   95.73    1.97
   3  -5   2   91.01    2.05
  -3   5  -2   91.07    2.11
  -3   5  -2   91.93    2.01
  -3   5   2   90.23    2.11
  -3  -5   2   93.45    2.02
   3  -5   2   93.33    1.97
  -1  -3   4   78.95    1.72
   1   3   4   82.66    1.77
  -1   3   4   79.61    1.72
   1  -3   4   82.46    1.76
   1  -3   4   79.66    1.72
  -1  -3  -4   80.07    1.82
  -1   3  -4   77.85    1.83
  -1  -3   4   80.46    1.76
  -1   3   4   83.75    1.76
   1  -3  -4   77.60    1.83
  -1   3  -4   81.45    1.75
  -1   3   4   80.59    1.77
  -1  -3  -4   79.07    1.76
   1   3   4   76.62    1.72
   1   3  -4   78.11    1.83
  -2  -8   0   98.79    2.23
  -2  -8   0  106.08    2.27
   2   8   0  107.17    2.37
   2   8   0  102.67    2.31
   2  -8   0  105.13    2.31
   2  -8   0  102.83    2.22
  -2   8   0  109.75    2.27
  -2   8   0  101.22    2.38
   0   8  -2  161.62    3.73
   0   8   2  165.00    3.62
   0  -8   2  156.91    3.49
   0   8  -2  162.22    3.62
   0   8   2  169.23    3.72
   0   8   2  169.84    3.51
   0  -8  -2  163.89    3.56
   4   4   0  295.60    6.73
   4   4   0  322.78    6.91
   4  -4   0  292.82    6.72
  -4   4   0  312.83    6.68
  -4  -4   0  312.82    6.49
  -4   4   0  295.06    6.91
  -4  -4   0  300.68    6.60
  -4   0   2  301.45    6.37
  -4   0   2  303.36    6.55
   4   0  -2  294.15    6.78
   4   0  -2  298.93    6.62
   4   0   2  304.41    6.39
  -4   0  -2  293.83    6.54
   4   0   2  295.74    6.57
  -4   0  -2  303.41    6.78
   0  -4  -4  232.99    5.12
   0   4   4  230.37    5.01
   0   4   4  238.95    5.18
   0  -4   4  227.87    5.00
   0   4  -4  239.55    5.14
   0   4  -4  226.48    5.33
   0  -4   4  247.75    5.18
   0  -4  -4  240.58    5.32
   2   0   4  268.01    5.74
   2   0   4  258.78    5.59
  -2   0  -4  258.73    5.68
  -2   0   4  270.38    5.56
   2   0  -4  251.09    5.95
  -2   0  -4  270.30    5.91
  -2   0   4  256.41    5.69
   3   3  -3  450.97    9.99
  -3   3  -3  439.11    9.94
  -3  -3   3  423.15    9.55
   3  -3  -3  433.27   10.00
   3  -3   3  440.06    9.34
  -3   3   3  413.07    9.57
  -3  -3   3  438.39    9.36
   3   3  -3  448.62    9.65
  -3   3  -3  438.27    9.59
   3   3   3  432.29    9.69
   3  -3  -3  449.30    9.63
   3   3   3  433.99    9.38
   3  -3   3  449.59    9.68
  -3   3   3  439.67    9.31
  -2   8  -1   92.03    2.11
  -2  -8  -1   90.46    1.98
   2  -8   1   92.04    1.97
   2   8   1   89.97    2.05
   2   8   1   93.47    2.09
  -2   8  -1   95.70    2.00
  -2   8   1   89.76    2.11
   2   8  -1   86.52    2.04
   2  -8  -1   91.91    1.97
   2  -8   1   91.53    2.04
  -2  -8  -1   94.46    2.01
   2   8  -1   92.16    2.10
  -2  -8   1   90.49    1.98
  -2  -8   1   95.42    2.00
  -2   8   1   93.79    2.01
  -1   9   0  108.78    2.32
  -1  -9   0  104.94    2.29
  -1   9   0  107.81    2.45
   1  -9   0  103.76    2.29
   1   9   0  105.27    2.38
  -1   9   0  103.45    2.38
   1   9   0  110.23    2.44
  -1  -9   0  111.82    2.32
   3  -7   0   46.43    0.97
   3  -7   0   44.09    1.02
   3   7   0   44.74    1.03
  -3  -7   0   44.16    0.99
   3   7   0   46.12    1.04
  -3  -7   0   45.86    1.00
  -3   7   0   43.64    1.06
  -3   7   0   47.15    1.00
   4  -4   1   95.79    2.12
  -4   4  -1   89.75    2.18
  -4  -4   1   96.32    2.09
  -4  -4   1   98.48    2.04
   4   4   1   94.50    2.12
  -4  -4  -1   98.40    2.04
   4   4  -1   99.09    2.18
  -4   4   1   92.36    2.19
  -4   4   1   96.53    2.10
  -4   4  -1   95.80    2.09
   4   4   1   99.52    2.16
  -4  -4  -1   92.24    2.09
   4  -4  -1   93.89    2.12
   4   4  -1   94.39    2.12
  -4   2  -2  269.62    6.15
   4   2  -2  269.08    6.20
  -4  -2   2  268.37    5.80
  -4  -2  -2  276.55    5.94
   4   2   2  274.86    5.78
  -4   2   2  267.09    5.80
   4  -2   2  271.18    5.78
   4   2  -2  274.73    6.01
  -4  -2   2  272.24    5.91
  -4   2  -2  275.89    5.93
   4   2   2  276.59    6.01
   4  -2   2  269.96    5.98
  -4   2   2  273.13    5.91
   4  -2  -2  275.43    6.03
  -4  -2  -2  274.55    6.17
   4  -2  -2  270.79    6.19
   2   2  -4  289.22    6.57
  -2  -2   4  296.92    6.21
  -2  -2   4  279.15    6.28
   2  -2   4  299.88    6.89
  -2   2  -4  294.64    6.27
   2  -2   4  285.26    6.14
  -2   2   4  294.60    6.19
   2   2   4  294.89    6.39
  -2  -2  -4  295.37    6.56
  -2  -2  -4  283.85    6.28
   2  -2  -4  282.08    6.58
   2   2   4  279.70    6.17
  -2   2  -4  289.04    6.57
   1   9   1  214.51    4.77
  -1  -9   1  205.66    4.49
  -1   9   1  209.38    4.77
  -1  -9  -1  218.45    4.58
   1   9   1  206.40    4.64
  -1   9  -1  207.67    4.64
  -1   9   1  216.50    4.57
  -1   9   1  213.06    4.64
   1  -9   1  204.17    4.48
   1   9  -1  207.82    4.64
  -1  -9  -1  209.39    4.49
   1   9  -1  213.99    4.77
   1  -9  -1  209.22    4.48
  -1   9  -1  216.40    4.78
  -3  -7  -1  246.99    5.41
  -2   6   3   56.33    1.23
  -2  -6   3   55.76    1.20
   3  -7  -1  241.37    5.45
   3  -7   1  252.48    5.29
  -3   7   1  245.38    5.62
   2  -6  -3   56.18    1.23
   2   6  -3   55.45    1.28
  -3   7  -1  241.35    5.62
   2  -6   3   54.44    1.19
  -3   7  -1  255.39    5.42
  -2   6   3   56.76    1.20
  -3  -7   1  253.57    5.41
  -3  -7  -1  247.00    5.28
   3  -7   1  246.55    5.45
   2  -6   3   54.57    1.24
  -2  -6   3   54.49    1.22
   3   7  -1  246.43    5.46
   3   7   1  251.62    5.46
   2   6   3   54.15    1.21
   3  -7  -1  247.46    5.27
  -2   6  -3   54.96    1.29
   2   6   3   56.34    1.25
  -3   7   1  249.35    5.40
  -2   6  -3   55.76    1.21
  -3  -7   1  243.71    5.27
   3   7   1  248.39    5.62
  -2  -6  -3   53.57    1.23
   3   7  -1  256.75    5.64
  -2   6   3   55.45    1.28
   2   6  -3   54.82    1.23
  -1   7  -3  217.03    4.98
   1   7   3  217.40    4.68
  -1  -7   3  219.36    4.67
   1   7   3  219.54    4.83
  -1  -7  -3  213.32    4.97
  -1   7   3  219.26    4.68
   1   7  -3  215.45    4.82
   1  -7   3  212.66    4.67
  -1   7   3  226.49    4.78
   1   7  -3  217.33    4.98
  -1   7   3  228.89    4.83
  -1  -7   3  222.44    4.76
  -1   7   3  229.57    4.97
  -1  -7  -3  214.01    4.77
  -1   7  -3  219.16    4.93
   1  -7   3  224.54    4.82
  -1   5   4   91.84    1.96
  -1   5  -4   85.99    2.03
   1   5   4   85.99    1.91
  -1   5   4   89.84    1.96
   1   5  -4   86.30    2.03
  -1  -5   4   87.77    1.91
  -1  -5  -4   90.77    2.01
  -1   5  -4   91.46    1.94
   1  -5   4   91.48    1.96
  -1  -5  -4   88.38    1.95
  -1  -5   4   90.52    1.95
   1  -5   4   85.68    1.90
   1   5   4   90.49    1.97
   1  -5  -4   85.35    2.02
  -1   5   4   88.33    1.91
   2  -8   2  321.53    7.04
  -2   8   2  324.42    7.08
  -2   8  -2  312.65    7.27
   2  -8  -2  320.45    6.84
  -2   8   2  323.59    7.30
   2   8  -2  305.19    7.08
  -2  -8   2  322.94    6.99
   2   8   2  325.71    7.07
  -2   8   2  336.57    7.03
   2   8  -2  320.79    7.29
  -2  -8  -2  332.67    7.01
   2  -8   2  318.18    7.06
  -2  -8   2  319.00    6.83
   4  -4  -2  185.92    4.06
   4   4   2  184.44    3.94
   4  -4   2  182.96    3.92
  -4   4  -2  175.44    4.19
  -4   4  -2  182.59    4.02
  -4  -4   2  185.63    4.02
   4  -4   2  182.99    4.07
  -4   4   2  189.32    4.03
   4   4  -2  190.34    4.07
   4   4  -2  184.10    4.19
  -4  -4   2  191.27    3.93
   4   4   2  181.70    4.07
  -4  -4  -2  185.94    4.03
  -2  -4   4  165.18    3.71
   2   4  -4  169.62    3.87
   2  -4  -4  171.59    3.73
  -2   4   4  170.57    3.62
  -2   4   4  170.89    3.72
  -2   4  -4  173.93    3.70
   2   4   4  167.76    3.63
   2   4   4  176.79    3.75
   2  -4   4  176.04    3.74
  -2   4  -4  167.33    3.86
   2  -4  -4  164.07    3.86
  -2  -4   4  169.33    3.62
   2  -4   4  169.35    3.62
   0  10   0  342.37    7.55
   3  -5   3  322.63    6.98
  -3  -5   3  312.51    6.72
   3  -5  -3  312.33    7.62
   3  -5   3  322.85    6.74
   0 -10   0  328.84    7.14
  -3  -5   3  313.69    6.89
   3   5   3  311.34    6.72
   3  -5  -3  317.19    7.14
  -3  -5  -3  313.15    6.86
  -3   5  -3  320.54    6.92
  -3   5   3  318.64    6.71
  -3   5  -3  314.84    7.14
   3   5  -3  317.54    6.93
  -3   5   3  310.89    6.86
   3   5  -3  319.06    7.14
   0  10   0  331.85    7.34
   3   5   3  315.18    6.97
   0   8   3   42.63    0.99
   0  -8   3   43.39    0.96
   0   8   3   46.31    1.01
   0   8   3   44.65    0.97
   0   8  -3   42.79    0.98
   0  -8  -3   41.38    0.97
   1   9   2   48.85    1.08
   1   9   2   46.11    1.07
  -1   9   2   46.95    1.09
  -1   9   2   45.98    1.06
   1  -9  -2   45.75    1.02
   1   9  -2   46.03    1.06
   1  -9   2   46.53    1.02
  -1   9   2   49.63    1.05
  -1  -9  -2   46.69    1.03
  -1  -9  -2   46.73    1.04
  -1   9  -2   47.01    1.10
   1   9  -2   45.89    1.09
  -1  -9   2   46.79    1.03
  -4  -6   0  330.46    7.21
  -4   6   0  336.45    7.26
   4  -6   0  324.68    7.28
  -4  -6   0  328.12    7.09
   4   6   0  342.34    7.51
   4   6   0  335.30    7.32
  -4   6   0  325.83    7.50
  -3   7   2   57.51    1.36
  -3  -7   2   59.30    1.27
   3   7  -2   58.62    1.35
  -3   7  -2   59.88    1.28
  -3  -7   2   58.29    1.29
   3   7  -2   56.40    1.31
   3  -7  -2   56.99    1.31
  -3   7  -2   57.92    1.36
   3   7   2   59.10    1.32
  -3  -7  -2   59.22    1.30
   3  -7   2   59.13    1.26
   3  -7   2   57.42    1.31
  -3   7   2   58.84    1.30
   0   6  -4  291.63    6.66
   0   6  -4  299.02    6.43
   0   6   4  293.95    6.26
   0  -6  -4  292.08    6.68
   0  -6   4  292.06    6.28
   0   6   4  303.06    6.46
   0  -6  -4  282.81    6.39
   0  -6   4  301.18    6.45
   4   0   3  106.17    2.36
   4   0  -3  104.08    2.43
  -4   0   3  108.54    2.27
   4   0   3  104.51    2.28
  -4   0  -3  110.42    2.34
  -4   0   3  105.42    2.34
  -4   0  -3  104.97    2.41
   4   0  -3  107.43    2.35
   0  10   1   58.50    1.30
   0  10  -1   56.65    1.31
   0  10   1   55.60    1.27
   0  10  -1   55.64    1.27
   0 -10   1   54.04    1.22
   0 -10  -1   56.51    1.22
  -5   1   0   59.00    1.38
  -5   1   0   60.13    1.33
   5  -1   0   59.64    1.35
  -5  -1   0   59.56    1.33
   5   1   0   62.39    1.38
   5   1   0   58.45    1.35
   0   0  -5   43.04    1.03
   0   0   5   44.42    0.97
   0   0  -5   44.75    0.99
  -3   1  -4   93.00    1.99
   3   1   4   90.05    2.00
  -3   1   4   93.25    1.93
  -3  -1   4   88.56    1.99
  -3  -1   4   89.60    1.93
  -3   1  -4   93.68    2.06
   3   1   4   88.14    1.94
   3  -1   4   90.78    1.94
  -3   1   4   89.92    1.99
   3  -1  -4   88.21    2.07
   3  -1   4   88.30    2.00
  -3  -1  -4   89.40    1.99
   4  -6   1   41.46    0.97
  -4   6  -1   41.85    1.00
  -4   6   1   43.52    0.95
   4  -6  -1   42.06    0.96
  -4  -6   1   43.59    0.93
   4   6   1   42.14    0.97
  -4   6  -1   42.98    0.95
   4   6  -1   41.94    0.97
  -4  -6  -1   43.40    0.93
  -4   6   1   41.50    1.00
  -4  -6   1   41.41    0.95
  -4  -6  -1   41.94    0.95
   4   6  -1   43.63    0.99
  -4   2   3   66.58    1.47
   4  -2  -3   65.45    1.53
   4   2  -3   69.24    1.47
  -4  -2  -3   66.37    1.47
  -4   2  -3   67.93    1.47
   4   2   3   66.10    1.49
   4  -2   3   65.76    1.42
   4   2   3   63.36    1.43
  -4  -2   3   67.07    1.42
  -4   2  -3   66.44    1.52
   4  -2   3   65.33    1.48
   4   2  -3   65.00    1.53
  -4   2   3   65.27    1.42
   4  -2  -3   67.05    1.47
  -4  -2   3   65.31    1.47
  -5  -1  -1  307.78    6.93
  -5   1  -1  328.07    7.18
   5  -1  -1  309.36    6.97
   5   1  -1  319.59    7.20
  -5  -1  -1  318.93    6.75
  -5   1  -1  319.17    6.95
   5   1  -1  309.91    7.00
  -5   1   1  317.56    6.93
   5  -1   1  311.77    7.01
   5  -1  -1  336.04    7.22
   5   1   1  320.08    6.98
  -5  -1   1  319.15    6.90
   0  -2   5   79.43    1.70
   0   2   5   80.51    1.71
   0  -2  -5   78.21    1.74
   0   2  -5   75.72    1.81
   0  -2  -5   78.58    1.80
   0   2  -5   80.12    1.74
  -1   1  -5  297.35    6.83
  -1  -1  -5  300.50    6.86
  -1   1   5  311.62    6.45
   1   1  -5  296.54    6.84
   1   1   5  303.92    6.43
  -1   1   5  300.90    6.58
  -1  -1  -5  300.53    6.57
   1  -1   5  301.76    6.43
  -1   1  -5  305.15    6.57
  -1  -1   5  310.37    6.45
   1  -1  -5  304.13    6.84
  -1  -1   5  298.27    6.58
   5   3   0   81.02    1.84
   5  -3   0   80.68    1.84
  -5  -3   0   84.84    1.77
  -5   3   0   82.10    1.90
   5   3   0   84.28    1.88
  -5   3   0   83.78    1.82
  -5  -3   0   81.35    1.82
   3  -3  -4   84.62    2.01
  -3  -3   4   88.19    1.88
  -3  -3  -4   86.21    1.93
  -3   3   4   85.39    1.93
  -3   3  -4   86.68    2.00
  -3   3  -4   89.72    1.92
   3  -3   4   87.92    1.88
   3   3   4   89.00    1.95
   3   3  -4   88.83    2.01
  -3   3   4   87.80    1.87
   3   3   4   85.33    1.89
   3  -3   4   90.41    1.94
  -3  -3   4   85.84    1.93
   5   3   1  247.12    5.64
  -5   3  -1  256.85    5.57
   5  -3   1  254.40    5.64
  -5  -3  -1  252.52    5.58
  -5  -3   1  262.59    5.47
   5   3  -1  257.69    5.80
   5   3  -1  256.00    5.64
  -5  -3   1  249.23    5.57
   5  -3  -1  257.49    5.64
   5   3   1  257.62    5.79
  -5   3   1  254.68    5.81
  -5   3   1  261.55    5.58
  -5   3  -1  257.44    5.80
  -5  -3  -1  267.09    5.44
   2  10   0  123.50    2.73
   2 -10   0  120.32    2.62
   2  10   0  126.26    2.80
  -2  10   0  122.06    2.81
  -2 -10   0  122.59    2.64
   0 -10  -2   87.45    1.91
   0  10  -2   85.71    1.97
   0  10  -2   89.03    2.04
   0  10   2   87.70    1.98
   0 -10   2   90.06    1.91
   0  10   2   88.82    2.02
   0 -10  -2   90.61    1.94
  -1   3  -5  250.36    5.47
  -1  -3  -5  259.95    5.68
   3  -9   0   78.90    1.80
  -1  -3   5  249.77    5.48
  -1  -3  -5  252.94    5.48
  -1   3   5  253.25    5.49
   1   3   5  242.34    5.36
  -3  -9   0   80.42    1.74
  -3   9   0   79.64    1.86
   3   9   0   80.18    1.83
   1   3   5  260.27    5.52
   1  -3  -5  249.16    5.69
  -1  -3   5  252.46    5.35
   1  -3   5  247.07    5.35
   1   3  -5  252.13    5.70
  -1   3   5  258.22    5.36
   3  -9   0   80.25    1.72
  -3  -9   0   81.43    1.76
  -3   9   0   81.76    1.76
  -1   3  -5  245.86    5.70
  -2   8  -3   40.58    0.98
   2  -8   3   42.73    0.94
  -2   8   3   42.67    0.94
  -2   8   3   41.35    0.98
  -2  -8  -3   42.67    0.94
  -2   8   3   40.50    0.91
   2   8   3   41.76    0.93
  -2   8   3   42.02    0.94
   2   8   3   41.16    0.95
  -2  -8   3   40.19    0.91
   2   8  -3   41.27    0.98
   2   8  -3   40.46    0.94
   2  -8   3   40.90    0.91
  -4  -6   2  223.12    4.78
  -4   6  -2  225.66    5.10
  -4   6  -2  223.19    4.88
   4   6  -2  226.40    5.09
  -4   6   2  226.40    5.11
   4  -6   2  219.78    4.95
  -4  -6   2  225.87    4.89
  -4  -6  -2  222.82    4.89
   4   6  -2  231.24    4.95
  -4   6   2  229.80    4.89
   4   6   2  224.07    4.96
   4  -6  -2  221.11    4.94
  -2  -6   4  213.31    4.58
   2   6  -4  211.86    4.88
   2  -6   4  219.80    4.73
  -2   6   4  218.21    4.58
  -2   6   4  212.30    4.69
  -2   6  -4  211.92    4.88
   2   6   4  211.09    4.59
   2   6   4  221.00    4.74
  -2  -6  -4  213.50    4.68
   2  -6  -4  217.77    4.72
  -2   6  -4  222.79    4.67
  -2  -6   4  213.49    4.68
   2  -6   4  213.94    4.58
   2  -6  -4  212.01    4.87
   4  -4   3  121.06    2.65
  -4   4   3  116.20    2.63
   4  -4   3  122.77    2.56
  -4  -4   3  118.79    2.56
  -4   4  -3  121.65    2.74
  -4   4  -3  121.39    2.62
  -4  -4  -3  118.63    2.63
   4  -4  -3  117.55    2.74
   4   4  -3  118.53    2.74
  -4  -4   3  119.76    2.63
   4   4   3  118.99    2.66
   4   4  -3  124.66    2.65
   4  -4  -3  119.24    2.64
   4   4   3  118.20    2.57
  -1   7   4   49.05    1.07
   1   7   4   47.16    1.07
  -1  -7   4   48.94    1.06
   1   7   4   49.49    1.10
  -1   7   4   49.70    1.09
   1  -7   4   47.08    1.06
   1  -7  -4   47.21    1.12
  -1   7  -4   46.70    1.14
  -1  -7   4   49.46    1.07
   1   7  -4   48.77    1.08
  -1   7   4   49.46    1.10
  -1  -7  -4   47.79    1.09
   1   7  -4   47.25    1.14
   1  -7   4   48.88    1.09
  -2  10   1   55.04    1.16
  -2  10   1   51.72    1.22
   2 -10   1   53.31    1.14
  -2  10  -1   52.37    1.23
   2 -10  -1   51.46    1.13
   2  10  -1   51.44    1.19
  -2 -10   1   50.38    1.15
   2  10   1   51.10    1.19
   2 -10   1   51.80    1.18
  -2 -10  -1   51.96    1.15
  -2  10   1   52.34    1.19
  -2 -10  -1   54.56    1.16
   2  10  -1   52.00    1.21
   0   4   5   73.26    1.61
   0  -4   5   74.30    1.61
   0   4  -5   73.20    1.72
   0  -4  -5   73.99    1.65
   0   4  -5   76.50    1.64
   0  -4  -5   74.71    1.70
  -5   1   2   80.92    1.77
   5  -1  -2   81.27    1.77
  -5  -1   2   79.67    1.76
   5   1  -2   78.83    1.77
  -5   1  -2   80.03    1.76
  -5   1  -2   78.63    1.82
   5   1   2   77.54    1.78
   5  -1   2   78.49    1.78
   5   1  -2   78.91    1.83
   5   1   2   80.23    1.71
  -5  -1  -2   79.60    1.76
   5  -1  -2   81.49    1.84
   2   0  -5   55.83    1.32
  -2   0   5   56.14    1.28
   2   0   5   56.64    1.27
   2   0   5   55.42    1.24
  -2   0   5   58.55    1.24
  -2   0  -5   56.83    1.27
  -2   0  -5   58.39    1.31
   3  -9   1  144.60    3.02
  -3  -9  -1  141.30    3.09
  -3   9   1  140.21    3.23
   3   9  -1  139.45    3.22
   3  -9  -1  142.79    3.01
   3  -9  -1  138.41    3.13
   3  -9   1  138.81    3.13
  -3  -9   1  146.69    3.08
   3   9   1  138.86    3.14
  -3   9  -1  140.88    3.24
  -3  -9   1  140.47    3.03
   3   9  -1  142.40    3.14
  -3   9   1  147.08    3.09
  -1   9   3  189.83    4.29
  -1  -9  -3  193.74    4.24
  -1  -9   3  198.22    4.16
  -1   9   3  201.37    4.42
  -1   9  -3  186.21    4.43
   1   9   3  194.93    4.30
   1   9   3  200.45    4.17
   1   9  -3  191.94    4.29
   1   9  -3  188.10    4.42
  -1   9   3  200.73    4.25
   1  -9   3  192.18    4.15
  -1   9   3  197.25    4.16
   1  -9   3  199.15    4.29
   3   7  -3  291.93    6.30
  -3   7  -3  288.26    6.50
  -3  -7   3  286.36    6.22
  -3   7   3  302.34    6.10
   3   7  -3  283.63    6.49
   3  -7   3  283.04    6.09
  -3   7   3  283.05    6.24
  -3  -7   3  287.14    6.10
   3   7   3  290.53    6.32
   3  -7  -3  288.06    6.32
   3  -7   3  281.96    6.30
  -3   7  -3  285.97    6.22
   3   7   3  282.84    6.11
  -3  -7  -3  285.18    6.24
  -3   7   3  288.10    6.50
   1  11   0   41.57    0.95
  -1  11   0   40.47    0.93
   1  11   0   40.04    0.93
  -1  11   0   41.22    0.96
   1 -11   0   39.41    0.89
  -1 -11   0   38.91    0.89
  -2   2  -5   91.30    1.99
   2   2   5   90.30    1.95
   2  -2  -5   87.95    2.07
   2   2   5   92.22    2.00
  -2   2  -5   90.93    2.07
   2  -2   5   90.71    2.00
  -2  -2  -5   90.59    2.00
  -2   2   5   93.27    1.95
  -2  -2   5   88.75    1.94
   2   2  -5   89.50    2.08
   2  -2   5   91.09    1.95
  -2   2   5   90.52    2.01
  -2  -2   5   87.06    2.00
  -5  -5   0   64.84    1.39
   5  -5   0   63.78    1.45
   5   5   0   66.69    1.47
  -5  -5   0   63.10    1.43
   5   5   0   63.63    1.45
  -5   5   0   65.29    1.43
  -5   5   0   62.76    1.50
  -5  -3   2   82.54    1.72
   5  -3  -2   80.26    1.85
  -5   3   2   80.18    1.78
  -5   3  -2   79.70    1.77
   5   3  -2   80.56    1.79
  -5  -3   2   79.32    1.78
   5   3   2   80.59    1.73
   5   3  -2   81.15    1.85
  -5  -3  -2   79.35    1.78
   5  -3   2   81.88    1.80
   5  -3  -2   79.23    1.79
  -5   3  -2   79.73    1.84
   5   3   2   78.91    1.80
   1  11  -1  147.77    3.31
  -1 -11  -1  148.93    3.20
   1  11  -1  151.52    3.40
   1 -11   1  148.72    3.19
  -1  11   1  151.07    3.40
  -1 -11   1  148.63    3.20
  -1  11  -1  150.76    3.41
   1  11   1  149.52    3.32
  -1  11  -1  150.47    3.31
   1  11   1  153.80    3.39
   1 -11  -1  144.83    3.19
  -1  11   1  147.68    3.31
  -3   5  -4   90.87    2.06
  -3  -5   4   90.65    1.93
   3   5  -4   89.60    2.06
   3   5   4   85.97    1.94
  -3  -5  -4   86.84    1.98
  -3  -5   4   89.95    1.97
  -3   5  -4   92.54    1.96
   3  -5  -4   89.53    2.06
   3  -5   4   90.44    1.99
   3   5   4   87.99    2.00
  -3   5   4   89.19    1.92
   3  -5   4   89.98    1.92
  -3   5   4   89.39    1.98
   4  -8   0  170.37    3.75
  -4  -8   0  173.75    3.69
  -4   8   0  163.20    3.86
   4   8   0  167.35    3.75
  -4  -8   0  168.51    3.62
  -4   8   0  174.54    3.69
   0   8  -4  227.51    5.22
   0  -8   4  227.01    4.90
   0  -8  -4  229.35    5.01
   0   8   4  235.52    5.06
   0  -8   4  235.67    5.05
   0   8   4  228.53    4.91
   0  -8  -4  227.31    5.20
   5   5   1  219.01    5.00
   5   5  -1  236.79    5.13
  -5   5   1  223.93    5.15
   5   5  -1  223.22    4.99
  -5  -5  -1  239.18    4.82
  -5   5  -1  225.63    4.93
  -5  -5  -1  219.05    4.94
  -5   5   1  231.84    4.94
   5  -5  -1  229.57    4.99
  -5  -5   1  235.61    4.82
  -5   5  -1  220.78    5.14
  -5  -5   1  223.50    4.93
   5  -5   1  220.94    4.99
   2 -10   2  178.11    3.75
  -2 -10   2  171.76    3.76
  -2 -10  -2  178.06    3.83
   4   0  -4  221.23    5.20
   2  10   2  176.24    3.90
  -4   0   4  233.18    4.87
   4   0   4  222.90    4.88
  -2  10   2  180.17    4.00
   2 -10   2  175.62    3.88
  -2  10  -2  172.48    4.01
   2  10  -2  171.92    3.89
  -2 -10  -2  172.93    3.76
  -4   0  -4  233.52    4.99
   2  10  -2  176.64    4.00
   4   0   4  238.41    5.04
  -2  10   2  174.32    3.89
  -2  10   2  182.39    3.83
   2 -10  -2  176.86    3.75
  -4   0   4  225.88    4.99
  -1   5  -5  211.16    5.00
  -1  -5   5  222.52    4.80
  -1   5  -5  222.80    4.79
   1  -5  -5  217.47    5.00
  -1  -5  -5  219.94    4.81
   1  -5   5  221.82    4.70
   1   5   5  226.48    4.85
  -1  -5   5  219.99    4.70
  -1   5   5  215.58    4.70
   1   5  -5  222.44    5.01
  -1   5   5  227.96    4.83
   4  -8   1   61.72    1.43
  -4  -8  -1   63.05    1.41
  -4   8   1   62.79    1.48
  -4  -8  -1   62.33    1.38
  -4   8  -1   62.20    1.48
   4   8  -1   63.63    1.46
   4   8   1   63.56    1.44
   4   8  -1   63.05    1.43
  -4  -8   1   64.76    1.38
  -4   8  -1   64.94    1.40
   4  -8  -1   61.77    1.42
  -4   8   1   64.28    1.40
  -4  -8   1   65.30    1.40
   3   9  -2   40.50    0.97
  -3  -9   2   42.74    0.92
   3   9  -2   41.49    0.95
   3  -9   2   40.67    0.94
  -3   9  -2   40.49    0.98
   3  -9  -2   40.40    0.94
   3  -9   2   40.96    0.90
  -3  -9  -2   41.66    0.93
   3   9   2   40.57    0.95
  -3  -9  -2   41.64    0.92
  -3   9   2   42.37    0.93
  -3   9   2   40.90    0.98
  -4   2  -4  245.40    5.41
   4   2  -4  232.17    5.42
  -4  -2   4  241.98    5.08
   4   2   4  233.68    5.26
  -4  -2  -4  243.24    5.21
  -4   2  -4  241.65    5.20
   4  -2   4  244.91    5.26
   4  -2  -4  236.49    5.42
  -4   2   4  237.65    5.08
   4  -2   4  241.19    5.09
  -4   2   4  238.10    5.21
   4   2   4  240.21    5.09
  -4  -2   4  232.84    5.21
  -2   4  -5   84.73    1.83
  -2  -4   5   82.38    1.84
   2   4   5   84.88    1.85
  -2   4   5   81.78    1.86
  -2  -4   5   82.98    1.80
   2   4   5   83.90    1.81
   2  -4  -5   81.97    1.91
  -2   4  -5   84.09    1.92
  -2  -4  -5   81.60    1.85
   2  -4   5   81.65    1.80
  -2   4   5   83.54    1.80
   2   4  -5   82.81    1.92
   2  -4   5   85.10    1.85
   0 -10  -3   78.96    1.73
   0  10  -3   78.16    1.75
   0  10   3   77.56    1.71
   0  10   3   77.33    1.76
   0  10  -3   75.84    1.81
   0  10   3   80.13    1.80
   0 -10   3   80.31    1.70
   4   6  -3   57.82    1.28
   4   6  -3   56.85    1.33
   4  -6  -3   57.36    1.28
   4   6   3   57.07    1.26
  -4   6   3   57.21    1.28
   4   6   3   55.62    1.30
  -4  -6  -3   55.89    1.28
  -4   6  -3   56.95    1.26
  -4   6  -3   55.70    1.33
  -4  -6   3   57.49    1.24
  -4  -6   3   57.91    1.27
   4  -6   3   57.61    1.29
   4  -6   3   58.06    1.23
   0  -6  -5   46.03    1.02
   0   6  -5   44.17    1.06
   0   6   5   44.34    1.00
   0   6  -5   45.15    1.00
   0  -6   5   43.93    0.99
  -1  11  -2   72.16    1.62
  -1  11   2   72.41    1.67
   1  11  -2   72.35    1.62
  -1 -11   2   71.14    1.57
  -1  11   2   73.64    1.63
   1  11  -2   73.40    1.67
   1  11   2   73.30    1.63
   1 -11   2   71.11    1.56
   1 -11  -2   71.64    1.56
  -1 -11  -2   69.89    1.57
  -1  11  -2   72.29    1.68
   5  -1  -3  138.08    3.17
  -5   1   3  140.07    3.05
   5  -1  -3  139.40    3.06
  -5   1  -3  137.28    3.04
   5   1  -3  135.33    3.16
   5   1   3  140.24    2.96
  -5  -1   3  139.41    3.04
  -5  -1  -3  140.32    3.04
   5   1  -3  140.55    3.06
   5  -1   3  137.93    3.08
   5   1   3  137.22    3.08
   3  -1   5  141.01    3.10
  -3   1  -5  141.58    3.07
  -3   1   5  138.17    3.09
  -3   1   5  142.88    3.00
  -3  -1  -5  140.71    3.08
   3   1   5  141.15    3.10
   3   1   5  140.18    3.01
   3   1  -5  137.80    3.20
  -3  -1   5  143.91    3.00
  -3   1  -5  140.81    3.19
   3  -1  -5  136.92    3.20
   3  -1   5  138.91    3.01
   0  12   0  175.25    3.95
   0  12   0  183.66    4.06
   0 -12   0  176.56    3.81
   5   5  -2   78.45    1.72
  -5   5   2   76.11    1.71
   5  -5  -2   77.21    1.72
   5  -5   2   75.65    1.73
  -5   5  -2   75.30    1.78
  -5  -5   2   77.23    1.71
  -5   5  -2   76.15    1.70
  -5  -5  -2   79.65    1.66
  -5  -5  -2   75.55    1.71
   5   5   2   74.57    1.73
  -5  -5   2   79.80    1.66
   5   5  -2   77.86    1.77
  -4   8  -2  162.09    3.71
   4   8  -2  166.27    3.69
   4   8  -2  165.29    3.59
   4  -8   2  161.53    3.59
  -4  -8   2  163.77    3.54
  -4   8   2  159.86    3.54
   4  -8  -2  164.41    3.58
  -4  -8  -2  159.27    3.54
  -4   8  -2  160.19    3.53
   4   8   2  159.75    3.60
  -4  -8   2  164.47    3.47
  -4  -8  -2  161.62    3.47
  -4   8   2  161.32    3.70
  -2  -8   4  176.36    3.73
  -2   8  -4  167.16    3.97
   2  -8  -4  174.43    3.96
   2   8   4  169.97    3.74
  -2   8   4  178.53    3.84
   2  -8   4  177.45    3.84
   2   8   4  177.07    3.86
  -2  -8  -4  170.95    3.81
   2  -8   4  173.83    3.72
  -2   8   4  177.29    3.82
   2   8  -4  172.09    3.97
  -2   8   4  177.88    3.73
   0  12  -1   44.51    1.02
   0  12   1   43.36    1.02
   0  12  -1   44.26    1.04
   0  12   1   45.51    1.04
   0 -12   1   42.57    0.97
   0 -12  -1   43.74    0.97
  -6   0   0  347.13    7.66
   6   0   0  362.61    7.97
   6   0   0  348.72    7.75
  -4  -4   4  158.40    3.44
  -4  -4  -4  162.74    3.53
   4   4   4  157.57    3.46
  -4   4   4  161.26    3.54
  -4  -4   4  161.10    3.53
   4  -4  -4  159.20    3.68
   4  -4   4  165.35    3.44
   4   4   4  161.74    3.57
  -4   4  -4  164.99    3.67
   4  -4   4  162.68    3.57
   4   4  -4  157.33    3.68
  -4   4  -4  164.55    3.52
   5  -3  -3  129.08    2.98
  -5   3  -3  129.25    2.85
   5  -3   3  130.28    2.89
  -5  -3   3  129.19    2.77
   5   3   3  130.28    2.79
  -5   3  -3  128.78    2.96
  -5  -3  -3  130.66    2.86
   5   3  -3  133.63    2.88
   5   3   3  127.52    2.89
   5  -3  -3  130.54    2.87
  -5   3   3  130.24    2.86
  -5  -3   3  131.58    2.86
   5   3  -3  130.39    2.97
  -3  -3   5  113.35    2.47
   3  -3   5  115.64    2.48
  -3   3  -5  118.21    2.63
   3   3   5  114.94    2.48
  -3  -3   5  111.15    2.54
   3  -3   5  116.20    2.55
   3  -3  -5  113.37    2.64
   3   3   5  115.68    2.56
  -3   3   5  113.41    2.55
  -3   3  -5  117.80    2.53
  -3  -3  -5  118.41    2.54
  -3   3   5  116.07    2.47
   3   3  -5  113.42    2.64
   0   0   6  311.18    6.58
   0   0  -6  303.06    6.72
   0   0  -6  313.41    6.99
  -5  -7   0   37.72    0.85
  -5   7   0   37.75    0.90
  -5  -7   0   37.49    0.83
   5   7   0   37.33    0.87
  -5   7   0   37.83    0.85
   5  -7   0   36.78    0.87
  -1   9   4   37.13    0.83
   1   9  -4   37.32    0.84
  -1  -9  -4   36.62    0.84
   1   9   4   36.93    0.86
   1   9  -4   36.81    0.89
   1  -9   4   38.10    0.85
  -1   9  -4   35.91    0.89
  -1  -9   4   37.12    0.83
   1  -9  -4   37.00    0.87
   1  -9   4   36.65    0.82
  -1   9   4   37.38    0.85
   1   9   4   36.21    0.84
  -6   2   0  182.46    4.05
  -6   2   0  190.25    4.22
   6   2   0  184.47    4.10
   6   2   0  191.42    4.21
  -6  -2   0  182.68    4.06
   6  -2   0  183.55    4.10
  -6   0   1   38.62    0.88
  -6   0  -1   38.96    0.91
   6   0  -1   39.23    0.91
  -6   0  -1   38.01    0.88
   6   0  -1   37.84    0.89
   6   0   1   38.61    0.90
  -3  -7   4   53.47    1.18
  -3   7  -4   55.41    1.28
   3   7   4   56.12    1.23
  -3   7   4   54.53    1.18
   3  -7   4   53.46    1.22
  -3  -7   4   54.46    1.21
   3   7   4   53.21    1.20
   3  -7  -4   52.67    1.27
   3  -7   4   54.54    1.18
  -3   7   4   54.65    1.22
  -3  -7  -4   52.53    1.22
   3   7  -4   54.07    1.27
   3  -7  -4   53.82    1.21
   2  10   3   72.01    1.62
  -2 -10  -3   73.26    1.63
  -2 -10   3   74.49    1.60
   2  10  -3   73.67    1.65
   2  10   3   72.95    1.66
   2  10  -3   72.91    1.70
  -2  10   3   73.22    1.71
  -2  10   3   74.77    1.64
   2 -10   3   75.50    1.65
  -2  10  -3   72.33    1.71
  -2  10   3   73.03    1.65
   2 -10   3   74.15    1.59
   0  -2  -6  179.04    4.00
   0  -2   6  178.59    3.91
   0   2  -6  183.73    4.16
   0  -2  -6  183.09    4.15
   0   2  -6  188.01    3.99
   0   2   6  184.52    3.91
  -3   9   3  232.03    5.33
   3   9  -3  231.91    5.32
   3  -9  -3  237.46    5.16
   3   9   3  231.12    5.01
   3  -9   3  238.36    4.98
   3   9  -3  234.03    5.16
  -3  -9  -3  231.13    5.10
  -3   9   3  236.27    5.11
   3  -9   3  240.73    5.16
   3   9   3  234.01    5.17
  -3   9  -3  232.59    5.33
  -3  -9   3  234.79    5.00
  -5   7  -1  213.52    4.61
  -5  -7   1  216.44    4.51
  -5   7  -1  210.45    4.82
   1   1   6   58.05    1.32
   1  -1  -6   60.21    1.39
  -5  -7   1  213.75    4.62
  -1  -1   6   61.07    1.36
  -5   7   1  206.35    4.82
   5  -7  -1  205.73    4.67
   5   7  -1  215.99    4.80
   5  -7   1  205.22    4.68
  -5  -7  -1  213.16    4.52
  -1   1  -6   59.83    1.34
  -1  -1   6   59.86    1.31
   5   7  -1  216.12    4.68
  -1  -1  -6   59.98    1.38
  -1   1  -6   59.89    1.39
   5   7   1  206.91    4.68
  -1   1   6   62.04    1.32
  -1  -1  -6   59.59    1.35
  -5  -7  -1  217.37    4.62
  -5   7   1  215.47    4.62
  -1   1   6   59.46    1.36
   1  -1   6   59.03    1.31
   1   1  -6   59.19    1.40
   6  -2  -1   88.37    1.94
   6   2  -1   87.87    1.95
  -6   2  -1   87.47    2.00
  -6   2  -1   87.09    1.92
   6  -2  -1   88.15    2.00
   6  -2   1   85.65    1.95
   6   2   1   86.08    1.95
  -6  -2   1   84.92    1.93
   6   2  -1   88.12    2.00
  -6  -2  -1   84.82    1.93
  -6   2   1   87.49    1.93
  -2   6  -5   52.49    1.13
   2   6   5   51.53    1.15
   2  -6   5   49.39    1.11
   2   6  -5   50.03    1.20
  -2  -6   5   52.40    1.14
  -2  -6  -5   48.75    1.15
  -2   6   5   51.25    1.12
   2  -6   5   52.31    1.14
  -2   6  -5   50.81    1.20
   2  -6  -5   50.88    1.19
  -2  -6   5   50.00    1.12
   2   6   5   48.70    1.13
  -2   6   5   49.97    1.16
   1  -7   5  199.82    4.29
   1  -7  -5  203.15    4.55
   1   7   5  194.16    4.30
   3 -11   0   34.77    0.80
  -3  11   0   34.42    0.84
  -1   7  -5  200.09    4.57
   1   7   5  210.82    4.43
  -1   7   5  199.74    4.29
  -1  -7  -5  203.24    4.39
  -3 -11   0   33.56    0.77
   1   7  -5  199.82    4.57
  -1  -7   5  197.81    4.29
   3  11   0   34.33    0.81
   2  12   0   69.69    1.62
   2  12   0   74.82    1.65
  -2  12   0   71.29    1.67
   2 -12   0   72.16    1.55
  -2 -12   0   69.66    1.56
   0  12   2   84.42    1.91
   0 -12  -2   84.80    1.84
   0  12  -2   85.36    1.97
   0 -12   2   82.90    1.84
   0  12  -2   85.77    1.91
   0  12   2   87.39    1.96
   3 -11   1  103.96    2.31
   3  11  -1  101.87    2.31
  -3  11  -1  104.77    2.39
  -3  11   1  103.77    2.38
   3  11   1  100.48    2.31
   3  11  -1  106.48    2.36
  -3 -11  -1  103.98    2.23
  -3 -11   1   98.26    2.23
   3 -11  -1  105.88    2.31
  -1  11   3   61.60    1.40
  -1  11   3   61.53    1.43
   1 -11   3   61.98    1.35
   1  11   3   61.92    1.41
  -1 -11   3   59.93    1.35
   1 -11  -3   61.57    1.37
   1  11  -3   62.25    1.40
   1  11  -3   60.09    1.44
   1 -11  -3   62.99    1.35
  -1 -11  -3   62.57    1.37
  -1  11  -3   60.54    1.45
   1 -11   3   63.77    1.39
  -1 -11  -3   61.05    1.35
   1  -3   6   72.14    1.61
   1   3  -6   74.31    1.72
  -1  -3  -6   73.99    1.66
  -1   3   6   75.33    1.62
  -1  -3   6   72.37    1.61
  -1   3  -6   75.08    1.65
   1   3   6   73.58    1.62
  -1   3   6   73.91    1.67
  -1   3  -6   76.38    1.72
   1  -3  -6   74.07    1.71
   2 -12   1   39.34    0.86
  -2 -12  -1   38.35    0.87
  -2  12   1   39.52    0.93
   2 -12  -1   38.95    0.86
  -6  -4   0  198.64    4.32
   2  12  -1   40.14    0.92
   2  12  -1   37.50    0.91
   2 -12   1   38.70    0.90
  -6   4   0  198.12    4.50
  -2 -12   1   38.05    0.87
   6  -4   0  198.31    4.37
  -2  12   1   38.57    0.91
   6   4   0  195.05    4.37
  -6   4   0  200.03    4.32
  -2  12  -1   38.94    0.94
   2  12   1   38.72    0.91
  -6   0   2  167.76    3.75
   6   0  -2  177.66    3.78
  -6   0  -2  164.77    3.75
   6   0   2  170.00    3.79
   6   0  -2  176.31    3.90
  -5   5   3   97.24    2.20
  -5  -5   3  100.17    2.20
   5  -5   3   98.26    2.22
  -4  10   0  146.20    3.36
   5   5  -3  102.96    2.21
   4  10   0  147.67    3.26
   5   5  -3  100.76    2.29
   5  -5  -3   99.75    2.30
   5  -5  -3  100.42    2.21
  -5  -5  -3   98.08    2.20
   5   5   3   94.84    2.23
   4 -10   0  143.97    3.25
  -5   5  -3   99.77    2.29
  -5   5  -3  100.08    2.19
   5   5   3  101.49    2.15
  -4 -10   0  148.94    3.15
  -5  -5   3   99.86    2.13
   0 -10  -4  102.57    2.26
   0  10   4  100.21    2.23
   3   5   5  105.52    2.32
   3   5   5  103.27    2.25
   3  -5   5  106.08    2.31
   0  10   4  104.93    2.29
  -3  -5   5  102.66    2.24
   0 -10   4  100.80    2.21
   0 -10   4  105.23    2.28
  -3  -5   5  103.55    2.30
   3  -5   5  106.10    2.24
  -3   5  -5  108.04    2.39
   3   5  -5  103.93    2.40
  -3   5  -5  106.16    2.28
   3  -5  -5  102.83    2.39
  -3   5   5  103.41    2.24
  -3  -5  -5   99.09    2.30
   0  10  -4  101.30    2.36
  -3   5   5  101.23    2.31
   0   4  -6  199.38    4.44
   0   4  -6  198.05    4.25
   0   4   6  190.75    4.17
   0  -4   6  192.40    4.17
  -2   0   6  214.88    4.47
   2   0   6  213.17    4.47
   2   0  -6  209.24    4.76
  -2   0  -6  209.70    4.57
  -2   0   6  199.46    4.58
   4   8  -3   43.04    0.96
   4   8   3   41.40    0.97
   4  -8  -3   41.42    0.95
  -4  -8   3   42.71    0.93
  -4   8   3   42.29    0.96
  -4   8  -3   42.21    1.01
  -4  -8  -3   41.65    0.95
  -4  -8   3   42.35    0.94
   4  -8   3   40.62    0.96
   4   8  -3   43.09    0.99
  -4   8   3   40.13    1.00
   4   8   3   41.19    0.95
  -6   4  -1   68.39    1.56
  -6   4  -1   71.96    1.63
   6   4   1   68.52    1.59
  -6   4   1   72.03    1.57
  -6   4   1   69.66    1.64
   6   4  -1   71.02    1.58
  -6  -4   1   67.51    1.56
  -6  -4  -1   68.72    1.57
   6  -4  -1   71.29    1.58
   6  -4   1   70.09    1.58
   6   4  -1   71.95    1.62
   5   7  -2   50.42    1.17
   0  -8  -5   40.96    0.94
   5  -7   2   49.03    1.15
   0  -8   5   39.35    0.91
  -5   7  -2   49.96    1.19
   5   7  -2   52.48    1.15
   0   8   5   40.31    0.92
  -5  -7  -2   49.16    1.14
  -5   7   2   49.81    1.19
   5  -7  -2   51.44    1.14
  -5  -7   2   51.79    1.13
  -5   7  -2   48.76    1.12
   5   7   2   47.96    1.15
  -5   7   2   51.17    1.14
  -5  -7   2   50.33    1.10
   0   8  -5   40.28    0.98
  -5  -7  -2   50.34    1.10
   0   8   5   43.18    0.94
   4  -6   4  184.38    3.79
  -4  -6  -4  172.78    3.88
  -4   6   4  170.36    3.89
   4   6  -4  170.11    4.04
  -4   6  -4  177.51    3.87
   4   6   4  179.14    3.81
   4  -6   4  185.49    3.92
   4  -6  -4  177.96    4.05
   4   6   4  178.85    3.93
  -4   6  -4  180.97    4.05
  -4  -6   4  177.16    3.88
  -4  -6   4  176.99    3.79
   6   2   2  149.49    3.39
  -6   2   2  150.11    3.35
   6   2  -2  154.17    3.48
   6  -2   2  151.71    3.39
   6  -2  -2  154.88    3.38
  -6  -2  -2  154.48    3.35
   6   2  -2  155.23    3.38
  -6  -2   2  150.61    3.35
  -6   2  -2  152.07    3.35
  -6   2  -2  156.79    3.48
   6  -2  -2  151.95    3.49
  -4 -10  -1   41.63    0.94
  -4 -10  -1   43.56    0.95
  -4 -10   1   41.40    0.94
   4  10   1   41.04    0.98
  -4  10  -1   41.68    1.01
   4  10  -1   41.76    0.98
  -4  10   1   43.16    0.95
  -4  10   1   41.02    1.01
   4 -10  -1   41.54    0.97
   4  10  -1   43.36    0.98
   4 -10   1   41.31    0.97
   4   0  -5   34.10    0.85
  -4   0   5   35.52    0.78
  -4   0   5   34.20    0.82
   4   0   5   36.34    0.80
   4   0   5   35.62    0.82
  -4   0  -5   35.99    0.82
   5   1   4   45.51    1.06
  -5  -1   4   47.05    1.05
  -5   1   4   46.40    1.05
   5  -1   4   46.60    1.06
  -5   1  -4   45.97    1.05
  -5  -1  -4   45.87    1.05
   5   1   4   46.12    1.02
   5  -1   4   46.58    1.01
   5   1  -4   44.35    1.09
   5  -1  -4   44.98    1.09
  -2  -2  -6  117.52    2.58
  -2   2   6  117.71    2.59
   2   2  -6  115.66    2.68
  -2  -2   6  113.60    2.51
  -2  -2   6  115.38    2.59
  -2   2  -6  120.00    2.57
  -2   2  -6  120.05    2.67
   2  -2  -6  114.08    2.68
  -2   2   6  118.89    2.52
   2   2   6  113.30    2.52
   2  -2   6  118.85    2.52
  -1 -13   0   43.12    0.98
  -1  13   0   45.19    1.05
   1 -13   0   43.49    0.97
  -1  13   0   44.41    1.02
   1  13   0   42.24    1.02
   1  13   0   44.85    1.04
  -3  11  -2   59.17    1.41
  -3 -11   2   58.66    1.31
  -3  11   2   59.26    1.40
  -3 -11  -2   59.79    1.33
   3  11   2   58.72    1.37
   3 -11   2   62.20    1.30
   3 -11   2   59.60    1.36
   3  11  -2   60.92    1.36
   3 -11  -2   59.56    1.35
   3  11  -2   58.75    1.39
   4  -2  -5   54.16    1.28
  -4   2   5   54.68    1.19
   4   2  -5   52.87    1.28
  -4  -2   5   53.67    1.24
   4  -2   5   54.22    1.23
   4  -2   5   55.38    1.20
  -4   2  -5   55.74    1.23
  -4  -2  -5   54.79    1.23
   4   2   5   54.79    1.20
  -4  -2   5   54.85    1.19
   4   2   5   54.29    1.24
   2 -12   2  141.15    3.03
  -2  12  -2  140.53    3.25
  -1 -13  -1   92.80    2.01
   1 -13   1   95.44    2.01
   2  12  -2  148.63    3.23
  -2 -12  -2  144.62    3.04
  -2  12   2  137.71    3.14
   1 -13  -1   92.91    2.01
  -1  13   1   89.95    2.09
  -1 -13   1   93.27    2.01
  -2  12   2  143.65    3.24
  -1  13  -1   94.81    2.15
   1  13  -1   90.98    2.09
  -1  13  -1   91.63    2.09
  -1  13   1   95.85    2.14
   2  12   2  136.69    3.15
   1  13  -1   94.13    2.14
   2  12  -2  139.14    3.15
   2 -12  -2  144.81    3.03
   2 -12   2  144.39    3.14
   1  13   1   89.54    2.09
  -2 -12   2  135.40    3.04
   5   3   4   47.34    1.03
   5   3  -4   45.82    1.10
   5   3   4   46.21    1.07
  -5  -3   4   46.60    1.06
  -5  -3  -4   45.60    1.06
   5  -3  -4   46.95    1.11
  -5   3   4   48.08    1.07
   5  -3   4   46.01    1.07
  -5  -3   4   46.22    1.02
  -5   3  -4   46.17    1.05
   1  -5  -6   55.19    1.27
   1   5  -6   55.11    1.28
  -1   5  -6   53.70    1.28
   1   5   6   52.80    1.21
   1  -5   6   54.49    1.20
  -1  -5  -6   54.96    1.24
   1   5  -6   56.74    1.22
  -1  -5   6   51.87    1.20
  -1   5   6   53.20    1.20
  -1   5  -6   55.35    1.22
   6  -4   2  115.68    2.58
  -6   4   2  115.97    2.55
  -6   4  -2  113.61    2.54
  -6  -4   2  115.85    2.55
   6   4   2  111.67    2.58
   6   4  -2  118.92    2.65
   6   4  -2  118.40    2.57
  -6  -4  -2  114.83    2.55
  -6   4  -2  115.68    2.65
   6  -4  -2  116.87    2.57
   6  -4  -2  113.11    2.65
   0 -12  -3   23.41    0.54
   0  12  -3   24.16    0.57
   0  12   3   23.13    0.57
   0 -12   3   22.74    0.54
   0  12  -3   22.95    0.59
  -4  10  -2   92.42    2.18
   4  10  -2   95.69    2.15
   4 -10   2   93.56    2.10
  -4 -10   2   92.54    2.03
  -4 -10  -2   97.71    2.07
   4  10   2   93.77    2.11
  -4  10   2   90.93    2.17
   4  10  -2   94.33    2.10
  -4  10   2   96.79    2.07
   4 -10  -2   91.89    2.09
  -4 -10  -2   91.24    2.03
  -2  10  -4   75.76    1.85
  -2  10   4   83.71    1.73
   2  10  -4   75.26    1.84
  -2  10   4   80.71    1.84
   2  10   4   78.88    1.79
  -2 -10  -4   80.60    1.76
  -2  10   4   81.61    1.78
   2  10   4   76.20    1.74
  -2  10   4   81.09    1.77
   2 -10   4   81.36    1.78
  -2 -10   4   77.19    1.73
   2 -10   4   79.54    1.72
  -2  -4   6  129.68    2.85
   2  -4   6  132.36    2.78
  -2   4   6  129.39    2.87
  -2   4  -6  129.37    2.96
  -2  -4  -6  126.81    2.85
  -2   4   6  129.27    2.78
  -2  -4   6  125.70    2.78
   2  -4  -6  128.31    2.96
   2   4  -6  130.41    2.97
  -2   4  -6  132.10    2.84
  -5  -9   0   52.18    1.15
  -5   9   0   52.09    1.15
   5   9   0   51.61    1.19
  -5   9   0   50.44    1.22
  -5  -9   0   52.03    1.13
   5  -9   0   49.73    1.18
   6  -6   0  202.59    4.54
  -6   6   0  207.91    4.69
  -6   6   0  208.16    4.49
  -6  -6   0  205.28    4.49
   6   6   0  204.85    4.55
   3  -9  -4   42.51    0.93
  -3   9  -4   41.04    0.99
   3  -9   4   41.23    0.94
  -3  -9  -4   40.82    0.94
   3   9   4   40.43    0.95
  -3  -9   4   41.11    0.92
   3   9  -4   40.15    0.98
  -3   9   4   39.70    0.94
   3  -9   4   42.58    0.91
   3   9   4   39.31    0.93
   2  -8   5   45.74    1.00
  -2   8   5   45.22    0.99
   2  -8  -5   44.10    1.04
  -2  -8   5   43.62    0.98
   2   8  -5   43.34    1.05
   2   8   5   45.48    1.02
   2  -8   5   43.57    0.98
  -2   8  -5   42.18    1.05
  -2   8   5   45.19    1.02
  -2  -8  -5   43.29    1.01
   2   8   5   42.81    1.00
   6   0   3   45.68    1.08
  -6   0   3   46.02    1.07
   6   0  -3   46.97    1.11
  -6   0  -3   47.46    1.06
   4  -4   5   53.23    1.13
   4   4   5   49.92    1.14
   4   4   5   50.44    1.17
  -4  -4  -5   49.18    1.16
  -4  -4   5   50.59    1.16
  -4   4  -5   52.24    1.15
   4  -4  -5   50.40    1.21
   4   4  -5   51.58    1.22
  -4   4  -5   54.04    1.21
   4  -4   5   52.34    1.17
  -4   4   5   49.81    1.17
  -4  -4   5   51.03    1.12
   0  -6   6  181.75    3.90
   0   6  -6  185.17    4.16
   0   6   6  179.38    3.91
   0  -6  -6  183.30    4.00
   5  -9   1  127.73    2.97
  -5   9   1  131.73    3.07
  -5   9  -1  133.49    3.07
  -5  -9  -1  132.77    2.87
  -5  -9   1  138.47    2.93
   5   9   1  129.50    2.98
   5   9  -1  135.01    2.98
   5  -9  -1  132.11    2.97
  -5  -9  -1  138.13    2.93
  -5  -9   1  134.05    2.87
  -5   9   1  136.88    2.93
  -6   6   1   38.60    0.95
  -6   6  -1   39.16    0.95
   6   6  -1   39.58    0.92
   6  -6   1   39.41    0.91
  -6  -6  -1   39.06    0.90
  -6   6  -1   39.41    0.89
  -6  -6  -1   41.02    0.87
   6   6   1   38.10    0.92
  -6   6   1   39.01    0.90
   6  -6  -1   39.72    0.91
  -6  -6   1   38.57    0.90
   3  -1   6   38.96    0.85
  -3  -1  -6   36.25    0.86
  -3   1  -6   37.61    0.86
   3  -1  -6   36.70    0.90
  -3  -1   6   37.28    0.83
   3   1   6   37.07    0.85
   3   1  -6   37.27    0.90
  -3   1   6   37.36    0.84
  -3   1   6   36.60    0.88
  -3  -1   6   37.42    0.87
  -1 -13   2   21.93    0.53
   1 -13   2   22.45    0.52
   1  13  -2   22.29    0.56
   1 -13  -2   23.15    0.52
  -1  13  -2   22.73    0.57
   1  13  -2   22.13    0.55
  -1  13   2   22.83    0.56
  -1  13   2   22.53    0.55
  -1 -13  -2   22.15    0.53
   1  13   2   21.57    0.55
  -1  13  -2   22.28    0.55
  -1   9  -5  128.20    2.98
   1   9   5  136.82    2.89
   5  -7  -3  100.03    2.19
   1  -9  -5  131.31    2.86
   1  -9   5  127.30    2.79
  -5   7   3   95.88    2.18
  -5  -7   3  100.02    2.12
  -5   7  -3   97.41    2.28
  -5   7  -3   98.29    2.17
   1   9  -5  127.98    2.98
  -5  -7   3  102.63    2.18
  -1   9   5  132.59    2.80
  -5   7   3   96.57    2.28
   1   9   5  125.20    2.80
   5   7  -3   99.31    2.27
   5   7   3   95.97    2.21
  -5  -7  -3  100.36    2.19
   5  -7   3   97.79    2.21
  -1  -9  -5  128.59    2.85
   6  -2  -3   35.46    0.87
  -6   2   3   36.36    0.84
  -6  -2  -3   37.05    0.84
   6  -2   3   36.30    0.85
   6   2   3   34.67    0.85
  -6  -2   3   36.01    0.84
   6   2  -3   35.98    0.87
  -6   2  -3   36.95    0.84
  -3   7   5  104.62    2.21
  -3   7  -5  103.18    2.36
  -3   7   5  100.94    2.28
   3  -7   5  106.52    2.28
   3   7   5   97.43    2.22
   3  -7  -5  103.11    2.36
   3  -7   5  104.00    2.21
  -3  -7  -5   98.42    2.26
   3   7  -5  101.69    2.36
  -3  -7   5  101.03    2.21
   3   7   5  104.08    2.29
  -1 -11   4   54.57    1.24
  -1  11   4   57.85    1.25
   1 -11  -4   55.64    1.26
   1  11   4   55.22    1.26
  -1 -11  -4   55.97    1.26
   1 -11   4   58.33    1.28
  -1  11  -4   56.18    1.33
   1  11  -4   54.98    1.33
   1  11  -4   56.35    1.28
   1 -11   4   55.73    1.24
   1  11   4   57.42    1.29
  -1  11   4   56.81    1.28
   5   5  -4   46.67    1.13
   5  -5  -4   47.14    1.13
  -5  -5  -4   46.89    1.09
   5  -5   4   47.46    1.09
  -5  -5   4   47.71    1.04
  -5   5  -4   48.81    1.07
  -5  -5   4   48.56    1.08
  -5   5  -4   49.42    1.13
  -5   5   4   45.58    1.09
   5   5   4   46.75    1.06
   5   5   4   47.32    1.10
   0  14   0  117.76    2.73
  -3 -11  -3   94.72    2.04
   3  11   3   91.85    2.12
  -3  11   3   90.61    2.18
   3 -11   3   95.74    2.11
  -3  11  -3   91.38    2.19
   0  14   0  127.11    2.81
  -3 -11  -3   95.36    2.08
  -3  11   3   98.17    2.09
   3 -11   3   96.46    2.03
   0 -14   0  122.10    2.63
   3  11  -3   95.64    2.11
   3  11  -3   94.63    2.17
   3 -11  -3   92.94    2.10
  -3 -11   3   91.68    2.04
   4  -8  -4  140.96    3.31
   4  -8   4  147.96    3.20
   4   8  -4  145.13    3.30
  -4  -8  -4  142.25    3.17
  -4   8   4  143.74    3.18
  -4   8  -4  143.59    3.31
   4   8   4  140.80    3.11
  -4  -8   4  147.31    3.10
   4   8   4  147.66    3.22
   3  -3   6   48.36    1.07
  -3   3  -6   51.18    1.14
  -3  -3  -6   47.17    1.10
   3  -3  -6   48.23    1.14
   3   3  -6   47.03    1.14
  -3   3   6   48.79    1.07
  -3   3  -6   47.37    1.09
  -3  -3   6   47.08    1.10
  -3  -3   6   47.71    1.06
  -3   3   6   47.51    1.11
   2  12  -3   24.80    0.59
   2 -12   3   25.08    0.56
   2 -12  -3   24.79    0.56
  -2  12   3   24.18    0.59
   2  12   3   23.70    0.60
   2  12  -3   24.09    0.61
  -2  12   3   24.93    0.61
  -2 -12  -3   23.90    0.57
  -2  12  -3   22.79    0.62
  -2 -12   3   23.77    0.57
   2 -12   3   25.23    0.59
   0 -14   1   25.50    0.60
   0  14   1   25.41    0.63
   0  14   1   26.75    0.64
   0 -14  -1   25.33    0.60
   0  14  -1   26.13    0.64
   0  14  -1   25.08    0.63
  -5   9   2   36.40    0.91
  -5  -9  -2   37.47    0.86
  -5   9  -2   37.18    0.91
  -5   9   2   37.64    0.86
   5   9   2   36.50    0.88
  -5  -9   2   37.68    0.84
   5  -9   2   35.86    0.87
   5   9  -2   39.16    0.88
   5  -9  -2   38.00    0.87
   5   9  -2   38.17    0.89
  -5  -9  -2   37.32    0.84
  -6   6   2  126.42    2.99
   6   6   2  125.03    2.90
  -6  -6  -2  134.65    2.79
  -6  -6   2  129.24    2.86
  -6   6  -2  129.14    2.85
   6  -6  -2  127.97    2.89
   6  -6   2  126.66    2.90
  -6   6   2  132.23    2.87
  -6  -6  -2  129.58    2.87
  -6   6  -2  131.62    2.99
   6   6  -2  134.79    2.97
   6   6  -2  133.56    2.90
   6   4   3   51.77    1.23
  -6  -4  -3   53.56    1.22
   6   4  -3   54.80    1.27
  -6   4  -3   55.57    1.26
   6  -4   3   52.33    1.23
  -6   4   3   53.35    1.22
   6  -4  -3   53.45    1.27
  -6  -4   3   52.11    1.22
  -6   4  -3   54.55    1.21
   6  -4  -3   55.33    1.22
   7  -1   0   56.62    1.29
   7   1   0   56.20    1.26
  -7   1   0   52.00    1.24
   7   1   0   55.55    1.28
  -7  -1   0   53.77    1.24
   7  -1   0   54.76    1.26
   4  10  -3   62.50    1.38
   4  10   3   60.13    1.39
   4 -10   3   59.33    1.38
   2  -6   6  123.09    2.67
   2   6  -6  123.06    2.85
  -4 -10  -3   61.58    1.36
  -4 -10  -3   58.59    1.34
  -2  -6  -6  122.39    2.73
  -4  10   3   59.95    1.43
   4 -10  -3   61.16    1.37
  -4 -10   3   60.76    1.33
  -4  10   3   61.99    1.37
   4  10  -3   63.13    1.42
  -2   6   6  122.14    2.75
  -2   6   6  128.24    2.67
   2  -6  -6  125.21    2.84
  -2  -6   6  121.61    2.66
  -4  10  -3   57.32    1.43
   2   6   6  122.06    2.68
  -2   6  -6  125.93    2.85
   1  -7  -6   39.21    0.91
  -1   7  -6   38.82    0.94
  -1  -7  -6   39.68    0.91
  -1   7   6   39.56    0.89
   1  -7   6   37.77    0.88
   1   7  -6   39.14    0.95
   1   7   6   38.91    0.89
  -1  -7   6   39.19    0.88
   0  10  -5   43.88    1.07
   0 -10  -5   43.17    1.01
   0  10   5   44.05    1.00
   0 -10   5   44.03    0.99
   0  10   5   46.56    1.02
   0   0  -7   38.62    0.91
   0   0  -7   38.14    0.88
   0   0   7   37.05    0.86
   3  13   0   34.23    0.82
  -3  13   0   35.12    0.85
   3 -13   0   33.64    0.81
  -3 -13   0   34.07    0.78
  -4   6   5   30.86    0.77
   4  -6   5   33.76    0.73
  -4   6  -5   33.01    0.74
   4  -6  -5   31.95    0.79
  -4   6  -5   32.81    0.79
   4   6   5   31.55    0.76
   4   6   5   31.73    0.75
  -4  -6   5   32.75    0.73
   4  -6   5   32.57    0.76
  -4  -6  -5   31.31    0.76
  -4  -6   5   33.20    0.75
   4   6  -5   31.32    0.79
  -7  -1  -1  137.98    3.08
  -7  -1   1  134.63    3.08
   7  -1  -1  144.51    3.12
  -7   1   1  133.09    3.08
   7   1   1  142.46    3.12
   7   1  -1  144.70    3.12
  -7   1  -1  139.40    3.08
   7   1  -1  144.42    3.20
   7  -1  -1  145.21    3.21
   7  -1   1  135.30    3.12
  -5  -1   5  214.35    4.63
   5   1   5  211.04    4.67
   5  -1   5  210.45    4.67
  -5   1   5  213.50    4.64
   5   1   5  215.94    4.52
  -5  -1  -5  209.67    4.62
   5  -1   5  217.79    4.52
  -5   1  -5  210.17    4.62
   5   1  -5  204.64    4.82
   5  -1  -5  208.54    4.82
   0  -2  -7   73.54    1.68
   0   2   7   73.22    1.64
   0   2  -7   76.05    1.74
   0  -2   7   74.23    1.64
   0   2  -7   76.07    1.67
   4 -12   0   89.69    2.01
   4  12   0   92.22    2.02
  -4  12   0   86.40    2.08
  -4 -12   0   88.52    1.94
   3  13   1   67.17    1.53
   3 -13   1   65.73    1.52
  -3 -13  -1   68.48    1.47
   3  13  -1   67.33    1.53
  -3 -13   1   64.41    1.46
   3 -13  -1   68.49    1.52
  -3  13  -1   66.49    1.57
  -3  13   1   64.95    1.57
   1 -13   3   99.21    2.12
   1  13  -3   95.97    2.26
  -1 -13  -3   97.94    2.12
   1  13  -3  101.97    2.19
  -1  13   3   96.51    2.19
  -1  13  -3   96.11    2.27
   1 -13   3   99.88    2.19
  -1 -13   3   94.93    2.12
   1 -13  -3  100.25    2.11
   1  13   3   93.77    2.20
  -1   1  -7  133.24    2.96
  -1   1  -7  138.71    3.08
   1   1  -7  133.26    2.97
  -1  -1   7  132.20    2.90
   1   1   7  134.46    2.91
   1  -1   7  135.97    2.90
   1  -1  -7  134.59    3.08
   1   1  -7  134.31    3.09
  -1  -1  -7  134.61    2.97
   1  -1  -7  134.36    2.97
  -1   1   7  135.41    2.90
   0  12  -4  110.53    2.63
   0  12   4  117.78    2.48
   0 -12   4  110.45    2.46
   0 -12  -4  113.38    2.50
   0 -12   4  117.07    2.54
   0  12   4  113.88    2.55
  -7   3   0   66.50    1.53
   7  -3   0   65.88    1.48
  -7   3   0   65.58    1.47
   7   3   0   64.09    1.49
  -7  -3   0   63.70    1.47
   2  14   0   53.17    1.28
  -2  14   0   56.96    1.32
   2 -14   0   56.39    1.22
  -2 -14   0   55.17    1.23
  -6   8   0  126.77    2.77
   6   8   0  125.03    2.81
  -6  -8   0  128.68    2.77
  -6  -8   0  129.27    2.71
   6  -8   0  122.79    2.81
  -6   8   0  123.19    2.90
   0 -14  -2   53.74    1.17
   0  14  -2   52.77    1.26
   0 -14   2   52.80    1.17
   0  14   2   52.73    1.22
   0  14  -2   52.42    1.22
  -3   5  -6   36.28    0.81
  -3  -5   6   35.60    0.82
   3   5   6   35.08    0.81
  -3  -5   6   34.49    0.79
  -3  -5  -6   34.01    0.83
   3  -5  -6   34.81    0.85
  -3   5   6   34.96    0.80
  -3   5  -6   36.93    0.86
   3   5  -6   34.08    0.86
  -3   5   6   33.91    0.84
   3  -5   6   36.07    0.80
   4 -12   1   30.56    0.73
  -4  12  -1   29.00    0.76
  -4  12   1   29.22    0.75
   4  12  -1   31.02    0.73
  -4 -12   1   29.85    0.70
   4  12   1   31.06    0.74
   4 -12  -1   30.45    0.72
  -4 -12  -1   30.24    0.70
   0   8  -6  119.39    2.79
   0   8   6  123.69    2.63
   0  -8  -6  122.99    2.67
   0  -8   6  118.10    2.61
  -7  -3  -1  115.94    2.55
  -7   3   1  112.45    2.55
   7   3  -1  116.51    2.58
  -7   3  -1  113.98    2.55
   7  -3   1  114.39    2.58
   7  -3  -1  118.30    2.66
  -7  -3   1  111.30    2.55
   7   3   1  114.25    2.59
  -7   3  -1  117.99    2.65
   7   3  -1  117.09    2.64
   7  -3  -1  117.50    2.58
  -6   0  -4  149.90    3.24
   6   0  -4  145.88    3.37
   6   0   4  145.18    3.27
  -6   0   4  147.29    3.24
  -2  14   1   23.37    0.57
   2 -14   1   22.71    0.53
   2 -14   1   22.13    0.56
   2  14  -1   23.12    0.57
   2  14  -1   22.71    0.57
   2  14   1   22.51    0.58
   2 -14  -1   23.02    0.53
  -2  14  -1   22.93    0.59
  -2 -14   1   23.25    0.55
  -2 -14  -1   22.29    0.54
  -2  14   1   23.31    0.58
  -6   8  -1   46.51    1.12
  -6   8   1   46.09    1.12
  -6   8   1   47.01    1.06
  -6  -8   1   46.65    1.06
   6  -8   1   43.90    1.07
  -6  -8  -1   47.96    1.06
  -6  -8   1   46.90    1.03
  -6   8  -1   46.46    1.05
   6  -8  -1   46.18    1.07
   6   8  -1   46.54    1.08
   6   8   1   44.38    1.08
  -6  -8  -1   48.61    1.03
  -5  -3  -5  174.10    3.99
  -5   3   5  185.21    4.00
   4   0  -6  169.71    4.04
   4   0   6  181.19    3.79
  -5   3  -5  184.24    3.98
   5   3   5  182.02    4.03
   5  -3  -5  183.03    4.16
  -5  -3   5  185.20    3.99
   5   3   5  178.34    3.90
  -4   0   6  180.66    3.78
   5  -3   5  185.48    4.03
   5   3  -5  180.02    4.15
  -4   0  -6  176.31    3.87
  -4   0   6  175.78    3.89
  -1   3   7  103.85    2.29
   1   3  -7  107.43    2.44
   1   3   7  104.16    2.30
   1   3  -7  109.38    2.34
   1  -3  -7  104.70    2.34
   1  -3   7   99.93    2.29
  -1  -3   7  102.14    2.28
  -1   3  -7  108.99    2.43
   1  -3  -7  106.27    2.42
  -1  -3  -7  104.51    2.34
  -1   3  -7  108.75    2.33
  -5   7   4   30.07    0.73
   5  -7   4   30.51    0.72
  -5  -7  -4   30.23    0.72
   5   7   4   29.75    0.73
   5  -7  -4   29.29    0.75
  -5   7  -4   31.13    0.76
   5   7   4   30.49    0.71
  -5  -7   4   30.75    0.69
   5   7  -4   30.45    0.75
  -5  -7   4   31.15    0.71
  -6  -2  -4  144.15    3.18
  -6   2   4  144.10    3.18
  -6  -2   4  145.43    3.18
  -6   2  -4  144.62    3.17
   6  -2   4  144.99    3.21
   6   2  -4  145.08    3.31
   6  -2  -4  142.03    3.31
   6   2   4  143.15    3.21
   7  -1   2   37.37    0.89
   7  -1  -2   38.55    0.91
  -7   1  -2   37.21    0.87
   7   1  -2   38.57    0.88
  -7   1   2   36.62    0.88
  -7  -1  -2   36.33    0.88
   7  -1  -2   38.38    0.88
  -7  -1   2   38.67    0.88
   7   1  -2   37.75    0.91
   7   1   2   36.55    0.89
  -4  -2   6  113.83    2.46
   4   2   6  111.99    2.48
   4  -2   6  117.76    2.47
  -4  -2  -6  113.14    2.53
  -4   2  -6  117.40    2.52
  -4  -2   6  113.05    2.54
   4   2  -6  113.66    2.64
   4  -2  -6  113.82    2.64
  -4   2   6  113.42    2.54
   2  10   5   42.35    1.01
  -2  10   5   45.55    1.03
  -2 -10  -5   43.94    1.01
   2  10  -5   42.97    1.06
   2  10   5   44.71    1.03
   2 -10  -5   45.20    1.05
  -2  10  -5   44.06    1.07
   2 -10   5   42.84    0.98
  -2  10   5   44.96    0.99
   0   4   7   55.42    1.24
   0  -4  -7   54.80    1.27
   0   4  -7   56.18    1.32
   0  -4   7   54.94    1.24
   0   4  -7   56.62    1.26
   5  -9  -3   85.42    1.88
   5  -9   3   80.85    1.89
  -5  -9  -3   86.74    1.83
  -5  -9  -3   83.78    1.87
  -5   9   3   86.94    1.87
   5   9   3   79.60    1.90
  -5   9   3   83.63    1.96
  -5   9  -3   84.93    1.96
  -5  -9   3   83.42    1.82
   5   9  -3   83.48    1.94
  -2   0   7   22.01    0.52
  -2   0   7   21.76    0.56
   2   0   7   21.56    0.53
   2   0  -7   21.94    0.56
  -2   0  -7   21.92    0.54
   6  -6  -3   29.49    0.75
  -6  -6  -3   30.88    0.69
  -6   6  -3   31.42    0.75
   6  -6  -3   30.71    0.71
   6  -6   3   30.10    0.72
   6   6  -3   30.74    0.74
  -6  -6   3   30.66    0.71
  -6   6  -3   29.45    0.70
   6   6   3   29.53    0.73
  -6  -6  -3   29.32    0.72
  -6   6   3   29.59    0.72
  -3 -13   2   19.73    0.50
   3  13   2   20.30    0.53
  -3 -13  -2   20.02    0.50
   3 -13   2   20.60    0.52
   3 -13  -2   20.60    0.51
  -3  13  -2   21.10    0.55
   3  13  -2   21.41    0.53
  -3  13   2   21.38    0.54
   3  13  -2   20.81    0.52
   3  -9   5   69.36    1.49
  -3  -9  -5   65.94    1.53
   3   9  -5   66.86    1.60
  -3   9   5   67.07    1.54
   3  -9   5   69.66    1.54
  -3   9  -5   68.08    1.60
   3  -9  -5   68.52    1.59
   3   9   5   69.70    1.55
   3   9   5   67.47    1.51
  -3  -9   5   67.51    1.49
   5  11   0   29.35    0.71
  -5  11   0   28.18    0.73
  -5 -11   0   29.54    0.67
   5 -11   0   28.63    0.70
  -3  11   4   52.50    1.20
  -3  11   4   54.23    1.25
  -3  11  -4   50.09    1.25
  -3 -11   4   51.04    1.17
   3  11   4   52.44    1.22
   3 -11   4   52.80    1.15
   3 -11   4   53.77    1.20
   3 -11  -4   54.02    1.20
   3  11  -4   52.72    1.25
   3  11   4   51.48    1.19
  -3 -11  -4   51.27    1.19
   2   2  -7   49.31    1.16
  -2  -2  -7   47.76    1.12
   2  -2   7   46.56    1.09
  -2   2   7   49.91    1.09
   2   2   7   49.18    1.10
  -2   2  -7   49.35    1.11
  -2   2   7   47.17    1.13
  -2  -2   7   48.48    1.08
  -2  -2   7   49.15    1.13
   2  -2  -7   48.46    1.16
  -4  12   2   78.44    1.92
   4 -12   2   83.33    1.86
   4  12   2   80.57    1.87
   4 -12  -2   82.38    1.85
  -4 -12   2   83.46    1.80
  -4  12  -2   82.70    1.93
  -4 -12  -2   81.97    1.80
   4  12  -2   83.50    1.90
   4  12  -2   82.98    1.86
   7   5   0   50.01    1.18
   7  -5   0   51.23    1.18
  -7  -5   0   49.27    1.16
  -7   5   0   51.78    1.16
  -7   5   0   52.25    1.22
   2  12  -4   88.03    2.10
   2 -12   4   92.20    2.03
   2 -12   4   89.70    1.96
  -2  12  -4   86.86    2.11
   2  12   4   91.76    2.05
  -2 -12  -4   91.49    2.01
  -2  12   4   90.88    2.03
  -2 -12   4   89.22    1.97
  -2  12   4   92.14    2.10
  -2  12   4   93.06    2.02
   7  -3  -2   40.12    0.92
   7   3   2   38.79    0.93
   7   3  -2   41.25    0.92
  -7   3  -2   39.67    0.91
   7  -3  -2   39.39    0.95
  -7  -3   2   39.29    0.92
  -7   3   2   39.33    0.92
   7  -3   2   37.82    0.93
  -7  -3  -2   38.53    0.92
   7   3  -2   39.77    0.94
   5  11  -1   96.25    2.15
  -5  11   1   91.72    2.22
   5  11   1   96.43    2.16
  -5 -11  -1   97.57    2.07
   5 -11  -1   95.00    2.14
   5 -11   1   91.86    2.14
  -5 -11   1   96.84    2.07
  -5  11  -1   95.82    2.22
   1 -15   0   15.54    0.38
   1  15   0   15.15    0.40
  -1  15   0   14.71    0.40
  -1  15   0   15.18    0.41
  -1 -15   0   14.25    0.38
  -2 -14   2   84.38    1.87
   2 -14  -2   86.04    1.85
   2 -14   2   88.06    1.86
  -2 -14  -2   84.29    1.87
   2  14   2   84.43    1.94
   2  14  -2   88.65    1.94
  -2  14   2   82.25    1.93
  -2  14   2   84.87    1.99
  -2  14  -2   84.41    2.00
   2 -14   2   85.41    1.93
   2  14  -2   87.83    1.99
  -6  -8   2   98.34    2.10
   6   8  -2  100.05    2.19
  -6   8  -2   98.21    2.26
   6  -8  -2   97.61    2.18
  -6  -8   2   99.77    2.16
   6   8   2   92.92    2.19
   6  -8   2   93.93    2.18
  -6  -8  -2   99.92    2.11
  -6   8   2   92.60    2.26
  -6   8   2   99.20    2.16
  -6  -8  -2   96.89    2.16
  -1  11   5   92.39    2.02
   1 -11  -5   94.23    2.05
   1  11   5   93.14    2.08
   1 -11   5   95.08    2.01
  -1  11  -5   88.36    2.15
   1  11   5   92.36    2.03
  -1 -11  -5   94.56    2.05
   1  11  -5   90.37    2.15
  -1 -11   5   91.52    2.01
  -7  -5  -1  105.62    2.36
  -7   5   1  106.87    2.47
   7  -5  -1  106.04    2.38
  -7   5  -1  109.23    2.46
  -7  -5   1  107.05    2.36
   7   5  -1  109.19    2.39
  -7   5   1  106.49    2.36
   7  -5   1  102.88    2.39
   7   5   1  107.27    2.39
  -7   5  -1  104.08    2.35
   2   8   6   78.70    1.81
  -2   8   6   81.37    1.86
   2  -8   6   82.75    1.79
  -2  -8   6   84.19    1.80
  -2   8  -6   83.16    1.92
  -2  -8  -6   81.15    1.84
   2   8  -6   80.21    1.92
   2  -8  -6   83.45    1.90
  -2   8   6   84.68    1.80
  -6  -4  -4  112.64    2.43
  -6   4  -4  110.64    2.41
  -6  -4   4  109.02    2.42
   6  -4   4  108.01    2.44
  -6   4   4  109.03    2.43
   6   4  -4  106.71    2.52
   6   4   4  106.33    2.45
   6  -4  -4  110.56    2.53
  -1 -15   1   74.60    1.63
  -4 -10   4   71.47    1.60
  -1  15   1   72.63    1.73
  -1 -15  -1   74.11    1.63
   1  15  -1   73.13    1.70
   1 -15   1   77.54    1.63
  -1  15  -1   74.54    1.74
  -1  15  -1   74.67    1.70
  -1  15   1   72.31    1.69
   4  10   4   72.56    1.67
  -4 -10  -4   73.72    1.64
   4 -10   4   73.78    1.65
   1  15   1   72.52    1.70
   4  10   4   71.40    1.62
  -4  10  -4   74.10    1.72
   4  10  -4   74.73    1.71
  -4  10   4   72.31    1.64
   1  15  -1   77.52    1.74
   1 -15  -1   74.13    1.62
   4   4   6  118.74    2.56
  -5  -5   5  163.62    3.52
   5  -5  -5  159.97    3.67
  -4  -4  -6  113.82    2.61
  -5  -5  -5  153.13    3.52
   4   4  -6  114.68    2.71
  -5   5   5  157.57    3.53
  -4  -4   6  120.23    2.54
   4  -4  -6  118.89    2.71
   4  -4   6  120.55    2.54
   5   5   5  161.04    3.56
  -4   4  -6  121.16    2.60
  -4  -4   6  116.42    2.61
  -5   5  -5  161.99    3.51
  -5  -5   5  159.32    3.42
   4   4   6  117.47    2.62
   5   5   5  162.23    3.45
  -4   4   6  114.82    2.62
   5   5  -5  159.35    3.67
   5  -5   5  163.30    3.55
   0  14   3   22.35    0.57
   0 -14   3   22.88    0.55
   0  14  -3   22.81    0.59
   0  14  -3   23.44    0.57
   0 -14  -3   22.90    0.54
   1   5  -7  106.44    2.46
  -1  -5   7  105.41    2.31
   1  -5   7  105.19    2.31
   1  -5  -7  107.73    2.37
  -1   5  -7  106.34    2.35
   1   5  -7  108.61    2.35
   1   5   7  104.46    2.32
  -1  -5  -7  105.72    2.37
  -1   5  -7  106.91    2.46
  -1   5   7  107.15    2.32
  -4  -8  -5   28.95    0.72
  -4  -8   5   29.66    0.69
   4   8   5   31.47    0.73
  -4   8   5   31.23    0.73
  -4   8  -5   31.06    0.76
   4   8   5   30.17    0.72
   4  -8  -5   30.26    0.75
   4  -8   5   31.20    0.72
   4   8  -5   28.88    0.75
  -1   9   6   43.88    0.99
   1   9  -6   42.76    1.05
  -1  -9  -6   44.32    1.00
  -1  -9   6   42.61    0.97
   1  -9  -6   43.48    1.00
  -1   9  -6   42.16    1.05
   1   9   6   43.18    0.99
   1  -9   6   43.79    0.98
   3   7  -6   25.15    0.65
  -3  -7   6   25.22    0.60
  -3   7  -6   27.01    0.65
  -3   7   6   25.11    0.63
  -3   7   6   26.07    0.60
  -3  -7  -6   25.09    0.62
   3  -7   6   25.29    0.60
   3  -7  -6   25.14    0.64
   3   7   6   25.15    0.61
  -2  -4   7   37.13    0.87
   2   4  -7   36.74    0.90
  -2   4  -7   36.85    0.89
   2   4   7   35.80    0.85
  -2   4   7   36.20    0.88
  -2  -4  -7   35.80    0.86
  -2  -4   7   36.39    0.84
  -2   4   7   36.61    0.84
   2  -4  -7   37.93    0.89
   2  -4   7   36.63    0.84
  -2   4  -7   37.21    0.85
   1  13   4   15.91    0.43
   1 -13  -4   16.12    0.40
  -1 -13  -4   15.90    0.41
   1 -13   4   17.07    0.42
  -1  13   4   16.76    0.42
  -1 -13   4   16.31    0.41
   1  13  -4   16.07    0.45
   1 -13   4   16.91    0.41
  -1  13  -4   15.81    0.45
  -5 -11   2   42.95    0.99
   5 -11  -2   43.78    1.02
   5 -11   2   43.24    1.03
   5  11  -2   44.51    1.03
  -5  11  -2   44.37    1.08
  -5  11   2   42.77    1.07
  -5 -11  -2   45.04    1.01
   5  11   2   43.85    1.04
  -5 -11  -2   45.40    0.99
   7  -1  -3  156.25    3.54
   7   1   3  154.38    3.44
   7  -1   3  153.61    3.44
  -7   1  -3  154.53    3.40
  -7   1   3  152.51    3.40
  -7  -1  -3  153.84    3.40
  -7  -1   3  151.15    3.40
   7   1  -3  157.99    3.53
   0  -6  -7   35.92    0.85
   0  -6   7   35.60    0.83
   0   6  -7   36.60    0.89
   0   6   7   36.15    0.84
   3 -13  -3  112.54    2.55
  -3 -13   3  114.89    2.47
   3 -13   3  114.56    2.55
   3  13  -3  114.33    2.63
  -3  13  -3  109.56    2.64
  -3  13   3  112.64    2.64
   3  13  -3  115.77    2.56
   3  13   3  116.51    2.57
  -3 -13  -3  115.53    2.47
  -3  -1  -7  154.08    3.40
   3   1  -7  156.19    3.54
  -3  -1   7  156.20    3.32
   3  -1  -7  153.36    3.54
  -3   1   7  155.02    3.32
  -3  -1   7  147.75    3.41
  -3   1  -7  154.69    3.39
   3  -1   7  152.58    3.32
   3   1   7  158.41    3.33
  -3   1   7  154.28    3.42
  -7  -5   2   37.36    0.87
   7  -5  -2   37.68    0.92
   7   5   2   35.95    0.89
  -7   5   2   37.64    0.88
   7   5  -2   38.07    0.90
  -7   5  -2   36.70    0.87
   7  -5   2   37.40    0.89
   7  -5  -2   38.36    0.88
  -7  -5  -2   37.06    0.88
  -7   5  -2   37.23    0.91
   7   5  -2   38.07    0.88
   1  15  -2   18.35    0.48
  -1  15  -2   18.21    0.49
   1 -15  -2   17.71    0.45
   1 -15   2   18.89    0.45
  -1  15   2   18.90    0.48
  -1 -15   2   18.70    0.46
   1  15  -2   18.98    0.49
  -1 -15  -2   18.95    0.46
   1  15   2   17.55    0.48
  -4 -12   3   24.42    0.58
  -4  12  -3   22.91    0.63
   4  12   3   24.88    0.61
  -4  12   3   23.52    0.62
   4 -12   3   23.78    0.59
  -4 -12  -3   24.18    0.58
   4  12  -3   24.93    0.61
   4  12  -3   24.37    0.60
   4 -12  -3   24.46    0.59
  -6 -10   0  105.85    2.32
  -6  10   0  102.90    2.44
   6  10   0  104.81    2.36
   6 -10   0  103.26    2.35
  -6 -10   0  106.54    2.27
   0  12   5   24.19    0.58
   0  12  -5   22.55    0.61
   0 -12  -5   24.16    0.57
   0 -12   5   23.78    0.57
   0  12   5   23.69    0.58
  -7  -3   3  138.55    3.09
   7  -3   3  140.69    3.13
  -7   3   3  136.41    3.09
  -7   3  -3  141.39    3.09
  -7  -3  -3  138.08    3.09
   7  -3  -3  141.68    3.22
   7   3   3  140.84    3.13
   7   3  -3  142.66    3.21
  -2 -14   3   23.59    0.57
  -2  14   3   24.09    0.59
  -2 -14  -3   23.60    0.57
   2  14  -3   23.82    0.61
   2 -14   3   23.69    0.59
   2 -14   3   24.32    0.56
   2  14   3   23.08    0.60
   2  14  -3   24.37    0.59
   2 -14  -3   23.11    0.55
  -2  14  -3   22.85    0.62
  -2  14   3   25.06    0.61
   6   8  -3   23.70    0.59
   6   8   3   21.95    0.58
  -6  -8   3   23.80    0.57
  -6   8  -3   24.04    0.61
  -6  -8  -3   23.98    0.58
  -6  -8  -3   23.60    0.55
   6  -8  -3   23.17    0.56
   6  -8   3   22.33    0.58
  -6   8   3   23.17    0.57
   0 -10   6   97.21    2.14
   0 -10  -6   99.81    2.19
   0  10   6   99.37    2.16
   0  10  -6   97.81    2.29
  -7  -7   0   35.57    0.84
   7  -7   0   35.09    0.85
   7   7   0   36.18    0.85
  -7   7   0   35.44    0.83
  -7   7   0   36.28    0.89
   5  -9  -4   24.84    0.64
  -5  -9  -4   25.11    0.61
   5  -9   4   24.84    0.61
   5   9   4   24.71    0.62
  -5   9  -4   25.28    0.64
  -5  -9   4   25.44    0.58
   5   9   4   24.71    0.60
  -5   9   4   25.15    0.61
   5   9  -4   23.91    0.63
   6  -6   4  111.43    2.57
   6   6   4  117.34    2.49
  -6  -6   4  116.46    2.54
  -6  -6  -4  112.13    2.55
  -6   6  -4  118.11    2.65
  -6   6  -4  116.18    2.53
  -6   6   4  115.05    2.55
   6  -6  -4  110.31    2.65
   6   6  -4  115.98    2.65
   3   3  -7  126.10    2.89
  -3   3   7  127.00    2.70
   3  -3   7  126.97    2.71
  -3  -3   7  124.34    2.78
  -3   3  -7  126.74    2.76
  -3  -3   7  122.22    2.70
   3   3   7  127.70    2.72
   3  -3  -7  123.78    2.88
  -3   3   7  123.53    2.79
  -3  -3  -7  121.68    2.77
  -6 -10  -1   36.25    0.82
   6  10   1   35.07    0.86
  -6  10  -1   34.71    0.89
   6 -10   1   35.87    0.85
  -6 -10   1   35.87    0.81
   6 -10  -1   36.09    0.85
  -6 -10  -1   36.56    0.83
  -6  10   1   35.47    0.89
   6  10  -1   35.72    0.85
  -4   6   6  112.17    2.60
   4   6  -6  115.40    2.70
   4   6   6  116.45    2.61
  -4  -6   6  117.56    2.59
   4  -6  -6  116.46    2.70
   4   6   6  116.03    2.54
  -4   6  -6  121.16    2.70
  -4  -6  -6  113.13    2.59
   4  -6   6  120.85    2.52
  -4  -6   6  117.70    2.52
  -6   0   5   36.48    0.87
  -6   0  -5   36.16    0.86
   6   0  -5   36.47    0.90
   6   0   5   37.42    0.87
   5  -1   6   43.22    0.97
   5   1   6   42.48    1.00
  -5  -1   6   42.51    1.01
   5   1   6   43.07    0.97
   5   1  -6   41.58    1.04
   5  -1   6   43.93    1.00
  -5  -1  -6   42.42    1.00
  -5   1   6   41.62    1.01
   5  -1  -6   43.55    1.04
  -5   1  -6   43.81    0.99
   7  -7  -1  101.90    2.26
   7   7  -1  100.70    2.27
  -7  -7   1  100.98    2.24
  -7   7   1   98.74    2.34
   7   7   1   99.16    2.27
  -7   7  -1  101.50    2.34
   7  -7   1   99.48    2.27
  -7   7   1   99.73    2.23
  -7   7  -1  101.03    2.23
  -7  -7  -1  103.17    2.24
   0  16   0   64.35    1.53
   0 -16   0   68.69    1.47
   0  16   0   66.56    1.56
   5  -7   5  147.57    3.26
   5   7  -5  143.46    3.36
   5  -7  -5  144.16    3.37
  -5   7  -5  148.88    3.37
   5   7   5  147.67    3.27
  -5  -7  -5  147.54    3.23
  -5  -7   5  145.84    3.14
   5   7   5  147.13    3.17
  -5   7   5  146.15    3.24
  -6   2  -5   51.16    1.16
   6  -2  -5   50.71    1.21
  -6  -2   5   50.24    1.17
  -6  -2  -5   50.91    1.16
   6   2  -5   49.87    1.21
   6  -2   5   51.95    1.17
  -6   2   5   49.81    1.17
   6   2   5   48.88    1.17
  -2   6  -7   24.58    0.62
   2   6  -7   24.39    0.63
  -2  -6  -7   24.53    0.60
  -2   6   7   23.84    0.62
  -2   6   7   24.63    0.58
   2  -6  -7   24.61    0.61
   2   6   7   23.54    0.59
  -2  -6   7   24.08    0.58
   2  -6   7   23.81    0.58
  -1   7   7   92.95    2.00
  -1   7  -7   93.26    2.13
  -1  -7   7   90.34    1.99
   1   7  -7   91.43    2.13
  -1  -7  -7   91.76    2.05
   1  -7  -7   90.91    2.05
   1  -7   7   90.59    1.99
   1   7   7   89.68    2.01
   0 -16  -1   19.94    0.48
   0  16  -1   19.00    0.50
   0 -16   1   19.46    0.48
   0  16   1   19.24    0.50
   0  16  -1   19.91    0.51
   4 -14   0   65.71    1.50
   4  14   0   66.54    1.51
  -4 -14   0   64.06    1.44
  -4  14   0   64.93    1.56
   5 -11  -3   37.04    0.86
  -5 -11  -3   37.34    0.84
  -5  11   3   35.84    0.86
  -5 -11  -3   36.39    0.85
  -3 -15   0   11.73    0.32
  -5  11   3   35.26    0.91
  -5  11  -3   35.87    0.91
   3  15   0   11.93    0.35
  -3  15   0   12.21    0.36
   5  11   3   35.52    0.88
   5 -11   3   36.46    0.87
  -5 -11   3   37.77    0.84
   5  11  -3   38.15    0.89
   3 -15   0   12.02    0.34
   0  14   4   62.08    1.41
   0 -14   4   60.98    1.36
   0  14  -4   59.65    1.45
  -3  11   5   48.21    1.13
   0 -14  -4   61.65    1.35
  -3  11  -5   47.56    1.18
  -3 -11  -5   49.79    1.12
   3  11   5   47.78    1.12
  -3 -11   5   49.11    1.10
   3 -11  -5   49.40    1.17
   0 -14   4   60.75    1.39
   3  11  -5   47.74    1.17
   3 -11   5   49.33    1.12
   3 -11   5   49.50    1.09
   3  11   5   48.70    1.14
   5   3   6   51.30    1.16
   5  -3   6   51.90    1.18
  -5  -3   6   52.70    1.19
  -5   3  -6   51.98    1.18
   5   3  -6   50.27    1.23
  -5  -3  -6   50.03    1.18
  -5   3   6   52.22    1.20
   5   3   6   50.75    1.19
   5  -3  -6   51.88    1.24
  -8   0   0   95.23    2.18
   8   0   0   99.96    2.20
   7  -5  -3  116.95    2.70
   7   5   3  114.11    2.63
  -7  -5   3  118.43    2.59
  -7   5  -3  120.05    2.58
   7   5  -3  117.89    2.69
   7  -5   3  113.79    2.62
  -7  -5  -3  117.62    2.60
  -7   5   3  115.93    2.60
   6 -10  -2   59.11    1.37
   6  10  -2   61.96    1.38
   6 -10   2   57.02    1.37
   2 -12  -5   24.40    0.58
  -6 -10  -2   61.64    1.32
   2  12   5   24.63    0.60
  -2  12  -5   22.36    0.62
  -6  10   2   56.98    1.43
   6  10   2   58.12    1.38
  -6  10   2   59.05    1.35
  -6 -10  -2   61.66    1.36
   2  12  -5   23.94    0.62
  -6  10  -2   60.26    1.43
   2 -12   5   24.30    0.57
  -2 -12   5   24.22    0.58
  -6 -10   2   61.11    1.32
  -2  12   5   24.42    0.58
   2  12   5   22.57    0.59
  -2 -12  -5   23.65    0.58
  -3  15  -1   56.18    1.32
   3 -15   1   53.75    1.26
   3 -15  -1   53.86    1.26
   4  14   1   18.85    0.50
  -4  14   1   19.41    0.52
   3  15   1   54.97    1.28
  -3 -15   1   53.30    1.22
  -4 -14   1   18.39    0.47
   4  14  -1   19.75    0.50
  -3 -15  -1   54.56    1.22
  -4  14  -1   19.69    0.52
   4 -14  -1   18.72    0.49
  -3  15   1   53.59    1.31
  -4 -14  -1   18.76    0.47
   3  15  -1   56.66    1.28
   4 -14   1   18.97    0.49
   1  15  -3   45.87    1.09
  -1  15   3   46.47    1.06
  -1 -15   3   43.66    1.02
   1 -15   3   44.43    1.05
   1 -15  -3   46.42    1.02
   1  15  -3   46.34    1.06
  -1  15  -3   43.40    1.09
   1 -15   3   45.69    1.02
  -1 -15  -3   45.04    1.02
   1  15   3   43.54    1.06
  -2 -10  -6   66.78    1.54
  -2 -10   6   68.65    1.51
   2 -10   6   66.89    1.50
   2  10   6   67.19    1.52
  -2  10   6   70.86    1.51
   2  10  -6   69.13    1.62
  -2  10  -6   67.32    1.61
   3   5   7  121.77    2.67
   3  -5  -7  121.53    2.83
  -3  -5  -7  120.10    2.73
   3   5  -7  123.27    2.84
  -3  -5   7  123.11    2.65
  -3  -5   7  123.23    2.73
   3  -5   7  124.17    2.66
  -3   5   7  125.46    2.65
  -3   5   7  121.11    2.74
  -7  -7  -2   26.62    0.64
  -7  -7   2   26.94    0.63
  -7   7   2   26.30    0.63
  -7   7  -2   25.07    0.62
   7  -7   2   24.46    0.64
  -7   7   2   26.14    0.68
   7   7  -2   26.72    0.64
   7   7   2   24.93    0.65
   7  -7  -2   26.46    0.63
  -7   7  -2   27.21    0.67
   8  -2   0   60.18    1.39
   8  -2   0   61.94    1.43
  -8  -2   0   60.64    1.38
  -8   2   0   58.89    1.38
   8   2   0   60.95    1.40
  -8   0  -1   25.73    0.63
   8   0   1   25.51    0.64
   8   0  -1   26.85    0.65
  -8   0   1   25.14    0.63
   8   0  -1   25.05    0.63
   0   0   8   80.75    1.79
   0   0  -8   82.09    1.83
  -3  -9  -6   28.28    0.70
   3  -9   6   29.53    0.68
   3   9  -6   29.33    0.74
   3  -9  -6   29.76    0.73
  -3  -9   6   29.69    0.68
  -3   9   6   28.48    0.72
  -3   9  -6   29.45    0.74
   3   9   6   28.74    0.70
  -6  -4  -5   46.90    1.10
   6   4   5   47.36    1.11
  -6   4  -5   47.17    1.09
   6  -4  -5   47.26    1.15
  -6  -4   5   47.98    1.10
  -6   4   5   47.19    1.11
   6   4  -5   47.70    1.14
   6  -4   5   47.34    1.10
   0   8  -7   41.38    1.01
   0  -8   7   40.02    0.94
   0  -8  -7   42.11    0.97
   0   8   7   42.15    0.96
   7  -1  -4   40.60    0.99
  -7   1  -4   41.85    0.95
  -7  -1   4   38.87    0.96
   7  -1   4   41.13    0.97
   7   1   4   40.05    0.97
  -7   1   4   39.97    0.96
  -7  -1  -4   41.70    0.96
   7   1  -4   41.76    1.00
   4 -10  -5   30.37    0.76
   4 -10   5   31.09    0.73
  -4  10   5   29.90    0.73
  -4 -10   5   31.20    0.71
  -4 -10  -5   29.45    0.72
   4  10   5   31.27    0.74
  -4  10  -5   30.67    0.77
   4  10   5   28.16    0.72
   4  10  -5   31.01    0.76
   4   0   7   29.82    0.68
  -4   0  -7   29.47    0.69
   4   0  -7   27.80    0.72
  -4   0   7   28.42    0.66
  -4   0   7   27.64    0.71
   5  13   0   26.90    0.67
  -5 -13   0   26.85    0.63
   5 -13   0   26.39    0.65
  -5  13   0   26.06    0.69
   2  16   0   31.80    0.77
  -2 -16   0   31.54    0.73
   2 -16   0   29.81    0.75
  -2  16   0   31.71    0.78
   8  -2  -1   42.46    0.99
  -8  -2   1   39.46    0.95
  -8   2  -1   39.49    0.95
   8   2   1   41.38    0.98
   8  -2  -1   41.74    0.96
   8   2  -1   43.45    0.97
  -8  -2  -1   40.85    0.96
   8  -2   1   40.64    0.97
  -8   2   1   38.71    0.95
   0  16   2   31.38    0.78
   0  16  -2   32.72    0.80
   0 -16   2   32.27    0.74
   0 -16  -2   31.86    0.74
   0  16  -2   31.49    0.77
   0   2  -8   68.46    1.49
   0  -2   8   63.30    1.46
   0   2   8   65.24    1.47
   0  -2  -8   64.30    1.50
   0   2  -8   67.55    1.55
   3  13  -4   17.87    0.49
   3 -13   4   18.58    0.47
  -3 -13  -4   17.33    0.45
  -3 -13   4   18.42    0.46
  -3  13   4   18.34    0.49
   3  13   4   18.53    0.48
  -3  13  -4   18.25    0.50
   3 -13  -4   18.43    0.46
  -1   1  -8   32.33    0.78
   1   1  -8   32.97    0.81
   1   1   8   31.58    0.77
   1  -1   8   32.74    0.77
   1   1  -8   33.69    0.78
  -1  -1   8   33.03    0.76
   1  -1  -8   33.36    0.81
  -1  -1  -8   32.11    0.78
   1  -1  -8   32.06    0.78
  -1   1   8   32.85    0.77
   4   2   7   48.95    1.10
   4   2  -7   47.27    1.17
  -4   2  -7   49.07    1.11
   4  -2  -7   47.83    1.17
  -4  -2  -7   48.53    1.12
  -4  -2   7   49.48    1.13
  -4   2   7   45.91    1.13
  -4  -2   7   49.26    1.08
   4  -2   7   48.49    1.09
  -5 -13   1   67.52    1.48
   1 -11  -6   24.73    0.61
   1 -11   6   24.67    0.59
  -5  13   1   64.88    1.59
   5 -13  -1   66.31    1.53
  -1  11   6   24.78    0.60
   5  13  -1   68.25    1.54
  -5  13  -1   65.85    1.59
  -1  11  -6   24.18    0.64
   1  11   6   25.25    0.61
   1  11  -6   26.02    0.65
  -1 -11   6   24.41    0.59
  -1 -11  -6   24.41    0.60
   5  13   1   65.86    1.54
  -5 -13  -1   69.06    1.48
   5 -13   1   65.08    1.53
   2 -16   1   17.34    0.45
   2  16   1   17.29    0.47
  -2 -16  -1   17.89    0.44
  -2  16   1   18.09    0.48
   2  16  -1   17.61    0.47
  -2  16  -1   17.17    0.48
  -2 -16   1   16.69    0.44
   4  12  -4   74.90    1.76
  -4  12   4   73.53    1.77
   4 -12   4   77.02    1.71
  -4 -12  -4   74.72    1.65
  -4 -12   4   78.00    1.65
  -4  12  -4   72.43    1.77
  -4 -12  -4   74.33    1.68
   4  12   4   74.35    1.72
   1 -13   5   67.90    1.48
  -1 -13   5   66.16    1.48
  -1  13  -5   65.70    1.59
   1  13  -5   65.05    1.58
  -1  13   5   67.67    1.49
   1  13   5   67.71    1.53
  -7   3   4   41.66    0.98
  -7  -3  -4   41.36    0.98
  -7  -3   4   40.93    0.98
   7  -3   4   42.76    0.99
   7   3  -4   41.83    1.01
   7   3   4   41.17    0.99
  -7   3  -4   40.72    0.97
   7  -3  -4   42.58    1.02
   4 -14   2   53.22    1.25
   4  14   2   53.39    1.26
  -4  14  -2   51.80    1.30
   4  14  -2   55.31    1.25
  -4  14   2   53.57    1.30
  -4 -14   2   54.55    1.21
   4 -14  -2   54.61    1.24
  -4 -14  -2   52.80    1.20
   3 -15   2   17.48    0.45
   3 -15  -2   16.98    0.45
   3  15   2   16.78    0.46
  -3 -15  -2   16.60    0.43
   3  15  -2   17.78    0.46
  -3  15   2   17.51    0.47
  -3 -15   2   15.81    0.43
  -3  15  -2   17.23    0.47
  -5   5  -6   40.13    0.91
   5  -5  -6   39.38    0.96
   5   5   6   39.60    0.91
  -5  -5   6   39.41    0.88
  -5  -5   6   40.43    0.93
  -5  -5  -6   37.56    0.92
   5   5   6   38.91    0.92
   5   5  -6   38.10    0.96
  -5   5   6   39.30    0.94
   2  14   4   50.47    1.20
   2  14  -4   50.22    1.22
  -2  14  -4   51.30    1.24
  -2  14   4   53.43    1.19
   2 -14   4   52.05    1.18
  -2 -14  -4   49.58    1.15
   2 -14   4   52.15    1.14
  -2 -14   4   48.19    1.14
  -6   8   4   95.08    2.14
   6  -8  -4   96.64    2.23
   6   8   4   92.78    2.16
   6   8  -4   96.12    2.21
  -6   8  -4   96.44    2.22
   6  -8   4   96.20    2.15
  -6  -8  -4   93.95    2.13
  -8  -4   0   60.46    1.42
   8  -4   0   64.27    1.43
  -8   4   0   61.98    1.47
  -8   4   0   61.72    1.41
   8   4   0   62.34    1.44
   8   0  -2  151.93    3.30
  -8   0   2  145.29    3.27
   8   0   2  148.16    3.31
  -8   0  -2  144.95    3.27
   8   0  -2  149.71    3.40
  -4   8   6   76.16    1.80
   4   8  -6   78.98    1.87
   4   8   6   80.27    1.80
  -4  -8  -6   77.58    1.79
   4   8   6   80.08    1.76
   4  -8  -6   79.91    1.86
  -4  -8   6   81.28    1.74
  -4   8  -6   80.94    1.87
   1  -3  -8   36.47    0.87
   1   3  -8   35.92    0.89
  -1  -3   8   34.76    0.84
   1  -3   8   36.76    0.84
  -1   3  -8   37.45    0.89
   1   3  -8   36.50    0.85
  -1   3   8   36.07    0.84
  -1   3  -8   36.80    0.85
  -1  -3  -8   37.01    0.87
   1   3   8   34.91    0.85
   7  -9   0   35.02    0.87
  -7   9   0   37.05    0.85
  -7   9   0   37.40    0.91
  -7  -9   0   37.12    0.86
   7   9   0   35.61    0.87
  -8  -4   1   36.84    0.88
  -8   4  -1   37.05    0.87
   8  -4  -1   37.16    0.88
   8  -4  -1   37.75    0.91
  -8  -4  -1   36.70    0.88
   8   4  -1   38.09    0.89
   8   4   1   38.67    0.90
  -8   4   1   36.04    0.87
  -8   4  -1   37.10    0.91
   8  -4   1   35.98    0.89
   0   4  -8   60.00    1.40
   0   4  -8   59.90    1.34
   0  -4   8   56.69    1.31
   0   4   8   58.75    1.32
   0  -4  -8   58.07    1.35
   8   2  -2  132.28    2.92
   8  -2  -2  133.31    3.01
   8  -2  -2  134.12    2.92
   8   2  -2  132.25    3.00
  -8   2   2  125.47    2.89
  -8   2  -2  131.21    2.89
   8  -2   2  128.10    2.93
   8   2   2  131.79    2.94
  -8  -2  -2  128.69    2.90
  -8  -2   2  129.74    2.90
   2   0   8  136.20    2.96
  -2   0   8  136.02    2.95
  -2   0  -8  135.85    3.02
   2   0  -8  137.48    3.14
   2   8  -7   28.67    0.74
  -2  -8  -7   28.94    0.70
   2  -8   7   28.27    0.68
  -2   8  -7   28.92    0.73
  -2  -8   7   29.35    0.68
  -2   8   7   29.80    0.69
   2   8   7   27.63    0.69
  -6  10   3   31.61    0.75
   6 -10  -3   31.65    0.75
  -6 -10   3   32.35    0.72
  -6 -10  -3   32.36    0.73
  -6  10   3   30.27    0.79
   6  10   3   30.28    0.77
   6 -10   3   30.18    0.76
  -6 -10  -3   30.97    0.75
  -6  10  -3   32.15    0.80
   7  -9  -1   69.19    1.56
  -7  -9   1   68.60    1.54
   7  -9   1   65.81    1.57
  -7  -9  -1   69.27    1.55
  -7   9  -1   69.85    1.63
  -7   9   1   69.72    1.54
   7   9  -1   69.33    1.57
   7   9   1   67.08    1.57
  -7   9   1   66.45    1.63
  -4  -4  -7   39.31    0.94
   4  -4  -7   39.92    0.98
   4   4   7   39.85    0.93
   4  -4   7   41.28    0.92
  -4  -4   7   39.76    0.91
  -4   4  -7   41.08    0.93
   4   4  -7   39.38    0.98
  -4   4   7   38.97    0.96
  -4  -4   7   39.73    0.95
   5  13   2   18.18    0.49
   5 -13  -2   17.84    0.47
  -5 -13  -2   19.11    0.46
  -5  13  -2   18.83    0.51
  -5  13   2   16.99    0.50
   5 -13   2   18.00    0.47
  -5 -13   2   18.20    0.46
   5  13  -2   17.82    0.48
   7  -7  -3  106.64    2.54
  -7  -7  -3  108.18    2.44
  -7  -7   3  110.98    2.43
  -7   7   3  112.41    2.44
  -7   7  -3  109.94    2.42
  -7   7  -3  115.39    2.54
   7  -7   3  104.43    2.46
   7   7  -3  111.09    2.53
   7   7   3  106.22    2.47
   2  16   2   48.08    1.17
   5   9   5  102.72    2.27
  -5  -9  -5  102.68    2.30
   5  -9   5  103.32    2.32
   5   9  -5  104.63    2.40
  -2  16  -2   49.28    1.20
  -2 -16   2   49.27    1.12
   2 -16   2   48.87    1.10
  -5   9  -5  105.60    2.41
   2 -16   2   49.60    1.16
   5  -9  -5  103.10    2.41
  -5  -9   5  104.47    2.24
  -2  16   2   47.67    1.16
  -2 -16  -2   49.42    1.12
   2  16  -2   51.48    1.16
  -2  16   2   50.67    1.19
  -5   9   5   98.72    2.31
   5   9   5  105.04    2.34
   2  16  -2   49.62    1.18
   2   2  -8  118.17    2.75
  -2   2   8  120.86    2.58
   2   2   8  118.72    2.59
  -2  -2  -8  121.03    2.65
  -2   2  -8  118.64    2.63
   2  -2   8  116.59    2.58
   2  -2  -8  118.12    2.74
  -2  -2   8  117.99    2.58
   6   6   5   33.08    0.77
   6   6   5   32.72    0.79
   6   6  -5   32.52    0.81
  -6  -6  -5   31.09    0.78
   6  -6  -5   32.88    0.82
  -6   6   5   32.96    0.79
  -6  -6   5   33.55    0.78
   6  -6   5   32.17    0.78
  -1  -9   7   60.91    1.41
   1   9  -7   62.97    1.51
  -1   9   7   62.81    1.42
  -1  -9  -7   65.16    1.45
   1  -9   7   63.52    1.41
   1   9   7   64.40    1.43
  -1   9  -7   64.48    1.51
   1  -9  -7   63.21    1.45
   5 -11   4   30.63    0.74
  -5 -11   4   31.95    0.72
   5  11  -4   30.95    0.77
  -5  11  -4   30.42    0.78
  -5  11   4   30.95    0.74
   5  11   4   30.71    0.76
  -5 -11  -4   29.91    0.72
  -5 -11  -4   29.84    0.73
   3  -7  -7  103.19    2.44
  -3   7  -7  107.48    2.45
   3  -7   7  105.18    2.29
   3   7  -7  106.57    2.45
  -3  -7  -7  104.83    2.35
  -3  -7   7  104.45    2.29
  -3   7   7  104.95    2.37
   3   7   7  104.74    2.31
   6 -12   0   69.61    1.60
  -6  12   0   67.58    1.67
  -6 -12   0   72.74    1.55
   6  12   0   69.74    1.61
  -1 -17   0   18.70    0.47
  -1  17   0   20.13    0.51
   1  17   0   18.38    0.50
   1 -17   0   18.94    0.47
  -1  17   0   18.50    0.50
   0  16   3   16.53    0.43
   0  16  -3   15.61    0.43
   0 -16  -3   16.30    0.41
   0  16  -3   15.40    0.44
   0 -16   3   15.82    0.41
   7   5  -4   39.81    0.96
  -7  -5  -4   38.20    0.92
  -7  -5   4   38.65    0.92
   7  -5  -4   38.98    0.96
  -7   5  -4   39.93    0.91
   7   5   4   38.21    0.93
  -7   5   4   38.50    0.92
   7  -5   4   39.20    0.93
   0 -12   6   67.86    1.48
   0  12   6   66.51    1.49
   0  12  -6   63.78    1.58
   0 -12  -6   67.19    1.50
   1 -15   4   16.64    0.43
   1  15   4   16.82    0.45
  -1  15   4   16.37    0.44
   1 -15   4   17.10    0.42
   1 -15  -4   15.66    0.41
   1  15  -4   15.95    0.46
  -1  15  -4   16.31    0.46
  -1 -15  -4   16.79    0.42
  -1 -15   4   15.96    0.42
   6  12   1   24.32    0.63
   6  12  -1   25.67    0.63
   6 -12   1   23.64    0.62
  -6  12   1   24.52    0.65
  -6 -12  -1   25.92    0.59
  -6 -12   1   24.78    0.59
  -6  12  -1   24.42    0.65
   6 -12  -1   23.92    0.61
  -8   4  -2  110.11    2.41
   8  -4  -2  109.51    2.52
   8   4   2  106.72    2.45
  -8   4   2  104.27    2.41
   8  -4  -2  111.11    2.44
  -8  -4  -2  108.81    2.42
   8  -4   2  104.94    2.45
  -8  -4   2  108.50    2.42
   8   4  -2  112.69    2.44
  -1 -17  -1   31.67    0.73
  -1  17   1   30.67    0.77
  -1  17  -1   31.93    0.79
   1  17  -1   30.03    0.76
  -1  17  -1   30.27    0.76
   1 -17   1   32.47    0.73
   1  17   1   30.80    0.77
  -1 -17   1   30.51    0.73
   1 -17  -1   31.77    0.72
  -1  -5  -8   29.87    0.72
   1   5  -8   30.19    0.75
   1  -5   8   28.38    0.70
   1  -5  -8   28.57    0.72
  -1  -5   8   29.16    0.70
  -1   5  -8   30.32    0.75
  -1   5   8   30.00    0.71
   1   5   8   29.07    0.71
  -3  15   3   57.86    1.37
  -3  15  -3   55.85    1.37
   3  15  -3   58.45    1.36
   3  15   3   55.95    1.34
   3 -15   3   58.35    1.32
   3  15  -3   57.76    1.32
  -3 -15   3   55.51    1.28
   4  14   3   19.86    0.53
  -4 -14   3   19.37    0.50
   4 -14   3   19.89    0.52
  -4  14   3   21.76    0.55
  -3 -15  -3   55.62    1.28
  -4  14  -3   20.20    0.55
  -4 -14  -3   19.94    0.50
   4 -14  -3   20.45    0.51
   3 -15  -3   57.06    1.31
   6   0   6  120.43    2.72
  -6   0  -6  119.53    2.69
   6   0  -6  122.28    2.81
  -6   0   6  122.56    2.71
   7  -9  -2   21.96    0.55
  -7   9   2   22.15    0.55
   7   9   2   20.95    0.56
   7   9  -2   22.64    0.56
   7  -9   2   21.86    0.56
  -7   9  -2   22.40    0.59
  -7  -9  -2   21.88    0.55
  -8   6   0   67.04    1.54
   8   6   0   68.31    1.57
  -8  -6   0   69.09    1.55
   8  -6   0   68.35    1.57
  -8   6   0   68.38    1.62
   0 -14   5   18.92    0.47
   0  14  -5   18.58    0.51
   0  14   5   18.75    0.49
   2  -4   8  101.36    2.27
  -2   4   8  108.64    2.27
  -2  -4  -8  100.92    2.32
   2  -4  -8  101.21    2.32
  -2   4  -8  105.33    2.31
   2   4   8  102.78    2.28
   2   4  -8  104.63    2.42
   2   4  -8  104.91    2.31
  -2  -4   8  104.00    2.26
  -8   0  -3   38.24    0.90
   8   0   3   36.97    0.91
   8   0  -3   39.04    0.93
  -8   0   3   36.53    0.90
   5   7  -6   29.95    0.77
   5   7   6   29.27    0.74
  -5  -7  -6   30.84    0.74
   5  -7  -6   30.72    0.77
   5   7   6   30.01    0.73
  -5   7   6   30.80    0.75
  -5  -7   6   30.60    0.70
   6  -2   6   86.34    1.95
  -6  -2  -6   85.86    1.94
   6   2  -6   85.68    2.02
  -6   2   6   84.52    1.95
   6   2   6   84.90    1.95
  -6  -2   6   87.70    1.95
  -6   2  -6   87.15    1.93
   6  -2  -6   86.23    2.02
  -8   6  -1   23.28    0.58
  -8   6   1   24.10    0.63
  -8  -6  -1   23.36    0.59
   8   6  -1   23.73    0.60
  -8   6  -1   24.33    0.62
   8  -6  -1   23.65    0.59
  -8   6   1   23.40    0.59
  -8  -6   1   23.82    0.59
   8   6   1   23.70    0.61
   8  -6   1   23.78    0.60
   0  -6   8   57.79    1.35
   0   6  -8   62.26    1.44
   0  -6  -8   59.02    1.39
   0   6   8   62.35    1.36
   0 -10  -7   26.99    0.65
   0  10   7   27.15    0.65
   0 -10   7   24.91    0.63
   0  10  -7   25.97    0.68
  -8   2  -3   34.84    0.86
  -8  -2  -3   35.50    0.86
   8   2   3   35.54    0.88
  -8  -2   3   36.65    0.86
   8   2  -3   37.30    0.89
   8  -2  -3   36.95    0.90
   8  -2   3   36.00    0.88
  -8   2   3   36.18    0.86
  -3  -1   8   35.19    0.83
   3   1   8   36.51    0.85
   3  -1  -8   35.41    0.89
   3   1  -8   36.07    0.90
  -3  -1  -8   35.09    0.86
   3  -1   8   37.17    0.85
  -3   1  -8   36.44    0.86
  -3   1   8   36.64    0.89
  -3  -1   8   36.06    0.88
  -3   1   8   36.46    0.84
   4  -6  -7   26.92    0.68
   4   6   7   27.08    0.65
   4   6  -7   26.02    0.68
  -4   6   7   25.16    0.67
   4  -6   7   26.98    0.63
  -4  -6   7   27.24    0.63
  -4  -6  -7   26.35    0.66
   7   1  -5   70.59    1.72
   7   1   5   71.85    1.68
   7  -1   5   72.42    1.67
  -7   1   5   73.07    1.67
   7  -1  -5   73.88    1.73
  -7   1  -5   75.00    1.66
  -7  -1   5   73.52    1.67
  -7  -1  -5   73.64    1.66
  -3  11   6   16.72    0.46
   3  11   6   16.52    0.46
   6  12  -2   54.24    1.22
   6 -12  -2   52.82    1.21
   6 -12   2   50.32    1.21
  -6 -12  -2   54.06    1.17
  -3  11  -6   16.68    0.47
   3  11  -6   16.93    0.47
  -3 -11  -6   16.95    0.44
   3 -11   6   17.76    0.43
  -6  12  -2   51.69    1.27
  -3 -11   6   16.90    0.44
  -6  12   2   50.88    1.27
  -6 -12   2   51.53    1.17
   6  12   2   50.31    1.23
   1  17  -2   17.51    0.48
  -1  17   2   17.84    0.48
  -1 -17  -2   17.76    0.45
   1  17  -2   18.16    0.48
  -1  17  -2   18.14    0.49
  -1 -17   2   17.54    0.46
   1 -17   2   18.58    0.45
   1  17   2   17.95    0.48
   1 -17  -2   18.11    0.45
   5 -13  -3   49.19    1.12
  -5 -13  -3   48.86    1.09
   5  13   3   47.48    1.14
   5 -13   3   48.16    1.13
  -5  13   3   47.06    1.17
  -5  13  -3   45.92    1.17
  -5 -13   3   49.00    1.09
   5  -1   7   72.63    1.57
  -5  -1  -7   71.53    1.61
   5   1   7   71.56    1.58
  -5   1   7   69.97    1.63
   5  -1  -7   70.31    1.68
   5   1  -7   69.48    1.68
  -5  -1   7   70.61    1.63
  -5   1  -7   70.52    1.60
  -2 -16  -3   15.99    0.44
  -2  16  -3   16.96    0.48
   2 -16   3   17.23    0.45
   2  16   3   16.69    0.47
   2 -16   3   17.61    0.43
  -2  16   3   17.10    0.46
  -2 -16   3   17.51    0.45
   2  16  -3   17.90    0.46
   2  16  -3   17.70    0.47
   3 -13   5   38.17    0.89
  -3 -13   5   37.44    0.87
   3  13   5   37.89    0.91
  -3  13  -5   34.76    0.93
   3  13  -5   39.48    0.94
  -2 -12   6   46.46    1.05
   2 -12   6   46.81    1.05
  -2  12  -6   43.49    1.13
   2 -12  -6   47.19    1.07
  -2 -12  -6   46.89    1.07
   2  12   6   45.50    1.07
  -2  12   6   46.85    1.06
   2  12  -6   46.78    1.14
   4  12  -5   17.17    0.48
  -3   3   8   38.88    0.95
   3   3   8   39.51    0.92
  -3  -3  -8   37.93    0.93
  -4  12   5   18.34    0.47
  -3   3   8   39.98    0.90
  -4  12  -5   17.28    0.48
  -3  -3   8   39.78    0.94
  -3   3  -8   39.90    0.92
   4  12   5   16.53    0.46
   4 -12   5   17.37    0.45
   3  -3   8   39.22    0.91
  -4 -12  -5   17.11    0.45
   3  -3  -8   38.35    0.96
  -3  -3   8   38.69    0.90
   4 -12  -5   16.91    0.47
   3   3  -8   39.19    0.97
  -4 -12   5   17.38    0.44
  -6 -10   4   56.00    1.21
  -6 -10  -4   54.65    1.25
   6  10  -4   57.12    1.30
   6 -10   4   54.69    1.26
  -6 -10  -4   54.60    1.22
   6  10   4   51.71    1.27
   6 -10  -4   53.11    1.31
  -6  10   4   53.30    1.25
  -6  10  -4   53.71    1.31
   6  -4  -6   84.05    1.98
  -6   4  -6   86.26    1.88
  -6  -4   6   84.49    1.90
  -6   4   6   82.85    1.90
  -6  -4  -6   80.45    1.89
   6   4   6   84.28    1.91
   6  -4   6   86.02    1.90
   6   4  -6   81.60    1.97
  -7  -3   5   61.04    1.40
   7  -3   5   61.29    1.41
   7  -3  -5   61.62    1.46
  -7   3   5   61.87    1.41
  -7   3  -5   60.81    1.39
   7   3   5   61.82    1.41
   7   3  -5   59.17    1.45
  -7  -3  -5   58.98    1.40
   8   6   2  106.70    2.45
  -8  -6  -2  111.44    2.42
  -8  -6   2  108.67    2.41
  -8   6   2  107.37    2.41
   8  -6  -2  109.81    2.43
  -8   6  -2  107.58    2.40
   8  -6   2  103.41    2.44
   8  -6  -2  108.60    2.51
  -4 -10   6   65.29    1.44
  -4  10   6   65.20    1.50
  -4 -10  -6   64.36    1.48
  -4  10  -6   64.20    1.55
   4  10   6   65.82    1.50
   4  10  -6   65.15    1.55
   4  10   6   62.92    1.46
   4 -10  -6   66.08    1.54
   2  14  -5   18.09    0.49
   2 -14   5   17.37    0.44
  -2 -14   5   17.97    0.45
  -2 -14  -5   17.53    0.45
   2  14   5   17.31    0.47
  -2  14  -5   16.90    0.49
   6   8   5   29.60    0.71
  -6   8   5   28.97    0.72
   6  -8   5   29.72    0.72
   6  -8  -5   28.32    0.75
   6   8   5   30.07    0.73
   6   8  -5   29.43    0.74
  -6  -8  -5   28.90    0.72
   8   4   3   41.18    1.00
   5   3   7   57.14    1.27
   5   3  -7   56.90    1.35
  -5   3  -7   54.82    1.28
   5  -3  -7   55.54    1.35
   8   4  -3   42.80    1.01
  -5   3   7   55.70    1.31
  -5  -3  -7   55.25    1.29
  -5  -3   7   56.31    1.30
  -8  -4   3   40.71    0.98
  -8   4   3   41.72    0.98
   8  -4   3   41.51    0.99
  -8   4  -3   42.11    0.97
  -8  -4  -3   39.94    0.98
   8  -4  -3   41.95    1.02
  -7  -7   4   28.50    0.67
  -7  -7  -4   27.12    0.68
  -7   7   4   27.55    0.68
   7  -7  -4   26.09    0.70
   7   7  -4   27.65    0.69
   7  -7   4   26.81    0.68
   7   7   4   27.71    0.69
  -7   9   3   88.41    1.96
   7   9   3   84.74    1.99
  -7   9  -3   90.01    2.05
   7  -9   3   85.09    1.98
   7  -9  -3   85.72    2.04
  -7  -9  -3   87.40    1.96
  -2   6  -8  104.52    2.35
   2   6   8  100.90    2.22
  -2   6   8  102.57    2.21
  -2  -6  -8  102.49    2.27
   2  -6   8  100.93    2.20
   2   6  -8   99.33    2.35
  -2  -6   8   98.28    2.20
   2  -6  -8   96.65    2.26
  -4  16   0   37.27    0.95
  -1   7  -8   23.95    0.61
   1  -7   8   22.90    0.57
  -1  -7   8   23.32    0.57
  -4 -16   0   38.99    0.88
   4 -16   0   37.07    0.91
   1   7   8   22.80    0.58
   1  -7  -8   23.29    0.59
  -1  -7  -8   22.55    0.59
   4  16   0   37.43    0.92
  -1   7   8   23.34    0.58
   1   7  -8   24.14    0.62
   2  10  -7   18.46    0.51
   2 -10  -7   18.16    0.48
  -2  10   7   19.37    0.48
  -2  10  -7   18.06    0.51
   2  10   7   18.32    0.49
  -2 -10  -7   19.06    0.49
   2 -10   7   18.64    0.47
  -2 -10   7   18.20    0.47
   0 -16   4   36.96    0.86
   0  16   4   35.32    0.87
   0 -16  -4   35.19    0.83
   0 -16   4   36.26    0.84
   0  16  -4   36.49    0.91
   7 -11   0   25.30    0.62
   7  11   0   23.98    0.62
  -7  11   0   23.52    0.65
   0  18   0   38.86    0.95
   0 -18   0   39.98    0.91
  -3  -9  -7   75.57    1.68
  -3   9  -7   74.12    1.75
   3   9   7   74.13    1.66
   3  -9   7   74.56    1.63
  -3   9   7   70.94    1.70
   3   9  -7   74.08    1.76
  -3  -9   7   74.15    1.64
   1 -13   6   25.19    0.59
  -1  13   6   23.57    0.59
   1  13   6   23.96    0.61
  -1 -13   6   23.84    0.59
  -1 -13  -6   24.89    0.60
  -1  13  -6   23.11    0.64
   1  13  -6   23.66    0.64
   3 -17   0   14.29    0.40
  -3  17   0   14.55    0.42
  -3 -17   0   15.43    0.40
   3  17   0   14.49    0.42
  -4  16  -1   14.43    0.43
   4  16  -1   14.75    0.41
   4 -16  -1   14.13    0.40
  -4  16   1   15.35    0.43
   4 -16   1   13.90    0.40
   4  16   1   14.27    0.42
  -4 -16  -1   14.51    0.39
  -4 -16   1   13.47    0.38
  -7  11   1   50.18    1.22
   7  11  -1   50.53    1.17
   7 -11  -1   50.23    1.17
   7  11   1   47.48    1.18
   7 -11   1   48.94    1.17
  -7  11  -1   50.90    1.22
   0 -18   1   12.55    0.35
   0  18  -1   12.98    0.37
   0  18   1   12.28    0.37
   0 -18  -1   12.34    0.34
   0  18  -1   13.02    0.37
  -5  15   0   12.79    0.38
   5 -15   0   11.96    0.36
  -5 -15   0   12.21    0.34
   5  15   0   12.14    0.37
   8  -8   0   44.67    1.07
  -8   8   0   46.11    1.12
   8   8   0   46.48    1.08
  -8  -8   0   44.81    1.06
  -8   8   0   44.66    1.05
  -3  15  -4   14.90    0.46
  -5  11  -5   74.15    1.73
   3  15   4   16.76    0.45
   4  14  -4   46.06    1.10
   4 -14   4   47.57    1.07
  -4 -14   4   43.65    1.03
   5  11   5   71.23    1.68
  -4  14   4   44.34    1.11
  -3 -15   4   16.55    0.43
   5 -11  -5   70.43    1.72
  -4  14  -4   43.03    1.11
  -3 -15  -4   16.36    0.42
  -5  11   5   72.89    1.66
   3 -15  -4   15.58    0.42
  -5 -11   5   74.58    1.61
   4  14   4   46.52    1.09
   3  15  -4   16.06    0.45
   5 -11   5   72.00    1.66
   5  11  -5   73.80    1.72
   3 -15   4   16.22    0.43
  -4 -14  -4   45.87    1.04
  -5 -11  -5   72.61    1.65
  -3 -17   1   22.24    0.58
   3  17   1   24.42    0.62
   3 -17  -1   23.49    0.60
  -3  17   1   23.64    0.63
  -3  17  -1   24.04    0.63
   3  17  -1   24.51    0.61
   3 -17   1   23.15    0.60
  -3 -17  -1   23.51    0.58
   6  12   3   13.88    0.41
   6 -12  -3   14.99    0.39
  -6 -12   3   14.70    0.38
   6 -12   3   14.31    0.40
  -6 -12  -3   15.03    0.39
  -6  12  -3   14.13    0.43
  -6  12   3   13.95    0.42
   1  17  -3   22.33    0.57
   1  17   3   22.28    0.58
  -1 -17   3   21.99    0.55
  -1  17   3   22.55    0.58
  -1 -17  -3   22.59    0.55
   1 -17   3   22.55    0.56
   1 -17   3   21.85    0.54
   1  17  -3   21.78    0.59
  -1  17  -3   21.12    0.59
   1 -17  -3   22.49    0.54
   1 -11   7   53.14    1.19
  -3  -5   8   32.80    0.76
  -1  11   7   53.21    1.20
   1 -11  -7   50.91    1.21
  -3   5   8   33.33    0.77
   1  11   7   50.15    1.20
   3  -5  -8   31.76    0.81
   3  -5   8   32.31    0.76
  -1 -11   7   53.78    1.19
  -1  11  -7   52.69    1.28
  -1 -11  -7   52.39    1.21
  -3  -5  -8   31.78    0.79
   3   5   8   32.34    0.78
   3   5  -8   33.01    0.83
  -3   5   8   32.41    0.82
   1  11  -7   52.68    1.28
  -8   0  -4   79.96    1.83
  -8   0   4   79.36    1.84
   8   0  -4   83.79    1.91
   8   0   4   80.23    1.86
   5 -15  -1   48.77    1.17
  -5 -15   1   51.84    1.14
  -7  -5  -5   57.27    1.32
  -7   5  -5   55.88    1.30
  -7  -5   5   57.75    1.31
  -7   5   5   56.92    1.32
   5  15   1   49.87    1.19
  -5  15   1   48.78    1.22
   7  -5   5   55.34    1.32
   5 -15   1   50.48    1.18
   7   5  -5   57.44    1.36
  -5  15  -1   48.76    1.23
  -5 -15  -1   50.68    1.13
   5  15  -1   49.98    1.19
   7  -5  -5   54.81    1.37
   7   5   5   58.42    1.33
   8  -8   1   23.61    0.62
   8   8   1   24.52    0.63
  -8  -8   1   24.92    0.61
  -8   8   1   24.29    0.61
  -8   8  -1   24.78    0.65
  -8   8  -1   24.50    0.60
   8  -8  -1   24.50    0.62
  -8   8   1   25.04    0.65
  -8  -8  -1   24.96    0.62
   8   8  -1   24.56    0.62
   0  -8  -8   43.97    1.07
   0   8   8   44.99    1.05
   0  -8   8   45.72    1.04
   0   8  -8   46.29    1.11
  -1 -15  -5   48.30    1.10
  -5  -5  -7   56.34    1.33
  -1  15  -5   46.65    1.18
   1  15  -5   49.31    1.19
  -5   5   7   57.97    1.35
   5   5  -7   55.83    1.38
   1 -15   5   48.44    1.10
   5  -5  -7   56.34    1.38
   1 -15  -5   49.15    1.10
   1  15   5   48.55    1.14
   5   5   7   59.73    1.31
  -5  -5   7   58.86    1.33
  -1 -15   5   48.78    1.11
   4   0   8   81.87    1.78
  -4   0   8   77.66    1.83
   4   0  -8   80.51    1.89
  -4   0  -8   79.26    1.81
   5  -9  -6   30.77    0.79
  -5  -9   6   31.12    0.72
   5   9   6   30.54    0.76
  -5   9  -6   32.24    0.79
   5   9   6   30.95    0.75
  -5  -9  -6   30.04    0.75
  -5   9   6   30.37    0.76
   5   9  -6   30.44    0.79
  -9  -1   0   20.56    0.54
   8  -2  -4   75.48    1.78
   8   2   4   75.62    1.74
  -8  -2  -4   75.96    1.72
  -8   2  -4   75.93    1.71
   9   1   0   21.77    0.55
  -8   2   4   75.30    1.72
   9  -1   0   21.61    0.55
  -9   1   0   20.31    0.54
  -8  -2   4   75.23    1.72
   8  -2   4   74.73    1.73
   8   2  -4   74.06    1.78
  -4  -8  -7   29.46    0.73
  -4  -8   7   29.40    0.70
   6  -6   6   83.69    1.88
   6  -6  -6   83.81    1.96
  -6  -6  -6   79.98    1.87
   4  -8  -7   31.07    0.76
   6   6   6   82.54    1.83
  -6   6   6   84.08    1.89
   4   8  -7   29.19    0.76
   6   6   6   82.82    1.89
   6   6  -6   82.34    1.95
   4   8   7   29.78    0.73
  -4   8   7   29.00    0.75
  -8  -6   3   28.45    0.71
   8  -6   3   28.97    0.72
  -8   6   3   29.05    0.71
   8   6   3   28.92    0.73
  -8   6  -3   29.16    0.70
  -8  -6  -3   28.26    0.71
   8  -6  -3   29.21    0.74
  -4 -16   2   31.23    0.74
  -4  16   2   31.37    0.80
  -4  16  -2   31.80    0.81
   4  16   2   30.34    0.78
   4 -16  -2   30.64    0.76
  -4 -16  -2   30.49    0.74
   4 -16   2   31.01    0.77
   4  16  -2   32.43    0.78
  -4  -2  -8   69.15    1.57
   4   2   8   69.24    1.54
  -4  -2   8   69.16    1.52
  -4  -2   8   67.99    1.58
  -4   2  -8   70.20    1.56
  -4   2   8   66.06    1.59
   4   2  -8   66.76    1.63
   4  -2   8   69.72    1.53
   4  -2  -8   68.03    1.63
  -5 -13  -4   11.95    0.34
   5 -13   4   12.52    0.35
  -5  13  -4   12.18    0.38
   5  13   4   12.14    0.37
  -5  13   4   12.06    0.38
   5  13  -4   12.93    0.37
  -5 -13   4   12.16    0.34
  -2 -16  -4   30.02    0.72
   9   1  -1   85.72    1.95
  -2  16  -4   29.77    0.79
  -2 -16   4   29.51    0.73
   2 -16   4   31.07    0.72
  -2  16   4   30.81    0.75
   9  -1   1   84.31    1.96
   2  16  -4   30.44    0.78
  -9   1   1   84.20    1.93
   2  16   4   31.17    0.76
  -9  -1   1   82.37    1.93
   2 -16   4   30.97    0.75
  -9   1  -1   85.91    1.93
  -9  -1  -1   86.46    1.93
   9  -1  -1   88.26    1.95
   9   1   1   86.84    1.96
  -7  11  -2   24.37    0.65
  -7 -11  -2   24.94    0.60
   7  11  -2   24.62    0.62
   7 -11   2   23.68    0.61
  -7  11   2   23.94    0.65
   7  11   2   22.92    0.62
   7 -11  -2   24.20    0.60
   0   0   9   20.92    0.54
   0   0  -9   21.64    0.55
  -2 -18   0   20.74    0.52
  -2  18   0   19.96    0.55
   2 -18   0   19.73    0.53
   2  18   0   20.54    0.54
   0  18  -2   19.30    0.51
   0 -18  -2   19.17    0.48
   0  18  -2   19.22    0.53
   0 -18   2   20.22    0.49
   0  18   2   18.50    0.51
   3  17  -2   16.47    0.46
   3 -17   2   16.42    0.46
  -3  17   2   17.32    0.48
  -3 -17   2   17.20    0.45
   3 -17  -2   16.63    0.45
  -3 -17  -2   17.36    0.45
  -3  17  -2   16.56    0.48
   3  17   2   17.21    0.48
  -9   3   0   24.85    0.63
   9  -3   0   24.89    0.64
   9   3   0   25.43    0.64
  -9  -3   0   25.80    0.64
   0   2  -9   19.65    0.50
   0  -2  -9   18.76    0.50
   0  -2   9   18.54    0.49
   0   2   9   19.11    0.50
   6 -14   0   52.75    1.23
  -6  14   0   49.96    1.28
   2  18   1   12.04    0.35
   2  18  -1   11.43    0.35
  -2  18   1   11.25    0.35
  -2  18  -1   11.80    0.36
   2 -18  -1   11.12    0.33
   2 -18   1   11.15    0.34
  -2 -18  -1   11.17    0.33
  -2 -18   1   11.41    0.33
  -6 -14   0   53.54    1.18
   6  14   0   52.23    1.24
  -5  15   2   13.10    0.41
   5 -15  -2   13.72    0.38
  -5 -15  -2   13.93    0.37
  -5  15  -2   14.35    0.42
   5  15   2   13.28    0.40
   5  15  -2   13.60    0.39
  -5 -15   2   13.13    0.37
   5 -15   2   13.80    0.39
  -8   8   2   83.66    1.92
   8   8   2   85.11    1.96
  -8  -8  -2   87.66    1.93
  -8  -8   2   86.67    1.92
   8  -8  -2   83.72    1.94
  -8   8  -2   88.75    2.02
   8  -8   2   82.10    1.95
  -1   1  -9   77.62    1.74
   1   1   9   77.35    1.72
  -1  -1   9   75.57    1.71
   1   1  -9   78.24    1.81
   1  -1   9   74.72    1.71
  -1   1   9   75.31    1.71
  -1  -1  -9   78.09    1.75
   1  -1  -9   76.51    1.75
   1   1  -9   78.29    1.75
   0  14  -6   50.57    1.26
   0 -14   6   52.21    1.17
   0  14   6   50.70    1.18
  -8  -4  -4   61.86    1.43
   8  -4  -4   62.26    1.49
  -8   4  -4   62.67    1.42
   8   4   4   62.20    1.45
  -8  -4   4   61.04    1.43
  -8   4   4   61.45    1.43
   8  -4   4   61.75    1.45
   8   4  -4   63.56    1.48
   9  -3   1   73.20    1.68
  -9   3   1   71.01    1.66
  -9  -3  -1   72.04    1.66
   9   3   1   73.98    1.69
   9  -3  -1   73.97    1.72
  -9   3  -1   72.26    1.65
   9  -3  -1   71.91    1.67
  -9  -3   1   73.47    1.66
   9   3  -1   72.87    1.68
   6 -14  -1   16.08    0.44
  -6 -14   1   16.09    0.41
  -6 -14  -1   15.63    0.41
   6 -14   1   16.18    0.44
  -6  14  -1   15.10    0.46
  -6  14   1   15.66    0.46
   6  14  -1   15.97    0.45
   6  14   1   15.30    0.44
   2   8  -8   76.60    1.82
   2  -8  -8   73.76    1.74
  -2   8   8   77.35    1.70
  -2  -8   8   75.97    1.70
  -2   8  -8   78.31    1.82
  -2  -8  -8   76.23    1.75
   2   8   8   78.30    1.72
   2  -8   8   76.00    1.70
   0 -12  -7   23.06    0.59
   0  12  -7   23.65    0.63
   0  12   7   23.55    0.60
   0 -12   7   24.02    0.58
   7   9   4   22.49    0.61
   7  -9   4   22.80    0.60
  -7   9   4   24.15    0.60
  -7  -9  -4   23.38    0.60
  -7   9  -4   24.34    0.63
   7  -9  -4   23.66    0.63
   4  -4   8   61.67    1.37
   4   4   8   60.83    1.38
  -4  -4   8   63.12    1.42
   4  -4  -8   61.17    1.46
  -4  -4   8   60.50    1.36
  -4  -4  -8   57.40    1.40
   4   4  -8   60.64    1.46
  -4   4   8   60.54    1.43
  -9  -1  -2   33.73    0.81
   9  -1   2   32.81    0.82
  -9   1  -2   32.93    0.81
   9   1   2   33.56    0.83
  -9   1   2   32.88    0.81
  -9  -1   2   32.31    0.81
   9  -1  -2   35.22    0.84
   1   3   9   70.62    1.58
  -1   3   9   71.35    1.58
  -1  -3   9   70.04    1.57
  -1  -3  -9   69.74    1.61
   1  -3  -9   68.76    1.61
  -1   3  -9   70.99    1.60
   1   3  -9   70.35    1.67
   1   3  -9   70.89    1.60
   1  -3   9   69.19    1.57
   6  10  -5   27.35    0.72
   6 -10  -5   27.50    0.73
  -6 -10  -5   27.41    0.69
  -6  10   5   28.77    0.70
  -6 -10  -5   28.11    0.67
   6  10   5   26.90    0.70
   6 -10   5   28.52    0.69
  -6  10  -5   28.64    0.73
   1   9   8   19.57    0.51
  -1  -9  -8   18.37    0.50
  -1   9  -8   19.25    0.53
   1  -9   8   19.16    0.49
   1  -9  -8   18.21    0.50
  -1   9   8   19.87    0.51
   1   9  -8   19.63    0.54
  -1  -9   8   19.39    0.49
  -6   0   7   22.23    0.57
  -6   0  -7   20.49    0.55
   6   0  -7   21.35    0.58
   7  -1   6   25.33    0.64
   7  -1  -6   24.99    0.66
   7   1  -6   25.38    0.67
  -7   1   6   24.38    0.64
   7   1   6   25.10    0.63
  -7  -1   6   24.85    0.64
  -7  -1  -6   24.58    0.63
  -7   1  -6   25.82    0.63
   3   7   8   26.35    0.67
   3  -7   8   27.34    0.65
   3   7  -8   26.16    0.70
  -3  -7   8   26.22    0.64
  -3   7   8   26.32    0.69
  -3  -7  -8   26.58    0.67
   0   4  -9   21.93    0.58
   0  -4   9   20.86    0.55
   0  -4  -9   23.00    0.57
   0   4   9   21.33    0.56
   7   7   5   53.00    1.25
   7  -7   5   51.68    1.24
   7  -7  -5   53.35    1.29
   7   7  -5   52.59    1.28
  -7  -7  -5   52.74    1.23
  -7   7   5   53.53    1.24
   2   0   9   33.70    0.82
  -2   0  -9   34.68    0.84
   2   0  -9   34.81    0.84
   2   0  -9   34.55    0.87
  -2   0   9   35.12    0.82
   2  18  -2   29.00    0.72
  -2 -18  -2   29.01    0.70
   2  18   2   28.89    0.74
   2 -18   2   28.38    0.72
  -2  18  -2   29.86    0.75
  -2 -18   2   28.09    0.69
   3  13   6   16.26    0.45
  -3 -13   6   16.02    0.43
  -3  13  -6   15.87    0.47
  -3 -13  -6   16.42    0.44
   3  13  -6   16.69    0.47
   5   7  -7   49.52    1.23
   5  -7  -7   53.12    1.24
  -5  -7   7   50.49    1.14
   5   7   7   50.68    1.17
  -5   7   7   51.49    1.21
  -5  -7  -7   48.24    1.18
  -6   2  -7   30.82    0.74
  -6   2   7   30.34    0.77
  -6  -2  -7   29.58    0.74
   6   2  -7   29.94    0.78
   6  -2  -7   30.97    0.79
  -6  -2   7   30.34    0.76
  -9   5   0   20.41    0.53
   9  -5   0   20.99    0.54
  -9  -5   0   19.73    0.53
   9   5   0   20.83    0.55
   4  16   3   16.16    0.45
   4 -16  -3   15.03    0.42
  -4  16  -3   14.68    0.45
  -4 -16   3   15.36    0.41
  -4 -16  -3   15.61    0.42
  -4  16   3   15.48    0.45
   4 -16   3   15.37    0.43
   6 -12   4   52.04    1.22
  -6 -12   4   52.76    1.17
  -6 -12  -4   52.38    1.18
   6  12   4   51.35    1.23
   6 -12  -4   49.57    1.26
  -6 -12  -4   51.88    1.20
  -6  12  -4   53.05    1.27
   1  17  -4   15.52    0.45
  -1 -17  -4   15.74    0.41
  -1  17   4   14.73    0.42
   1 -17   4   15.82    0.42
   1  17   4   15.48    0.44
   1 -17   4   15.92    0.41
   1 -17  -4   15.10    0.40
  -1  17  -4   15.03    0.45
  -1 -17   4   15.80    0.42
   9  -3   2   33.99    0.84
   9   3   2   34.74    0.84
  -9  -3  -2   33.92    0.83
  -9   3   2   33.41    0.82
  -9   3  -2   33.82    0.82
   9  -3  -2   34.59    0.85
  -9  -3   2   32.81    0.82
  -2  -2  -9   30.01    0.75
  -2  -2   9   29.19    0.72
   0  16  -5   14.04    0.43
   0 -16   5   14.29    0.39
   2   2  -9   31.28    0.75
   2   2  -9   30.75    0.78
   2  -2   9   29.78    0.73
   0  16   5   14.72    0.41
   0 -16  -5   14.56    0.39
   2  -2  -9   29.48    0.75
   2   2   9   30.63    0.74
  -2   2   9   31.27    0.73
  -2   2  -9   29.87    0.74
  -7  11   3   48.51    1.21
  -7  11  -3   51.60    1.21
   7 -11   3   49.02    1.16
   7  11   3   46.98    1.17
  -7 -11  -3   48.80    1.14
   4  12   6   44.88    1.06
   4  12   6   46.37    1.08
  -4  12  -6   45.23    1.12
  -4 -12   6   45.41    1.03
   4  12  -6   44.70    1.11
  -4 -12  -6   43.49    1.05
  -4  12   6   44.60    1.07
   4 -12  -6   45.21    1.10
   6 -14  -2   36.39    0.88
   6 -14   2   35.20    0.88
  -6 -14   2   36.54    0.85
  -6 -14  -2   37.97    0.85
   6  14   2   34.66    0.89
   6  14  -2   37.04    0.89
  -6  14   2   35.36    0.93
  -6  14  -2   36.49    0.93
   0 -18  -3    9.84    0.29
   0  18  -3    9.89    0.32
   0 -18   3    9.87    0.30
   0  18   3    9.67    0.31
   7   3   6   28.85    0.74
   7   3  -6   29.49    0.76
   7  -3   6   30.43    0.74
  -7   3   6   30.24    0.75
  -7  -3   6   29.17    0.74
  -7   3  -6   29.77    0.72
  -7  -3  -6   28.53    0.73
   7  -3  -6   30.17    0.77
   9   5  -1   68.71    1.56
  -9  -5   1   66.15    1.54
  -2  14  -6   34.02    0.89
   2  14   6   34.37    0.85
   2  14  -6   35.13    0.89
   9  -5  -1   67.04    1.59
  -9  -5  -1   68.82    1.54
   9  -5   1   64.43    1.55
  -9   5  -1   65.05    1.53
  -9   5   1   64.78    1.53
   2 -14   6   36.48    0.82
   9  -5  -1   69.62    1.55
   9   5   1   68.29    1.56
   3  17   3   29.46    0.74
   3 -17  -3   28.73    0.72
  -3 -17   3   28.04    0.70
  -3 -17  -3   29.87    0.70
   3 -17   3   29.19    0.72
  -3  17  -3   28.05    0.75
   6   8   6   60.02    1.35
   6   8  -6   59.82    1.43
   3  11   7   55.25    1.33
   6  -8  -6   59.62    1.44
   3  11  -7   58.50    1.41
   3 -11   7   59.25    1.31
  -6  -8  -6   59.43    1.38
   6   8   6   59.28    1.39
  -6   8   6   58.35    1.39
   6  -8   6   59.60    1.38
  -3 -11  -7   58.16    1.35
  -3 -11   7   59.74    1.31
  -3  11  -7   58.13    1.41
  -8  10   0   36.32    0.92
   8 -10   0   35.00    0.87
   8  10   0   36.50    0.88
   1  19   0   11.84    0.36
  -1 -19   0   12.09    0.34
   1 -19   0   12.64    0.34
  -5 -15  -3   25.88    0.64
   5 -15   3   26.17    0.66
  -5 -15   3   25.04    0.63
  -5  15  -3   26.12    0.70
   5 -15  -3   26.99    0.65
   5  15   3   25.65    0.68
  -5  15   3   25.25    0.69
  -8  -8  -3   23.66    0.59
   8   8   3   22.41    0.60
  -8   8   3   22.93    0.59
   8  -8  -3   23.54    0.62
   8  -8   3   22.42    0.59
  -2  12  -7   17.53    0.50
   2  12  -7   17.61    0.50
  -2 -12  -7   16.96    0.47
   2 -12  -7   17.73    0.47
  -2 -12   7   17.54    0.46
   2 -12   7   17.87    0.45
   4  14   5   12.51    0.38
  -4 -14   5   12.37    0.36
  -4  14  -5   12.44    0.40
   4 -14  -5   12.94    0.38
   4 -14   5   13.46    0.37
   4  14  -5   13.70    0.40
  -4 -14  -5   12.71    0.36
   3  15   5   27.61    0.71
   3  15  -5   28.61    0.72
  -3 -15  -5   27.28    0.67
  -3 -15   5   27.82    0.67
  -3  15  -5   27.14    0.73
  -8   6   4   61.90    1.43
   8   6  -4   62.71    1.48
   8  -6  -4   62.05    1.49
   8   6   4   61.11    1.45
  -8   6  -4   62.71    1.41
   8  -6   4   60.23    1.44
  -8  -6   4   61.99    1.43
  -8  -6  -4   62.22    1.43
  -8  10   1   19.24    0.57
  -8  10  -1   20.70    0.57
   8  10  -1   20.94    0.55
   8 -10  -1   21.21    0.54
   8  10   1   19.74    0.55
   8 -10   1   20.38    0.54
  -8 -10  -1   21.75    0.54
   0  10   8   34.12    0.83
   0  10  -8   34.28    0.88
   0 -10  -8   35.11    0.84
  -1  19  -1   19.88    0.54
   1 -19   1   19.17    0.49
  -1 -19  -1   19.48    0.50
   1  19  -1   19.38    0.52
  -1  19   1   19.08    0.52
  -1 -19   1   18.82    0.49
   1 -19  -1   19.80    0.49
  -8   0  -5   20.95    0.54
  -8   0   5   19.69    0.54
   8   0  -5   20.89    0.56
   8   0   5   20.29    0.54
   1   5  -9   62.06    1.48
  -1   5   9   63.67    1.40
   1   5   9   60.68    1.40
   1  -5   9   60.25    1.39
  -6   4  -7   27.73    0.69
   6  -4  -7   27.56    0.74
  -6  -4   7   28.83    0.71
   4  -6   8   62.20    1.39
   4  -6  -8   62.38    1.49
  -4  -6   8   60.69    1.38
   4   6   8   62.02    1.41
   7  13   0   18.59    0.52
   7 -13   0   20.13    0.52
  -4  10   7   20.21    0.55
  -4 -10  -7   19.98    0.53
   4  10   7   20.42    0.54
  -4 -10   7   20.80    0.51
  -4  10  -7   20.46    0.56
  -2  -4   9   33.47    0.80
   2   4  -9   33.92    0.86
  -2   4   9   35.28    0.81
   2  -4   9   33.06    0.81
   5  -1  -8   21.43    0.60
  -5  -1  -8   22.24    0.57
  -5  -1   8   21.76    0.59
   5   1   8   21.91    0.56
  -5   1  -8   21.72    0.56
   5  -1   8   22.65    0.56
  -5   1   8   22.48    0.60
   8  -2   5   26.09    0.66
   8   2  -5   25.28    0.67
   8   2   5   25.69    0.66
  -8   2  -5   25.69    0.65
  -8  -2   5   25.64    0.66
   9   1  -3   72.46    1.71
  -9   1  -3   70.40    1.65
   9  -1  -3   74.09    1.72
   5  11   6   19.98    0.54
  -5  11  -6   20.11    0.56
   5  11  -6   21.35    0.57
   5  11   6   20.28    0.54
   5 -11  -6   20.44    0.56
  -5 -11   6   21.53    0.52
  -5 -11  -6   20.13    0.53
  -5  11   6   20.13    0.55
   7  13  -1   38.02    0.94
  -7 -13  -1   39.86    0.89
   7 -13  -1   36.92    0.92
   9  -5  -2   30.03    0.77
  -9   5   2   30.16    0.74
  -9   5  -2   30.49    0.74
  -9  -5   2   30.37    0.75
   0   6   9   15.93    0.44
   0   6  -9   16.55    0.47
   5  13   5   52.61    1.29
  -5 -13   5   57.13    1.24
  -5  13  -5   53.26    1.33
   5 -13  -5   53.11    1.32
   5 -13   5   56.05    1.28
   5  13  -5   55.55    1.32
   2  16   5   13.09    0.39
   2 -16   5   13.37    0.36
   2  16  -5   13.11    0.40
   2  18  -3   10.92    0.34
   2 -18   3   10.87    0.33
   3  -1  -9   65.27    1.57
  -3  -1   9   63.97    1.47
  -3   1  -9   66.01    1.51
   3   1  -9   65.50    1.57
  -3  -1  -9   66.11    1.51
  -3   1   9   66.17    1.47
   7   5  -6   22.41    0.61
   7   5   6   22.62    0.60
  -7  -5   6   23.80    0.60
   7  -5   6   23.24    0.59
   1 -13  -7   34.24    0.83
   1 -13   7   34.67    0.81
  -1 -13  -7   35.03    0.83
  -1  13   7   32.80    0.82
   1 -15  -6   11.09    0.31
   1 -15   6   11.13    0.33
   5   3   8   24.27    0.60
   8 -10  -2   56.50    1.33
  -8 -10  -2   56.90    1.33
   5  -3  -8   23.01    0.63
  -8  10  -2   58.91    1.40
  -5  -3   8   23.48    0.62
  -5   3  -8   24.18    0.60
  -9   3  -3   64.68    1.49
   9  -3  -3   64.94    1.55
   1 -19   2    7.92    0.25
  -1  19  -2    7.66    0.28
   1  19  -2    7.40    0.27
  -6 -14   3   11.57    0.33
   6 -14  -3   11.24    0.33
  -6 -14  -3   11.62    0.33
  -9  -7   0   14.68    0.42
   9   7   0   15.08    0.43
  -9   7   0   15.70    0.45
  -9   7   0   14.61    0.41
  -8  -4   5   24.80    0.64
   8   4  -5   24.62    0.66
   8  -4   5   24.86    0.64
  -2  10  -8   56.07    1.37
  -8   4  -5   24.83    0.62
   2 -10   8   56.47    1.28
  -3   3  -9   62.16    1.41
  -3  -3   9   59.15    1.37
   3  -3  -9   60.55    1.47
  -3   3   9   62.82    1.38
  -3   9  -8   23.37    0.62
   3  -9   8   22.67    0.57
   9  -7  -1   59.77    1.47
  -9  -7   1   61.10    1.41
   9   7  -1   62.14    1.43
   9  -7  -1   60.85    1.42
  -9   7   1   60.24    1.40
  -9   7  -1   62.00    1.47
  -9   7  -1   60.60    1.40
  -7 -13  -2   11.95    0.34
   7 -13  -2   11.85    0.36
   7  -9   5   36.88    0.91
   7   9  -5   38.07    0.94
  -7   9   5   37.55    0.91
  -4  16   4   26.49    0.70
   4 -16   4   26.26    0.67
  -5  -9   7   38.26    0.88
   5  -9  -7   37.62    0.95
   6   6   7   20.58    0.54
  -7  11  -4   23.67    0.64
  -7  11   4   23.12    0.60
  -7 -11  -4   23.13    0.59
   0  18   4   24.47    0.63
   0 -18  -4   23.89    0.60
  -2   6   9   26.87    0.67
   3 -17   4   14.79    0.41
   3  17  -4   15.16    0.44
   3 -17  -4   14.07    0.41
  -1   7  -9   56.51    1.37
  -1  11   8   18.40    0.49
  -9   5  -3   55.59    1.29
   6 -12   5   17.55    0.48
  -6 -12  -5   17.21    0.47
   6  12  -5   17.34    0.49
  -6 -12   5   18.01    0.46
   1  17   5   24.65    0.64
   6  10   6   47.54    1.14
  -9   7  -2   23.38    0.59
  -8  10  -3   25.92    0.70
  -8  10   3   26.28    0.66
  -3  19   1   16.01    0.47
   7  -7   6   17.51    0.47
   1  19  -3   20.90    0.55
   1  19  -3   20.61    0.57
   1 -19   3   20.63    0.53
  -8  -6   5   17.51    0.48
  -7 -13  -3   48.18    1.10
;
_shelx_hkl_checksum              65479
loop_
_space_group_symop_operation_xyz
'x, y, z'
'-x, y, z'
'x, -y, z'
'-x, -y, z'
'x+1/2, y+1/2, z'
'-x+1/2, y+1/2, z'
'x+1/2, -y+1/2, z'
'-x+1/2, -y+1/2, z'
'-x, -y, -z'
'x, -y, -z'
'-x, y, -z'
'x, y, -z'
'-x+1/2, -y+1/2, -z'
'x+1/2, -y+1/2, -z'
'-x+1/2, y+1/2, -z'
'x+1/2, y+1/2, -z'
loop_
_atom_site_label
_atom_site_type_symbol
_atom_site_fract_x
_atom_site_fract_y
_atom_site_fract_z
_atom_site_U_iso_or_equiv
_atom_site_adp_type
_atom_site_occupancy
_atom_site_site_symmetry_order
_atom_site_calc_flag
_atom_site_refinement_flags_posn
_atom_site_refinement_flags_adp
_atom_site_refinement_flags_occupancy
_atom_site_disorder_assembly
_atom_site_disorder_group
Pt1 Pt 1.0000 1.0000 1.0000 0.01896(5) Uani 1 8 d S T P . .
Fe1 Fe 0.5000 1.0000 0.5000 0.02085(9) Uani 1 8 d S T P . .
N1 N 0.7027(2) 1.0000 0.7048(2) 0.0323(3) Uani 1 2 d S T P . .
N2 N 0.5000 0.85522(14) 0.5000 0.0353(4) Uani 1 4 d S T P . .
C1 C 0.8116(2) 1.0000 0.8123(2) 0.0253(3) Uani 1 2 d S T P . .
C2 C 0.5000 0.81008(14) 0.3477(3) 0.0534(5) Uani 1 2 d S T P . .
H1 H 0.5000 0.8406 0.2396 0.064 Uiso 1 2 calc R U P . .
C3 C 0.5000 0.71877(16) 0.3433(5) 0.0700(8) Uani 1 2 d S T P . .
H2 H 0.5000 0.6893 0.2339 0.084 Uiso 1 2 calc R U P . .
C4 C 0.5000 0.6731(2) 0.5000 0.0671(11) Uani 1 4 d S T P . .
H3 H 0.5000 0.6122 0.5000 0.081 Uiso 1 4 calc R U P . .
loop_
_atom_site_aniso_label
_atom_site_aniso_U_11
_atom_site_aniso_U_22
_atom_site_aniso_U_33
_atom_site_aniso_U_23
_atom_site_aniso_U_13
_atom_site_aniso_U_12
Pt1 0.01216(6) 0.03161(7) 0.01310(6) 0.000 0.000 0.000
Fe1 0.01248(18) 0.0360(2) 0.01406(18) 0.000 0.000 0.000
N1 0.0225(7) 0.0511(8) 0.0233(6) 0.000 -0.0058(6) 0.000
N2 0.0268(10) 0.0379(10) 0.0412(12) 0.000 0.000 0.000
C1 0.0184(7) 0.0384(7) 0.0191(7) 0.000 0.0018(6) 0.000
C2 0.0629(14) 0.0467(11) 0.0505(13) -0.0082(10) 0.000 0.000
C3 0.0820(19) 0.0480(12) 0.0801(19) -0.0220(13) 0.000 0.000
C4 0.059(2) 0.0385(15) 0.104(3) 0.000 0.000 0.000
loop_
_atom_type_symbol
_atom_type_description
_atom_type_scat_dispersion_real
_atom_type_scat_dispersion_imag
_atom_type_scat_source
C C 0.0033 0.0016
;
International Tables for Crystallography
(Vol. C, Tables 4.2.6.8 and 6.1.1.4)
;
H H 0.0000 0.0000
;
International Tables for Crystallography
(Vol. C, Table 6.1.1.4)
;
N N 0.0061 0.0033
;
International Tables for Crystallography
(Vol. C, Tables 4.2.6.8 and 6.1.1.4)
;
Fe Fe 0.3463 0.8444
;
International Tables for Crystallography
(Vol. C, Tables 4.2.6.8 and 6.1.1.4)
;
Pt Pt -1.7033 8.3905
;
International Tables for Crystallography
(Vol. C, Tables 4.2.6.8 and 6.1.1.4)
;
loop_
_geom_angle_atom_site_label_1
_geom_angle_atom_site_label_2
_geom_angle_atom_site_label_3
_geom_angle
_geom_angle_site_symmetry_1
_geom_angle_site_symmetry_3
C1 Pt1 C1 90.70(9) 9_777 10_577
C1 Pt1 C1 89.30(9) 9_777 2_755
C1 Pt1 C1 180.0 10_577 2_755
C1 Pt1 C1 180.00(9) 9_777 .
C1 Pt1 C1 89.30(9) 10_577 .
C1 Pt1 C1 90.70(9) 2_755 .
N1 Fe1 N1 180.0 . 9_676
N1 Fe1 N1 90.08(8) . 10_576
N1 Fe1 N1 89.92(8) 9_676 10_576
N1 Fe1 N1 89.92(8) . 2_655
N1 Fe1 N1 90.08(8) 9_676 2_655
N1 Fe1 N1 180.0 10_576 2_655
N1 Fe1 N2 90.0 . .
N1 Fe1 N2 90.0 9_676 .
N1 Fe1 N2 90.0 10_576 .
N1 Fe1 N2 90.0 2_655 .
N1 Fe1 N2 90.0 . 9_676
N1 Fe1 N2 90.0 9_676 9_676
N1 Fe1 N2 90.0 10_576 9_676
N1 Fe1 N2 90.0 2_655 9_676
N2 Fe1 N2 180.0 . 9_676
C1 N1 Fe1 179.37(16) . .
C2 N2 C2 117.4(3) 11_656 .
C2 N2 Fe1 121.29(13) 11_656 .
C2 N2 Fe1 121.29(13) . .
N1 C1 Pt1 179.75(16) . .
N2 C2 C3 122.7(3) . .
N2 C2 H1 118.7 . .
C3 C2 H1 118.7 . .
C4 C3 C2 119.5(3) . .
C4 C3 H2 120.3 . .
C2 C3 H2 120.3 . .
C3 C4 C3 118.3(3) 11_656 .
C3 C4 H3 120.8 11_656 .
C3 C4 H3 120.8 . .
loop_
_geom_bond_atom_site_label_1
_geom_bond_atom_site_label_2
_geom_bond_distance
_geom_bond_site_symmetry_2
Pt1 C1 1.9878(17) 9_777
Pt1 C1 1.9878(17) 10_577
Pt1 C1 1.9878(17) 2_755
Pt1 C1 1.9878(17) .
Fe1 N1 2.1540(15) .
Fe1 N1 2.1540(15) 9_676
Fe1 N1 2.1540(15) 10_576
Fe1 N1 2.1540(15) 2_655
Fe1 N2 2.209(2) .
Fe1 N2 2.210(2) 9_676
N1 C1 1.144(3) .
N2 C2 1.326(3) 11_656
N2 C2 1.326(3) .
C2 C3 1.394(3) .
C2 H1 0.9300 .
C3 C4 1.359(4) .
C3 H2 0.9300 .
C4 C3 1.359(4) 11_656
C4 H3 0.9300 .
loop_
_geom_torsion_atom_site_label_1
_geom_torsion_atom_site_label_2
_geom_torsion_atom_site_label_3
_geom_torsion_atom_site_label_4
_geom_torsion
_geom_torsion_site_symmetry_1
_geom_torsion_site_symmetry_2
_geom_torsion_site_symmetry_3
_geom_torsion_site_symmetry_4
C2 N2 C2 C3 0.000(2) 11_656 . . .
Fe1 N2 C2 C3 180.000(1) . . . .
N2 C2 C3 C4 0.000(2) . . . .
C2 C3 C4 C3 0.000(1) . . . 11_656
