#------------------------------------------------------------------------------
#$Date: 2019-06-01 08:03:04 +0300 (Sat, 01 Jun 2019) $
#$Revision: 215655 $
#$URL: file:///home/coder/svn-repositories/cod/cif/1/55/11/1551194.cif $
#------------------------------------------------------------------------------
#
# This file is available in the Crystallography Open Database (COD),
# http://www.crystallography.net/. The original data for this entry
# were provided by IUCr Journals, http://journals.iucr.org/.
#
# The file may be used within the scientific community so long as
# proper attribution is given to the journal article from which the
# data were obtained.
#
data_1551194
loop_
_publ_author_name
'Weil, Matthias'
_publ_section_title
;
 Redetermination of the crystal structure of BaTeO3(H2O), including the
 localization of the hydrogen atoms
;
_journal_coeditor_code           HB4298
_journal_issue                   5
_journal_name_full               IUCrData
_journal_paper_doi               10.1107/S2414314619007703
_journal_volume                  4
_journal_year                    2019
_chemical_formula_iupac          'Ba Te O3 (H2 O)'
_chemical_formula_sum            'Ba H2 O4 Te'
_chemical_formula_weight         330.96
_chemical_name_systematic
;
Barium oxidotellurate(IV) monohydrate
;
_space_group_crystal_system      monoclinic
_space_group_IT_number           14
_space_group_name_Hall           '-P 2yab'
_space_group_name_H-M_alt        'P 1 21/a 1'
_symmetry_space_group_name_Hall  '-P 2yab'
_symmetry_space_group_name_H-M   'P 1 21/a 1'
_atom_sites_solution_hydrogens   difmap
_audit_creation_method           SHELXL-2017/1
_cell_angle_alpha                90
_cell_angle_beta                 105.8800(11)
_cell_angle_gamma                90
_cell_formula_units_Z            4
_cell_length_a                   8.6061(2)
_cell_length_b                   7.58200(10)
_cell_length_c                   7.7252(2)
_cell_measurement_reflns_used    8647
_cell_measurement_temperature    296(2)
_cell_measurement_theta_max      39.919
_cell_measurement_theta_min      2.741
_cell_volume                     484.843(18)
_computing_cell_refinement
;
SAINT (Bruker, 2014)
;
_computing_data_collection
;
APEX2 (Bruker, 2014)
;
_computing_data_reduction
;
SAINT (Bruker, 2014)
;
_computing_molecular_graphics
;
ATOMS (Dowty, 2006)
;
_computing_publication_material
;
publCIF (Westrip, 2010)
;
_computing_structure_refinement
;
SHELXL (Sheldrick, 2015)
;
_computing_structure_solution    'coordinates from previous model'
_diffrn_ambient_temperature      296(2)
_diffrn_measured_fraction_theta_full 0.999
_diffrn_measured_fraction_theta_max 1.000
_diffrn_measurement_device_type  'Bruker APEXII CCD'
_diffrn_measurement_method       '\w- and \f-scans'
_diffrn_radiation_type           MoK\a
_diffrn_radiation_wavelength     0.71069
_diffrn_reflns_av_R_equivalents  0.0475
_diffrn_reflns_av_unetI/netI     0.0284
_diffrn_reflns_limit_h_max       15
_diffrn_reflns_limit_h_min       -15
_diffrn_reflns_limit_k_max       13
_diffrn_reflns_limit_k_min       -13
_diffrn_reflns_limit_l_max       13
_diffrn_reflns_limit_l_min       -13
_diffrn_reflns_number            24774
_diffrn_reflns_theta_full        25.240
_diffrn_reflns_theta_max         39.996
_diffrn_reflns_theta_min         2.741
_exptl_absorpt_coefficient_mu    13.977
_exptl_absorpt_correction_T_max  0.748
_exptl_absorpt_correction_T_min  0.541
_exptl_absorpt_correction_type   multi-scan
_exptl_absorpt_process_details
;
(<i>SADABS</i>; Bruker, 2014)
;
_exptl_crystal_colour            colourless
_exptl_crystal_density_diffrn    4.534
_exptl_crystal_description       plate
_exptl_crystal_F_000             568
_exptl_crystal_size_max          0.180
_exptl_crystal_size_mid          0.090
_exptl_crystal_size_min          0.010
_refine_diff_density_max         1.361
_refine_diff_density_min         -1.029
_refine_ls_extinction_method     none
_refine_ls_goodness_of_fit_ref   1.006
_refine_ls_hydrogen_treatment    mixed
_refine_ls_matrix_type           full
_refine_ls_number_parameters     63
_refine_ls_number_reflns         3003
_refine_ls_number_restraints     3
_refine_ls_restrained_S_all      1.007
_refine_ls_R_factor_all          0.0290
_refine_ls_R_factor_gt           0.0199
_refine_ls_shift/su_max          0.001
_refine_ls_shift/su_mean         0.000
_refine_ls_structure_factor_coef Fsqd
_refine_ls_weighting_details
'w=1/[\s^2^(Fo^2^)+(0.0130P)^2^+0.3124P] where P=(Fo^2^+2Fc^2^)/3'
_refine_ls_weighting_scheme      calc
_refine_ls_wR_factor_gt          0.0388
_refine_ls_wR_factor_ref         0.0415
_reflns_number_gt                2535
_reflns_number_total             3003
_reflns_threshold_expression     'I > 2\s(I)'
_cod_data_source_file            hb4298sup1.cif
_cod_data_source_block           I
_cod_database_code               1551194
_shelx_space_group_comment
;
The symmetry employed for this shelxl refinement is uniquely defined
by the following loop, which should always be used as a source of
symmetry information in preference to the above space-group names.
They are only intended as comments.
;
_shelx_estimated_absorpt_t_min   0.188
_shelx_estimated_absorpt_t_max   0.873
_shelx_hkl_file
;
   0   0   1  109.58    5.02   1
   0   0  -1  109.65    5.03   1
   0   0  -1   98.42    5.01   1
   0   0  -1  108.59    5.02   1
   0   0   1   96.05    5.03   1
   0   0   1  101.67    5.01   1
   0   0   1   95.26    4.98   1
   0   0  -1   89.66    5.03   1
   0   0   2  266.04   13.17   1
   0   0  -2  264.38   13.15   1
   0   0   2  273.15   13.08   1
   0   0  -2  261.33   13.12   1
   0   0   2  267.78   13.13   1
   0   0  -2  263.96   13.12   1
   0   0  -2  270.52   13.17   1
   0   0   3    5.41    0.40   1
   0   0   3    4.98    0.50   1
   0   0  -3    4.29    0.48   1
   0   0   3    4.31    0.46   1
   0   0  -3    5.00    0.53   1
   0   0  -3    5.43    0.50   1
   0   0  -3    5.86    0.59   1
   0   0   3    5.58    0.58   1
   0   0  -4   38.81    2.18   1
   0   0   4   41.26    2.28   1
   0   0   4   41.49    2.08   1
   0   0  -4   39.13    2.19   1
   0   0   4   40.19    2.20   1
   0   0  -4   39.01    2.25   1
   0   0   4   41.51    2.20   1
   0   0  -5  437.41   21.77   1
   0   0  -5  451.44   21.85   1
   0   0  -5  438.88   21.75   1
   0   0  -5  421.74   21.83   1
   0   0   5  450.88   21.76   1
   0   0   5  441.24   21.85   1
   0   0   5  449.05   21.77   1
   0   0   5  437.97   21.61   1
   0   0  -6   13.95    1.19   1
   0   0   6   16.36    0.92   1
   0   0  -6   15.03    1.09   1
   0   0   6   18.12    1.18   1
   0   0   6   16.64    1.13   1
   0   0   6   17.85    1.21   1
   0   0  -6   16.67    1.16   1
   0   0  -6   15.65    1.20   1
   0   0   7  118.61    6.07   1
   0   0  -7  119.67    6.07   1
   0   0   7  114.44    6.17   1
   0   0   7  114.74    6.04   1
   0   0  -7  119.44    6.17   1
   0   0  -7  113.86    6.16   1
   0   0  -8    8.07    1.06   1
   0   0  -8   10.56    0.94   1
   0   0  -8    9.77    1.09   1
   0   0   8   11.07    1.04   1
   0   0   8   10.58    1.15   1
   0   0   8   12.52    1.00   1
   0   0   9    0.37    0.44   1
   0   0   9    0.03    0.46   1
   0   0  -9   -0.12    0.48   1
   0   0  -9   -0.23    0.29   1
   0   0  -9    0.31    0.51   1
   0   0 -10   39.05    2.51   1
   0   0  10   36.00    2.29   1
   0   0 -10   38.53    2.55   1
   0   0  10   35.10    2.51   1
   0   0 -11    2.19    0.72   1
   0   0  11    1.65    0.75   1
   0   0 -11    2.02    0.80   1
   0   0 -12   45.93    2.96   1
   0   0  12   41.81    2.94   1
   0   0 -12   40.48    2.92   1
   0   0  12   42.23    2.98   1
   0   0  13    3.68    1.10   1
   0   0  13    5.07    1.14   1
   0  -1   0   -0.28    0.09   1
   0  -1   0   -0.36    0.09   1
   0  -1   0   -0.18    0.15   1
   0  -1   0   -0.30    0.09   1
   0   1  -1   46.16    2.29   1
   0   1   1   43.23    2.24   1
   0   1   1   46.05    2.26   1
   0   1   1   45.00    2.24   1
   0  -1  -1   48.77    2.27   1
   0  -1   1   44.65    2.25   1
   0  -1   1   45.00    2.28   1
   0  -1   1   43.27    2.28   1
   0  -1  -1   44.77    2.28   1
   0  -1   1   46.52    2.28   1
   0  -1  -1   45.13    2.27   1
   0  -1  -1   45.31    2.26   1
   0   1  -2  312.13   15.44   1
   0   1  -2  313.60   15.45   1
   0   1  -2  312.12   15.46   1
   0   1  -2  312.35   15.51   1
   0   1   2  300.69   15.46   1
   0   1   2  317.37   15.41   1
   0  -1  -2  318.28   15.45   1
   0  -1   2  329.48   15.42   1
   0  -1   2  317.26   15.44   1
   0  -1  -2  310.36   15.43   1
   0  -1  -2  318.27   15.41   1
   0  -1   2  313.09   15.48   1
   0  -1   2  311.50   15.47   1
   0   1   3  351.64   17.54   1
   0   1   3  344.71   17.47   1
   0   1  -3  318.47   17.48   1
   0   1  -3  384.76   17.58   1
   0   1  -3  357.68   17.52   1
   0   1  -3  359.36   17.52   1
   0  -1  -3  375.39   17.46   1
   0  -1   3  327.14   17.53   1
   0  -1   3  343.06   17.47   1
   0  -1  -3  363.51   17.52   1
   0  -1   3  351.87   17.49   1
   0  -1   3  389.01   17.51   1
   0  -1  -3  351.14   17.52   1
   0   1   4   77.36    4.21   1
   0   1  -4   78.40    4.27   1
   0   1  -4   81.75    4.24   1
   0   1   4   88.23    4.31   1
   0   1  -4   91.13    4.34   1
   0   1  -4   78.95    4.27   1
   0  -1   4   80.27    4.22   1
   0  -1  -4   76.38    4.17   1
   0  -1  -4   80.10    4.19   1
   0  -1   4   85.45    4.32   1
   0  -1   4   89.46    4.21   1
   0  -1  -4   75.83    4.27   1
   0  -1  -4   86.01    4.28   1
   0  -1   4   81.24    4.24   1
   0   1   5  102.96    5.34   1
   0   1  -5  101.14    5.35   1
   0   1  -5   99.00    5.30   1
   0   1  -5  100.22    5.33   1
   0   1   5   99.40    5.26   1
   0   1  -5  102.24    5.26   1
   0  -1   5  102.43    5.26   1
   0  -1   5  106.68    5.29   1
   0  -1  -5  109.81    5.34   1
   0  -1  -5   95.76    5.22   1
   0  -1  -5  101.00    5.21   1
   0  -1  -5   98.61    5.33   1
   0  -1   5  106.01    5.20   1
   0  -1   5  108.08    5.37   1
   0   1   6    2.72    0.55   1
   0   1  -6    3.23    0.56   1
   0   1   6    3.05    0.50   1
   0   1   6    2.69    0.46   1
   0   1  -6    3.28    0.50   1
   0   1  -6    2.93    0.60   1
   0   1  -6    2.71    0.57   1
   0  -1  -6    3.35    0.57   1
   0  -1   6    2.96    0.48   1
   0  -1   6    3.74    0.62   1
   0  -1  -6    3.39    0.46   1
   0  -1  -6    2.30    0.52   1
   0  -1   6    3.37    0.41   1
   0  -1  -6    2.77    0.48   1
   0  -1   6    3.09    0.55   1
   0   1   7   43.83    2.61   1
   0   1  -7   46.77    2.61   1
   0   1  -7   46.66    2.73   1
   0   1   7   47.52    2.73   1
   0   1   7   45.43    2.59   1
   0   1  -7   46.46    2.65   1
   0   1  -7   43.96    2.71   1
   0  -1  -7   44.65    2.73   1
   0  -1   7   45.17    2.71   1
   0  -1   7   45.55    2.73   1
   0  -1  -7   44.66    2.57   1
   0  -1   7   43.71    2.59   1
   0  -1   7   49.28    2.65   1
   0  -1  -7   48.84    2.71   1
   0   1   8   67.86    3.79   1
   0   1   8   68.32    3.89   1
   0   1  -8   67.10    3.89   1
   0   1  -8   65.52    3.88   1
   0   1   8   69.51    3.74   1
   0   1  -8   68.07    3.81   1
   0  -1   8   71.65    3.80   1
   0  -1  -8   66.62    3.90   1
   0  -1   8   66.45    3.89   1
   0  -1  -8   69.61    3.72   1
   0  -1  -8   73.18    3.88   1
   0   1   9   30.26    1.89   1
   0   1   9   27.87    1.91   1
   0   1   9   28.29    2.05   1
   0   1  -9   32.64    1.99   1
   0   1  -9   30.06    2.08   1
   0   1  -9   28.60    2.05   1
   0  -1   9   28.89    2.08   1
   0  -1   9   30.66    1.96   1
   0  -1  -9   27.10    1.90   1
   0  -1  -9   26.40    2.03   1
   0  -1  -9   32.32    2.05   1
   0   1  10   47.65    3.01   1
   0   1 -10   45.06    2.97   1
   0   1 -10   43.60    2.97   1
   0   1  10   49.00    2.79   1
   0  -1 -10   46.78    2.95   1
   0  -1  10   47.66    2.83   1
   0  -1  10   46.91    2.99   1
   0  -1 -10   44.48    2.98   1
   0  -1  10   49.00    3.03   1
   0   1 -11   -0.21    0.57   1
   0   1 -11   -0.59    0.52   1
   0   1  11   -0.22    0.56   1
   0  -1  11    0.49    0.76   1
   0  -1 -11   -0.20    0.52   1
   0  -1 -11    0.90    0.67   1
   0  -1  11    1.23    0.65   1
   0   1 -12    1.02    0.71   1
   0   1 -12    0.75    0.68   1
   0   1  12    0.44    0.66   1
   0  -1 -12    1.79    0.74   1
   0  -1  12    0.07    0.65   1
   0  -1  12    0.23    0.79   1
   0   1  13    8.00    1.34   1
   0   1  13    6.16    1.25   1
   0   1 -13    5.88    1.18   1
   0  -1  13    4.09    1.08   1
   0  -1  13    5.11    1.17   1
   0  -2   0  225.91   10.72   1
   0  -2   0  191.62   10.76   1
   0  -2   0  225.05   10.70   1
   0  -2   0  227.47   10.71   1
   0   2   1    8.31    0.45   1
   0   2  -1    7.81    0.45   1
   0   2  -1    7.49    0.44   1
   0   2  -1    8.05    0.54   1
   0  -2   1    7.85    0.53   1
   0  -2   1    7.98    0.72   1
   0  -2  -1    9.59    0.54   1
   0  -2  -1    7.67    0.53   1
   0  -2   1    7.88    0.52   1
   0  -2  -1    8.12    0.54   1
   0  -2  -1    8.28    0.52   1
   0  -2   1    8.06    0.46   1
   0  -2   1    7.39    0.50   1
   0   2   2   27.73    1.46   1
   0   2   2   28.02    1.46   1
   0   2  -2   29.08    1.51   1
   0   2  -2   26.99    1.54   1
   0   2  -2   30.70    1.64   1
   0   2   2   29.69    1.52   1
   0  -2  -2   28.40    1.54   1
   0  -2   2   27.93    1.54   1
   0  -2   2   25.36    1.65   1
   0  -2   2   27.80    1.55   1
   0  -2  -2   29.35    1.50   1
   0  -2  -2   27.77    1.47   1
   0  -2   2   29.89    1.53   1
   0  -2   2   28.47    1.48   1
   0   2   3   14.41    1.09   1
   0   2  -3   20.81    1.22   1
   0   2  -3   18.04    1.13   1
   0   2  -3   17.59    1.09   1
   0   2   3   18.31    1.04   1
   0   2  -3   18.34    1.15   1
   0  -2  -3   16.33    1.07   1
   0  -2   3   22.07    1.24   1
   0  -2   3   19.53    1.14   1
   0  -2   3   18.45    1.10   1
   0  -2  -3   18.35    1.05   1
   0  -2  -3   19.16    1.12   1
   0  -2   3   18.89    1.10   1
   0  -2  -3   18.24    1.09   1
   0   2  -4    0.24    0.31   1
   0   2   4    0.27    0.29   1
   0   2  -4    0.03    0.29   1
   0   2  -4   -0.23    0.26   1
   0   2  -4   -0.08    0.29   1
   0   2   4   -0.08    0.23   1
   0  -2  -4   -0.42    0.26   1
   0  -2   4   -0.04    0.28   1
   0  -2  -4    0.15    0.20   1
   0  -2  -4   -0.05    0.22   1
   0  -2   4    0.44    0.31   1
   0  -2   4    0.06    0.28   1
   0  -2   4   -0.01    0.29   1
   0  -2   4   -0.09    0.18   1
   0   2   5  113.24    6.31   1
   0   2  -5  126.24    6.36   1
   0   2  -5  119.19    6.42   1
   0   2  -5  121.47    6.42   1
   0   2   5  126.36    6.40   1
   0   2  -5  134.54    6.47   1
   0  -2   5  129.56    6.44   1
   0  -2  -5  120.17    6.40   1
   0  -2   5  117.10    6.31   1
   0  -2   5  125.63    6.39   1
   0  -2  -5  126.26    6.28   1
   0  -2   5  132.76    6.36   1
   0  -2  -5  126.99    6.37   1
   0  -2   5  119.46    6.37   1
   0   2  -6    5.37    0.74   1
   0   2   6    4.21    0.63   1
   0   2  -6    5.20    0.64   1
   0   2   6    5.12    0.63   1
   0   2  -6    5.34    0.78   1
   0   2  -6    4.45    0.70   1
   0  -2   6    4.66    0.58   1
   0  -2   6    3.86    0.67   1
   0  -2  -6    5.16    0.66   1
   0  -2   6    3.23    0.65   1
   0  -2   6    4.02    0.65   1
   0  -2  -6    4.15    0.66   1
   0  -2   6    5.54    0.61   1
   0  -2  -6    5.72    0.59   1
   0   2  -7   46.45    2.70   1
   0   2  -7   47.57    2.76   1
   0   2  -7   47.38    2.61   1
   0   2   7   41.24    2.57   1
   0   2   7   44.39    2.67   1
   0   2  -7   42.40    2.69   1
   0  -2   7   51.04    2.77   1
   0  -2  -7   44.06    2.51   1
   0  -2  -7   44.34    2.63   1
   0  -2   7   46.36    2.73   1
   0  -2   7   43.21    2.50   1
   0  -2   7   46.93    2.67   1
   0  -2  -7   46.02    2.75   1
   0   2  -8    0.41    0.48   1
   0   2  -8    0.28    0.43   1
   0   2  -8    0.31    0.34   1
   0   2   8   -0.58    0.37   1
   0   2  -8   -0.49    0.44   1
   0   2   8    0.12    0.39   1
   0   2   8   -0.13    0.38   1
   0  -2   8    0.55    0.46   1
   0  -2   8    0.24    0.46   1
   0  -2  -8    0.48    0.51   1
   0  -2  -8   -0.01    0.24   1
   0  -2   8    0.25    0.51   1
   0  -2  -8    0.15    0.37   1
   0   2  -9    3.40    0.75   1
   0   2   9    3.24    0.64   1
   0   2  -9    3.52    0.78   1
   0   2   9    4.29    0.81   1
   0   2   9    2.66    0.62   1
   0   2  -9    2.85    0.75   1
   0  -2  -9    2.61    0.74   1
   0  -2  -9    3.12    0.66   1
   0  -2   9    3.22    0.75   1
   0  -2   9    3.93    0.86   1
   0  -2   9    3.41    0.71   1
   0   2 -10   11.46    1.37   1
   0   2 -10    8.18    1.20   1
   0   2  10    7.73    1.14   1
   0   2 -10   10.53    1.17   1
   0   2  10    9.12    1.11   1
   0  -2 -10   10.20    1.19   1
   0  -2  10    9.08    1.24   1
   0  -2  10    8.65    1.19   1
   0  -2 -10    9.33    1.27   1
   0  -2  10   10.44    1.15   1
   0   2  11    0.88    0.68   1
   0   2 -11   -0.14    0.56   1
   0   2 -11    0.60    0.64   1
   0  -2 -11    1.84    0.79   1
   0  -2  11    0.86    0.61   1
   0  -2  11    0.17    0.58   1
   0  -2  11    1.58    0.83   1
   0   2 -12    8.06    1.32   1
   0   2  12   10.29    1.45   1
   0   2 -12    7.61    1.26   1
   0  -2  12    9.92    1.43   1
   0  -2  12    8.75    1.27   1
   0   2  13   -0.40    0.64   1
   0   2 -13    0.37    0.68   1
   0  -2  13    0.17    0.90   1
   0  -2  13    0.32    0.70   1
   0   3   0   -0.30    0.06   1
   0   3   0   -0.32    0.08   1
   0  -3   0   -0.63    0.28   1
   0  -3   0   -0.18    0.21   1
   0  -3   0   -0.20    0.20   1
   0  -3   0   -0.13    0.22   1
   0   3   1   70.08    3.32   1
   0   3  -1   68.03    3.31   1
   0   3  -1   65.44    3.43   1
   0   3  -1   67.87    3.31   1
   0  -3   1   66.06    3.39   1
   0  -3  -1   67.74    3.43   1
   0  -3   1   65.55    3.57   1
   0  -3  -1   65.84    3.42   1
   0  -3  -1   66.11    3.42   1
   0  -3  -1   69.48    3.48   1
   0  -3   1   65.19    3.44   1
   0  -3   1   68.03    3.42   1
   0   3   2    2.10    0.25   1
   0   3   2    1.76    0.17   1
   0   3  -2    2.55    0.37   1
   0   3   2    1.60    0.16   1
   0   3  -2    2.05    0.37   1
   0   3  -2    2.33    0.26   1
   0  -3  -2    2.24    0.34   1
   0  -3   2    2.69    0.29   1
   0  -3   2    1.85    0.25   1
   0  -3   2    1.98    0.34   1
   0  -3   2    3.46    0.55   1
   0  -3  -2    1.53    0.31   1
   0  -3   2    2.33    0.34   1
   0  -3  -2    2.05    0.29   1
   0   3   3    2.70    0.29   1
   0   3  -3    3.21    0.48   1
   0   3   3    2.00    0.26   1
   0   3  -3    2.95    0.35   1
   0   3  -3    2.51    0.38   1
   0   3  -3    2.68    0.45   1
   0   3   3    2.19    0.35   1
   0  -3   3    2.22    0.37   1
   0  -3   3    2.82    0.37   1
   0  -3  -3    2.89    0.31   1
   0  -3   3    2.70    0.52   1
   0  -3   3    2.08    0.29   1
   0  -3   3    2.57    0.40   1
   0  -3  -3    2.07    0.36   1
   0   3  -4   16.79    1.14   1
   0   3   4   14.12    1.01   1
   0   3   4   16.01    0.98   1
   0   3  -4   13.94    1.04   1
   0   3  -4   16.46    1.13   1
   0   3   4   16.59    1.08   1
   0   3  -4   16.29    1.09   1
   0  -3   4   15.72    1.09   1
   0  -3   4   16.65    1.07   1
   0  -3   4   15.43    0.93   1
   0  -3   4   16.28    1.05   1
   0  -3  -4   15.26    1.03   1
   0  -3  -4   13.47    0.96   1
   0  -3   4   15.81    1.16   1
   0   3  -5    1.53    0.46   1
   0   3  -5    2.37    0.51   1
   0   3   5    1.37    0.38   1
   0   3  -5    1.52    0.47   1
   0   3   5    1.28    0.35   1
   0   3  -5    0.55    0.33   1
   0  -3   5    0.48    0.36   1
   0  -3  -5    1.45    0.35   1
   0  -3   5    1.19    0.41   1
   0  -3   5    0.43    0.39   1
   0  -3   5    1.51    0.43   1
   0  -3   5    0.98    0.30   1
   0  -3  -5    1.22    0.30   1
   0   3  -6   20.18    1.52   1
   0   3  -6   20.03    1.54   1
   0   3   6   22.76    1.48   1
   0   3  -6   24.41    1.52   1
   0   3   6   18.34    1.38   1
   0   3  -6   22.43    1.43   1
   0  -3   6   22.18    1.45   1
   0  -3  -6   21.54    1.51   1
   0  -3   6   21.11    1.48   1
   0  -3  -6   20.78    1.29   1
   0  -3  -6   20.70    1.37   1
   0  -3   6   20.48    1.49   1
   0  -3   6   20.75    1.29   1
   0  -3   6   19.70    1.48   1
   0   3  -7    3.26    0.58   1
   0   3  -7    3.23    0.70   1
   0   3  -7    2.34    0.65   1
   0   3  -7    1.80    0.55   1
   0   3   7    2.61    0.56   1
   0   3   7    1.40    0.47   1
   0  -3   7    2.61    0.64   1
   0  -3   7    2.63    0.67   1
   0  -3  -7    1.68    0.44   1
   0  -3   7    2.17    0.50   1
   0  -3  -7    2.07    0.39   1
   0  -3  -7    2.69    0.67   1
   0  -3   7    2.10    0.44   1
   0  -3   7    2.77    0.64   1
   0   3  -8    0.62    0.55   1
   0   3  -8    1.10    0.56   1
   0   3   8    0.01    0.42   1
   0   3  -8    3.39    0.64   1
   0   3   8    1.15    0.49   1
   0   3  -8    0.43    0.49   1
   0  -3   8    0.55    0.59   1
   0  -3   8    1.06    0.54   1
   0  -3   8    0.31    0.37   1
   0  -3   8    1.33    0.56   1
   0  -3  -8    1.60    0.61   1
   0  -3  -8    1.42    0.44   1
   0  -3   8    1.15    0.41   1
   0   3   9    0.71    0.55   1
   0   3  -9    0.25    0.50   1
   0   3   9    0.16    0.46   1
   0   3  -9    0.76    0.55   1
   0   3   9   -0.17    0.46   1
   0   3  -9   -0.08    0.52   1
   0  -3   9    0.73    0.65   1
   0  -3   9    0.47    0.54   1
   0  -3   9   -0.34    0.48   1
   0   3 -10   -0.15    0.55   1
   0   3  10    0.23    0.51   1
   0   3 -10   -0.57    0.54   1
   0   3 -10   -0.10    0.52   1
   0   3  10    0.03    0.49   1
   0  -3  10    0.31    0.60   1
   0  -3  10    0.81    0.62   1
   0  -3  10    0.11    0.70   1
   0   3 -11    5.03    1.01   1
   0   3  11    3.60    0.90   1
   0   3 -11    3.90    0.98   1
   0   3  11    4.88    0.91   1
   0  -3  11    4.13    1.07   1
   0  -3  11    4.99    0.91   1
   0  -3  11    3.49    0.86   1
   0   3  12    0.92    0.77   1
   0   3 -12    0.04    0.66   1
   0   3 -12    1.52    0.81   1
   0  -3  12    0.68    0.63   1
   0  -3  12    2.13    0.98   1
   0   3 -13    2.07    0.87   1
   0   3  13    1.67    0.89   1
   0  -3  13    0.53    0.94   1
   0   4   0  145.33    7.09   1
   0   4   0  145.74    7.09   1
   0  -4   0  144.94    7.22   1
   0  -4   0  142.93    7.38   1
   0  -4   0  146.53    7.24   1
   0  -4   0  142.43    7.26   1
   0   4  -1   45.99    2.26   1
   0   4  -1   46.96    2.27   1
   0   4  -1   40.59    2.42   1
   0   4   1   46.62    2.27   1
   0   4   1   45.03    2.27   1
   0   4  -1   50.52    2.38   1
   0  -4  -1   46.30    2.44   1
   0  -4   1   44.93    2.46   1
   0  -4   1   46.15    2.40   1
   0  -4  -1   46.33    2.51   1
   0  -4  -1   43.96    2.43   1
   0  -4   1   45.53    2.64   1
   0  -4  -1   46.94    2.43   1
   0  -4   1   44.28    2.43   1
   0   4   2    0.72    0.17   1
   0   4   2    0.88    0.07   1
   0   4   2    0.84    0.07   1
   0   4  -2    0.62    0.28   1
   0   4  -2    0.56    0.29   1
   0   4  -2    0.84    0.18   1
   0  -4   2    0.70    0.16   1
   0  -4   2    0.71    0.25   1
   0  -4   2    0.93    0.29   1
   0  -4   2    0.00    0.39   1
   0  -4   2    0.84    0.24   1
   0  -4  -2    0.69    0.28   1
   0  -4  -2    0.63    0.25   1
   0  -4  -2    0.42    0.24   1
   0  -4  -2    0.85    0.28   1
   0   4   3   12.86    0.84   1
   0   4   3   13.06    0.75   1
   0   4   3   12.24    0.74   1
   0   4  -3   12.23    0.82   1
   0   4  -3   13.06    0.92   1
   0   4  -3   13.26    0.81   1
   0   4  -3   13.78    0.98   1
   0  -4   3   12.42    0.92   1
   0  -4   3   12.39    0.80   1
   0  -4  -3   12.36    0.82   1
   0  -4   3   12.04    0.80   1
   0  -4   3   12.74    0.87   1
   0  -4   3   13.91    1.14   1
   0  -4  -3   13.91    0.93   1
   0   4  -4   73.18    4.13   1
   0   4  -4   88.98    4.28   1
   0   4   4   74.53    4.06   1
   0   4   4   73.95    4.14   1
   0   4   4   78.93    4.05   1
   0   4  -4   77.81    4.19   1
   0   4  -4   80.56    4.28   1
   0  -4  -4   81.21    4.19   1
   0  -4   4   83.43    4.15   1
   0  -4   4   79.92    4.04   1
   0  -4   4   78.13    4.20   1
   0  -4   4   79.50    4.16   1
   0  -4  -4   80.38    4.03   1
   0  -4   4   83.68    4.36   1
   0   4  -5   53.95    3.26   1
   0   4  -5   56.61    3.38   1
   0   4   5   61.28    3.28   1
   0   4   5   61.25    3.21   1
   0   4  -5   55.43    3.28   1
   0   4  -5   66.83    3.41   1
   0  -4  -5   58.19    3.15   1
   0  -4   5   61.15    3.30   1
   0  -4   5   61.31    3.33   1
   0  -4   5   64.95    3.44   1
   0  -4   5   59.60    3.12   1
   0  -4   5   59.99    3.28   1
   0   4   6    2.50    0.54   1
   0   4  -6    3.42    0.67   1
   0   4  -6    2.77    0.60   1
   0   4  -6    2.45    0.53   1
   0   4  -6    2.75    0.67   1
   0   4   6    2.22    0.52   1
   0  -4   6    1.83    0.49   1
   0  -4   6    3.18    0.62   1
   0  -4   6    2.59    0.40   1
   0  -4   6    3.63    0.65   1
   0  -4   6    2.74    0.58   1
   0   4   7    7.38    0.86   1
   0   4  -7    7.27    1.08   1
   0   4  -7    8.95    1.04   1
   0   4   7    9.99    1.02   1
   0   4  -7    9.36    0.98   1
   0   4  -7    9.10    1.14   1
   0  -4   7    8.43    1.01   1
   0  -4   7    8.91    0.97   1
   0  -4   7    6.98    0.99   1
   0  -4   7    6.84    0.70   1
   0  -4   7    9.64    1.09   1
   0   4  -8   22.68    1.82   1
   0   4  -8   21.83    1.61   1
   0   4   8   21.33    1.62   1
   0   4  -8   21.24    1.70   1
   0   4   8   24.32    1.63   1
   0   4  -8   21.80    1.80   1
   0  -4   8   19.92    1.78   1
   0  -4   8   21.56    1.61   1
   0  -4   8   24.64    1.77   1
   0  -4   8   26.08    1.77   1
   0   4   9   12.41    1.23   1
   0   4  -9   13.03    1.50   1
   0   4  -9   14.63    1.36   1
   0   4   9   11.44    1.27   1
   0   4  -9   11.98    1.39   1
   0   4  -9   12.87    1.49   1
   0  -4   9   11.94    1.34   1
   0  -4   9   13.98    1.38   1
   0  -4   9    9.24    1.30   1
   0   4  10    0.48    0.56   1
   0   4 -10    1.63    0.76   1
   0   4 -10    0.53    0.63   1
   0   4 -10    1.09    0.73   1
   0   4  10    1.80    0.70   1
   0  -4  10    2.58    0.88   1
   0  -4  10    1.48    0.60   1
   0  -4  10    0.34    0.59   1
   0   4 -11   -0.53    0.60   1
   0   4 -11    0.12    0.61   1
   0   4  11   -0.23    0.54   1
   0   4 -11    0.08    0.59   1
   0   4  11   -0.39    0.50   1
   0  -4  11    0.83    0.65   1
   0  -4  11    0.83    0.77   1
   0   4 -12    2.97    0.95   1
   0   4 -12    1.27    0.85   1
   0   4  12    5.08    1.02   1
   0  -4  12    3.11    1.01   1
   0   5   0   -0.02    0.07   1
   0   5   0    0.01    0.07   1
   0  -5   0    0.23    0.35   1
   0  -5   0    0.07    0.22   1
   0  -5   0    0.04    0.25   1
   0  -5   0    0.11    0.24   1
   0   5   1   13.21    0.69   1
   0   5  -1   13.06    0.91   1
   0   5  -1   14.06    0.69   1
   0   5  -1   14.49    0.79   1
   0   5  -1   13.56    0.69   1
   0   5   1   13.12    0.69   1
   0  -5  -1   12.74    0.91   1
   0  -5   1   12.87    0.87   1
   0  -5  -1   12.45    0.98   1
   0  -5   1   12.41    0.94   1
   0  -5  -1   11.89    0.89   1
   0  -5   1   12.94    0.91   1
   0  -5   1   13.72    1.16   1
   0  -5  -1   11.95    0.90   1
   0   5  -2  174.74    8.35   1
   0   5   2  181.47    8.36   1
   0   5  -2  171.62    8.46   1
   0   5  -2  162.79    8.50   1
   0   5   2  170.63    8.33   1
   0  -5  -2  163.76    8.52   1
   0  -5  -2  162.49    8.48   1
   0  -5   2  171.43    8.42   1
   0  -5   2  164.56    8.53   1
   0  -5   2  164.69    8.49   1
   0  -5  -2  168.62    8.49   1
   0  -5  -2  167.52    8.50   1
   0   5  -3  126.61    5.92   1
   0   5  -3  112.15    6.03   1
   0   5  -3  119.66    5.94   1
   0   5   3  106.46    5.92   1
   0   5  -3  100.13    6.01   1
   0   5   3  121.07    5.84   1
   0   5   3  123.30    5.84   1
   0  -5   3  116.01    6.07   1
   0  -5   3  122.98    6.32   1
   0  -5  -3  118.71    5.99   1
   0  -5   3  115.89    6.02   1
   0  -5   3  122.10    5.90   1
   0  -5  -3  121.49    6.05   1
   0  -5   3  120.08    5.93   1
   0   5   4    1.64    0.30   1
   0   5  -4    1.69    0.52   1
   0   5  -4    2.03    0.43   1
   0   5   4    2.25    0.34   1
   0   5  -4    2.36    0.52   1
   0   5   4    2.19    0.42   1
   0   5  -4    2.99    0.55   1
   0  -5   4    1.34    0.42   1
   0  -5   4    1.50    0.47   1
   0  -5   4    1.90    0.61   1
   0  -5  -4    2.35    0.49   1
   0  -5   4    2.48    0.36   1
   0  -5   4    1.94    0.34   1
   0   5   5   34.08    1.99   1
   0   5  -5   35.92    2.16   1
   0   5  -5   36.85    2.20   1
   0   5  -5   30.41    2.08   1
   0   5  -5   32.21    2.23   1
   0   5   5   36.39    2.08   1
   0  -5   5   37.46    2.07   1
   0  -5   5   36.44    1.95   1
   0  -5   5   36.75    2.31   1
   0  -5   5   34.78    2.12   1
   0  -5   5   35.91    2.20   1
   0  -5  -5   34.67    2.13   1
   0   5  -6   20.54    1.48   1
   0   5  -6   21.21    1.55   1
   0   5   6   21.34    1.43   1
   0   5  -6   21.91    1.67   1
   0   5   6   20.41    1.43   1
   0   5  -6   19.93    1.54   1
   0  -5   6   18.93    1.49   1
   0  -5   6   18.43    1.55   1
   0  -5   6   21.54    1.28   1
   0  -5   6   21.32    1.45   1
   0  -5   6   24.08    1.65   1
   0   5   7   40.21    2.38   1
   0   5  -7   39.45    2.38   1
   0   5  -7   37.42    2.62   1
   0   5  -7   38.66    2.53   1
   0   5  -7   41.24    2.50   1
   0   5   7   35.31    2.33   1
   0  -5   7   38.68    2.25   1
   0  -5   7   40.42    2.48   1
   0  -5   7   36.76    2.51   1
   0  -5   7   42.16    2.50   1
   0  -5   7   35.24    2.39   1
   0   5  -8   17.20    1.62   1
   0   5  -8   15.62    1.37   1
   0   5   8   17.21    1.39   1
   0   5   8   17.22    1.36   1
   0   5  -8   12.94    1.57   1
   0   5  -8   15.41    1.41   1
   0  -5   8   15.62    1.58   1
   0  -5   8   15.71    1.55   1
   0  -5   8   15.65    1.41   1
   0   5   9    8.72    1.11   1
   0   5  -9   10.14    1.28   1
   0   5   9    8.80    1.08   1
   0   5  -9    8.02    1.06   1
   0   5  -9    9.20    1.31   1
   0   5  -9   11.31    1.44   1
   0  -5   9   10.02    1.27   1
   0  -5   9    9.61    1.29   1
   0   5 -10   20.97    1.85   1
   0   5 -10   21.16    2.11   1
   0   5  10   23.33    1.76   1
   0   5 -10   24.02    1.97   1
   0   5  10   21.25    1.81   1
   0  -5  10   23.81    1.89   1
   0  -5  10   18.36    1.96   1
   0   5 -11    3.32    0.97   1
   0   5  11    2.74    0.86   1
   0   5  11    3.90    0.86   1
   0   5 -11    3.12    0.92   1
   0   5 -11    4.03    1.03   1
   0  -5  11    3.24    1.09   1
   0  -5  11    3.13    0.87   1
   0   5  12    0.27    0.66   1
   0   5 -12    1.36    0.81   1
   0   5  12    1.54    0.81   1
   0  -5  12    0.30    0.86   1
   0   6   0  284.70   13.44   1
   0   6   0  275.03   13.44   1
   0  -6   0  271.47   13.63   1
   0  -6   0  264.15   13.85   1
   0  -6   0  268.48   13.69   1
   0  -6   0  280.99   13.68   1
   0   6   1   35.78    1.83   1
   0   6  -1   38.51    1.85   1
   0   6  -1   36.44    2.11   1
   0   6  -1   37.96    1.85   1
   0   6  -1   37.01    1.91   1
   0   6   1   37.33    1.83   1
   0  -6  -1   33.08    2.09   1
   0  -6   1   38.73    2.06   1
   0  -6   1   35.05    2.35   1
   0  -6  -1   36.09    2.08   1
   0  -6  -1   35.35    2.20   1
   0  -6  -1   37.77    2.11   1
   0  -6   1   37.71    2.10   1
   0  -6   1   34.95    2.13   1
   0   6  -2   24.83    1.25   1
   0   6   2   23.36    1.22   1
   0   6  -2   20.86    1.43   1
   0   6  -2   25.50    1.34   1
   0  -6   2   16.14    1.62   1
   0  -6   2   22.98    1.35   1
   0  -6  -2   21.86    1.42   1
   0  -6  -2   23.64    1.44   1
   0  -6   2   20.49    1.46   1
   0  -6   2   21.02    1.42   1
   0  -6  -2   23.41    1.50   1
   0  -6  -2   22.73    1.44   1
   0   6   3    2.71    0.38   1
   0   6  -3    2.37    0.50   1
   0   6   3    2.67    0.27   1
   0   6  -3    2.35    0.46   1
   0   6   3    2.22    0.24   1
   0   6  -3    1.96    0.37   1
   0  -6   3    2.42    0.41   1
   0  -6  -3    2.44    0.47   1
   0  -6   3    3.04    0.71   1
   0  -6  -3    2.97    0.53   1
   0  -6   3    3.26    0.56   1
   0  -6   3    2.92    0.50   1
   0  -6  -3    3.25    0.56   1
   0   6  -4   16.42    1.20   1
   0   6  -4   13.53    1.08   1
   0   6  -4   13.39    1.14   1
   0   6   4   14.70    0.99   1
   0   6   4   14.98    0.94   1
   0   6   4   16.60    1.05   1
   0   6  -4   17.09    1.34   1
   0  -6  -4   17.06    1.22   1
   0  -6   4   14.91    1.00   1
   0  -6   4   17.14    1.47   1
   0  -6   4   16.85    1.19   1
   0  -6   4   13.20    1.18   1
   0   6  -5   92.43    5.49   1
   0   6   5  113.10    5.47   1
   0   6  -5  107.75    5.62   1
   0   6   5  102.08    5.38   1
   0   6  -5  105.37    5.59   1
   0   6  -5  103.23    5.74   1
   0  -6   5  106.02    5.65   1
   0  -6   5  101.56    5.53   1
   0  -6   5  105.06    5.36   1
   0  -6   5  113.53    5.84   1
   0  -6  -5  105.93    5.60   1
   0   6  -6    5.36    0.87   1
   0   6   6    5.91    0.72   1
   0   6  -6    4.51    0.71   1
   0   6  -6    5.05    0.93   1
   0   6  -6    4.57    0.83   1
   0   6   6    5.72    0.72   1
   0  -6   6    4.50    0.87   1
   0  -6   6    6.20    0.86   1
   0  -6   6    5.34    0.57   1
   0  -6   6    3.78    0.84   1
   0   6  -7   33.60    2.21   1
   0   6  -7   28.18    2.28   1
   0   6  -7   32.93    2.18   1
   0   6   7   27.62    1.97   1
   0   6  -7   35.04    2.09   1
   0   6   7   33.03    1.99   1
   0  -6   7   31.25    2.19   1
   0  -6   7   24.37    2.12   1
   0  -6   7   30.20    2.10   1
   0   6  -8    2.40    0.85   1
   0   6   8    3.59    0.70   1
   0   6  -8    3.33    0.71   1
   0   6  -8    5.10    1.08   1
   0   6  -8    4.72    0.88   1
   0   6   8    4.23    0.77   1
   0  -6   8    3.43    0.83   1
   0  -6   8    3.48    0.95   1
   0  -6   8    3.97    0.88   1
   0   6  -9    1.19    0.59   1
   0   6  -9    0.83    0.61   1
   0   6  -9    0.68    0.74   1
   0   6   9   -0.09    0.46   1
   0   6   9    1.09    0.56   1
   0   6  -9    0.64    0.72   1
   0  -6   9    1.64    0.74   1
   0  -6   9    0.39    0.80   1
   0  -6   9    0.85    0.76   1
   0   6  10   14.97    1.58   1
   0   6 -10   14.40    1.61   1
   0   6 -10   15.27    1.79   1
   0   6 -10   17.39    1.76   1
   0   6 -10   15.09    1.75   1
   0   6  10   15.76    1.55   1
   0  -6  10   14.47    1.68   1
   0  -6  10   14.31    1.73   1
   0   6 -11   -0.25    0.58   1
   0   6  11   -0.72    0.49   1
   0   6 -11    0.65    0.79   1
   0   6  11    0.11    0.64   1
   0   6 -11   -0.35    0.58   1
   0  -6  11   -0.40    0.78   1
   0  -6  11    0.15    0.74   1
   0   6 -12   17.15    1.96   1
   0   6  12   14.75    1.81   1
   0   6  12   14.43    1.60   1
   0  -6  12   18.36    1.89   1
   0  -6  12   13.86    1.82   1
   0   7   0   -0.14    0.08   1
   0  -7   0    0.24    0.36   1
   0  -7   0    0.03    0.45   1
   0  -7   0   -0.06    0.35   1
   0  -7   0   -0.35    0.28   1
   0   7  -1   28.73    1.43   1
   0   7  -1   28.24    1.74   1
   0   7  -1   27.68    1.48   1
   0   7  -1   27.27    1.43   1
   0  -7  -1   27.41    1.72   1
   0  -7   1   26.49    2.01   1
   0  -7   1   26.28    1.76   1
   0  -7   1   27.98    1.71   1
   0  -7  -1   26.68    1.84   1
   0  -7  -1   27.32    1.70   1
   0  -7  -1   28.49    1.75   1
   0  -7   1   28.75    1.66   1
   0   7  -2   39.60    2.08   1
   0   7   2   38.09    1.97   1
   0   7  -2   37.50    2.26   1
   0   7  -2   38.90    2.02   1
   0   7  -2   39.92    2.05   1
   0  -7  -2   36.77    2.24   1
   0  -7   2   34.44    2.55   1
   0  -7  -2   40.52    2.34   1
   0  -7   2   36.82    2.30   1
   0  -7   2   37.77    2.17   1
   0  -7  -2   39.59    2.27   1
   0  -7  -2   39.82    2.26   1
   0  -7   2   36.42    2.24   1
   0   7  -3   43.51    2.34   1
   0   7   3   45.09    2.21   1
   0   7  -3   40.90    2.44   1
   0   7   3   40.76    2.12   1
   0   7   3   42.06    2.11   1
   0   7  -3   38.01    2.27   1
   0  -7   3   39.30    2.41   1
   0  -7   3   38.04    2.74   1
   0  -7   3   42.81    2.31   1
   0  -7  -3   39.96    2.43   1
   0  -7  -3   41.55    2.41   1
   0  -7  -3   41.97    2.44   1
   0  -7   3   39.14    2.46   1
   0   7   4   27.26    1.54   1
   0   7  -4   22.43    1.69   1
   0   7  -4   28.23    1.94   1
   0   7  -4   29.56    1.85   1
   0   7   4   30.86    1.65   1
   0   7  -4   27.41    1.78   1
   0  -7   4   30.00    1.67   1
   0  -7   4   23.75    1.79   1
   0  -7   4   28.32    1.82   1
   0  -7   4   30.47    2.19   1
   0  -7  -4   27.02    1.83   1
   0   7   5   10.61    0.86   1
   0   7  -5    9.41    1.06   1
   0   7   5    8.29    0.79   1
   0   7  -5    7.91    1.00   1
   0   7  -5    8.67    1.17   1
   0   7  -5    9.72    1.00   1
   0  -7   5   10.14    1.14   1
   0  -7  -5   11.61    1.16   1
   0  -7   5    9.06    0.78   1
   0  -7   5   11.38    1.38   1
   0  -7   5    8.73    0.99   1
   0   7  -6    6.76    1.16   1
   0   7   6    8.41    0.90   1
   0   7  -6    8.86    0.98   1
   0   7   6    7.53    0.84   1
   0   7  -6    8.62    1.12   1
   0   7  -6   10.13    1.14   1
   0  -7   6    7.71    1.12   1
   0  -7   6    8.34    1.21   1
   0  -7   6   10.65    1.11   1
   0   7  -7    6.25    1.17   1
   0   7  -7    4.95    0.83   1
   0   7   7    4.73    0.76   1
   0   7  -7    7.78    1.08   1
   0   7  -7    6.61    1.05   1
   0   7   7    4.38    0.74   1
   0  -7   7    6.85    1.01   1
   0  -7   7    6.69    1.10   1
   0  -7   7    4.70    0.99   1
   0   7   8   17.64    1.46   1
   0   7  -8   18.74    2.07   1
   0   7  -8   20.11    1.70   1
   0   7  -8   18.69    1.51   1
   0   7   8   20.51    1.52   1
   0   7  -8   18.84    1.89   1
   0  -7   8   18.14    1.77   1
   0  -7   8   15.00    1.72   1
   0  -7   8   15.04    1.76   1
   0   7  -9    7.70    1.19   1
   0   7  -9    7.68    1.33   1
   0   7   9    7.36    1.06   1
   0   7  -9    8.46    1.11   1
   0   7  -9    7.88    1.37   1
   0   7   9    5.90    0.94   1
   0  -7   9    7.86    1.24   1
   0  -7   9    9.49    1.33   1
   0  -7   9    8.95    1.35   1
   0   7  10   13.14    1.38   1
   0   7 -10   13.43    1.56   1
   0   7 -10    8.47    1.23   1
   0   7  10   10.70    1.29   1
   0   7 -10   10.77    1.56   1
   0   7 -10   10.45    1.57   1
   0  -7  10    9.52    1.47   1
   0  -7  10   11.33    1.55   1
   0   7 -11    3.41    0.95   1
   0   7  11    3.60    0.91   1
   0   7 -11    1.08    0.87   1
   0   7  11    2.11    0.79   1
   0  -7  11    2.92    1.03   1
   0  -7  11    2.87    1.06   1
   0  -8   0   23.31    1.50   1
   0  -8   0   23.13    1.60   1
   0  -8   0   21.07    1.52   1
   0  -8   0   23.69    1.80   1
   0   8  -1    8.88    0.55   1
   0   8  -1    7.88    0.52   1
   0   8  -1    6.98    0.86   1
   0  -8   1    7.23    0.91   1
   0  -8  -1    7.52    0.90   1
   0  -8  -1    8.87    0.93   1
   0  -8   1    7.53    0.87   1
   0  -8   1    8.75    1.24   1
   0  -8   1    8.16    0.83   1
   0  -8  -1    7.27    0.83   1
   0  -8  -1    9.07    1.12   1
   0   8  -2   29.99    1.58   1
   0   8  -2   25.71    1.52   1
   0   8  -2   29.50    1.82   1
   0  -8   2   24.58    2.11   1
   0  -8  -2   28.44    1.83   1
   0  -8  -2   28.60    1.82   1
   0  -8   2   26.25    1.84   1
   0  -8   2   28.66    1.81   1
   0  -8  -2   26.90    1.89   1
   0  -8  -2   25.04    1.76   1
   0  -8   2   26.21    1.67   1
   0   8  -3   30.52    1.98   1
   0   8   3   32.31    1.80   1
   0   8   3   35.77    1.78   1
   0   8  -3   35.73    1.97   1
   0   8  -3   35.07    2.17   1
   0   8  -3   34.12    2.32   1
   0  -8  -3   34.43    2.16   1
   0  -8  -3   34.18    2.13   1
   0  -8   3   33.61    2.53   1
   0  -8   3   35.73    2.16   1
   0  -8   3   35.06    2.02   1
   0  -8   3   33.42    2.17   1
   0   8  -4   25.09    1.59   1
   0   8   4   19.76    1.36   1
   0   8  -4   25.91    1.73   1
   0   8  -4   24.75    1.59   1
   0   8  -4   25.39    1.90   1
   0   8   4   24.39    1.36   1
   0  -8   4   25.34    1.75   1
   0  -8   4   21.39    1.72   1
   0  -8   4   24.25    2.06   1
   0  -8   4   23.28    1.50   1
   0  -8  -4   24.83    1.74   1
   0   8  -5   19.39    1.56   1
   0   8   5   19.34    1.31   1
   0   8  -5   22.12    1.80   1
   0   8  -5   19.58    1.46   1
   0   8   5   18.53    1.27   1
   0   8  -5   18.16    1.49   1
   0  -8   5   19.91    1.55   1
   0  -8   5   21.99    1.71   1
   0  -8   5   23.26    1.93   1
   0  -8  -5   21.08    1.61   1
   0   8  -6    1.35    0.58   1
   0   8  -6    1.38    0.54   1
   0   8   6   -0.02    0.36   1
   0   8  -6    0.07    0.54   1
   0   8   6   -0.08    0.37   1
   0   8  -6    0.54    0.65   1
   0  -8   6    0.77    0.67   1
   0  -8   6   -0.13    0.63   1
   0  -8   6   -0.31    0.52   1
   0   8   7   15.52    1.30   1
   0   8  -7   17.34    1.70   1
   0   8  -7   14.25    1.43   1
   0   8  -7   14.61    1.53   1
   0   8   7   15.45    1.31   1
   0   8  -7   17.14    1.95   1
   0  -8   7   15.44    1.74   1
   0  -8   7   17.84    1.64   1
   0  -8   7   16.41    1.80   1
   0   8  -8    8.20    1.27   1
   0   8   8    6.69    0.93   1
   0   8  -8    6.16    1.35   1
   0   8  -8    7.96    1.18   1
   0   8   8    8.08    1.01   1
   0   8  -8    7.05    1.06   1
   0  -8   8    4.32    1.02   1
   0  -8   8    9.07    1.37   1
   0  -8   8    7.76    1.33   1
   0   8  -9   18.07    2.19   1
   0   8  -9   16.76    1.93   1
   0   8  -9   20.26    1.67   1
   0   8   9   17.89    1.56   1
   0   8  -9   16.93    1.81   1
   0   8   9   18.29    1.55   1
   0  -8   9   15.18    1.78   1
   0  -8   9   16.82    1.98   1
   0  -8   9   17.77    1.97   1
   0   8  10    4.22    0.91   1
   0   8 -10    5.49    1.12   1
   0   8 -10    3.35    0.90   1
   0   8 -10    6.23    1.32   1
   0   8 -10    3.54    1.10   1
   0   8  10    4.77    0.91   1
   0  -8  10    3.45    1.16   1
   0  -8  10    5.74    1.28   1
   0   9   0    0.02    0.08   1
   0   9   0   -0.72    0.39   1
   0   9   0    0.27    0.12   1
   0  -9   0    0.24    0.58   1
   0  -9   0   -0.21    0.42   1
   0  -9   0    0.00    0.37   1
   0  -9   0    0.28    0.50   1
   0   9  -1   93.73    4.93   1
   0   9  -1   92.65    4.62   1
   0  -9   1   95.12    5.33   1
   0  -9  -1   91.45    5.12   1
   0  -9  -1   87.69    4.89   1
   0  -9  -1   92.14    4.96   1
   0  -9   1   95.70    4.94   1
   0  -9  -1   82.49    4.84   1
   0  -9   1   86.73    4.97   1
   0  -9   1   89.97    4.84   1
   0   9   2    8.59    0.51   1
   0   9  -2    8.11    0.79   1
   0   9  -2    9.67    0.67   1
   0   9   2    8.92    0.48   1
   0   9  -2    9.35    1.04   1
   0  -9  -2    7.38    0.97   1
   0  -9   2    9.12    1.39   1
   0  -9  -2    9.31    1.02   1
   0  -9   2    7.25    1.02   1
   0  -9   2    9.03    0.92   1
   0  -9   2    9.01    1.02   1
   0  -9  -2    7.02    0.94   1
   0  -9  -2   10.11    1.14   1
   0   9  -3    0.10    0.37   1
   0   9   3   -0.09    0.14   1
   0   9  -3    0.01    0.28   1
   0   9  -3    0.27    0.45   1
   0   9  -3   -0.32    0.46   1
   0  -9   3   -0.20    0.51   1
   0  -9  -3    1.08    0.53   1
   0  -9   3    0.60    0.53   1
   0  -9  -3    0.04    0.53   1
   0  -9   3    0.26    0.40   1
   0  -9   3    0.22    0.69   1
   0   9   4   27.21    1.59   1
   0   9  -4   28.41    1.84   1
   0   9  -4   26.27    1.76   1
   0   9  -4   30.09    2.21   1
   0   9  -4   31.13    2.02   1
   0  -9   4   24.27    2.01   1
   0  -9   4   30.47    1.99   1
   0  -9  -4   28.38    2.02   1
   0  -9   4   29.80    1.81   1
   0  -9   4   30.50    2.45   1
   0   9  -5    0.38    0.63   1
   0   9  -5    0.12    0.45   1
   0   9  -5    0.02    0.50   1
   0   9   5   -0.03    0.30   1
   0   9  -5    0.24    0.48   1
   0  -9   5   -0.39    0.65   1
   0  -9   5    0.69    0.65   1
   0  -9  -5    0.83    0.63   1
   0  -9   5    0.18    0.56   1
   0   9   6   57.66    3.43   1
   0   9  -6   59.65    3.57   1
   0   9  -6   53.32    3.58   1
   0   9  -6   66.26    3.81   1
   0   9  -6   66.27    4.08   1
   0  -9   6   68.69    4.13   1
   0  -9   6   65.56    3.92   1
   0  -9   6   66.02    3.73   1
   0   9  -7    7.15    1.10   1
   0   9   7    6.58    0.87   1
   0   9  -7    7.30    1.15   1
   0   9  -7    6.35    0.98   1
   0   9  -7    4.38    1.20   1
   0  -9   7    6.00    1.24   1
   0  -9   7    6.49    1.28   1
   0  -9   7    5.73    1.09   1
   0   9  -8    5.02    1.02   1
   0   9  -8    5.82    1.33   1
   0   9   8    3.15    0.70   1
   0   9  -8    2.40    0.94   1
   0   9  -8    5.42    0.93   1
   0  -9   8    2.20    1.02   1
   0  -9   8    6.06    1.24   1
   0  -9   8    5.14    1.06   1
   0   9  -9    0.78    0.84   1
   0   9   9    0.86    0.57   1
   0   9  -9    0.61    0.75   1
   0   9  -9    0.46    0.62   1
   0   9  -9    0.45    0.83   1
   0  -9   9    0.91    0.94   1
   0  -9   9    0.52    0.83   1
   0   9 -10    0.71    0.65   1
   0   9 -10    0.04    0.87   1
   0   9  10   -0.69    0.56   1
   0  -9  10    0.27    0.87   1
   0  -9  10    1.22    1.15   1
   0  10   0    2.65    0.65   1
   0  10   0    2.40    0.29   1
   0 -10   0    2.84    0.87   1
   0 -10   0    3.32    0.72   1
   0 -10   0    2.03    0.69   1
   0 -10   0    2.50    0.63   1
   0  10   1   24.85    1.30   1
   0  10  -1   26.68    1.86   1
   0  10   1   26.47    1.30   1
   0  10  -1   24.16    1.49   1
   0 -10   1   27.65    2.26   1
   0 -10   1   25.63    1.84   1
   0 -10  -1   25.33    2.01   1
   0 -10  -1   23.63    1.86   1
   0 -10   1   27.87    1.96   1
   0 -10  -1   23.67    1.85   1
   0 -10  -1   24.23    1.78   1
   0 -10   1   26.22    1.76   1
   0  10   2   16.26    0.88   1
   0  10   2   16.48    0.89   1
   0  10  -2   18.21    1.64   1
   0  10  -2   18.25    1.43   1
   0  10  -2   16.44    1.18   1
   0 -10   2   16.63    1.50   1
   0 -10   2   12.94    1.83   1
   0 -10  -2   16.88    1.42   1
   0 -10   2   15.76    1.31   1
   0 -10  -2   15.42    1.41   1
   0 -10   2   18.65    1.52   1
   0 -10  -2   14.50    1.45   1
   0  10  -3   31.69    2.16   1
   0  10  -3   30.22    2.33   1
   0  10  -3   29.70    1.92   1
   0  10   3   31.88    1.64   1
   0 -10  -3   29.93    2.17   1
   0 -10   3   23.68    2.48   1
   0 -10   3   29.82    2.20   1
   0 -10   3   34.84    2.17   1
   0 -10   3   30.66    1.98   1
   0  10  -4   52.59    3.20   1
   0  10  -4   55.02    3.04   1
   0  10  -4   53.57    3.47   1
   0  10   4   54.86    2.77   1
   0  10  -4   50.89    2.90   1
   0 -10   4   48.99    3.28   1
   0 -10   4   49.35    3.17   1
   0 -10  -4   51.26    3.26   1
   0 -10   4   48.58    3.66   1
   0  10   5    1.61    0.44   1
   0  10  -5    1.54    0.85   1
   0  10  -5    2.91    0.79   1
   0  10  -5    2.44    0.59   1
   0  10  -5    0.97    0.55   1
   0 -10   5    2.37    1.05   1
   0 -10   5    0.83    0.74   1
   0 -10   5    2.13    0.73   1
   0 -10  -5    1.48    0.77   1
   0  10  -6    0.36    0.64   1
   0  10  -6    1.22    0.60   1
   0  10  -6   -0.18    0.73   1
   0  10   6    0.17    0.42   1
   0  10  -6   -0.20    0.53   1
   0 -10   6    1.91    0.87   1
   0 -10   6    0.71    0.72   1
   0 -10   6    0.92    0.94   1
   0  10  -7    1.37    0.83   1
   0  10   7   -0.43    0.40   1
   0  10  -7   -0.33    0.73   1
   0  10  -7    0.75    0.58   1
   0  10  -7    0.38    0.61   1
   0 -10   7    1.36    0.85   1
   0 -10   7   -0.46    0.84   1
   0 -10   7    1.20    0.85   1
   0  10  -8   18.14    1.82   1
   0  10   8   17.92    1.43   1
   0  10  -8   16.61    1.96   1
   0  10  -8   17.08    1.64   1
   0  10  -8   14.18    2.04   1
   0 -10   8   15.06    1.93   1
   0 -10   8   19.31    1.94   1
   0  10  -9   21.96    1.83   1
   0  10  -9   21.88    2.15   1
   0  10   9   18.68    1.69   1
   0 -10   9   24.20    2.23   1
   0 -10   9   18.85    2.40   1
   0  11   0    0.05    0.18   1
   0  11   0   -0.19    0.48   1
   0 -11   0    0.23    0.55   1
   0 -11   0    0.12    0.61   1
   0 -11   0    0.01    0.77   1
   0 -11   0    0.87    0.71   1
   0  11  -1   22.32    1.30   1
   0  11   1   20.85    1.67   1
   0  11  -1   20.37    1.71   1
   0  11  -1   22.89    1.91   1
   0  11   1   21.54    1.15   1
   0 -11   1   20.68    1.64   1
   0 -11   1   23.24    1.75   1
   0 -11  -1   21.65    1.75   1
   0 -11  -1   19.02    1.74   1
   0 -11   1   19.96    2.26   1
   0 -11   1   23.90    1.88   1
   0 -11  -1   23.73    1.80   1
   0  11  -2   13.31    1.41   1
   0  11   2   12.82    0.75   1
   0  11  -2   13.82    1.66   1
   0  11  -2   13.67    1.05   1
   0 -11   2   14.02    1.90   1
   0 -11   2   13.72    1.51   1
   0 -11  -2   13.66    1.45   1
   0 -11  -2   13.05    1.40   1
   0 -11   2   14.59    1.46   1
   0 -11   2   15.43    1.37   1
   0  11  -3    5.81    1.14   1
   0  11  -3    5.47    0.96   1
   0  11  -3    4.60    0.72   1
   0  11   3    4.25    0.41   1
   0 -11   3    4.81    1.00   1
   0 -11   3    3.37    1.21   1
   0 -11  -3    4.22    0.92   1
   0 -11   3    3.24    0.84   1
   0  11  -4    3.47    0.70   1
   0  11   4    3.93    0.49   1
   0  11  -4    4.72    0.94   1
   0  11  -4    4.17    1.02   1
   0 -11   4    4.48    0.94   1
   0 -11  -4    3.62    0.98   1
   0 -11   4    2.29    1.15   1
   0 -11   4    3.24    0.92   1
   0  11  -5    1.72    0.70   1
   0  11  -5    2.15    0.65   1
   0  11  -5    1.41    0.84   1
   0  11   5    0.56    0.39   1
   0 -11   5    1.69    1.04   1
   0 -11   5    1.82    0.83   1
   0 -11   5    0.23    0.76   1
   0  11   6   18.60    1.39   1
   0  11  -6   17.46    2.17   1
   0  11  -6   18.60    1.57   1
   0  11  -6   21.58    2.04   1
   0 -11   6   21.34    1.96   1
   0 -11   6   19.08    2.34   1
   0 -11   6   19.65    2.12   1
   0  11  -7    5.82    1.16   1
   0  11  -7    8.28    1.11   1
   0  11  -7    5.74    1.02   1
   0  11   7    6.37    0.84   1
   0 -11   7    4.36    1.25   1
   0 -11   7    6.87    1.15   1
   0  11  -8    0.24    0.64   1
   0  11   8   -0.11    0.57   1
   0  11  -8    0.46    0.88   1
   0 -11   8    1.41    1.31   1
   0 -11   8   -0.52    0.83   1
   0  12   0    5.20    0.92   1
   0  12   0    4.95    1.05   1
   0  12   0    4.96    0.43   1
   0 -12   0    4.61    0.91   1
   0 -12   0    3.40    0.94   1
   0 -12   0    4.31    0.89   1
   0  12   1    3.07    0.84   1
   0  12  -1    1.50    0.35   1
   0  12  -1    2.44    0.70   1
   0  12  -1    1.54    0.80   1
   0  12   1    1.69    0.65   1
   0  12   1    1.83    0.22   1
   0 -12   1    1.54    0.67   1
   0 -12   1   -0.31    0.73   1
   0 -12  -1    1.33    0.74   1
   0 -12  -1    1.79    0.79   1
   0 -12   1    1.96    0.73   1
   0 -12  -1    1.54    0.68   1
   0  12  -2   -0.05    0.34   1
   0  12   2   -0.73    0.46   1
   0  12   2   -0.14    0.12   1
   0  12  -2    0.82    0.59   1
   0  12  -2    1.36    0.75   1
   0 -12   2   -1.25    0.88   1
   0 -12   2   -0.58    0.61   1
   0 -12   2    0.68    0.67   1
   0 -12  -2    0.67    0.64   1
   0 -12  -2    0.06    0.66   1
   0  12  -3    1.86    0.80   1
   0  12  -3    0.65    0.47   1
   0  12   3    0.78    0.23   1
   0  12  -3    1.33    0.63   1
   0 -12   3    0.44    1.08   1
   0 -12   3    0.90    0.71   1
   0 -12   3    0.50    0.72   1
   0 -12  -3    0.61    0.75   1
   0  12   4    1.44    0.37   1
   0  12  -4    1.61    0.91   1
   0  12  -4    0.85    0.55   1
   0  12  -4    1.49    0.69   1
   0 -12   4    0.65    0.80   1
   0 -12  -4    2.26    0.89   1
   0 -12   4    1.03    1.20   1
   0 -12   4    2.43    0.80   1
   0  12  -5    2.44    0.99   1
   0  12  -5    1.54    0.64   1
   0  12  -5    1.62    0.74   1
   0  12   5    1.45    0.41   1
   0 -12   5    1.11    0.87   1
   0 -12   5    0.48    1.05   1
   0 -12   5    0.42    0.69   1
   0  12   6    0.34    0.48   1
   0  12  -6   -0.45    0.60   1
   0 -12   6    0.17    1.06   1
   0 -12   6    0.76    0.73   1
   0  13   0   -0.17    0.19   1
   0  13   0    0.62    0.71   1
   0 -13   0   -0.10    0.78   1
   0 -13   0   -0.12    0.69   1
   0 -13   0    0.53    0.69   1
   0  13  -1    4.00    0.47   1
   0  13  -1    2.85    0.91   1
   0  13   1    3.72    0.29   1
   0 -13  -1    4.00    0.96   1
   0 -13   1    5.25    1.01   1
   0 -13   1    4.63    1.12   1
   0 -13  -1    3.04    0.94   1
   0  13  -2   -0.13    0.33   1
   0  13  -2    0.41    0.76   1
   0 -13   2   -0.06    0.67   1
   0 -13  -2   -0.80    0.59   1
   0 -13   2   -0.95    0.67   1
   0  13  -3   -0.38    0.45   1
   0  13   3    0.02    0.16   1
   0 -13  -3    0.15    0.75   1
   0 -13   3   -0.51    0.72   1
   0 -13   3   -0.88    0.60   1
   0  13  -4    2.90    0.78   1
   0  13   4    1.59    0.37   1
   0 -13   4    0.27    0.98   1
   0 -13   4    1.52    0.87   1
   1   0 -13    1.20    0.70   1
  -1   0  13    0.22    0.83   1
  -1   0  13    0.09    0.68   1
  -1   0  12   -2.35    0.59   1
   1   0 -12   -1.10    0.55   1
   1   0 -12    0.38    0.64   1
  -1   0  12    1.05    0.79   1
   1   0 -11   -0.55    0.51   1
  -1   0  11   -0.38    0.52   1
   1   0 -11    0.37    0.55   1
  -1   0  11   -0.10    0.47   1
   1   0 -10   -0.46    0.33   1
   1   0 -10   -0.07    0.49   1
   1   0 -10   -0.97    0.40   1
  -1   0  10    0.92    0.56   1
  -1   0  10    0.67    0.60   1
  -1   0   9   -0.94    0.35   1
   1   0  -9   -0.14    0.40   1
   1   0  -9    0.05    0.46   1
  -1   0   9   -0.22    0.40   1
   1   0  -9   -0.91    0.41   1
   1   0  -8    0.40    0.49   1
  -1   0   8   -0.15    0.38   1
   1   0  -8    0.17    0.41   1
  -1   0   8   -0.09    0.28   1
  -1   0   8    0.10    0.41   1
   1   0  -8    0.24    0.43   1
   1   0  -7    0.30    0.40   1
  -1   0   7    0.29    0.43   1
   1   0  -7   -0.26    0.36   1
  -1   0   7   -0.47    0.31   1
  -1   0   7   -0.51    0.29   1
   1   0  -7   -0.64    0.33   1
   1   0  -7    0.18    0.28   1
   1   0  -6   -0.37    0.31   1
  -1   0   6    0.33    0.31   1
  -1   0   6   -0.10    0.17   1
   1   0  -6    0.43    0.32   1
  -1   0   6    0.36    0.34   1
   1   0  -6    0.21    0.38   1
   1   0  -6   -0.17    0.24   1
  -1   0   6   -0.08    0.33   1
  -1   0   5   -0.11    0.19   1
   1   0  -5   -0.17    0.23   1
  -1   0   5   -0.35    0.29   1
   1   0  -5   -0.01    0.30   1
  -1   0   5   -0.06    0.30   1
  -1   0   5   -0.08    0.26   1
   1   0  -5    0.20    0.25   1
   1   0  -5    0.50    0.36   1
  -1   0   4   -0.40    0.25   1
   1   0  -4    0.26    0.31   1
  -1   0   4    0.13    0.21   1
  -1   0   4    0.04    0.27   1
   1   0  -4   -0.46    0.30   1
   1   0  -4    0.03    0.23   1
   1   0  -4    0.24    0.25   1
  -1   0   3   -0.05    0.17   1
   1   0  -3    0.55    0.30   1
   1   0  -3    0.18    0.29   1
   1   0  -3    0.14    0.23   1
   1   0  -3   -0.04    0.19   1
  -1   0   3   -0.06    0.19   1
  -1   0   3   -0.32    0.20   1
  -1   0   2   -0.09    0.15   1
   1   0  -2    0.15    0.16   1
   1   0  -2   -0.19    0.18   1
   1   0  -2   -0.27    0.11   1
  -1   0   2   -0.12    0.16   1
   1   0  -2    0.28    0.25   1
  -1   0   2   -0.15    0.17   1
   1   0  -2   -0.09    0.27   1
  -1   0   1   -1.20    0.11   1
  -1   0   1   -1.18    0.13   1
   1   0  -1   -0.91    0.19   1
   1   0  -1   -0.91    0.12   1
   1   0  -1   -0.82    0.09   1
   1   0  -1   -0.88    0.11   1
   1   0  -1   -1.32    0.13   1
  -1   0   0    0.00    0.08   1
  -1   0   0    0.04    0.07   1
   1   0   0   -0.09    0.07   1
   1   0   0    0.00    0.05   1
  -1   0   0    0.02    0.08   1
   1   0   0    0.09    0.08   1
   1   0   0   -0.08    0.08   1
   1   0   1    0.03    0.08   1
  -1   0  -1   -0.16    0.17   1
   1   0   1    0.06    0.14   1
   1   0   1    0.05    0.15   1
  -1   0  -1   -0.06    0.13   1
  -1   0  -1   -0.12    0.14   1
  -1   0  -2   -0.23    0.21   1
   1   0   2   -0.25    0.18   1
  -1   0  -2   -0.27    0.20   1
   1   0   2   -0.13    0.16   1
  -1   0  -2   -0.44    0.24   1
  -1   0  -2   -0.23    0.17   1
   1   0   2   -0.39    0.22   1
  -1   0  -3    0.04    0.24   1
  -1   0  -3    0.03    0.27   1
  -1   0  -3    0.00    0.21   1
   1   0   3   -0.32    0.19   1
  -1   0  -3    0.08    0.24   1
   1   0   3   -0.22    0.22   1
   1   0   3    0.05    0.23   1
  -1   0  -4   -0.43    0.21   1
  -1   0  -4    0.20    0.34   1
   1   0   4    0.01    0.24   1
   1   0   4   -0.39    0.23   1
  -1   0  -4   -0.21    0.22   1
   1   0   4    0.26    0.33   1
  -1   0  -4   -0.10    0.29   1
   1   0   5    0.14    0.30   1
  -1   0  -5    0.06    0.26   1
   1   0   5   -0.60    0.28   1
  -1   0  -5    0.02    0.33   1
  -1   0  -5   -0.33    0.32   1
  -1   0  -5    0.12    0.25   1
   1   0   5   -0.11    0.26   1
   1   0   6    0.33    0.40   1
  -1   0  -6   -0.15    0.27   1
  -1   0  -6   -0.09    0.35   1
  -1   0  -6   -0.03    0.38   1
  -1   0  -6   -0.28    0.20   1
   1   0   6    0.25    0.32   1
   1   0   6    0.11    0.31   1
  -1   0  -7    0.31    0.44   1
   1   0   7   -0.46    0.30   1
   1   0   7    0.23    0.34   1
  -1   0  -7   -0.26    0.39   1
   1   0   7   -0.22    0.39   1
  -1   0  -7   -0.02    0.28   1
   1   0   8    0.21    0.33   1
  -1   0  -8   -0.16    0.27   1
  -1   0  -8    0.43    0.51   1
   1   0   8   -0.02    0.32   1
  -1   0  -8    0.02    0.42   1
   1   0   8    0.39    0.49   1
  -1   0  -9   -0.01    0.47   1
   1   0   9    0.26    0.38   1
   1   0   9    0.21    0.52   1
  -1   0  -9    0.10    0.51   1
   1   0  10   -0.29    0.52   1
  -1   0 -10   -0.44    0.53   1
  -1   0 -10    0.50    0.54   1
  -1   0 -11    0.31    0.55   1
  -1   0 -11   -1.00    0.48   1
   1   0  11   -0.08    0.59   1
   1   0  11    0.08    0.77   1
   1   0  12   -0.94    0.70   1
  -1   0 -12   -0.13    0.57   1
   1   0  12    0.29    0.66   1
  -1   0 -12    0.31    0.62   1
   1   0  13   -0.37    0.75   1
   1   0  13    0.53    1.01   1
  -1   1  13   -0.04    0.66   1
   1   1 -13    0.02    0.71   1
   1   1 -13    0.63    0.77   1
  -1  -1  13   -0.45    0.76   1
  -1  -1  13    0.60    0.76   1
  -1   1  12   -0.07    0.63   1
   1   1 -12   -1.05    0.44   1
   1   1 -12   -0.13    0.67   1
   1  -1 -12    0.44    0.62   1
  -1  -1  12    0.24    0.63   1
  -1  -1  12   -0.40    0.71   1
   1   1 -11    9.26    1.25   1
  -1   1  11    8.56    1.24   1
   1   1 -11    9.26    1.27   1
  -1   1  11    8.31    1.02   1
  -1  -1  11    9.77    1.28   1
  -1  -1  11    6.33    1.01   1
   1  -1 -11    8.24    1.23   1
   1  -1 -11    7.35    1.09   1
  -1  -1  11    7.05    1.16   1
  -1   1  10   11.06    1.16   1
   1   1 -10    9.58    1.27   1
  -1   1  10   11.69    1.38   1
   1   1 -10    8.91    1.16   1
   1   1 -10   12.78    1.41   1
  -1  -1  10   12.53    1.22   1
  -1  -1  10   12.80    1.36   1
   1  -1 -10   12.82    1.45   1
   1  -1 -10   10.85    1.25   1
  -1   1   9    5.26    0.76   1
  -1   1   9    5.80    0.82   1
   1   1  -9    5.33    0.88   1
   1   1  -9    5.23    0.81   1
  -1   1   9    4.95    0.88   1
   1   1  -9    6.53    0.95   1
  -1  -1   9    4.99    0.85   1
   1  -1  -9    4.55    0.81   1
   1  -1  -9    6.34    0.94   1
   1  -1  -9    5.76    0.76   1
  -1  -1   9    5.42    0.80   1
  -1   1   8   12.08    1.26   1
  -1   1   8   12.96    1.08   1
   1   1  -8   13.57    1.20   1
   1   1  -8   12.33    1.08   1
   1   1  -8   12.14    1.26   1
   1   1  -8   14.28    1.22   1
  -1   1   8   13.45    1.14   1
   1  -1  -8   13.01    1.31   1
   1  -1  -8   12.92    1.13   1
  -1  -1   8   11.07    1.20   1
   1  -1  -8   12.68    1.06   1
  -1  -1   8   13.22    1.13   1
   1   1  -7    1.33    0.51   1
  -1   1   7    2.23    0.50   1
  -1   1   7    3.15    0.61   1
   1   1  -7    2.28    0.58   1
   1   1  -7    2.88    0.60   1
  -1   1   7    2.12    0.50   1
   1   1  -7    1.72    0.43   1
  -1  -1   7    2.23    0.40   1
  -1  -1   7    1.76    0.52   1
   1  -1  -7    1.62    0.49   1
  -1  -1   7    2.61    0.56   1
  -1  -1   7    2.63    0.46   1
   1  -1  -7    2.66    0.53   1
   1  -1  -7    2.12    0.62   1
  -1   1   6   33.96    2.03   1
  -1   1   6   33.93    1.77   1
   1   1  -6   33.54    2.03   1
   1   1  -6   33.00    2.09   1
   1   1  -6   32.94    2.12   1
  -1   1   6   31.40    2.09   1
   1   1  -6   35.85    2.10   1
   1  -1  -6   34.69    1.96   1
   1  -1  -6   37.37    2.08   1
  -1  -1   6   37.04    1.96   1
  -1  -1   6   36.15    2.09   1
   1  -1  -6   35.39    2.09   1
  -1  -1   6   34.29    2.10   1
   1  -1  -6   32.25    2.11   1
  -1  -1   6   38.15    2.02   1
   1   1  -5    4.54    0.60   1
   1   1  -5    6.20    0.71   1
  -1   1   5    7.07    0.66   1
  -1   1   5    5.07    0.42   1
   1   1  -5    5.57    0.73   1
  -1   1   5    3.82    0.59   1
   1   1  -5    6.16    0.71   1
   1  -1  -5    5.89    0.52   1
   1  -1  -5    7.28    0.74   1
   1  -1  -5    5.51    0.65   1
  -1  -1   5    8.89    0.73   1
  -1  -1   5    6.78    0.71   1
  -1  -1   5    7.22    0.66   1
  -1  -1   5    6.89    0.60   1
   1  -1  -5    5.10    0.68   1
   1   1  -4  117.81    6.01   1
   1   1  -4  119.97    6.09   1
  -1   1   4  116.01    6.06   1
  -1   1   4  119.78    6.00   1
   1   1  -4  110.32    6.09   1
  -1   1   4  121.43    5.90   1
   1   1  -4  116.81    6.09   1
   1  -1  -4  120.93    6.08   1
   1  -1  -4  121.18    5.99   1
   1  -1  -4  122.12    6.05   1
  -1  -1   4  113.48    6.03   1
  -1  -1   4  120.81    6.07   1
  -1  -1   4  119.62    6.10   1
  -1  -1   4  126.09    6.03   1
  -1   1   3  103.46    4.92   1
   1   1  -3   98.17    5.09   1
   1   1  -3   95.42    5.04   1
  -1   1   3   96.00    4.96   1
   1   1  -3  106.72    4.99   1
   1   1  -3   96.99    5.01   1
  -1   1   3  104.49    5.01   1
   1  -1  -3  105.01    5.02   1
   1  -1  -3  103.12    5.03   1
  -1  -1   3   82.77    5.02   1
  -1  -1   3  108.07    5.02   1
  -1  -1   3  101.17    5.05   1
   1  -1  -3  100.21    4.96   1
  -1  -1   3   86.53    5.03   1
  -1   1   2    0.30    0.19   1
   1   1  -2    0.45    0.34   1
   1   1  -2    0.08    0.18   1
   1   1  -2    0.53    0.24   1
  -1   1   2    0.26    0.15   1
   1   1  -2    0.41    0.18   1
  -1  -1   2    0.48    0.26   1
   1  -1  -2    0.32    0.23   1
  -1  -1   2    0.24    0.18   1
  -1  -1   2    0.41    0.23   1
   1  -1  -2    0.33    0.17   1
   1  -1  -2    0.35    0.21   1
   1  -1  -2    0.34    0.18   1
  -1  -1   2    0.64    0.30   1
  -1   1   1   -0.35    0.13   1
   1   1  -1    0.21    0.26   1
  -1   1   1   -0.09    0.11   1
   1   1  -1   -0.11    0.12   1
   1   1  -1   -0.14    0.09   1
   1   1  -1   -0.11    0.12   1
  -1  -1   1   -0.25    0.11   1
  -1  -1   1   -0.16    0.18   1
   1  -1  -1    0.12    0.15   1
   1  -1  -1   -0.06    0.18   1
  -1  -1   1   -0.13    0.04   1
  -1  -1   1   -0.33    0.24   1
  -1  -1   1    0.15    0.13   1
   1  -1  -1   -0.23    0.12   1
   1  -1  -1   -0.13    0.15   1
   1   1   0    1.55    0.16   1
   1   1   0    1.47    0.20   1
  -1   1   0    1.50    0.19   1
   1   1   0    1.44    0.13   1
  -1   1   0    1.61    0.16   1
   1   1   0    1.42    0.13   1
   1  -1   0    1.77    0.19   1
  -1  -1   0    1.78    0.28   1
   1  -1   0    1.41    0.20   1
   1  -1   0    1.56    0.19   1
  -1  -1   0    1.80    0.15   1
   1  -1   0    1.61    0.20   1
  -1  -1   0    1.67    0.16   1
   1   1   1  100.11    5.09   1
   1   1   1  104.30    5.09   1
  -1   1  -1  100.81    5.11   1
  -1   1  -1  108.31    5.11   1
   1   1   1  101.53    5.09   1
  -1   1  -1  101.45    5.12   1
   1  -1   1  102.96    5.11   1
  -1  -1  -1  103.81    5.09   1
   1  -1   1  102.23    5.11   1
   1  -1   1  101.09    5.09   1
   1  -1   1  107.39    5.15   1
  -1  -1  -1  102.58    5.09   1
  -1  -1  -1  101.70    5.10   1
   1   1   2  260.73   12.23   1
  -1   1  -2  242.43   12.21   1
   1   1   2  257.61   12.13   1
   1   1   2  225.08   12.19   1
  -1   1  -2  266.24   12.25   1
  -1   1  -2  220.15   12.20   1
   1  -1   2  245.52   12.20   1
   1  -1   2  247.79   12.21   1
  -1  -1  -2  251.48   12.21   1
   1  -1   2  223.01   12.21   1
  -1  -1  -2  258.30   12.12   1
  -1  -1  -2  259.06   12.11   1
  -1  -1  -2  253.43   12.19   1
   1  -1   2  251.24   12.18   1
   1  -1   2  249.71   12.17   1
  -1   1  -3    0.38    0.29   1
  -1   1  -3    0.51    0.27   1
   1   1   3    0.42    0.25   1
  -1   1  -3    0.38    0.23   1
   1   1   3    0.31    0.29   1
  -1   1  -3    0.62    0.28   1
  -1  -1  -3    0.60    0.26   1
   1  -1   3    0.37    0.28   1
   1  -1   3    0.40    0.23   1
   1  -1   3    0.19    0.21   1
  -1  -1  -3    0.05    0.29   1
  -1  -1  -3    0.43    0.18   1
   1  -1   3    0.43    0.24   1
  -1   1  -4   24.31    1.43   1
   1   1   4   23.73    1.44   1
  -1   1  -4   18.68    1.40   1
   1   1   4   25.16    1.37   1
  -1   1  -4   24.30    1.38   1
  -1   1  -4   21.91    1.35   1
  -1  -1  -4   20.89    1.36   1
  -1  -1  -4   21.19    1.25   1
  -1  -1  -4   18.28    1.35   1
   1  -1   4   24.21    1.31   1
   1  -1   4   22.95    1.36   1
   1  -1   4   20.88    1.42   1
   1  -1   4   23.67    1.33   1
  -1  -1  -4   22.05    1.27   1
   1   1   5    1.25    0.36   1
  -1   1  -5    1.53    0.41   1
   1   1   5    1.33    0.31   1
   1   1   5    1.84    0.46   1
  -1   1  -5    1.21    0.40   1
  -1   1  -5    1.71    0.37   1
  -1   1  -5    1.87    0.48   1
  -1  -1  -5    1.45    0.42   1
   1  -1   5    1.56    0.38   1
  -1  -1  -5    2.01    0.47   1
  -1  -1  -5    1.32    0.30   1
   1  -1   5    1.87    0.41   1
   1  -1   5    1.40    0.46   1
  -1  -1  -5    1.25    0.29   1
  -1   1  -6   40.18    2.44   1
  -1   1  -6   42.53    2.34   1
  -1   1  -6   41.94    2.31   1
  -1   1  -6   36.72    2.37   1
   1   1   6   43.90    2.46   1
   1   1   6   39.43    2.23   1
   1   1   6   41.88    2.34   1
  -1  -1  -6   39.38    2.39   1
   1  -1   6   39.56    2.45   1
  -1  -1  -6   39.79    2.40   1
   1  -1   6   42.04    2.33   1
   1  -1   6   39.35    2.32   1
  -1  -1  -6   38.98    2.22   1
  -1   1  -7   34.54    2.33   1
   1   1   7   39.89    2.26   1
  -1   1  -7   37.22    2.21   1
  -1   1  -7   37.26    2.37   1
   1   1   7   34.78    2.33   1
   1   1   7   39.92    2.17   1
  -1   1  -7   37.53    2.23   1
  -1  -1  -7   38.28    2.33   1
   1  -1   7   36.72    2.24   1
   1  -1   7   41.32    2.43   1
  -1  -1  -7   39.03    2.36   1
  -1  -1  -7   36.02    2.12   1
   1  -1   7   37.94    2.22   1
  -1   1  -8    4.67    0.85   1
  -1   1  -8    6.80    0.80   1
   1   1   8    6.77    0.73   1
  -1   1  -8    6.58    0.93   1
   1   1   8    6.31    0.91   1
   1   1   8    6.86    0.87   1
  -1  -1  -8    6.11    0.93   1
   1  -1   8    7.14    0.83   1
  -1  -1  -8    6.82    0.94   1
   1  -1   8    5.87    0.87   1
  -1  -1  -8    7.20    0.95   1
  -1   1  -9   17.93    1.47   1
   1   1   9   14.85    1.28   1
  -1   1  -9   16.24    1.45   1
   1   1   9   16.59    1.44   1
  -1   1  -9   15.18    1.22   1
  -1  -1  -9   16.63    1.39   1
   1  -1   9   15.80    1.27   1
   1  -1   9   13.22    1.42   1
   1  -1   9   15.11    1.54   1
  -1  -1  -9   14.67    1.52   1
  -1   1 -10   -0.08    0.56   1
  -1   1 -10    0.60    0.59   1
   1   1  10    0.81    0.62   1
  -1  -1 -10    1.73    0.64   1
   1  -1  10    0.41    0.62   1
   1  -1  10    0.37    0.64   1
  -1  -1 -10    0.68    0.63   1
  -1   1 -11    0.62    0.69   1
   1   1  11    0.95    0.67   1
  -1   1 -11    1.38    0.67   1
   1  -1  11    0.57    0.67   1
  -1  -1 -11    0.80    0.76   1
  -1  -1 -11    0.81    0.68   1
   1  -1  11   -0.21    0.67   1
  -1   1 -12    2.09    0.86   1
   1   1  12    2.41    0.87   1
   1   1  12    0.87    0.88   1
  -1   1 -12    2.43    0.87   1
   1  -1  12    2.68    0.97   1
  -1  -1 -12    1.50    0.76   1
   1  -1  12    1.32    0.72   1
   1   1  13    1.00    1.14   1
  -1   1 -13    0.52    0.78   1
   1   1  13    1.07    0.88   1
   1  -1  13   -0.74    0.89   1
   1  -1  13    0.38    0.74   1
   1   2 -13   19.48    2.07   1
  -1   2  13   19.22    2.10   1
  -1  -2  13   20.44    2.02   1
  -1  -2  13   21.88    1.96   1
   1   2 -12    0.36    0.62   1
  -1   2  12    0.17    0.75   1
   1   2 -12    0.68    0.66   1
  -1  -2  12    0.45    0.62   1
  -1  -2  12   -0.22    0.67   1
  -1  -2  12   -0.92    0.58   1
   1   2 -11   10.11    1.40   1
   1   2 -11   12.91    1.54   1
   1   2 -11   12.55    1.43   1
  -1   2  11   12.30    1.51   1
  -1  -2  11   10.22    1.34   1
   1  -2 -11   11.84    1.46   1
  -1  -2  11   12.58    1.35   1
  -1  -2  11   13.41    1.49   1
  -1   2  10    1.61    0.64   1
  -1   2  10    2.11    0.64   1
  -1   2  10    2.70    0.78   1
   1   2 -10    1.46    0.67   1
   1   2 -10    3.14    0.80   1
   1   2 -10    3.30    0.79   1
   1  -2 -10    2.34    0.65   1
  -1  -2  10    1.63    0.67   1
   1  -2 -10    1.18    0.70   1
  -1  -2  10    1.46    0.78   1
  -1  -2  10    2.17    0.66   1
   1   2  -9   11.22    1.28   1
   1   2  -9   14.26    1.34   1
  -1   2   9   13.52    1.18   1
   1   2  -9   11.90    1.34   1
  -1   2   9   13.65    1.17   1
  -1   2   9   11.69    1.33   1
  -1  -2   9   12.62    1.33   1
   1  -2  -9   12.36    1.26   1
   1  -2  -9   11.58    1.04   1
  -1  -2   9   14.30    1.25   1
  -1  -2   9   13.62    1.37   1
   1  -2  -9   13.90    1.48   1
   1   2  -8   79.37    4.50   1
  -1   2   8   78.25    4.50   1
   1   2  -8   83.80    4.42   1
  -1   2   8   84.00    4.44   1
   1   2  -8   86.47    4.55   1
   1   2  -8   77.35    4.51   1
   1  -2  -8   81.82    4.38   1
  -1  -2   8   80.13    4.49   1
   1  -2  -8   78.45    4.55   1
   1  -2  -8   80.89    4.45   1
  -1  -2   8   82.86    4.47   1
  -1  -2   8   81.34    4.52   1
   1   2  -7    0.66    0.45   1
   1   2  -7   -0.22    0.31   1
  -1   2   7    0.38    0.40   1
  -1   2   7    0.30    0.37   1
   1   2  -7    0.03    0.41   1
   1   2  -7    0.30    0.34   1
   1  -2  -7    0.16    0.33   1
   1  -2  -7    0.62    0.35   1
  -1  -2   7    0.11    0.48   1
   1  -2  -7    0.58    0.49   1
  -1  -2   7    0.46    0.42   1
  -1  -2   7    0.65    0.32   1
  -1  -2   7   -0.06    0.48   1
  -1   2   6  155.53    8.63   1
  -1   2   6  156.82    8.56   1
   1   2  -6  168.57    8.66   1
   1   2  -6  156.66    8.58   1
   1   2  -6  166.59    8.68   1
   1   2  -6  168.61    8.67   1
   1  -2  -6  174.21    8.60   1
  -1  -2   6  180.64    8.58   1
  -1  -2   6  181.39    8.56   1
  -1  -2   6  177.99    8.66   1
   1  -2  -6  168.53    8.67   1
   1  -2  -6  164.04    8.55   1
  -1  -2   6  183.04    8.66   1
  -1  -2   6  161.97    8.60   1
  -1   2   5   59.39    3.16   1
  -1   2   5   62.97    2.96   1
  -1   2   5   49.80    3.20   1
   1   2  -5   48.71    3.24   1
   1   2  -5   58.93    3.29   1
   1   2  -5   59.02    3.20   1
   1   2  -5   54.91    3.24   1
   1  -2  -5   60.92    3.26   1
  -1  -2   5   64.22    3.25   1
  -1  -2   5   60.61    3.21   1
   1  -2  -5   64.03    3.23   1
  -1  -2   5   60.22    3.15   1
  -1  -2   5   62.56    3.26   1
  -1  -2   5   61.72    3.26   1
   1  -2  -5   60.73    3.17   1
   1   2  -4    5.67    0.68   1
  -1   2   4    5.33    0.48   1
   1   2  -4    5.49    0.63   1
   1   2  -4    4.98    0.63   1
   1   2  -4    6.48    0.56   1
  -1   2   4    6.35    0.57   1
  -1  -2   4    5.10    0.64   1
  -1  -2   4    5.22    0.53   1
   1  -2  -4    6.32    0.64   1
   1  -2  -4    5.31    0.53   1
  -1  -2   4    6.15    0.65   1
   1  -2  -4    4.82    0.58   1
  -1  -2   4    6.83    0.67   1
   1  -2  -4    6.23    0.59   1
  -1  -2   4    5.42    0.57   1
  -1   2   3  155.69    7.60   1
   1   2  -3  153.17    7.57   1
   1   2  -3  144.88    7.61   1
   1   2  -3  149.95    7.70   1
  -1   2   3  155.19    7.55   1
   1   2  -3  148.69    7.62   1
   1  -2  -3  157.15    7.59   1
   1  -2  -3  150.96    7.61   1
  -1  -2   3  153.96    7.65   1
  -1  -2   3  154.46    7.74   1
  -1  -2   3  145.20    7.58   1
  -1  -2   3  161.61    7.67   1
  -1  -2   3  150.56    7.49   1
  -1   2   2    8.50    0.53   1
   1   2  -2    8.24    0.55   1
   1   2  -2    7.87    0.56   1
  -1   2   2    5.89    0.52   1
   1   2  -2    7.96    0.67   1
   1   2  -2    8.53    0.52   1
  -1   2   2    8.35    0.49   1
  -1  -2   2    9.05    0.57   1
  -1  -2   2    8.28    0.80   1
   1  -2  -2    8.65    0.58   1
  -1  -2   2    7.70    0.61   1
  -1  -2   2    8.30    0.47   1
   1  -2  -2    8.22    0.58   1
  -1  -2   2    8.68    0.62   1
   1  -2  -2    8.33    0.59   1
   1   2  -1  829.88   39.46   1
  -1   2   1  798.66   39.38   1
   1   2  -1  742.26   39.32   1
   1   2  -1  743.86   39.52   1
   1   2  -1  847.38   39.40   1
  -1   2   1  864.43   39.50   1
   1   2  -1  822.30   39.46   1
  -1  -2   1  792.32   39.38   1
  -1  -2   1  784.10   39.31   1
  -1  -2   1  782.38   39.34   1
   1  -2  -1  836.92   39.35   1
   1  -2  -1  806.08   39.35   1
   1  -2  -1  815.13   39.35   1
  -1   2   0   83.64    4.29   1
  -1   2   0   89.28    4.33   1
  -1   2   0   89.11    4.31   1
   1   2   0   87.74    4.29   1
   1  -2   0   87.21    4.36   1
   1  -2   0   87.73    4.37   1
  -1  -2   0   84.95    4.34   1
  -1  -2   0   89.00    4.34   1
  -1  -2   0   88.84    4.35   1
   1  -2   0   85.54    4.37   1
   1  -2   0   87.44    4.43   1
  -1   2  -1   29.46    1.54   1
   1   2   1   28.91    1.45   1
   1   2   1   31.62    1.51   1
  -1   2  -1   28.91    1.51   1
  -1   2  -1   27.92    1.56   1
   1   2   1   29.30    1.45   1
   1  -2   1   27.74    1.56   1
  -1  -2  -1   29.10    1.51   1
   1  -2   1   27.93    1.56   1
   1  -2   1   29.84    1.54   1
  -1  -2  -1   29.00    1.54   1
  -1  -2  -1   26.99    1.60   1
   1  -2   1   31.21    1.67   1
   1  -2   1   29.72    1.54   1
  -1  -2  -1   30.03    1.57   1
   1   2   2   11.49    0.70   1
   1   2   2   11.50    0.66   1
  -1   2  -2   10.09    0.72   1
   1   2   2   10.13    0.61   1
  -1   2  -2   10.53    0.74   1
  -1   2  -2   10.82    0.72   1
   1  -2   2    9.91    0.68   1
  -1  -2  -2   11.07    0.63   1
  -1  -2  -2   10.23    0.68   1
  -1  -2  -2   10.83    0.64   1
   1  -2   2   11.22    0.69   1
   1  -2   2    9.92    0.67   1
   1  -2   2   10.00    0.66   1
   1  -2   2    7.01    0.75   1
   1   2   3   27.01    1.89   1
  -1   2  -3   32.16    1.88   1
  -1   2  -3   35.57    1.90   1
  -1   2  -3   28.00    1.92   1
   1   2   3   34.68    1.87   1
  -1  -2  -3   38.12    1.86   1
   1  -2   3   33.91    1.89   1
   1  -2   3   37.27    1.88   1
  -1  -2  -3   34.36    1.70   1
   1  -2   3   36.14    1.83   1
  -1  -2  -3   36.26    1.90   1
   1  -2   3   33.45    1.95   1
   1  -2   3   36.87    1.90   1
   1   2   4  311.86   15.46   1
  -1   2  -4  318.13   15.41   1
   1   2   4  309.20   15.37   1
  -1   2  -4  302.27   15.42   1
  -1   2  -4  296.65   15.43   1
   1  -2   4  324.89   15.44   1
   1  -2   4  316.60   15.39   1
  -1  -2  -4  307.06   15.39   1
  -1  -2  -4  304.37   15.42   1
   1  -2   4  301.32   15.41   1
   1  -2   4  318.47   15.46   1
   1  -2   4  313.98   15.36   1
  -1  -2  -4  313.58   15.27   1
   1   2   5   29.89    1.68   1
  -1   2  -5   27.60    1.73   1
  -1   2  -5   29.41    1.70   1
  -1   2  -5   31.99    1.85   1
   1   2   5   30.78    1.78   1
  -1   2  -5   25.22    1.74   1
   1  -2   5   22.22    1.72   1
  -1  -2  -5   28.35    1.54   1
   1  -2   5   27.74    1.75   1
  -1  -2  -5   21.78    1.64   1
   1  -2   5   30.21    1.67   1
   1  -2   5   31.14    1.74   1
   1  -2   5   29.32    1.68   1
  -1  -2  -5   27.85    1.74   1
  -1   2  -6   72.08    3.80   1
  -1   2  -6   64.90    3.74   1
  -1   2  -6   66.21    3.79   1
  -1   2  -6   69.79    3.67   1
   1   2   6   73.82    3.67   1
   1   2   6   71.83    3.76   1
   1  -2   6   69.33    3.60   1
  -1  -2  -6   69.86    3.71   1
   1  -2   6   71.37    3.82   1
   1  -2   6   64.29    3.73   1
  -1  -2  -6   60.58    3.49   1
   1  -2   6   63.37    3.66   1
   1  -2   6   64.93    3.65   1
  -1  -2  -6   68.93    3.76   1
  -1   2  -7   29.03    1.85   1
  -1   2  -7   25.87    1.70   1
   1   2   7   27.52    1.82   1
  -1   2  -7   26.10    1.80   1
   1   2   7   25.26    1.60   1
   1   2   7   28.41    1.73   1
  -1   2  -7   28.15    1.91   1
   1  -2   7   28.17    1.89   1
  -1  -2  -7   28.69    1.81   1
   1  -2   7   26.32    1.74   1
  -1  -2  -7   23.50    1.79   1
   1  -2   7   28.77    1.90   1
  -1  -2  -7   24.77    1.53   1
   1   2   8    2.00    0.53   1
   1   2   8    1.84    0.60   1
  -1   2  -8    2.52    0.61   1
   1   2   8    2.56    0.49   1
  -1   2  -8    2.39    0.60   1
  -1   2  -8    2.01    0.63   1
  -1   2  -8    2.38    0.68   1
   1  -2   8    3.27    0.66   1
   1  -2   8    1.07    0.63   1
  -1  -2  -8    3.09    0.68   1
   1  -2   8    3.67    0.75   1
  -1  -2  -8    1.57    0.54   1
  -1   2  -9   30.34    2.13   1
   1   2   9   27.45    1.97   1
   1   2   9   30.12    2.10   1
  -1   2  -9   29.30    1.99   1
  -1   2  -9   27.32    2.12   1
  -1  -2  -9   29.64    2.05   1
   1  -2   9   30.02    2.15   1
  -1  -2  -9   30.36    2.12   1
   1  -2   9   30.93    1.99   1
   1  -2   9   29.46    2.16   1
   1   2  10    4.53    0.88   1
  -1   2 -10    4.28    0.91   1
  -1   2 -10    3.83    0.87   1
   1   2  10    2.72    0.74   1
   1  -2  10    3.36    0.71   1
  -1  -2 -10    3.37    0.84   1
   1  -2  10    3.30    0.91   1
   1  -2  10    4.03    0.88   1
   1   2  11   27.94    2.24   1
  -1   2 -11   28.61    2.28   1
  -1   2 -11   31.52    2.34   1
   1  -2  11   33.31    2.38   1
   1  -2  11   29.77    2.29   1
  -1  -2 -11   30.15    2.27   1
   1   2  12   13.87    1.63   1
  -1   2 -12    8.76    1.33   1
  -1   2 -12   14.46    1.70   1
   1  -2  12    9.20    1.41   1
   1  -2  12   10.10    1.45   1
   1   2  13    0.30    0.85   1
  -1   2 -13    0.76    0.71   1
   1   2  13    0.54    1.13   1
   1  -2  13    1.11    0.81   1
   1  -2  13    0.13    1.05   1
  -1   3  13   -0.85    0.73   1
   1   3 -13    0.62    0.73   1
  -1  -3  13    0.46    0.95   1
   1   3 -12    0.96    0.72   1
   1   3 -12    1.04    0.83   1
  -1   3  12    1.17    0.70   1
  -1  -3  12    0.12    0.69   1
  -1  -3  12    1.32    0.76   1
  -1  -3  12    0.55    0.85   1
   1   3 -11   27.06    2.20   1
  -1   3  11   27.44    2.16   1
   1   3 -11   28.66    2.25   1
  -1   3  11   30.80    2.14   1
  -1  -3  11   28.64    2.10   1
  -1  -3  11   28.95    2.25   1
  -1  -3  11   26.43    2.10   1
  -1   3  10   30.76    2.17   1
   1   3 -10   33.09    2.34   1
  -1   3  10   32.24    2.20   1
   1   3 -10   33.22    2.33   1
   1   3 -10   33.33    2.36   1
  -1   3  10   30.05    2.26   1
  -1  -3  10   32.42    2.34   1
  -1  -3  10   33.73    2.31   1
  -1  -3  10   33.65    2.30   1
   1   3  -9   29.64    2.16   1
   1   3  -9   26.90    2.12   1
  -1   3   9   32.76    2.10   1
   1   3  -9   32.46    2.07   1
  -1   3   9   29.67    2.12   1
   1   3  -9   32.87    2.22   1
  -1  -3   9   31.29    2.19   1
  -1  -3   9   30.50    2.16   1
  -1  -3   9   33.04    2.16   1
  -1   3   8   42.77    2.59   1
   1   3  -8   44.22    2.60   1
   1   3  -8   40.81    2.66   1
   1   3  -8   43.29    2.72   1
   1   3  -8   44.35    2.71   1
  -1   3   8   42.85    2.65   1
   1  -3  -8   41.73    2.48   1
  -1  -3   8   45.22    2.68   1
  -1  -3   8   45.87    2.67   1
  -1  -3   8   37.03    2.62   1
   1  -3  -8   41.85    2.53   1
  -1  -3   8   45.17    2.55   1
   1   3  -7    0.28    0.48   1
   1   3  -7    0.13    0.41   1
   1   3  -7    1.69    0.52   1
  -1   3   7    0.72    0.43   1
  -1   3   7    0.87    0.43   1
   1   3  -7    0.36    0.52   1
   1  -3  -7    0.58    0.32   1
  -1  -3   7    0.23    0.46   1
  -1  -3   7    0.93    0.53   1
   1  -3  -7    0.47    0.34   1
  -1  -3   7    0.60    0.48   1
  -1  -3   7    0.68    0.27   1
  -1  -3   7    0.97    0.41   1
   1   3  -6   37.54    2.40   1
   1   3  -6   39.46    2.46   1
   1   3  -6   35.02    2.31   1
  -1   3   6   40.17    2.31   1
  -1   3   6   34.82    2.33   1
   1   3  -6   38.73    2.41   1
   1  -3  -6   43.44    2.30   1
   1  -3  -6   43.39    2.29   1
  -1  -3   6   42.89    2.39   1
  -1  -3   6   39.66    2.12   1
  -1  -3   6   42.63    2.38   1
  -1  -3   6   38.95    2.34   1
  -1  -3   6   39.46    2.40   1
   1   3  -5   68.47    3.81   1
  -1   3   5   67.06    3.86   1
   1   3  -5   70.07    3.88   1
   1   3  -5   67.60    3.92   1
  -1   3   5   72.99    3.78   1
   1   3  -5   64.48    3.94   1
  -1  -3   5   71.60    3.83   1
   1  -3  -5   79.94    3.84   1
  -1  -3   5   80.71    3.97   1
   1  -3  -5   71.74    3.82   1
  -1  -3   5   73.97    3.66   1
  -1  -3   5   79.91    3.92   1
  -1  -3   5   70.72    3.91   1
   1  -3  -5   73.42    3.81   1
   1   3  -4  171.44    8.89   1
   1   3  -4  181.81    8.84   1
  -1   3   4  184.20    8.87   1
   1   3  -4  166.78    8.97   1
  -1   3   4  167.20    8.79   1
  -1  -3   4  177.23    8.72   1
  -1  -3   4  168.66    8.84   1
  -1  -3   4  169.69    8.90   1
   1  -3  -4  185.07    8.85   1
  -1  -3   4  195.54    9.05   1
   1  -3  -4  183.24    8.87   1
  -1  -3   4  175.36    8.93   1
   1  -3  -4  174.17    8.86   1
  -1   3   3  419.02   19.30   1
   1   3  -3  381.50   19.29   1
  -1   3   3  404.44   19.31   1
   1   3  -3  370.56   19.42   1
  -1   3   3  375.91   19.25   1
   1   3  -3  387.99   19.35   1
   1  -3  -3  400.56   19.31   1
  -1  -3   3  379.29   19.32   1
  -1  -3   3  373.99   19.34   1
   1  -3  -3  410.75   19.36   1
  -1  -3   3  388.68   19.38   1
  -1  -3   3  391.53   19.22   1
  -1  -3   3  422.96   19.55   1
  -1   3   2    1.99    0.26   1
   1   3  -2    2.48    0.25   1
  -1   3   2    2.01    0.20   1
   1   3  -2    2.09    0.24   1
   1   3  -2    2.37    0.30   1
   1   3  -2    2.24    0.42   1
  -1   3   2    3.13    0.28   1
   1   3  -2    1.86    0.31   1
  -1  -3   2    2.42    0.28   1
  -1  -3   2    2.62    0.25   1
  -1  -3   2    2.15    0.37   1
   1  -3  -2    2.33    0.33   1
   1  -3  -2    2.55    0.37   1
  -1  -3   2    2.47    0.56   1
  -1  -3   2    2.80    0.35   1
  -1   3   1    0.04    0.14   1
   1   3  -1   -0.03    0.13   1
   1   3  -1   -0.04    0.15   1
  -1  -3   1   -0.60    0.28   1
  -1  -3   1   -0.18    0.21   1
   1  -3  -1   -0.09    0.22   1
  -1  -3   1    0.04    0.16   1
   1  -3  -1   -0.20    0.24   1
  -1  -3   1    0.11    0.19   1
   1  -3  -1   -0.23    0.23   1
   1  -3  -1    0.13    0.25   1
  -1   3   0    6.43    0.35   1
  -1   3   0    6.79    0.37   1
   1   3   0    6.71    0.36   1
  -1   3   0    7.06    0.43   1
   1   3   0    6.37    0.36   1
  -1  -3   0    5.92    0.47   1
   1  -3   0    7.15    0.52   1
   1  -3   0    6.52    0.55   1
  -1  -3   0    8.50    0.78   1
  -1  -3   0    6.35    0.47   1
   1  -3   0    6.88    0.64   1
  -1  -3   0    6.07    0.49   1
   1  -3   0    6.33    0.53   1
   1   3   1  414.31   20.38   1
  -1   3  -1  408.71   20.43   1
  -1   3  -1  407.10   20.49   1
  -1   3  -1  434.72   20.40   1
  -1  -3  -1  416.48   20.45   1
  -1  -3  -1  410.50   20.53   1
   1  -3   1  423.23   20.41   1
   1  -3   1  412.32   20.61   1
   1  -3   1  428.04   20.46   1
  -1  -3  -1  399.32   20.46   1
   1  -3   1  418.23   20.50   1
   1  -3   1  419.73   20.48   1
  -1  -3  -1  426.29   20.45   1
  -1   3  -2  569.59   27.20   1
   1   3   2  540.55   27.14   1
  -1   3  -2  551.58   27.22   1
   1   3   2  465.71   27.14   1
  -1   3  -2  592.70   27.23   1
   1   3   2  579.14   27.08   1
   1  -3   2  558.25   27.21   1
  -1  -3  -2  539.75   27.20   1
   1  -3   2  582.75   27.22   1
  -1  -3  -2  555.48   27.17   1
   1  -3   2  551.64   27.16   1
   1  -3   2  564.70   27.16   1
   1   3   3   13.81    0.96   1
  -1   3  -3   14.81    0.99   1
  -1   3  -3   13.73    1.01   1
   1   3   3   13.14    0.87   1
  -1   3  -3   16.26    0.98   1
   1   3   3   14.29    0.85   1
   1  -3   3   13.71    0.92   1
   1  -3   3   13.94    0.96   1
  -1  -3  -3   14.96    0.82   1
   1  -3   3   15.33    0.93   1
   1  -3   3   14.03    0.90   1
  -1  -3  -3   14.55    0.85   1
   1  -3   3   14.54    1.10   1
  -1   3  -4   92.66    4.89   1
   1   3   4  100.46    4.88   1
   1   3   4   83.28    4.76   1
  -1   3  -4   91.33    4.86   1
  -1   3  -4   93.32    4.83   1
   1  -3   4   91.89    4.84   1
   1  -3   4   89.72    4.74   1
   1  -3   4   97.98    4.95   1
  -1  -3  -4   95.48    4.76   1
   1  -3   4   96.54    4.85   1
   1  -3   4   93.99    4.83   1
  -1   3  -5    0.30    0.32   1
  -1   3  -5    0.33    0.37   1
  -1   3  -5    0.74    0.34   1
  -1   3  -5    0.74    0.42   1
   1   3   5    0.48    0.37   1
   1   3   5    0.38    0.28   1
   1  -3   5    0.45    0.37   1
   1  -3   5    0.58    0.38   1
   1  -3   5    1.16    0.44   1
   1  -3   5    1.25    0.42   1
  -1  -3  -5    0.32    0.25   1
   1  -3   5    0.59    0.34   1
  -1  -3  -5    0.51    0.39   1
  -1   3  -6   55.31    3.12   1
   1   3   6   54.06    2.93   1
   1   3   6   56.38    3.04   1
  -1   3  -6   51.79    3.08   1
  -1   3  -6   55.28    2.99   1
  -1   3  -6   60.40    3.16   1
  -1  -3  -6   45.64    2.91   1
   1  -3   6   49.69    3.07   1
   1  -3   6   53.83    3.06   1
   1  -3   6   50.38    3.00   1
   1  -3   6   54.60    2.98   1
   1  -3   6   52.16    2.89   1
  -1  -3  -6   50.61    3.03   1
   1   3   7  128.91    6.85   1
   1   3   7  134.54    6.77   1
  -1   3  -7  126.24    6.94   1
  -1   3  -7  138.37    6.80   1
  -1   3  -7  128.74    6.92   1
  -1   3  -7  135.01    6.95   1
   1  -3   7  128.53    6.83   1
  -1  -3  -7  125.13    6.88   1
   1  -3   7  127.49    6.69   1
   1  -3   7  117.33    6.85   1
  -1  -3  -7  134.16    6.80   1
   1  -3   7  134.72    6.95   1
   1  -3   7  132.94    6.75   1
  -1   3  -8    5.26    0.96   1
   1   3   8    6.10    0.82   1
  -1   3  -8    6.49    0.83   1
  -1   3  -8    6.77    0.97   1
  -1   3  -8    5.51    0.94   1
   1   3   8    7.23    0.94   1
   1  -3   8    6.29    0.79   1
   1  -3   8    5.65    0.92   1
   1  -3   8    7.83    0.95   1
   1  -3   8    5.29    0.95   1
  -1  -3  -8    6.42    0.97   1
   1   3   9   55.91    3.25   1
  -1   3  -9   56.88    3.36   1
  -1   3  -9   55.60    3.41   1
   1   3   9   49.16    3.29   1
  -1   3  -9   52.37    3.41   1
   1  -3   9   60.03    3.46   1
   1  -3   9   55.26    3.43   1
   1  -3   9   56.53    3.17   1
   1  -3   9   55.79    3.26   1
  -1  -3  -9   56.37    3.40   1
  -1   3 -10    0.15    0.59   1
   1   3  10   -0.72    0.44   1
  -1   3 -10   -0.32    0.60   1
   1   3  10   -0.33    0.45   1
  -1   3 -10   -0.06    0.50   1
   1  -3  10    0.15    0.55   1
   1  -3  10   -0.96    0.63   1
   1  -3  10    1.36    0.56   1
  -1   3 -11    0.33    0.69   1
  -1   3 -11    1.21    0.70   1
   1   3  11    1.84    0.71   1
   1  -3  11    0.70    0.77   1
   1  -3  11   -0.43    0.56   1
  -1   3 -12    7.95    1.33   1
   1   3  12    8.82    1.36   1
  -1   3 -12    9.81    1.42   1
   1  -3  12    8.61    1.36   1
   1  -3  12    9.59    1.43   1
  -1   4  13   17.15    2.02   1
   1   4 -13   20.73    2.24   1
  -1  -4  13   22.89    2.18   1
   1   4 -12   -1.05    0.57   1
   1   4 -12    0.36    0.68   1
  -1   4  12   -0.60    0.59   1
  -1  -4  12    0.67    0.66   1
  -1  -4  12    0.76    0.92   1
  -1   4  11   19.19    1.94   1
  -1   4  11   21.43    1.81   1
   1   4 -11   23.43    2.00   1
   1   4 -11   20.47    1.87   1
   1   4 -11   19.80    1.86   1
  -1  -4  11   20.56    1.79   1
  -1  -4  11   24.33    2.00   1
   1   4 -10   -0.41    0.53   1
   1   4 -10    0.86    0.68   1
  -1   4  10    0.50    0.55   1
  -1   4  10    0.32    0.59   1
   1   4 -10    0.50    0.62   1
  -1  -4  10    0.33    0.68   1
  -1  -4  10    1.11    0.85   1
  -1  -4  10    0.43    0.55   1
   1   4  -9    0.00    0.44   1
   1   4  -9    0.28    0.56   1
   1   4  -9   -0.33    0.53   1
   1   4  -9   -0.38    0.46   1
  -1   4   9   -0.17    0.43   1
  -1   4   9   -0.50    0.49   1
  -1  -4   9    0.11    0.58   1
  -1  -4   9   -0.11    0.63   1
  -1  -4   9   -0.21    0.43   1
   1   4  -8   79.28    4.29   1
   1   4  -8   76.44    4.46   1
   1   4  -8   73.52    4.38   1
  -1   4   8   72.92    4.27   1
  -1   4   8   83.08    4.33   1
   1   4  -8   75.81    4.35   1
  -1  -4   8   68.38    4.29   1
  -1  -4   8   84.03    4.43   1
  -1  -4   8   79.83    4.33   1
  -1  -4   8   75.89    4.26   1
   1   4  -7    1.51    0.59   1
   1   4  -7    1.51    0.60   1
  -1   4   7    1.51    0.51   1
  -1   4   7    0.78    0.45   1
   1   4  -7    0.41    0.44   1
   1   4  -7    1.31    0.54   1
  -1  -4   7   -0.46    0.46   1
  -1  -4   7    0.65    0.53   1
  -1  -4   7    0.68    0.43   1
  -1  -4   7    0.83    0.50   1
   1   4  -6  145.63    7.39   1
  -1   4   6  125.12    7.29   1
  -1   4   6  148.37    7.25   1
   1   4  -6  133.09    7.30   1
   1   4  -6  130.39    7.44   1
   1   4  -6  142.28    7.38   1
   1  -4  -6  144.62    7.21   1
   1  -4  -6  149.90    7.30   1
  -1  -4   6  142.00    7.06   1
  -1  -4   6  141.49    7.40   1
  -1  -4   6  142.66    7.29   1
  -1  -4   6  143.57    7.33   1
  -1  -4   6  149.83    7.41   1
   1   4  -5    8.72    0.81   1
   1   4  -5    6.72    0.92   1
  -1   4   5    8.37    0.69   1
   1   4  -5    8.99    0.90   1
   1   4  -5    7.57    0.88   1
  -1   4   5    7.42    0.81   1
  -1  -4   5    6.83    0.76   1
  -1  -4   5    9.76    0.95   1
   1  -4  -5    8.08    0.65   1
   1  -4  -5    9.81    0.89   1
  -1  -4   5    8.50    0.57   1
  -1  -4   5    7.15    0.77   1
  -1  -4   5    9.90    1.04   1
  -1   4   4    5.08    0.52   1
   1   4  -4    3.71    0.64   1
  -1   4   4    5.89    0.48   1
  -1   4   4    5.68    0.57   1
   1   4  -4    6.08    0.57   1
   1   4  -4    6.14    0.74   1
   1   4  -4    4.74    0.62   1
  -1  -4   4    6.29    0.70   1
  -1  -4   4    5.88    0.43   1
   1  -4  -4    5.65    0.63   1
  -1  -4   4    5.60    0.59   1
   1  -4  -4    4.56    0.47   1
  -1  -4   4    6.62    0.82   1
  -1  -4   4    5.32    0.56   1
   1   4  -3  100.49    5.17   1
  -1   4   3  110.35    5.18   1
   1   4  -3  102.10    5.26   1
  -1   4   3   97.76    5.12   1
   1   4  -3  100.67    5.36   1
   1   4  -3  105.14    5.31   1
  -1   4   3  108.74    5.19   1
   1   4  -3  104.78    5.17   1
   1  -4  -3   99.50    5.25   1
  -1  -4   3  107.98    5.50   1
  -1  -4   3  102.28    5.13   1
  -1  -4   3  100.45    5.23   1
  -1  -4   3   95.76    5.28   1
   1  -4  -3  100.28    5.26   1
  -1  -4   3  106.26    5.18   1
  -1   4   2    6.30    0.43   1
  -1   4   2    5.79    0.35   1
   1   4  -2    5.77    0.51   1
   1   4  -2    5.51    0.40   1
   1   4  -2    6.08    0.40   1
   1   4  -2    6.30    0.49   1
  -1   4   2    5.77    0.38   1
   1   4  -2    6.20    0.67   1
   1  -4  -2    6.74    0.60   1
  -1  -4   2    5.68    0.44   1
  -1  -4   2    6.55    0.82   1
  -1  -4   2    5.64    0.59   1
   1  -4  -2    5.43    0.56   1
   1  -4  -2    4.92    0.54   1
  -1  -4   2    5.69    0.50   1
  -1   4   1  362.69   16.43   1
   1   4  -1  327.57   16.52   1
   1   4  -1  337.26   16.43   1
   1  -4  -1  334.43   16.56   1
   1  -4  -1  323.16   16.61   1
  -1  -4   1  334.50   16.51   1
  -1  -4   1  338.76   16.56   1
   1  -4  -1  343.55   16.56   1
  -1  -4   1  321.81   16.48   1
   1  -4  -1  329.29   16.54   1
  -1   4   0   66.30    3.19   1
   1   4   0   64.74    3.13   1
  -1   4   0   63.32    3.12   1
   1   4   0   63.35    3.13   1
  -1  -4   0   62.41    3.27   1
   1  -4   0   61.94    3.32   1
  -1  -4   0   60.80    3.26   1
  -1  -4   0   61.11    3.28   1
   1  -4   0   65.71    3.44   1
  -1  -4   0   67.64    3.48   1
   1  -4   0   63.68    3.29   1
   1  -4   0   60.44    3.30   1
  -1   4  -1   82.44    4.21   1
  -1   4  -1   83.18    4.33   1
  -1   4  -1   84.15    4.22   1
   1   4   1   86.22    4.15   1
   1   4   1   85.37    4.14   1
  -1   4  -1   85.34    4.18   1
   1  -4   1   84.15    4.48   1
  -1  -4  -1   80.89    4.26   1
   1  -4   1   84.14    4.33   1
  -1  -4  -1   86.94    4.38   1
  -1  -4  -1   80.99    4.28   1
   1  -4   1   85.12    4.27   1
  -1  -4  -1   82.16    4.27   1
   1  -4   1   82.36    4.30   1
   1   4   2    4.33    0.29   1
  -1   4  -2    4.93    0.39   1
  -1   4  -2    5.04    0.56   1
  -1   4  -2    5.08    0.51   1
   1   4   2    4.53    0.42   1
  -1   4  -2    5.01    0.51   1
   1   4   2    5.42    0.30   1
  -1  -4  -2    5.37    0.51   1
   1  -4   2    5.03    0.40   1
   1  -4   2    4.23    0.52   1
   1  -4   2    6.04    0.51   1
   1  -4   2    3.60    0.62   1
   1  -4   2    3.81    0.49   1
  -1  -4  -2    5.19    0.54   1
  -1  -4  -2    4.66    0.50   1
  -1  -4  -2    5.19    0.45   1
   1   4   3    7.62    0.67   1
  -1   4  -3   10.87    0.80   1
   1   4   3    9.63    0.59   1
  -1   4  -3    9.98    0.76   1
   1   4   3    9.09    0.60   1
  -1   4  -3    8.66    0.71   1
   1  -4   3    9.86    0.67   1
   1  -4   3    9.31    0.68   1
   1  -4   3    7.25    0.75   1
   1  -4   3    8.75    0.75   1
  -1  -4  -3    8.69    0.75   1
  -1  -4  -3    8.63    0.63   1
   1  -4   3    8.83    0.98   1
   1   4   4  158.41    8.58   1
  -1   4  -4  180.43    8.69   1
  -1   4  -4  171.44    8.78   1
   1   4   4  170.85    8.56   1
   1   4   4  179.31    8.68   1
  -1   4  -4  163.02    8.70   1
   1  -4   4  172.59    8.70   1
   1  -4   4  174.75    8.65   1
  -1  -4  -4  170.99    8.53   1
   1  -4   4  161.77    8.67   1
   1  -4   4  187.82    8.89   1
   1  -4   4  170.99    8.58   1
   1   4   5   25.61    1.65   1
  -1   4  -5   26.92    1.72   1
  -1   4  -5   26.62    1.81   1
  -1   4  -5   27.55    1.84   1
  -1   4  -5   27.60    1.78   1
   1   4   5   29.68    1.74   1
  -1  -4  -5   27.69    1.59   1
   1  -4   5   28.57    1.63   1
   1  -4   5   27.01    1.76   1
   1  -4   5   27.34    1.76   1
   1  -4   5   28.92    1.74   1
   1  -4   5   27.54    1.85   1
   1   4   6   83.15    4.52   1
  -1   4  -6   85.03    4.69   1
  -1   4  -6   87.78    4.59   1
  -1   4  -6   90.39    4.75   1
   1   4   6   87.72    4.62   1
  -1   4  -6   84.28    4.73   1
   1  -4   6   83.71    4.64   1
   1  -4   6   84.45    4.66   1
   1  -4   6   85.02    4.48   1
   1  -4   6   87.20    4.67   1
   1  -4   6   84.00    4.65   1
   1   4   7    5.92    0.74   1
   1   4   7    4.75    0.75   1
  -1   4  -7    5.32    0.79   1
  -1   4  -7    5.89    0.90   1
  -1   4  -7    6.32    0.98   1
  -1   4  -7    5.79    0.95   1
   1  -4   7    5.77    0.87   1
   1  -4   7    5.50    0.86   1
   1  -4   7    5.47    0.70   1
   1  -4   7    5.74    0.81   1
   1  -4   7    5.39    0.85   1
   1   4   8    3.33    0.69   1
  -1   4  -8    4.04    0.83   1
  -1   4  -8    2.84    0.63   1
  -1   4  -8    3.47    0.86   1
   1   4   8    3.50    0.72   1
  -1   4  -8    4.35    0.90   1
   1  -4   8    3.63    0.63   1
   1  -4   8    2.80    0.81   1
   1  -4   8    3.80    0.81   1
   1  -4   8    4.43    0.88   1
  -1   4  -9   20.99    1.80   1
  -1   4  -9   20.97    1.76   1
   1   4   9   21.65    1.62   1
  -1   4  -9   21.60    1.79   1
  -1   4  -9   23.25    1.82   1
   1   4   9   18.12    1.63   1
   1  -4   9   23.81    1.97   1
   1  -4   9   22.49    1.78   1
   1  -4   9   21.68    1.74   1
  -1   4 -10    5.36    1.07   1
   1   4  10    4.28    0.90   1
   1   4  10    3.73    0.81   1
  -1   4 -10    4.90    0.94   1
  -1   4 -10    6.17    1.08   1
   1  -4  10    6.39    1.12   1
   1  -4  10    4.15    0.91   1
   1  -4  10    5.90    0.95   1
   1   4  11   24.22    1.98   1
  -1   4 -11   24.19    2.12   1
   1   4  11   23.07    2.00   1
  -1   4 -11   27.71    2.17   1
   1  -4  11   28.56    2.27   1
  -1   4 -12    5.36    1.16   1
   1   4  12    4.95    1.04   1
   1  -4  12    8.30    1.38   1
  -1   5  12    9.25    1.41   1
   1   5 -12    7.63    1.35   1
   1   5 -12    9.91    1.47   1
  -1   5  12   10.36    1.36   1
  -1  -5  12   11.58    1.48   1
  -1  -5  12   10.62    1.35   1
  -1   5  11    1.66    0.79   1
   1   5 -11    1.69    0.81   1
   1   5 -11    2.85    0.94   1
  -1   5  11    0.16    0.61   1
   1   5 -11    1.28    0.75   1
  -1  -5  11    2.21    0.87   1
  -1  -5  11    2.84    1.04   1
   1   5 -10    6.61    1.23   1
  -1   5  10    9.74    1.25   1
  -1   5  10    9.83    1.21   1
   1   5 -10   10.72    1.36   1
   1   5 -10    8.97    1.31   1
   1   5 -10    8.54    1.28   1
  -1  -5  10    7.66    1.26   1
  -1  -5  10   11.15    1.36   1
   1   5  -9   10.90    1.40   1
  -1   5   9    9.31    1.16   1
   1   5  -9   11.55    1.27   1
   1   5  -9   10.67    1.46   1
  -1   5   9   11.06    1.21   1
   1   5  -9   10.97    1.32   1
  -1  -5   9   10.59    1.24   1
  -1  -5   9   11.07    1.34   1
  -1  -5   9   10.11    1.31   1
   1   5  -8    3.04    0.85   1
   1   5  -8    3.65    0.76   1
   1   5  -8    3.95    0.79   1
  -1   5   8    4.39    0.75   1
   1   5  -8    3.29    0.90   1
  -1   5   8    3.34    0.74   1
  -1  -5   8    2.78    0.77   1
  -1  -5   8    3.78    0.88   1
  -1  -5   8    3.50    0.77   1
   1   5  -7   33.35    2.16   1
   1   5  -7   36.06    2.24   1
  -1   5   7   34.39    2.12   1
   1   5  -7   29.83    2.32   1
  -1   5   7   35.59    2.14   1
   1   5  -7   31.58    2.24   1
  -1  -5   7   33.03    2.13   1
  -1  -5   7   32.17    2.26   1
  -1  -5   7   32.73    2.23   1
  -1  -5   7   34.55    2.18   1
  -1   5   6   -0.02    0.38   1
  -1   5   6   -0.08    0.30   1
   1   5  -6    0.02    0.42   1
   1   5  -6   -0.36    0.44   1
   1   5  -6    0.35    0.40   1
   1   5  -6   -0.12    0.48   1
  -1  -5   6    0.06    0.17   1
  -1  -5   6    0.13    0.49   1
  -1  -5   6   -0.11    0.43   1
  -1  -5   6    0.22    0.43   1
  -1  -5   6   -0.21    0.24   1
   1  -5  -6   -0.28    0.37   1
  -1   5   5   40.82    2.46   1
   1   5  -5   42.41    2.46   1
   1   5  -5   43.40    2.56   1
  -1   5   5   43.72    2.38   1
   1   5  -5   46.20    2.56   1
   1   5  -5   38.49    2.63   1
  -1  -5   5   45.13    2.29   1
  -1  -5   5   43.00    2.49   1
  -1  -5   5   46.29    2.74   1
  -1  -5   5   43.97    2.45   1
   1  -5  -5   43.37    2.52   1
  -1  -5   5   45.50    2.61   1
   1   5  -4   36.04    2.02   1
  -1   5   4   32.46    1.84   1
   1   5  -4   32.88    1.84   1
   1   5  -4   30.75    1.92   1
  -1   5   4   34.62    1.82   1
   1   5  -4   29.31    2.03   1
  -1   5   4   31.56    1.76   1
  -1  -5   4   32.31    2.12   1
  -1  -5   4   30.75    1.90   1
  -1  -5   4   31.39    1.98   1
   1  -5  -4   35.10    1.96   1
  -1  -5   4   32.94    1.75   1
   1   5  -3   54.12    2.82   1
   1   5  -3   53.58    3.07   1
  -1   5   3   57.85    2.82   1
  -1   5   3   55.69    2.83   1
   1   5  -3   56.82    2.84   1
   1   5  -3   55.13    2.95   1
  -1   5   3   56.52    2.77   1
   1   5  -3   44.95    2.94   1
   1  -5  -3   49.88    2.94   1
  -1  -5   3   53.33    2.92   1
  -1  -5   3   55.86    2.99   1
   1  -5  -3   55.27    2.97   1
  -1  -5   3   54.07    2.82   1
  -1  -5   3   57.03    3.25   1
  -1  -5   3   55.59    2.79   1
   1   5  -2   93.39    5.00   1
   1   5  -2   98.86    4.87   1
   1   5  -2  101.35    4.87   1
  -1   5   2   98.65    4.82   1
  -1   5   2  101.04    4.88   1
   1   5  -2   98.09    5.02   1
  -1   5   2  101.28    4.84   1
  -1  -5   2  100.12    5.01   1
   1  -5  -2  102.03    5.06   1
  -1  -5   2  101.01    4.94   1
  -1  -5   2   83.45    5.24   1
  -1  -5   2   95.97    5.06   1
   1  -5  -2   94.65    5.03   1
   1  -5  -2   97.72    5.08   1
   1  -5  -2   96.19    5.05   1
   1   5  -1   16.58    1.06   1
  -1   5   1   18.14    0.94   1
  -1  -5   1   16.19    1.28   1
   1  -5  -1   17.17    1.13   1
   1  -5  -1   16.51    1.12   1
  -1  -5   1   16.76    1.08   1
   1  -5  -1   16.75    1.19   1
   1  -5  -1   16.36    1.10   1
  -1  -5   1   18.62    1.05   1
  -1  -5   1   17.34    1.10   1
   1   5   0  108.13    5.07   1
  -1   5   0  105.56    5.14   1
   1   5   0  102.82    5.07   1
  -1   5   0  104.72    5.06   1
  -1  -5   0   99.84    5.44   1
   1  -5   0  107.76    5.47   1
   1  -5   0   99.83    5.31   1
   1  -5   0  101.84    5.26   1
   1  -5   0  102.50    5.28   1
  -1  -5   0  102.48    5.25   1
  -1  -5   0  101.32    5.23   1
  -1  -5   0   99.76    5.27   1
  -1   5  -1    6.95    0.47   1
   1   5   1    7.48    0.41   1
  -1   5  -1    7.43    0.53   1
   1   5   1    7.82    0.41   1
  -1   5  -1    7.08    0.71   1
  -1   5  -1    6.60    0.53   1
   1  -5   1    6.99    0.63   1
  -1  -5  -1    7.13    0.62   1
  -1  -5  -1    7.34    0.73   1
  -1  -5  -1    8.00    0.64   1
  -1  -5  -1    7.01    0.62   1
   1  -5   1    7.66    0.67   1
   1  -5   1    9.17    0.98   1
   1  -5   1    7.51    0.63   1
  -1   5  -2   82.50    4.14   1
  -1   5  -2   78.96    4.28   1
  -1   5  -2   85.45    4.21   1
  -1   5  -2   76.84    4.21   1
   1   5   2   87.56    4.12   1
  -1  -5  -2   85.81    4.24   1
  -1  -5  -2   81.17    4.24   1
   1  -5   2   78.28    4.29   1
  -1  -5  -2   81.06    4.27   1
   1  -5   2   81.24    4.21   1
   1  -5   2   79.77    4.27   1
  -1  -5  -2   82.77    4.29   1
  -1   5  -3   16.28    1.14   1
   1   5   3   15.71    0.92   1
  -1   5  -3   15.48    1.14   1
  -1   5  -3   18.68    1.13   1
   1   5   3   16.84    0.92   1
   1  -5   3   16.81    1.16   1
  -1  -5  -3   16.21    1.14   1
   1  -5   3   15.39    1.37   1
   1  -5   3   15.90    1.13   1
   1  -5   3   15.53    1.04   1
  -1  -5  -3   15.85    1.05   1
   1   5   4   15.81    0.97   1
  -1   5  -4   15.43    1.12   1
   1   5   4   15.26    1.08   1
  -1   5  -4   12.73    1.13   1
   1   5   4   14.68    0.98   1
  -1   5  -4   14.94    1.11   1
   1  -5   4   15.84    1.01   1
   1  -5   4   16.35    1.17   1
  -1  -5  -4   13.92    1.12   1
   1  -5   4   15.03    1.03   1
   1  -5   4   17.60    1.20   1
   1  -5   4   18.28    1.42   1
  -1   5  -5   26.31    1.77   1
   1   5   5   25.44    1.63   1
  -1   5  -5   26.62    1.71   1
   1   5   5   26.33    1.68   1
  -1   5  -5   26.53    1.86   1
  -1   5  -5   26.14    1.81   1
   1  -5   5   26.35    1.75   1
   1  -5   5   29.51    1.95   1
   1  -5   5   28.57    1.68   1
   1  -5   5   26.67    1.60   1
   1  -5   5   27.67    1.81   1
  -1   5  -6    0.62    0.49   1
  -1   5  -6   -0.06    0.40   1
   1   5   6    0.09    0.36   1
  -1   5  -6   -0.51    0.39   1
  -1   5  -6   -0.98    0.41   1
   1   5   6    0.26    0.34   1
   1  -5   6    0.51    0.51   1
   1  -5   6    0.76    0.51   1
   1  -5   6   -0.70    0.43   1
   1  -5   6   -0.63    0.30   1
   1  -5   6   -0.04    0.33   1
  -1   5  -7   35.43    2.30   1
  -1   5  -7   31.28    2.33   1
   1   5   7   29.14    2.03   1
  -1   5  -7   36.38    2.16   1
  -1   5  -7   33.10    2.24   1
   1   5   7   38.10    2.22   1
   1  -5   7   33.77    2.00   1
   1  -5   7   33.63    2.25   1
   1  -5   7   31.29    2.19   1
   1  -5   7   32.69    2.27   1
   1  -5   7   34.83    2.23   1
  -1   5  -8    1.65    0.81   1
   1   5   8    1.75    0.58   1
   1   5   8    1.36    0.51   1
  -1   5  -8    1.36    0.63   1
  -1   5  -8    0.99    0.75   1
  -1   5  -8    1.70    0.57   1
   1  -5   8    1.41    0.71   1
   1  -5   8    2.38    0.76   1
  -1   5  -9   10.49    1.47   1
  -1   5  -9   11.23    1.27   1
   1   5   9   10.83    1.20   1
   1   5   9   11.30    1.30   1
  -1   5  -9   10.49    1.37   1
  -1   5  -9   12.30    1.52   1
   1  -5   9   12.93    1.41   1
   1  -5   9    9.99    1.41   1
  -1   5 -10    6.59    1.21   1
  -1   5 -10    8.25    1.35   1
   1   5  10    7.61    1.12   1
  -1   5 -10    6.12    1.11   1
   1   5  10    7.77    1.07   1
   1  -5  10    9.37    1.24   1
   1  -5  10    8.24    1.34   1
   1   5  11    1.83    0.74   1
  -1   5 -11    3.33    0.98   1
   1   5  11    2.81    0.82   1
  -1   5 -11    2.71    0.91   1
   1  -5  11    2.24    0.79   1
   1  -5  11    2.60    1.00   1
   1   5  12    6.93    1.32   1
  -1   5 -12    8.36    1.38   1
   1  -5  12   12.37    1.66   1
   1   6 -12    3.11    1.01   1
  -1   6  12    2.83    1.01   1
  -1   6  12    1.84    0.75   1
  -1  -6  12    2.55    1.08   1
  -1  -6  12    2.03    1.03   1
   1   6 -11    3.92    0.96   1
  -1   6  11    2.69    0.90   1
   1   6 -11    4.55    1.07   1
   1   6 -11    4.23    1.11   1
  -1   6  11    3.75    0.87   1
  -1  -6  11    4.82    1.23   1
  -1  -6  11    5.17    1.04   1
   1   6 -10   12.48    1.62   1
  -1   6  10   13.34    1.41   1
   1   6 -10   10.85    1.45   1
   1   6 -10   11.64    1.40   1
  -1   6  10   12.86    1.38   1
   1   6 -10   13.77    1.63   1
  -1  -6  10   14.87    1.65   1
  -1  -6  10   10.85    1.48   1
   1   6  -9   15.05    1.76   1
   1   6  -9   16.44    1.70   1
   1   6  -9   17.72    1.52   1
   1   6  -9   17.07    1.90   1
  -1   6   9   16.17    1.45   1
  -1   6   9   17.44    1.52   1
  -1  -6   9   17.04    1.70   1
  -1  -6   9   19.13    1.83   1
  -1  -6   9   17.72    1.63   1
  -1   6   8    3.72    0.78   1
   1   6  -8    4.61    0.88   1
   1   6  -8    1.91    0.85   1
   1   6  -8    3.77    0.77   1
  -1   6   8    3.32    0.73   1
   1   6  -8    3.55    0.90   1
  -1  -6   8    3.91    0.91   1
  -1  -6   8    3.31    0.83   1
  -1  -6   8    4.48    0.89   1
   1   6  -7   -0.31    0.52   1
  -1   6   7    0.66    0.40   1
  -1   6   7    0.77    0.46   1
   1   6  -7    0.90    0.52   1
   1   6  -7    0.70    0.53   1
   1   6  -7    0.42    0.64   1
  -1  -6   7    0.62    0.55   1
  -1  -6   7    0.19    0.50   1
  -1  -6   7   -0.41    0.42   1
   1   6  -6    2.76    0.62   1
   1   6  -6    2.20    0.71   1
  -1   6   6    3.40    0.54   1
   1   6  -6    4.59    0.75   1
   1   6  -6    2.71    0.67   1
  -1   6   6    3.63    0.61   1
  -1  -6   6    1.45    0.55   1
  -1  -6   6    2.58    0.72   1
  -1  -6   6    2.66    0.74   1
   1  -6  -6    3.98    0.73   1
   1   6  -5   39.81    2.31   1
   1   6  -5   38.75    2.31   1
   1   6  -5   36.50    2.20   1
  -1   6   5   37.89    2.09   1
   1   6  -5   40.38    2.50   1
  -1   6   5   29.87    2.14   1
  -1  -6   5   37.96    2.27   1
  -1  -6   5   39.10    2.05   1
  -1  -6   5   41.12    2.40   1
  -1  -6   5   36.96    2.50   1
   1  -6  -5   38.67    2.30   1
   1   6  -4   65.20    3.49   1
   1   6  -4   64.34    3.76   1
  -1   6   4   63.31    3.39   1
   1   6  -4   73.50    3.66   1
  -1   6   4   73.32    3.48   1
  -1   6   4   62.64    3.46   1
   1   6  -4   67.62    3.62   1
  -1  -6   4   70.61    3.93   1
   1  -6  -4   62.62    3.61   1
  -1  -6   4   60.22    3.64   1
  -1  -6   4   64.41    3.42   1
  -1  -6   4   67.84    3.59   1
   1   6  -3   15.13    0.97   1
  -1   6   3   15.29    0.94   1
   1   6  -3   17.66    1.16   1
   1   6  -3   16.84    1.28   1
   1   6  -3   15.80    1.13   1
   1   6  -3   15.38    0.96   1
  -1   6   3   15.86    0.89   1
  -1   6   3   16.71    0.95   1
  -1  -6   3   17.02    1.00   1
   1  -6  -3   15.23    1.14   1
   1  -6  -3   15.34    1.15   1
  -1  -6   3   14.51    1.11   1
  -1  -6   3   13.80    1.15   1
  -1  -6   3   13.85    1.51   1
   1   6  -2   45.87    2.31   1
  -1   6   2   44.24    2.27   1
  -1   6   2   46.40    2.25   1
   1   6  -2   44.96    2.45   1
  -1   6   2   47.13    2.32   1
   1   6  -2   45.90    2.32   1
   1   6  -2   47.35    2.51   1
  -1  -6   2   45.19    2.41   1
   1  -6  -2   45.06    2.54   1
   1  -6  -2   46.55    2.60   1
   1  -6  -2   44.45    2.53   1
  -1  -6   2   35.39    2.72   1
  -1  -6   2   42.83    2.55   1
  -1  -6   2   45.11    2.49   1
   1  -6  -2   46.21    2.55   1
   1   6  -1   -0.06    0.18   1
  -1   6   1    0.23    0.13   1
   1   6  -1   -0.22    0.22   1
  -1  -6   1    0.14    0.23   1
   1  -6  -1    0.56    0.32   1
  -1  -6   1    0.00    0.30   1
  -1  -6   1   -0.03    0.27   1
   1  -6  -1    0.20    0.32   1
  -1  -6   1    0.09    0.47   1
   1  -6  -1    1.09    0.44   1
   1  -6  -1    0.41    0.34   1
  -1   6   0   23.49    1.31   1
   1   6   0   24.98    1.22   1
  -1   6   0   24.74    1.24   1
   1   6   0   24.37    1.22   1
  -1   6   0   26.32    1.26   1
   1  -6   0   23.40    1.54   1
  -1  -6   0   24.96    1.52   1
   1  -6   0   23.39    1.50   1
  -1  -6   0   23.52    1.68   1
  -1  -6   0   23.53    1.45   1
   1  -6   0   26.44    1.74   1
  -1  -6   0   22.98    1.46   1
   1  -6   0   22.98    1.47   1
  -1   6  -1   65.47    3.27   1
  -1   6  -1   63.15    3.28   1
  -1   6  -1   66.07    3.22   1
  -1   6  -1   66.98    3.47   1
   1  -6   1   64.94    3.71   1
   1  -6   1   64.25    3.47   1
  -1  -6  -1   63.10    3.40   1
  -1  -6  -1   60.46    3.37   1
   1  -6   1   61.32    3.42   1
  -1  -6  -1   61.99    3.39   1
   1  -6   1   63.85    3.39   1
  -1  -6  -1   62.96    3.53   1
  -1   6  -2   25.94    1.44   1
  -1   6  -2   26.78    1.50   1
   1   6   2   27.25    1.37   1
  -1   6  -2   27.69    1.56   1
  -1   6  -2   25.08    1.64   1
  -1  -6  -2   25.82    1.59   1
   1  -6   2   26.13    1.55   1
   1  -6   2   20.53    1.84   1
  -1  -6  -2   27.39    1.66   1
  -1  -6  -2   25.71    1.57   1
   1  -6   2   25.73    1.63   1
  -1  -6  -2   25.56    1.61   1
   1  -6   2   25.78    1.65   1
  -1   6  -3  103.16    5.08   1
   1   6   3   98.78    4.86   1
   1   6   3  101.79    4.87   1
  -1   6  -3  103.63    5.08   1
   1   6   3   94.65    4.94   1
  -1   6  -3   93.47    5.13   1
   1  -6   3   95.53    5.01   1
   1  -6   3  100.78    5.14   1
   1  -6   3   93.34    5.14   1
  -1  -6  -3   95.59    5.12   1
   1  -6   3   92.20    5.41   1
  -1  -6  -3   95.07    5.06   1
   1   6   4   -0.37    0.27   1
  -1   6  -4   -0.07    0.33   1
  -1   6  -4    0.54    0.34   1
  -1   6  -4   -0.47    0.32   1
   1   6   4    0.02    0.23   1
   1  -6   4    0.19    0.54   1
   1  -6   4    0.24    0.40   1
  -1  -6  -4    0.27    0.40   1
   1  -6   4    0.33    0.34   1
   1  -6   4    0.00    0.38   1
   1   6   5   -0.04    0.29   1
   1   6   5    1.04    0.42   1
  -1   6  -5    0.16    0.43   1
  -1   6  -5    0.07    0.38   1
  -1   6  -5   -0.44    0.45   1
  -1   6  -5   -0.57    0.41   1
   1  -6   5   -0.31    0.31   1
   1  -6   5   -0.19    0.50   1
   1  -6   5    0.37    0.47   1
   1  -6   5   -0.11    0.44   1
  -1   6  -6   13.31    1.46   1
   1   6   6   14.63    1.16   1
   1   6   6   12.51    1.05   1
  -1   6  -6   12.46    1.34   1
  -1   6  -6   13.21    1.38   1
  -1   6  -6   13.67    1.18   1
   1  -6   6   13.75    1.35   1
   1  -6   6   14.70    1.05   1
   1  -6   6   15.34    1.35   1
   1  -6   6   10.69    1.22   1
   1   6   7    9.38    1.06   1
  -1   6  -7    9.52    1.32   1
  -1   6  -7   12.19    1.33   1
  -1   6  -7    9.52    1.22   1
  -1   6  -7   11.56    1.17   1
   1   6   7    7.84    0.94   1
   1  -6   7    9.87    1.27   1
   1  -6   7   10.11    1.20   1
   1  -6   7    9.62    1.25   1
   1  -6   7   10.90    1.29   1
   1   6   8   36.42    2.31   1
  -1   6  -8   36.02    2.72   1
   1   6   8   39.67    2.43   1
  -1   6  -8   38.23    2.38   1
  -1   6  -8   37.85    2.54   1
  -1   6  -8   31.07    2.52   1
   1  -6   8   37.24    2.58   1
   1  -6   8   34.38    2.53   1
  -1   6  -9   -1.02    0.64   1
  -1   6  -9   -0.26    0.49   1
  -1   6  -9    0.33    0.60   1
  -1   6  -9    1.93    0.84   1
   1   6   9   -0.20    0.45   1
   1   6   9    0.19    0.48   1
   1  -6   9    0.13    0.66   1
   1  -6   9    0.36    0.83   1
   1   6  10    1.82    0.67   1
  -1   6 -10    1.75    0.88   1
  -1   6 -10    1.77    0.81   1
   1   6  10    1.71    0.73   1
  -1   6 -10    3.14    0.89   1
   1  -6  10    2.85    1.01   1
   1  -6  10    2.47    0.84   1
  -1   6 -11   -0.04    0.92   1
   1   6  11    0.33    0.60   1
  -1   6 -11    0.39    0.73   1
  -1   6 -11    1.34    0.78   1
   1   6  11    1.06    0.67   1
   1  -6  11    0.56    0.70   1
   1  -6  11    0.72    0.94   1
  -1   7  11    3.19    0.89   1
   1   7 -11    4.85    1.17   1
   1   7 -11    3.15    1.00   1
   1   7 -11    1.65    0.87   1
  -1   7  11    3.69    0.86   1
  -1  -7  11    4.11    1.12   1
  -1  -7  11    2.27    0.96   1
   1   7 -10    2.22    1.00   1
  -1   7  10    0.55    0.60   1
   1   7 -10    0.20    0.78   1
   1   7 -10    0.89    0.73   1
   1   7 -10    1.82    0.74   1
  -1   7  10    0.95    0.62   1
  -1  -7  10    1.06    0.84   1
  -1  -7  10    0.66    0.86   1
  -1   7   9    1.70    0.64   1
   1   7  -9    0.44    0.77   1
   1   7  -9    1.41    0.69   1
   1   7  -9    0.25    0.75   1
  -1   7   9    0.81    0.61   1
   1   7  -9    0.80    0.62   1
  -1  -7   9    1.66    0.88   1
  -1  -7   9    0.45    0.65   1
  -1  -7   9    0.71    0.82   1
   1   7  -8    8.43    1.30   1
   1   7  -8    8.90    1.49   1
   1   7  -8   11.59    1.24   1
  -1   7   8   11.10    1.21   1
   1   7  -8    9.58    1.25   1
  -1   7   8   10.76    1.17   1
  -1  -7   8   10.05    1.39   1
  -1  -7   8    8.51    1.37   1
  -1  -7   8   11.50    1.34   1
   1   7  -7   66.52    3.80   1
  -1   7   7   63.58    3.56   1
  -1   7   7   62.21    3.56   1
   1   7  -7   65.10    3.71   1
   1   7  -7   60.72    3.98   1
   1   7  -7   60.85    3.65   1
  -1  -7   7   62.79    3.87   1
  -1  -7   7   59.92    3.65   1
  -1  -7   7   66.13    3.93   1
   1   7  -6   14.45    1.66   1
   1   7  -6   16.77    1.40   1
  -1   7   6   16.00    1.16   1
   1   7  -6   16.46    1.32   1
   1   7  -6   12.23    1.32   1
  -1   7   6   16.28    1.21   1
  -1  -7   6   19.18    1.56   1
  -1  -7   6   15.28    1.65   1
  -1  -7   6   15.08    1.30   1
   1  -7  -6   14.57    1.43   1
  -1   7   5    5.42    0.66   1
   1   7  -5    5.34    0.94   1
   1   7  -5    4.29    0.75   1
   1   7  -5    4.05    0.63   1
  -1   7   5    3.51    0.48   1
   1   7  -5    4.61    0.72   1
   1  -7  -5    3.83    0.73   1
  -1  -7   5    5.08    0.73   1
  -1  -7   5    3.26    0.88   1
  -1  -7   5    4.02    0.74   1
   1   7  -4   11.37    1.26   1
   1   7  -4   11.66    1.10   1
  -1   7   4    9.76    0.81   1
   1   7  -4   11.67    0.97   1
  -1   7   4   11.00    0.74   1
   1   7  -4    9.57    0.83   1
  -1  -7   4   10.02    0.99   1
  -1  -7   4   10.00    1.34   1
  -1  -7   4    9.68    1.08   1
   1  -7  -4    9.75    1.05   1
  -1  -7   4   11.80    0.81   1
  -1   7   3   40.82    2.08   1
   1   7  -3   34.60    2.20   1
  -1   7   3   40.74    2.03   1
   1   7  -3   39.19    2.47   1
  -1   7   3   38.26    2.07   1
   1   7  -3   41.19    2.34   1
   1  -7  -3   39.80    2.33   1
  -1  -7   3   39.19    2.68   1
   1  -7  -3   39.41    2.33   1
  -1  -7   3   40.13    2.17   1
  -1  -7   3   36.43    2.32   1
  -1  -7   3   37.82    2.28   1
  -1   7   2   87.36    4.17   1
   1   7  -2   83.82    4.23   1
  -1   7   2   88.48    4.22   1
   1   7  -2   88.88    4.49   1
   1   7  -2   86.74    4.32   1
   1   7  -2   85.67    4.24   1
  -1  -7   2   84.65    4.46   1
   1  -7  -2   82.89    4.57   1
  -1  -7   2   87.11    4.38   1
  -1  -7   2   72.17    4.75   1
  -1  -7   2   82.01    4.52   1
   1  -7  -2   79.10    4.48   1
   1  -7  -2   81.61    4.48   1
   1  -7  -2   81.29    4.50   1
   1   7  -1    4.95    0.36   1
   1   7  -1    4.63    0.26   1
   1   7  -1    4.42    0.26   1
  -1   7   1    4.83    0.27   1
   1   7  -1    4.15    0.58   1
  -1   7   1    4.74    0.26   1
  -1   7   1    4.36    0.34   1
   1  -7  -1    4.34    0.62   1
   1  -7  -1    3.49    0.68   1
  -1  -7   1    3.59    0.53   1
  -1  -7   1    4.72    0.61   1
  -1  -7   1    3.95    0.63   1
   1  -7  -1    2.66    0.58   1
   1  -7  -1    3.35    0.60   1
  -1  -7   1    4.16    0.84   1
  -1   7   0   44.55    2.26   1
  -1   7   0   43.51    2.31   1
  -1  -7   0   47.64    2.59   1
  -1  -7   0   46.41    2.54   1
   1  -7   0   47.59    2.82   1
   1  -7   0   45.64    2.60   1
  -1  -7   0   45.78    2.78   1
   1  -7   0   42.51    2.56   1
  -1  -7   0   43.02    2.48   1
   1  -7   0   44.30    2.53   1
  -1   7  -1   42.85    2.18   1
  -1   7  -1   40.90    2.13   1
  -1   7  -1   40.95    2.41   1
  -1   7  -1   39.67    2.21   1
   1  -7   1   40.22    2.68   1
  -1  -7  -1   41.08    2.36   1
  -1  -7  -1   37.99    2.32   1
   1  -7   1   42.83    2.33   1
   1  -7   1   39.50    2.41   1
  -1  -7  -1   44.25    2.53   1
   1  -7   1   40.95    2.38   1
  -1  -7  -1   39.92    2.33   1
   1   7   2   22.57    1.21   1
  -1   7  -2   23.90    1.59   1
  -1   7  -2   23.64    1.39   1
  -1   7  -2   24.38    1.47   1
  -1  -7  -2   24.79    1.61   1
   1  -7   2   25.48    1.52   1
   1  -7   2   23.58    1.57   1
   1  -7   2   20.41    1.85   1
   1  -7   2   22.31    1.59   1
  -1  -7  -2   22.54    1.53   1
  -1  -7  -2   24.70    1.56   1
  -1  -7  -2   25.69    1.54   1
  -1   7  -3   34.19    1.89   1
  -1   7  -3   28.03    1.93   1
  -1   7  -3   30.46    1.81   1
   1   7   3   31.32    1.61   1
   1   7   3   31.74    1.66   1
   1   7   3   30.34    1.61   1
   1  -7   3   32.07    1.83   1
  -1  -7  -3   27.75    1.91   1
   1  -7   3   31.45    1.94   1
   1  -7   3   27.16    2.23   1
   1  -7   3   28.08    1.95   1
  -1  -7  -3   31.22    1.91   1
  -1   7  -4    0.73    0.44   1
  -1   7  -4    0.19    0.49   1
  -1   7  -4    0.79    0.41   1
  -1   7  -4    0.37    0.42   1
   1   7   4    0.62    0.30   1
   1   7   4    0.76    0.27   1
   1  -7   4    0.47    0.65   1
  -1  -7  -4    0.09    0.44   1
   1  -7   4    0.18    0.34   1
   1  -7   4    0.62    0.47   1
   1  -7   4    1.13    0.52   1
  -1   7  -5   61.89    3.66   1
  -1   7  -5   66.57    3.70   1
  -1   7  -5   68.12    3.61   1
  -1   7  -5   66.08    3.87   1
   1   7   5   53.43    3.43   1
   1   7   5   55.97    3.41   1
   1  -7   5   63.76    3.66   1
   1  -7   5   70.82    3.50   1
   1  -7   5   68.39    3.76   1
   1  -7   5   75.62    4.07   1
  -1   7  -6   37.35    2.57   1
  -1   7  -6   35.99    2.27   1
   1   7   6   34.18    2.15   1
  -1   7  -6   36.69    2.45   1
   1   7   6   37.13    2.24   1
  -1   7  -6   34.20    2.38   1
   1  -7   6   39.60    2.61   1
   1  -7   6   35.35    2.13   1
   1  -7   6   39.35    2.52   1
   1  -7   6   34.19    2.39   1
  -1   7  -7    0.77    0.68   1
  -1   7  -7    1.23    0.58   1
  -1   7  -7   -0.38    0.49   1
   1   7   7    0.42    0.44   1
   1   7   7    0.74    0.48   1
  -1   7  -7    1.20    0.74   1
   1  -7   7    0.95    0.67   1
   1  -7   7    0.18    0.65   1
   1  -7   7   -0.03    0.64   1
  -1   7  -8    1.01    0.59   1
   1   7   8    0.77    0.51   1
   1   7   8   -0.21    0.50   1
  -1   7  -8   -0.01    0.69   1
  -1   7  -8    0.34    0.65   1
  -1   7  -8    0.65    0.81   1
   1  -7   8    0.80    0.83   1
   1  -7   8    0.01    0.71   1
   1   7   9    1.71    0.64   1
   1   7   9    3.16    0.81   1
  -1   7  -9    3.96    1.11   1
  -1   7  -9    5.01    1.14   1
  -1   7  -9    3.20    0.92   1
  -1   7  -9    3.18    0.79   1
   1  -7   9    4.03    1.06   1
   1  -7   9    3.55    1.01   1
   1   7  10   15.50    1.54   1
  -1   7 -10   16.68    1.85   1
  -1   7 -10   15.68    1.89   1
   1   7  10   16.53    1.69   1
  -1   7 -10   14.85    1.86   1
   1  -7  10   14.90    1.74   1
   1  -7  10   17.92    1.90   1
  -1   7 -11    5.22    1.16   1
   1   7  11    5.47    1.16   1
   1   7  11    5.29    1.00   1
   1  -7  11    4.22    1.08   1
   1  -7  11    5.39    1.27   1
  -1   8  11    0.80    0.69   1
  -1   8  11    0.41    0.77   1
   1   8 -11    0.21    0.92   1
  -1  -8  11    1.23    0.98   1
  -1  -8  11    0.84    1.23   1
   1   8 -10    8.02    1.41   1
   1   8 -10    7.86    1.25   1
  -1   8  10    6.43    1.02   1
   1   8 -10    6.73    1.35   1
   1   8 -10    8.82    1.21   1
  -1   8  10    6.52    1.05   1
  -1  -8  10    4.48    1.11   1
  -1  -8  10   10.97    1.57   1
  -1   8   9   11.23    1.26   1
  -1   8   9    9.08    1.15   1
   1   8  -9   11.65    1.36   1
   1   8  -9   11.88    1.40   1
   1   8  -9   11.27    1.74   1
   1   8  -9   10.63    1.49   1
  -1  -8   9    9.05    1.35   1
  -1  -8   9    9.79    1.48   1
  -1  -8   9   10.04    1.55   1
   1   8  -8    7.71    1.04   1
   1   8  -8    6.30    1.32   1
   1   8  -8    6.74    1.19   1
   1   8  -8    8.45    1.19   1
  -1   8   8    4.54    0.87   1
  -1   8   8    7.71    0.96   1
  -1  -8   8    9.19    1.22   1
  -1  -8   8    6.17    1.19   1
  -1  -8   8    8.47    1.38   1
   1   8  -7   -0.17    0.54   1
  -1   8   7   -0.39    0.43   1
  -1   8   7   -0.15    0.40   1
   1   8  -7   -0.51    0.67   1
   1   8  -7    0.28    0.60   1
   1   8  -7    0.06    0.51   1
  -1  -8   7   -0.22    0.64   1
  -1  -8   7   -0.07    0.57   1
  -1  -8   7   -1.44    0.61   1
  -1   8   6   16.56    1.22   1
   1   8  -6   16.97    1.44   1
  -1   8   6   18.09    1.27   1
   1   8  -6   15.31    1.47   1
   1   8  -6   19.73    1.53   1
   1   8  -6   15.09    1.77   1
  -1  -8   6   16.31    1.51   1
   1  -8  -6   15.85    1.58   1
  -1  -8   6   17.06    1.84   1
  -1  -8   6   15.29    1.66   1
   1   8  -5   41.87    2.81   1
  -1   8   5   41.53    2.33   1
   1   8  -5   39.98    2.49   1
  -1   8   5   42.46    2.28   1
   1   8  -5   36.72    2.44   1
   1   8  -5   41.83    2.57   1
   1  -8  -5   41.00    2.59   1
  -1  -8   5   42.84    2.92   1
  -1  -8   5   41.41    2.55   1
  -1  -8   5   40.20    2.67   1
  -1   8   4   21.43    1.33   1
   1   8  -4   26.36    1.90   1
   1   8  -4   25.74    1.69   1
   1   8  -4   21.99    1.53   1
  -1   8   4   24.55    1.43   1
   1   8  -4   23.88    1.50   1
  -1  -8   4   24.89    1.66   1
   1  -8  -4   20.45    1.64   1
  -1  -8   4   24.04    1.46   1
  -1  -8   4   20.35    1.69   1
  -1  -8   4   26.21    2.07   1
   1   8  -3    0.46    0.26   1
  -1   8   3    0.27    0.22   1
   1   8  -3    0.10    0.50   1
   1   8  -3    0.58    0.43   1
   1   8  -3    0.57    0.30   1
  -1   8   3    0.39    0.18   1
   1  -8  -3    0.82    0.49   1
   1  -8  -3    0.55    0.44   1
  -1  -8   3    0.38    0.46   1
  -1  -8   3    0.05    0.30   1
  -1  -8   3    0.54    0.65   1
  -1  -8   3    0.63    0.46   1
  -1   8   2   15.23    0.84   1
   1   8  -2   15.56    0.95   1
   1   8  -2   15.85    1.21   1
   1   8  -2   15.30    0.92   1
   1   8  -2   14.29    1.33   1
  -1   8   2   15.94    0.85   1
   1   8  -2   15.34    1.08   1
   1  -8  -2   14.97    1.23   1
  -1  -8   2   13.51    1.61   1
  -1  -8   2   16.27    1.29   1
  -1  -8   2   15.29    1.18   1
   1  -8  -2   13.29    1.21   1
  -1  -8   2   15.83    1.12   1
   1  -8  -2   15.50    1.22   1
  -1   8   1   52.29    2.66   1
   1   8  -1   53.10    2.67   1
   1   8  -1   56.03    2.67   1
  -1   8   1   52.31    2.66   1
   1   8  -1   54.51    3.00   1
   1  -8  -1   51.40    3.07   1
   1  -8  -1   53.22    3.23   1
  -1  -8   1   52.88    3.35   1
   1  -8  -1   57.18    3.08   1
  -1  -8   1   51.98    2.99   1
   1  -8  -1   52.62    3.01   1
  -1  -8   1   52.15    3.06   1
  -1  -8   1   53.29    2.95   1
  -1   8   0   58.78    2.75   1
  -1   8   0   54.40    2.72   1
  -1   8   0   52.42    2.70   1
  -1  -8   0   52.39    3.26   1
   1  -8   0   54.71    3.00   1
   1  -8   0   55.74    3.32   1
  -1  -8   0   50.54    2.97   1
  -1  -8   0   52.90    3.05   1
   1  -8   0   48.14    3.06   1
  -1  -8   0   52.93    2.97   1
   1  -8   0   50.22    3.03   1
  -1   8  -1    6.39    0.60   1
  -1   8  -1    5.97    0.51   1
  -1   8  -1    4.62    0.54   1
  -1   8  -1    4.88    0.76   1
  -1  -8  -1    6.18    0.78   1
   1  -8   1    6.16    0.79   1
  -1  -8  -1    4.42    0.81   1
  -1  -8  -1    4.83    0.72   1
   1  -8   1    6.28    0.81   1
  -1  -8  -1    6.12    0.77   1
   1  -8   1    5.47    1.04   1
   1  -8   1    6.06    0.73   1
  -1   8  -2    7.85    0.98   1
  -1   8  -2    9.24    0.84   1
  -1   8  -2    9.82    0.75   1
  -1  -8  -2   10.17    1.02   1
  -1  -8  -2   12.55    0.99   1
   1  -8   2   10.86    0.97   1
   1  -8   2   11.28    1.13   1
   1  -8   2    8.66    1.31   1
  -1  -8  -2   11.24    0.96   1
  -1  -8  -2   10.60    1.13   1
   1  -8   2    8.70    1.00   1
  -1   8  -3   40.35    2.25   1
  -1   8  -3   38.34    2.38   1
  -1   8  -3   37.23    2.15   1
   1   8   3   39.15    1.96   1
   1   8   3   37.23    1.95   1
  -1  -8  -3   39.48    2.35   1
  -1  -8  -3   35.47    2.32   1
   1  -8   3   36.17    2.21   1
   1  -8   3   34.01    2.69   1
   1  -8   3   39.47    2.38   1
   1  -8   3   35.31    2.37   1
  -1   8  -4   37.72    2.26   1
  -1   8  -4   39.16    2.29   1
   1   8   4   38.44    2.04   1
  -1   8  -4   36.33    2.38   1
   1   8   4   34.54    2.04   1
  -1   8  -4   39.62    2.59   1
   1  -8   4   36.84    2.75   1
  -1  -8  -4   36.83    2.40   1
   1  -8   4   37.96    2.38   1
   1  -8   4   37.83    2.22   1
   1  -8   4   36.94    2.44   1
  -1   8  -5    8.07    0.95   1
  -1   8  -5    7.42    1.16   1
   1   8   5    6.86    0.75   1
  -1   8  -5    7.28    0.96   1
   1   8   5    8.69    0.80   1
  -1   8  -5    6.17    0.98   1
   1  -8   5    8.38    1.14   1
   1  -8   5    7.24    0.99   1
   1  -8   5    8.48    0.87   1
   1  -8   5    8.22    1.32   1
  -1   8  -6    2.17    0.74   1
  -1   8  -6    1.34    0.66   1
  -1   8  -6    2.15    0.59   1
  -1   8  -6    2.26    0.82   1
   1   8   6    1.54    0.47   1
   1   8   6    2.36    0.55   1
   1  -8   6    1.76    0.71   1
   1  -8   6    1.20    0.76   1
   1  -8   6    1.02    0.77   1
  -1   8  -7   16.00    1.65   1
  -1   8  -7   13.78    1.54   1
  -1   8  -7   15.16    1.83   1
   1   8   7   11.47    1.17   1
  -1   8  -7   12.58    1.33   1
   1   8   7   13.77    1.30   1
   1  -8   7   14.66    1.70   1
   1  -8   7   12.22    1.59   1
   1  -8   7   16.07    1.62   1
  -1   8  -8   14.10    1.69   1
  -1   8  -8   15.36    1.52   1
  -1   8  -8   16.84    2.03   1
   1   8   8   16.95    1.46   1
   1   8   8   17.47    1.36   1
  -1   8  -8   17.67    1.79   1
   1  -8   8   16.90    1.77   1
   1  -8   8   11.61    1.67   1
  -1   8  -9    4.64    0.94   1
  -1   8  -9    6.02    1.14   1
  -1   8  -9    4.85    1.16   1
  -1   8  -9    5.22    1.20   1
   1   8   9    2.98    0.75   1
   1   8   9    4.58    0.91   1
   1  -8   9    3.33    1.04   1
   1  -8   9    5.62    1.25   1
   1   8  10   -0.35    0.62   1
  -1   8 -10    1.69    0.90   1
  -1   8 -10    0.25    0.63   1
   1   8  10    0.15    0.54   1
  -1   8 -10    0.96    0.85   1
   1  -8  10    0.39    0.93   1
   1  -8  10    0.78    0.93   1
   1   9 -10    4.30    1.11   1
  -1   9  10    3.91    0.94   1
  -1   9  10    5.05    0.93   1
   1   9 -10    3.96    0.90   1
  -1  -9  10    4.81    1.14   1
  -1  -9  10    4.10    1.48   1
   1   9  -9    0.58    0.71   1
   1   9  -9    1.33    0.99   1
  -1   9   9    3.15    0.74   1
   1   9  -9    1.57    0.90   1
  -1   9   9    2.09    0.66   1
   1   9  -9    2.57    0.78   1
  -1  -9   9    1.32    1.05   1
  -1  -9   9    3.10    0.97   1
  -1  -9   9    2.06    0.96   1
   1   9  -8    6.69    1.08   1
   1   9  -8    6.27    1.39   1
  -1   9   8    6.27    0.96   1
  -1   9   8    8.34    0.96   1
   1   9  -8    8.64    1.14   1
   1   9  -8    7.98    1.31   1
  -1  -9   8    6.69    1.12   1
  -1  -9   8    6.95    1.37   1
  -1  -9   8    2.97    1.12   1
   1   9  -7    0.53    0.55   1
   1   9  -7    0.69    0.69   1
   1   9  -7    0.03    0.56   1
   1   9  -7    0.66    0.83   1
  -1   9   7    1.30    0.54   1
  -1  -9   7    0.19    0.81   1
  -1  -9   7    0.23    0.64   1
  -1  -9   7    0.92    0.80   1
   1   9  -6    3.76    0.82   1
  -1   9   6    2.23    0.51   1
   1   9  -6    1.08    0.59   1
   1   9  -6    2.90    0.69   1
   1   9  -6    2.85    0.99   1
  -1  -9   6    1.89    0.84   1
   1  -9  -6    3.05    0.84   1
  -1  -9   6    2.82    0.97   1
  -1  -9   6    3.26    0.78   1
   1   9  -5    4.21    1.02   1
   1   9  -5    5.06    0.86   1
  -1   9   5    5.02    0.56   1
   1   9  -5    3.99    0.70   1
   1   9  -5    2.83    0.65   1
   1  -9  -5    3.32    0.83   1
  -1  -9   5    3.72    0.87   1
  -1  -9   5    5.68    0.90   1
  -1  -9   5    3.49    1.05   1
   1   9  -4   11.80    1.45   1
  -1   9   4    9.57    0.74   1
   1   9  -4   10.71    1.18   1
   1   9  -4    9.31    0.96   1
   1   9  -4   11.49    0.94   1
   1  -9  -4   11.06    1.24   1
  -1  -9   4   10.06    1.22   1
  -1  -9   4   10.63    1.13   1
  -1  -9   4    9.99    1.53   1
   1   9  -3   35.48    1.98   1
   1   9  -3   33.75    2.00   1
  -1   9   3   35.25    1.86   1
   1   9  -3   35.75    2.46   1
   1   9  -3   35.46    2.26   1
  -1  -9   3   38.29    2.13   1
   1  -9  -3   36.07    2.29   1
  -1  -9   3   30.52    2.62   1
  -1  -9   3   35.12    2.29   1
   1  -9  -3   32.45    2.24   1
  -1  -9   3   37.06    2.27   1
  -1   9   2    3.58    0.31   1
   1   9  -2    3.30    0.64   1
   1   9  -2    4.10    0.85   1
  -1   9   2    3.00    0.30   1
  -1  -9   2    3.14    0.69   1
   1  -9  -2    3.71    0.73   1
  -1  -9   2    3.58    0.61   1
   1  -9  -2    3.31    0.71   1
   1  -9  -2    2.87    0.69   1
  -1  -9   2    4.45    1.06   1
  -1  -9   2    3.01    0.70   1
  -1   9   1    0.24    0.12   1
   1   9  -1    0.10    0.14   1
  -1   9   1    0.09    0.14   1
   1   9  -1   -0.27    0.34   1
   1   9  -1   -0.15    0.12   1
  -1  -9   1   -0.04    0.42   1
   1  -9  -1    0.37    0.48   1
  -1  -9   1   -0.10    0.42   1
  -1  -9   1    0.33    0.63   1
   1  -9  -1    0.39    0.47   1
  -1  -9   1    0.22    0.39   1
   1  -9  -1   -0.10    0.52   1
   1  -9  -1    0.53    0.51   1
  -1   9   0   -0.41    0.42   1
   1   9   0   -0.70    0.30   1
  -1   9   0    0.06    0.18   1
   1  -9   0    0.61    0.52   1
  -1  -9   0   -0.44    0.40   1
   1  -9   0   -0.64    0.34   1
  -1  -9   0    0.54    0.44   1
   1  -9   0   -0.08    0.45   1
  -1  -9   0   -0.18    0.54   1
  -1  -9   0   -0.20    0.38   1
   1  -9   0   -0.15    0.55   1
  -1   9  -1   29.83    1.98   1
  -1   9  -1   31.52    1.69   1
   1  -9   1   29.54    2.02   1
   1  -9   1   26.70    1.94   1
   1  -9   1   27.32    1.85   1
  -1  -9  -1   28.23    2.11   1
  -1  -9  -1   28.09    1.89   1
  -1  -9  -1   28.28    1.91   1
   1  -9   1   32.48    2.38   1
  -1  -9  -1   29.13    1.93   1
  -1   9  -2   30.48    1.96   1
  -1   9  -2   34.23    1.90   1
  -1   9  -2   34.87    2.22   1
  -1  -9  -2   33.25    2.14   1
  -1  -9  -2   33.97    2.25   1
   1  -9   2   38.30    2.25   1
  -1  -9  -2   33.08    2.19   1
   1  -9   2   32.21    2.23   1
  -1  -9  -2   34.46    2.14   1
   1  -9   2   34.38    2.65   1
  -1   9  -3   -0.06    0.29   1
  -1   9  -3   -0.10    0.38   1
  -1   9  -3   -0.24    0.49   1
   1   9   3   -0.12    0.15   1
   1  -9   3    0.14    0.74   1
  -1  -9  -3    0.05    0.45   1
  -1  -9  -3    0.16    0.53   1
   1  -9   3    0.11    0.48   1
   1  -9   3   -0.68    0.34   1
   1  -9   3   -0.13    0.50   1
  -1   9  -4    6.69    0.79   1
  -1   9  -4    6.55    1.11   1
   1   9   4    4.51    0.54   1
  -1   9  -4    6.26    0.82   1
  -1   9  -4    3.82    0.87   1
  -1  -9  -4    5.03    0.88   1
   1  -9   4    6.81    0.81   1
   1  -9   4    5.53    0.96   1
   1  -9   4    6.34    1.31   1
   1  -9   4    5.85    0.91   1
  -1   9  -5    0.45    0.49   1
  -1   9  -5    2.07    0.71   1
  -1   9  -5    1.13    0.57   1
  -1   9  -5    0.97    0.72   1
   1   9   5    1.35    0.42   1
   1  -9   5    0.51    0.91   1
   1  -9   5    1.43    0.74   1
   1  -9   5    0.64    0.74   1
   1   9   6    6.29    0.77   1
  -1   9  -6    8.00    1.03   1
  -1   9  -6    6.22    1.23   1
  -1   9  -6    6.58    1.03   1
  -1   9  -6    6.79    1.10   1
   1  -9   6    7.57    1.19   1
   1  -9   6    7.01    1.33   1
   1  -9   6    8.22    1.25   1
  -1   9  -7    8.68    1.31   1
   1   9   7   10.87    1.06   1
  -1   9  -7    9.24    1.53   1
  -1   9  -7   13.06    1.34   1
  -1   9  -7    6.85    1.20   1
   1  -9   7    9.06    1.29   1
   1  -9   7   11.17    1.57   1
  -1   9  -8   -0.44    0.68   1
  -1   9  -8    0.64    0.71   1
  -1   9  -8    1.09    0.80   1
  -1   9  -8    0.04    0.62   1
   1   9   8   -0.12    0.46   1
   1  -9   8    0.71    0.78   1
   1  -9   8   -0.05    0.79   1
  -1   9  -9    4.15    1.20   1
  -1   9  -9    5.47    1.02   1
  -1   9  -9    4.91    1.10   1
  -1   9  -9    4.52    1.15   1
   1   9   9    5.46    0.87   1
   1  -9   9    5.37    1.28   1
   1  -9   9    5.68    1.24   1
  -1  10   9    1.47    0.68   1
   1  10  -9    1.28    0.64   1
   1  10  -9    1.46    0.86   1
  -1 -10   9    0.28    1.07   1
  -1 -10   9    1.77    0.86   1
  -1 -10   9    1.89    1.34   1
   1  10  -8    7.43    1.09   1
   1  10  -8    5.82    1.40   1
   1  10  -8    4.23    1.17   1
  -1  10   8    6.95    0.96   1
   1  10  -8    6.74    1.10   1
  -1 -10   8    4.61    1.31   1
  -1 -10   8    6.39    1.16   1
  -1 -10   8    5.33    1.33   1
  -1  10   7    1.29    0.57   1
   1  10  -7    0.21    0.57   1
   1  10  -7    1.22    0.90   1
   1  10  -7    0.01    0.54   1
   1  10  -7    0.28    0.61   1
  -1 -10   7    0.11    0.69   1
  -1 -10   7    0.73    0.87   1
  -1 -10   7    0.53    0.87   1
  -1  10   6    7.98    0.88   1
   1  10  -6   10.59    1.31   1
   1  10  -6    8.12    1.05   1
   1  10  -6    7.20    1.43   1
   1  10  -6   10.33    1.13   1
  -1 -10   6   10.41    1.64   1
  -1 -10   6    8.60    1.36   1
  -1 -10   6    6.92    1.08   1
   1 -10  -6   10.30    1.31   1
   1  10  -5    0.49    0.43   1
   1  10  -5   -0.14    0.56   1
  -1  10   5    0.55    0.34   1
   1  10  -5    0.58    0.71   1
   1  10  -5    0.06    0.45   1
  -1 -10   5    0.50    0.86   1
  -1 -10   5    0.37    0.64   1
   1 -10  -5    0.68    0.67   1
  -1 -10   5    0.91    0.67   1
   1  10  -4    6.96    1.18   1
   1  10  -4    6.56    0.97   1
  -1  10   4    4.67    0.52   1
   1  10  -4    5.16    0.77   1
  -1 -10   4    5.54    1.34   1
   1 -10  -4    5.42    0.99   1
  -1 -10   4    5.28    1.00   1
  -1 -10   4    4.63    0.90   1
   1  10  -3   10.35    1.40   1
  -1  10   3    8.26    0.60   1
   1  10  -3    6.37    0.77   1
   1  10  -3    7.69    1.00   1
  -1 -10   3    5.47    1.31   1
  -1 -10   3   10.17    1.16   1
   1 -10  -3    9.74    1.18   1
   1 -10  -3    8.46    1.12   1
  -1 -10   3    7.02    1.09   1
   1  10  -2    1.87    0.76   1
   1  10  -2    3.77    0.48   1
  -1  10   2    2.56    0.30   1
   1  10  -2    3.41    0.72   1
  -1 -10   2    2.48    0.59   1
   1 -10  -2    3.47    0.79   1
  -1 -10   2    2.36    0.67   1
  -1 -10   2    1.83    0.95   1
   1 -10  -2    3.22    0.77   1
  -1 -10   2    3.12    0.77   1
   1 -10  -2    1.69    0.69   1
  -1  10   1   13.75    0.83   1
   1  10  -1   13.97    1.53   1
   1  10  -1   13.45    1.18   1
   1 -10  -1   12.53    1.35   1
  -1 -10   1   15.37    1.28   1
  -1 -10   1   14.86    1.25   1
  -1 -10   1   14.48    1.45   1
  -1 -10   1   15.71    1.82   1
   1 -10  -1   11.43    1.35   1
   1 -10  -1   16.60    1.46   1
   1  10   0   -0.01    0.08   1
   1  10   0    0.07    0.08   1
  -1  10   0    0.15    0.20   1
  -1  10   0    0.50    0.51   1
   1  10   0    0.01    0.35   1
   1 -10   0    0.43    0.54   1
   1 -10   0    0.38    0.56   1
  -1 -10   0   -0.60    0.47   1
   1 -10   0    0.02    0.65   1
  -1 -10   0    0.39    0.54   1
  -1 -10   0   -0.18    0.43   1
  -1 -10   0   -0.37    0.57   1
   1 -10   0    0.49    0.49   1
  -1  10  -1   12.23    0.86   1
  -1  10  -1   10.07    1.21   1
   1 -10   1   13.49    1.75   1
  -1 -10  -1   10.96    1.18   1
   1 -10   1   11.51    1.31   1
  -1 -10  -1   11.21    1.38   1
  -1 -10  -1   10.38    1.19   1
   1 -10   1   12.93    1.23   1
   1 -10   1   11.12    1.24   1
  -1 -10  -1   11.66    1.19   1
   1  10   2    2.87    0.22   1
   1  10   2    2.99    0.22   1
  -1  10  -2    3.14    0.72   1
  -1  10  -2    3.29    0.54   1
  -1 -10  -2    2.27    0.68   1
   1 -10   2    3.31    0.70   1
   1 -10   2    3.26    0.81   1
  -1 -10  -2    3.17    0.81   1
   1 -10   2    3.05    1.05   1
  -1 -10  -2    4.17    0.83   1
   1 -10   2    2.83    0.82   1
  -1 -10  -2    2.57    0.67   1
  -1  10  -3    5.32    0.78   1
  -1  10  -3    5.67    1.08   1
   1  10   3    5.73    0.46   1
  -1  10  -3    5.82    0.96   1
  -1  10  -3    5.30    0.91   1
  -1 -10  -3    5.42    0.92   1
   1 -10   3    4.79    0.89   1
   1 -10   3    5.49    1.36   1
   1 -10   3    5.28    0.80   1
   1 -10   3    5.93    1.01   1
  -1  10  -4    7.73    1.25   1
  -1  10  -4    7.59    1.09   1
   1  10   4    6.05    0.65   1
  -1  10  -4    8.45    0.98   1
  -1  10  -4    7.77    0.85   1
   1 -10   4    7.61    1.18   1
   1 -10   4    7.09    1.47   1
   1 -10   4    7.30    1.13   1
  -1  10  -5    0.22    0.52   1
  -1  10  -5    0.79    0.62   1
  -1  10  -5    0.25    0.73   1
  -1  10  -5    0.37    0.47   1
   1  10   5    1.02    0.39   1
   1 -10   5    0.66    0.70   1
   1 -10   5   -0.45    0.66   1
   1 -10   5    1.65    1.02   1
  -1  10  -6    7.63    1.07   1
  -1  10  -6    7.62    1.43   1
   1  10   6    8.07    0.89   1
  -1  10  -6    7.59    1.19   1
  -1  10  -6    8.06    1.08   1
   1 -10   6   10.36    1.46   1
   1 -10   6    7.94    1.20   1
  -1  10  -7   -0.50    0.54   1
   1  10   7   -0.69    0.37   1
  -1  10  -7    0.05    0.61   1
  -1  10  -7   -0.35    0.71   1
  -1  10  -7    0.36    0.76   1
   1 -10   7    0.91    0.86   1
   1 -10   7    0.72    0.78   1
   1  10   8    3.81    0.73   1
  -1  10  -8    4.34    1.39   1
  -1  10  -8    2.42    0.95   1
  -1  10  -8    3.62    0.89   1
  -1  10  -8    3.98    0.98   1
   1 -10   8    2.69    1.21   1
   1 -10   8    4.62    1.19   1
  -1  11   8   -0.15    0.59   1
   1  11  -8   -0.39    0.59   1
   1  11  -8    0.75    0.81   1
  -1 -11   8   -0.26    0.79   1
  -1 -11   8   -0.44    1.10   1
  -1 -11   8    0.38    1.20   1
   1  11  -7   27.10    2.60   1
   1  11  -7   24.57    2.76   1
  -1  11   7   24.05    1.82   1
   1  11  -7   26.28    1.94   1
  -1 -11   7   26.10    2.15   1
  -1 -11   7   28.81    2.44   1
  -1 -11   7   27.54    2.78   1
  -1  11   6    1.02    0.50   1
   1  11  -6    1.41    0.90   1
   1  11  -6    0.04    0.72   1
   1  11  -6    1.21    0.62   1
  -1 -11   6    2.53    0.99   1
  -1 -11   6    1.57    0.74   1
  -1 -11   6    2.42    1.13   1
  -1  11   5    8.22    0.78   1
   1  11  -5    6.99    1.10   1
   1  11  -5    6.88    0.94   1
   1  11  -5    7.79    1.44   1
  -1 -11   5    8.46    1.34   1
  -1 -11   5    5.34    1.00   1
  -1 -11   5    8.64    1.61   1
   1 -11  -5    7.96    1.23   1
   1  11  -4    0.93    0.80   1
  -1  11   4    1.06    0.33   1
   1  11  -4    1.08    0.61   1
   1  11  -4    1.71    0.57   1
  -1 -11   4    2.02    0.73   1
  -1 -11   4    2.77    1.16   1
   1 -11  -4    1.98    0.80   1
  -1 -11   4    1.53    0.74   1
  -1  11   3    0.08    0.21   1
   1  11  -3    0.16    0.40   1
   1  11  -3   -0.29    0.57   1
   1  11  -3    1.08    0.53   1
   1 -11  -3   -0.16    0.61   1
  -1 -11   3   -0.87    0.79   1
   1 -11  -3   -0.06    0.66   1
  -1 -11   3   -0.20    0.60   1
  -1 -11   3   -0.01    0.61   1
   1  11  -2   43.42    2.39   1
   1  11  -2   41.27    2.63   1
   1  11  -2   43.56    2.96   1
  -1  11   2   40.59    2.18   1
  -1 -11   2   41.47    2.81   1
  -1 -11   2   44.64    2.73   1
   1 -11  -2   39.48    2.72   1
  -1 -11   2   39.99    3.19   1
   1 -11  -2   39.96    2.76   1
   1  11  -1    3.17    0.91   1
  -1  11   1    2.90    0.79   1
   1  11  -1    2.51    0.65   1
  -1  11   1    2.30    0.33   1
   1  11  -1    2.65    0.43   1
  -1 -11   1    3.27    0.72   1
   1 -11  -1    2.49    0.78   1
  -1 -11   1    3.38    1.06   1
   1 -11  -1    2.81    0.82   1
   1 -11  -1    2.80    0.75   1
  -1 -11   1    2.35    0.71   1
  -1 -11   1    2.27    0.85   1
  -1  11   0   26.68    2.03   1
   1  11   0   29.89    2.26   1
  -1  11   0   28.91    1.59   1
   1  11   0   26.62    1.93   1
   1  11   0   26.02    1.51   1
   1 -11   0   26.96    1.97   1
  -1 -11   0   28.08    2.00   1
  -1 -11   0   31.51    2.21   1
  -1 -11   0   32.77    2.47   1
   1 -11   0   31.51    2.14   1
   1 -11   0   31.50    2.23   1
  -1 -11   0   29.56    2.07   1
  -1  11  -1    1.51    0.37   1
  -1  11  -1    1.88    0.67   1
   1  11   1    1.37    0.54   1
   1  11   1    1.28    0.62   1
  -1 -11  -1    1.89    0.67   1
  -1 -11  -1    2.49    0.74   1
  -1 -11  -1    1.43    0.68   1
  -1 -11  -1    1.33    0.72   1
   1 -11   1    1.86    0.64   1
   1 -11   1    1.49    0.73   1
   1 -11   1    1.64    0.75   1
  -1  11  -2    1.67    0.68   1
   1  11   2    1.50    0.17   1
  -1  11  -2    1.02    0.42   1
  -1  11  -2    2.08    0.81   1
   1 -11   2    1.99    0.80   1
  -1 -11  -2    1.76    0.70   1
  -1 -11  -2    0.57    0.61   1
   1 -11   2    1.33    0.73   1
   1 -11   2    0.82    0.59   1
  -1  11  -3    9.00    1.40   1
  -1  11  -3   10.07    1.25   1
  -1  11  -3   10.88    1.06   1
   1  11   3    9.04    0.68   1
   1 -11   3   11.25    1.37   1
  -1 -11  -3   11.16    1.31   1
   1 -11   3   10.70    1.38   1
   1 -11   3    7.90    1.60   1
  -1  11  -4   -0.24    0.49   1
   1  11   4    0.86    0.32   1
  -1  11  -4    0.89    0.75   1
  -1  11  -4    2.23    0.78   1
   1 -11   4    1.34    0.73   1
   1 -11   4    0.56    0.73   1
   1  11   5   24.76    1.60   1
  -1  11  -5   24.49    2.02   1
  -1  11  -5   28.18    1.94   1
  -1  11  -5   22.26    2.23   1
   1 -11   5   27.78    2.18   1
   1 -11   5   26.91    2.25   1
  -1  11  -6    2.55    0.70   1
  -1  11  -6    2.58    0.87   1
  -1  11  -6    3.96    1.18   1
   1  11   6    3.14    0.59   1
  -1  11  -6    3.76    0.84   1
   1 -11   6    1.39    0.86   1
   1 -11   6    3.36    1.11   1
  -1  11  -7    5.71    0.99   1
  -1  11  -7    3.25    0.88   1
   1  11   7    5.39    0.78   1
   1 -11   7    4.45    1.32   1
   1 -11   7    4.64    1.11   1
  -1  12   6    0.32    0.51   1
   1  12  -6    0.82    0.63   1
  -1 -12   6   -0.37    0.94   1
  -1 -12   6    1.01    0.77   1
  -1 -12   6    0.19    1.23   1
   1  12  -5   19.23    1.60   1
  -1  12   5   19.82    1.37   1
   1  12  -5   22.11    2.41   1
  -1 -12   5   19.34    1.86   1
   1 -12  -5   19.51    1.97   1
  -1 -12   5   22.63    2.18   1
  -1 -12   5   21.27    2.49   1
   1  12  -4   30.89    2.57   1
  -1  12   4   30.19    1.73   1
   1  12  -4   28.71    1.99   1
  -1 -12   4   29.48    2.40   1
  -1 -12   4   28.76    2.23   1
  -1 -12   4   36.30    3.09   1
   1 -12  -4   28.57    2.35   1
   1  12  -3    4.94    1.15   1
   1  12  -3    6.78    0.81   1
  -1  12   3    6.26    0.55   1
  -1 -12   3    4.50    0.97   1
  -1 -12   3    8.16    1.28   1
   1 -12  -3    6.81    1.11   1
  -1 -12   3    8.77    1.68   1
  -1  12   2   17.67    1.59   1
   1  12  -2   16.28    1.18   1
  -1  12   2   15.43    0.99   1
   1  12  -2   16.74    1.91   1
  -1 -12   2   19.80    1.87   1
   1 -12  -2   20.07    1.83   1
   1 -12  -2   17.83    1.73   1
  -1 -12   2   17.18    2.21   1
  -1 -12   2   18.59    1.57   1
   1  12  -1    0.26    0.61   1
   1  12  -1    0.31    0.25   1
  -1  12   1    0.00    0.50   1
  -1  12   1    0.28    0.23   1
  -1 -12   1    0.41    0.72   1
  -1 -12   1   -0.27    0.54   1
   1 -12  -1    0.23    0.62   1
   1 -12  -1    0.38    0.68   1
  -1 -12   1    0.65    0.85   1
   1 -12  -1   -0.22    0.64   1
   1  12   0   15.71    0.88   1
  -1  12   0   16.36    1.02   1
   1  12   0   15.08    1.80   1
  -1  12   0   17.20    1.69   1
  -1 -12   0   14.93    1.89   1
   1 -12   0   15.77    1.73   1
  -1 -12   0   14.90    1.53   1
  -1 -12   0   13.36    1.58   1
  -1 -12   0   20.01    1.74   1
   1 -12   0   17.07    1.67   1
   1 -12   0   14.84    1.51   1
  -1  12  -1   23.71    1.40   1
  -1  12  -1   21.16    1.81   1
  -1  12  -1   21.39    2.01   1
  -1 -12  -1   23.58    1.88   1
   1 -12   1   22.24    2.01   1
  -1 -12  -1   22.75    1.88   1
  -1 -12  -1   24.91    1.99   1
   1 -12   1   25.29    1.96   1
   1 -12   1   21.56    1.77   1
  -1  12  -2   12.98    1.53   1
  -1  12  -2   13.50    1.07   1
  -1  12  -2   14.07    1.76   1
   1 -12   2   16.13    1.74   1
   1 -12   2   17.28    1.70   1
  -1 -12  -2   13.48    1.54   1
  -1  12  -3   40.93    2.33   1
  -1  12  -3   37.83    2.63   1
  -1  12  -3   37.84    2.88   1
   1  12   3   35.04    1.99   1
   1 -12   3   39.15    2.79   1
   1 -12   3   42.16    2.78   1
  -1  12  -4    0.76    0.69   1
  -1  12  -4    1.40    0.83   1
   1  12   4    0.58    0.29   1
  -1  12  -4    0.60    0.55   1
   1 -12   4   -0.71    0.62   1
   1 -12   4    1.03    0.78   1
   1  12   5    0.79    0.39   1
  -1  12  -5   -0.04    0.63   1
  -1  12  -5    0.57    0.62   1
   1 -12   5    0.68    0.80   1
   1 -12   5   -0.02    0.83   1
  -1  12  -6    5.07    1.04   1
   1  12   6    4.73    0.76   1
   1 -12   6    4.49    1.03   1
   1 -12   6    8.40    1.62   1
  -1  13   4    0.44    0.37   1
   1  13  -4   -0.18    0.59   1
   1 -13  -4    1.39    0.87   1
  -1 -13   4   -0.18    0.84   1
  -1 -13   4    1.45    0.77   1
  -1 -13   4   -0.34    1.17   1
  -1  13   3    3.13    0.38   1
   1  13  -3    3.17    0.62   1
  -1 -13   3    0.54    0.70   1
  -1 -13   3    0.66    1.19   1
   1 -13  -3    4.04    1.05   1
  -1 -13   3    2.93    1.00   1
  -1  13   2   30.49    2.29   1
  -1  13   2   32.65    1.65   1
   1  13  -2   27.74    2.50   1
   1  13  -2   28.99    1.76   1
   1 -13  -2   29.47    2.33   1
  -1 -13   2   28.23    2.26   1
  -1 -13   2   31.61    2.50   1
   1 -13  -2   30.77    2.34   1
  -1 -13   2   29.45    3.08   1
  -1  13   1    2.69    0.78   1
  -1  13   1    1.87    0.31   1
   1  13  -1    2.27    0.32   1
   1  13  -1    2.55    0.93   1
  -1  13   1    2.45    0.82   1
   1 -13  -1    1.00    0.73   1
  -1 -13   1   -0.11    0.77   1
   1 -13  -1    2.33    0.90   1
  -1 -13   1    1.72    0.73   1
  -1  13   0   20.77    1.25   1
  -1  13   0   20.64    2.20   1
  -1  13   0   18.37    1.88   1
   1  13   0   20.36    1.08   1
   1 -13   0   21.12    2.12   1
  -1 -13   0   21.47    1.91   1
  -1 -13   0   20.01    1.89   1
   1 -13   0   24.38    2.10   1
   1 -13   0   18.38    1.87   1
  -1  13  -1    7.15    0.65   1
  -1  13  -1    6.59    1.27   1
  -1  13  -1    5.06    1.00   1
  -1 -13  -1    3.81    1.04   1
  -1 -13  -1    4.30    1.00   1
   1 -13   1    5.05    1.16   1
   1 -13   1    4.89    1.08   1
  -1  13  -2    0.84    0.62   1
  -1  13  -2    0.78    0.40   1
   1 -13   2   -0.38    0.72   1
   1 -13   2    0.55    0.73   1
  -1  13  -3   11.24    1.12   1
   1 -13   3   10.50    1.43   1
   1 -13   3   15.40    1.82   1
  -2   0  13    4.77    1.12   1
   2   0 -13    4.59    1.03   1
  -2   0  13    3.83    1.05   1
   2   0 -13    4.68    1.04   1
  -2   0  12   11.27    1.51   1
  -2   0  12   11.96    1.37   1
   2   0 -12   12.91    1.55   1
   2   0 -12   14.59    1.64   1
   2   0 -11    1.01    0.60   1
  -2   0  11    0.59    0.64   1
   2   0 -11   -0.02    0.46   1
   2   0 -11    1.27    0.67   1
  -2   0  11    0.54    0.58   1
  -2   0  10    1.87    0.63   1
  -2   0  10    0.71    0.58   1
   2   0 -10    1.16    0.60   1
   2   0 -10    0.80    0.53   1
   2   0 -10    0.33    0.55   1
  -2   0   9   87.35    4.92   1
   2   0  -9   90.00    4.91   1
   2   0  -9   84.66    4.88   1
   2   0  -9   87.57    4.84   1
  -2   0   9   89.08    4.80   1
  -2   0   8   13.95    1.11   1
  -2   0   8   13.44    1.24   1
  -2   0   8   11.38    1.17   1
   2   0  -8   15.46    1.29   1
   2   0  -8   13.39    1.34   1
   2   0  -8   15.11    1.26   1
   2   0  -7  151.52    7.61   1
  -2   0   7  142.67    7.36   1
  -2   0   7  148.27    7.53   1
  -2   0   7  133.73    7.59   1
   2   0  -7  141.37    7.63   1
  -2   0   7  149.62    7.49   1
   2   0  -7  154.81    7.61   1
   2   0  -7  146.25    7.47   1
  -2   0   6   37.91    2.13   1
   2   0  -6   29.80    2.23   1
   2   0  -6   39.79    2.30   1
   2   0  -6   39.07    2.20   1
  -2   0   6   43.00    2.24   1
   2   0  -6   45.10    2.34   1
  -2   0   6   41.85    2.24   1
  -2   0   6   31.16    2.25   1
   2   0  -5    2.06    0.48   1
  -2   0   5    2.67    0.45   1
   2   0  -5    2.34    0.49   1
  -2   0   5    2.23    0.37   1
   2   0  -5    3.34    0.46   1
  -2   0   5    1.80    0.44   1
   2   0  -4  172.71    8.41   1
   2   0  -4  167.45    8.48   1
  -2   0   4  170.77    8.42   1
  -2   0   4  171.50    8.41   1
   2   0  -4  169.93    8.46   1
   2   0  -4  160.75    8.51   1
  -2   0   4  167.01    8.46   1
   2   0  -3    6.84    0.51   1
   2   0  -3    6.59    0.57   1
  -2   0   3    7.42    0.58   1
  -2   0   3    7.09    0.59   1
  -2   0   3    7.02    0.55   1
   2   0  -3    6.77    0.45   1
   2   0  -3    7.31    0.59   1
   2   0  -3    7.38    0.68   1
  -2   0   2  946.23   46.82   1
   2   0  -2  967.26   46.81   1
  -2   0   2  965.58   46.80   1
   2   0  -2  919.33   46.77   1
   2   0  -2 1000.00   46.80   1
   2   0  -2  976.55   46.86   1
   2   0  -2  936.05   46.84   1
  -2   0   2  948.52   46.92   1
   2   0  -1  302.14   14.63   1
  -2   0   1  295.35   14.65   1
   2   0  -1  297.57   14.62   1
   2   0  -1  308.48   14.68   1
   2   0  -1  301.76   14.66   1
  -2   0   1  302.94   14.68   1
   2   0  -1  286.02   14.69   1
  -2   0   0   41.50    2.10   1
   2   0   0   40.68    2.04   1
  -2   0   0   40.09    2.05   1
  -2   0   0   42.70    2.08   1
   2   0   0   40.79    2.10   1
   2   0   0   40.78    2.08   1
   2   0   0   40.13    2.08   1
   2   0   1    0.31    0.12   1
   2   0   1    0.47    0.25   1
  -2   0  -1   -0.01    0.19   1
  -2   0  -1    0.25    0.20   1
   2   0   1    0.49    0.22   1
  -2   0  -1    0.27    0.20   1
   2   0   2   52.75    2.66   1
  -2   0  -2   54.29    2.74   1
  -2   0  -2   54.35    2.78   1
   2   0   2   53.17    2.75   1
  -2   0  -2   50.93    2.76   1
   2   0   2   54.20    2.77   1
  -2   0  -3  502.10   23.93   1
  -2   0  -3  495.19   23.98   1
  -2   0  -3  484.00   23.87   1
   2   0   3  478.79   23.98   1
   2   0   3  495.46   23.95   1
  -2   0  -3  460.17   23.97   1
   2   0   3  493.51   23.85   1
   2   0   4  129.33    6.56   1
   2   0   4  141.50    6.78   1
   2   0   4  129.24    6.67   1
  -2   0  -4  127.52    6.64   1
  -2   0  -4  134.43    6.74   1
  -2   0  -4  130.05    6.71   1
  -2   0  -4  128.69    6.59   1
   2   0   5   70.71    3.58   1
   2   0   5   52.62    3.59   1
  -2   0  -5   53.18    3.56   1
  -2   0  -5   73.13    3.63   1
  -2   0  -5   77.01    3.47   1
   2   0   5   67.28    3.45   1
  -2   0  -5   66.58    3.52   1
   2   0   6   41.89    2.60   1
  -2   0  -6   39.54    2.55   1
   2   0   6   42.19    2.34   1
  -2   0  -6   42.58    2.49   1
  -2   0  -6   42.44    2.33   1
   2   0   6   44.02    2.49   1
  -2   0  -6   43.62    2.42   1
   2   0   7   -0.18    0.46   1
   2   0   7    0.12    0.39   1
  -2   0  -7   -0.31    0.42   1
   2   0   7    0.28    0.32   1
  -2   0  -7    0.26    0.27   1
  -2   0  -7    0.47    0.46   1
   2   0   8   69.91    3.96   1
  -2   0  -8   66.82    4.05   1
   2   0   8   68.66    4.11   1
   2   0   8   81.81    3.97   1
  -2   0  -8   66.67    4.01   1
  -2   0  -9   36.08    2.36   1
  -2   0  -9   33.24    2.31   1
   2   0   9   32.53    2.37   1
   2   0  10   33.50    2.42   1
  -2   0 -10   30.92    2.39   1
  -2   0 -10   38.25    2.49   1
   2   0  10   38.04    2.56   1
   2   0  11   21.94    2.00   1
   2   0  11   21.33    2.04   1
  -2   0 -11   22.14    1.87   1
  -2   0 -11   24.55    1.96   1
   2   0  12    1.23    0.76   1
  -2   0 -12    1.00    0.67   1
   2   0  12   -0.27    0.85   1
   2   1 -13    2.26    0.88   1
   2   1 -13    1.37    0.82   1
  -2   1  13    0.10    0.82   1
  -2  -1  13    1.52    0.99   1
  -2  -1  13    2.23    0.93   1
  -2   1  12   15.03    1.49   1
   2   1 -12   14.33    1.66   1
   2   1 -12   12.57    1.56   1
  -2   1  12   15.06    1.69   1
  -2  -1  12   12.46    1.57   1
  -2  -1  12   11.78    1.38   1
  -2  -1  12   14.24    1.56   1
   2  -1 -12   14.50    1.67   1
   2  -1 -12   11.96    1.72   1
   2   1 -11   35.44    2.55   1
  -2   1  11   34.47    2.59   1
  -2   1  11   36.60    2.47   1
   2   1 -11   33.86    2.48   1
   2   1 -11   40.69    2.67   1
   2  -1 -11   39.48    2.63   1
  -2  -1  11   35.43    2.57   1
  -2  -1  11   37.36    2.47   1
   2  -1 -11   40.74    2.59   1
  -2  -1  11   36.27    2.56   1
   2   1 -10   12.73    1.40   1
   2   1 -10   13.41    1.45   1
   2   1 -10   11.39    1.28   1
  -2   1  10   10.68    1.18   1
  -2   1  10   11.10    1.35   1
   2  -1 -10   12.10    1.39   1
   2  -1 -10   11.53    1.33   1
  -2  -1  10   11.58    1.35   1
  -2  -1  10   10.20    1.17   1
   2  -1 -10   10.68    1.19   1
  -2   1   9   39.40    2.62   1
   2   1  -9   40.77    2.57   1
  -2   1   9   40.69    2.52   1
   2   1  -9   44.26    2.68   1
   2   1  -9   40.29    2.58   1
  -2   1   9   39.67    2.49   1
   2  -1  -9   39.28    2.50   1
   2  -1  -9   41.06    2.64   1
  -2  -1   9   38.77    2.50   1
  -2  -1   9   41.91    2.62   1
   2  -1  -9   41.01    2.58   1
   2   1  -8    0.47    0.47   1
   2   1  -8    0.10    0.46   1
  -2   1   8   -0.27    0.40   1
  -2   1   8    0.37    0.42   1
  -2   1   8    0.10    0.45   1
   2   1  -8    0.43    0.35   1
   2   1  -8   -0.26    0.42   1
  -2  -1   8    0.31    0.45   1
   2  -1  -8   -0.13    0.36   1
   2  -1  -8   -0.16    0.42   1
  -2  -1   8   -0.15    0.46   1
   2  -1  -8    0.94    0.44   1
   2   1  -7   36.05    2.22   1
   2   1  -7   33.71    2.15   1
  -2   1   7   37.95    2.20   1
   2   1  -7   37.92    2.25   1
  -2   1   7   31.39    2.23   1
   2   1  -7   30.83    2.25   1
  -2  -1   7   35.69    2.08   1
  -2  -1   7   36.49    2.21   1
  -2  -1   7   37.52    2.10   1
   2  -1  -7   36.92    2.25   1
   2  -1  -7   33.00    2.23   1
   2  -1  -7   37.98    2.21   1
  -2  -1   7   38.35    2.22   1
   2   1  -6  106.25    5.56   1
  -2   1   6  105.22    5.56   1
  -2   1   6  111.13    5.42   1
   2   1  -6  110.77    5.67   1
   2   1  -6  102.10    5.60   1
  -2   1   6  103.73    5.65   1
  -2  -1   6  113.08    5.63   1
   2  -1  -6  107.98    5.62   1
  -2  -1   6   98.17    5.62   1
  -2  -1   6  115.31    5.55   1
   2  -1  -6  106.40    5.65   1
   2  -1  -6  112.75    5.52   1
  -2  -1   6  100.21    5.53   1
   2   1  -5   71.76    3.78   1
   2   1  -5   74.02    3.71   1
   2   1  -5   75.67    3.84   1
  -2   1   5   71.70    3.77   1
  -2   1   5   72.35    3.70   1
  -2   1   5   74.09    3.62   1
   2  -1  -5   77.76    3.84   1
   2  -1  -5   62.68    3.67   1
  -2  -1   5   56.97    3.73   1
   2  -1  -5   72.57    3.79   1
  -2  -1   5   72.02    3.71   1
  -2  -1   5   75.22    3.80   1
   2  -1  -5   71.00    3.79   1
  -2  -1   5   63.40    3.72   1
  -2   1   4  365.46   17.30   1
   2   1  -4  360.38   17.41   1
  -2   1   4  346.26   17.32   1
   2   1  -4  351.69   17.47   1
  -2   1   4  357.34   17.39   1
   2   1  -4  353.49   17.39   1
   2  -1  -4  345.65   17.33   1
  -2  -1   4  342.23   17.36   1
  -2  -1   4  359.45   17.43   1
   2  -1  -4  350.02   17.29   1
   2  -1  -4  352.33   17.42   1
  -2  -1   4  353.92   17.40   1
   2  -1  -4  358.77   17.40   1
  -2  -1   4  341.20   17.39   1
   2  -1  -4  338.62   17.36   1
   2   1  -3   17.78    1.13   1
   2   1  -3   18.18    1.11   1
  -2   1   3   18.99    1.11   1
   2   1  -3   16.60    1.21   1
  -2   1   3   18.57    1.06   1
   2   1  -3   19.17    1.06   1
   2  -1  -3   18.57    1.04   1
  -2  -1   3   17.67    1.09   1
  -2  -1   3   19.08    1.18   1
   2  -1  -3   19.14    1.03   1
   2  -1  -3   18.61    1.09   1
   2  -1  -3   18.54    1.08   1
   2  -1  -3   17.51    1.14   1
  -2  -1   3   18.46    1.09   1
  -2  -1   3   20.37    1.17   1
  -2   1   2    6.21    0.47   1
   2   1  -2    5.55    0.42   1
   2   1  -2    6.15    0.48   1
  -2   1   2    5.73    0.44   1
   2   1  -2    5.50    0.49   1
   2   1  -2    6.52    0.63   1
   2  -1  -2    6.21    0.47   1
   2  -1  -2    5.87    0.41   1
  -2  -1   2    6.97    0.60   1
  -2  -1   2    5.74    0.46   1
   2  -1  -2    6.05    0.53   1
  -2  -1   2    5.53    0.42   1
   2  -1  -2    5.90    0.43   1
  -2  -1   2    5.68    0.54   1
  -2   1   1  125.90    6.04   1
   2   1  -1  121.30    6.01   1
  -2   1   1  116.18    6.01   1
   2   1  -1  120.20    6.08   1
   2   1  -1  128.39    5.98   1
   2   1  -1  121.17    6.03   1
   2  -1  -1  119.73    6.01   1
  -2  -1   1  121.67    6.04   1
  -2  -1   1  123.01    5.97   1
   2  -1  -1  119.99    6.03   1
  -2  -1   1  124.81    6.11   1
  -2  -1   1  122.62    6.02   1
  -2  -1   1  120.59    5.96   1
   2  -1  -1  122.77    6.01   1
   2  -1  -1  115.89    6.06   1
  -2   1   0  124.98    6.13   1
   2   1   0  123.39    6.10   1
  -2   1   0  122.82    6.10   1
   2   1   0  121.53    6.04   1
   2   1   0  121.94    6.11   1
   2   1   0  125.36    6.09   1
   2  -1   0  125.50    6.12   1
   2  -1   0  120.73    6.10   1
  -2  -1   0  128.35    6.18   1
  -2  -1   0  122.76    6.07   1
   2  -1   0  123.28    6.11   1
  -2  -1   0  123.22    6.11   1
   2  -1   0  120.18    6.12   1
   2  -1   0  124.48    6.10   1
   2   1   1  695.70   33.61   1
  -2   1  -1  683.25   33.63   1
  -2   1  -1  662.34   33.60   1
   2   1   1  659.42   33.58   1
  -2   1  -1  682.93   33.61   1
   2  -1   1  706.93   33.63   1
   2  -1   1  691.56   33.60   1
  -2  -1  -1  669.15   33.58   1
  -2  -1  -1  679.51   33.62   1
   2  -1   1  705.97   33.60   1
  -2  -1  -1  708.45   33.61   1
   2  -1   1  700.10   33.58   1
  -2   1  -2    0.53    0.24   1
  -2   1  -2    0.63    0.26   1
   2   1   2    1.00    0.23   1
   2   1   2    0.82    0.12   1
  -2   1  -2    0.90    0.24   1
   2   1   2    0.62    0.24   1
   2  -1   2    0.70    0.18   1
  -2  -1  -2    0.92    0.22   1
  -2  -1  -2    1.03    0.24   1
  -2  -1  -2    0.67    0.27   1
   2  -1   2    0.74    0.23   1
   2  -1   2    0.39    0.24   1
   2  -1   2    0.79    0.25   1
   2   1   3   65.49    3.44   1
  -2   1  -3   68.51    3.58   1
  -2   1  -3   66.92    3.60   1
   2   1   3   74.05    3.62   1
   2   1   3   65.58    3.55   1
  -2   1  -3   69.47    3.57   1
  -2  -1  -3   66.00    3.41   1
   2  -1   3   70.29    3.54   1
   2  -1   3   70.92    3.49   1
  -2  -1  -3   65.70    3.57   1
  -2  -1  -3   70.73    3.57   1
   2  -1   3   68.77    3.59   1
  -2  -1  -3   70.05    3.44   1
   2  -1   3   70.31    3.57   1
   2   1   4    9.47    0.81   1
   2   1   4    9.50    0.87   1
  -2   1  -4   11.49    0.88   1
   2   1   4   10.60    0.69   1
  -2   1  -4    8.33    0.79   1
  -2   1  -4   10.94    0.91   1
  -2   1  -4   10.13    0.78   1
  -2  -1  -4   11.58    0.86   1
  -2  -1  -4   10.51    0.65   1
   2  -1   4   10.60    0.75   1
   2  -1   4   10.51    0.87   1
  -2  -1  -4   10.26    0.72   1
  -2  -1  -4   11.59    0.59   1
   2  -1   4   11.70    0.90   1
  -2  -1  -4   11.25    0.85   1
   2  -1   4   11.00    0.81   1
   2   1   5   30.32    1.58   1
   2   1   5   28.61    1.72   1
  -2   1  -5   29.68    1.72   1
  -2   1  -5   29.08    1.80   1
  -2   1  -5   27.30    1.68   1
  -2  -1  -5   26.86    1.75   1
   2  -1   5   25.43    1.75   1
  -2  -1  -5   29.03    1.75   1
   2  -1   5   26.51    1.81   1
  -2  -1  -5   28.74    1.53   1
   2  -1   5   28.46    1.72   1
  -2  -1  -5   27.53    1.62   1
   2  -1   5   25.75    1.62   1
  -2   1  -6  150.13    8.06   1
   2   1   6  175.58    8.04   1
  -2   1  -6  157.87    8.13   1
  -2   1  -6  161.66    7.98   1
   2   1   6  162.48    8.15   1
  -2   1  -6  158.44    7.95   1
   2   1   6  170.14    7.85   1
   2  -1   6  156.76    8.06   1
   2  -1   6  148.97    7.98   1
   2  -1   6  145.94    7.89   1
  -2  -1  -6  153.48    8.02   1
  -2  -1  -6  161.22    7.80   1
   2  -1   6  143.19    8.10   1
  -2  -1  -6  135.21    8.01   1
  -2   1  -7    2.63    0.64   1
  -2   1  -7    1.85    0.46   1
   2   1   7    2.20    0.54   1
   2   1   7    2.10    0.41   1
   2   1   7    2.15    0.62   1
  -2   1  -7    3.10    0.70   1
   2  -1   7    2.49    0.51   1
   2  -1   7    2.44    0.51   1
  -2  -1  -7    2.00    0.59   1
  -2  -1  -7    3.21    0.67   1
   2  -1   7    2.88    0.68   1
   2  -1   7    1.81    0.64   1
  -2   1  -8   67.27    3.65   1
  -2   1  -8   66.84    3.86   1
   2   1   8   61.32    3.86   1
  -2   1  -8   70.08    3.93   1
   2   1   8   68.10    3.77   1
  -2  -1  -8   59.06    3.77   1
   2  -1   8   68.81    3.66   1
   2  -1   8   70.66    3.89   1
   2  -1   8   63.56    3.91   1
  -2  -1  -8   70.78    3.90   1
   2   1   9    0.94    0.49   1
  -2   1  -9    0.53    0.59   1
  -2   1  -9    0.08    0.55   1
   2   1   9    1.32    0.63   1
   2  -1   9    0.79    0.65   1
   2  -1   9    0.36    0.54   1
  -2  -1  -9    1.18    0.58   1
  -2  -1  -9    0.28    0.54   1
   2   1  10    1.18    0.66   1
  -2   1 -10   -0.91    0.49   1
  -2   1 -10    1.01    0.68   1
   2  -1  10   -0.68    0.68   1
  -2  -1 -10   -0.03    0.51   1
   2  -1  10   -0.34    0.54   1
  -2  -1 -10   -0.37    0.51   1
  -2   1 -11   12.63    1.50   1
   2   1  11   10.51    1.44   1
   2   1  11   13.55    1.51   1
  -2   1 -11   13.67    1.58   1
   2  -1  11   10.66    1.44   1
  -2  -1 -11   13.87    1.57   1
   2  -1  11    9.76    1.40   1
   2   1  12    0.40    0.86   1
  -2   1 -12    0.31    0.68   1
  -2   1 -12    0.67    0.70   1
   2   1  12    1.07    0.76   1
   2  -1  12    0.60    0.72   1
   2  -1  12    0.24    0.78   1
  -2  -1 -12    1.12    0.70   1
  -2   2  13    0.68    0.81   1
   2   2 -13    0.12    0.66   1
   2   2 -13    1.29    0.81   1
  -2  -2  13    0.55    0.77   1
  -2  -2  13    0.14    0.62   1
  -2  -2  13    0.44    0.72   1
   2   2 -12    6.32    1.16   1
  -2   2  12    5.48    1.15   1
   2   2 -12    4.33    1.02   1
  -2  -2  12    5.68    1.17   1
  -2  -2  12    5.85    1.08   1
  -2  -2  12    6.91    1.08   1
   2   2 -11    0.77    0.64   1
   2   2 -11    0.69    0.70   1
  -2   2  11   -0.19    0.61   1
  -2   2  11    1.29    0.70   1
   2   2 -11    0.96    0.72   1
  -2  -2  11    1.36    0.70   1
  -2  -2  11    0.92    0.62   1
  -2  -2  11    1.54    0.81   1
   2   2 -10    2.30    0.72   1
  -2   2  10    2.47    0.68   1
  -2   2  10    2.86    0.77   1
   2   2 -10    1.68    0.71   1
  -2   2  10    0.75    0.60   1
   2   2 -10    1.93    0.69   1
   2  -2 -10    3.80    0.76   1
   2  -2 -10    2.01    0.75   1
  -2  -2  10    2.01    0.80   1
  -2  -2  10    1.76    0.69   1
   2  -2 -10    2.28    0.57   1
  -2  -2  10    2.72    0.74   1
  -2   2   9   32.05    2.20   1
   2   2  -9   30.10    2.18   1
   2   2  -9   32.05    2.15   1
   2   2  -9   30.09    2.18   1
  -2   2   9   30.84    2.07   1
  -2   2   9   30.15    2.06   1
   2  -2  -9   29.74    2.19   1
  -2  -2   9   28.65    2.14   1
   2  -2  -9   34.16    2.05   1
  -2  -2   9   29.58    2.11   1
   2  -2  -9   32.20    2.12   1
  -2  -2   9   33.54    2.13   1
   2   2  -8    5.01    0.77   1
  -2   2   8    6.22    0.83   1
   2   2  -8    6.63    0.89   1
   2   2  -8    6.71    0.92   1
  -2   2   8    5.28    0.85   1
   2   2  -8    5.64    0.91   1
   2  -2  -8    3.98    0.67   1
   2  -2  -8    4.81    0.76   1
  -2  -2   8    6.99    0.91   1
  -2  -2   8    4.99    0.82   1
  -2  -2   8    6.03    0.73   1
  -2  -2   8    5.38    0.82   1
   2  -2  -8    4.42    0.86   1
  -2   2   7   41.15    3.02   1
   2   2  -7   49.47    3.13   1
   2   2  -7   53.17    3.05   1
   2   2  -7   57.93    3.13   1
   2   2  -7   52.35    3.05   1
  -2   2   7   52.77    3.02   1
   2  -2  -7   55.81    3.05   1
  -2  -2   7   53.21    2.98   1
   2  -2  -7   54.52    3.02   1
  -2  -2   7   58.35    3.09   1
   2  -2  -7   50.25    3.09   1
  -2  -2   7   55.99    3.07   1
   2   2  -6    4.12    0.70   1
   2   2  -6    3.67    0.68   1
   2   2  -6    3.80    0.58   1
  -2   2   6    4.19    0.40   1
   2   2  -6    4.15    0.67   1
  -2   2   6    3.27    0.60   1
  -2   2   6    3.90    0.55   1
  -2  -2   6    4.56    0.65   1
  -2  -2   6    2.98    0.46   1
   2  -2  -6    3.40    0.59   1
   2  -2  -6    4.31    0.68   1
  -2  -2   6    4.52    0.66   1
   2  -2  -6    3.74    0.58   1
  -2  -2   6    4.73    0.69   1
  -2   2   5   20.64    1.15   1
  -2   2   5   20.69    1.30   1
   2   2  -5   19.78    1.26   1
  -2   2   5   19.29    1.22   1
   2   2  -5   20.06    1.33   1
   2   2  -5   21.11    1.41   1
  -2  -2   5   18.42    1.32   1
   2  -2  -5   18.97    1.31   1
   2  -2  -5   20.97    1.22   1
   2  -2  -5   20.65    1.33   1
  -2  -2   5   18.86    1.37   1
  -2  -2   5   18.31    1.34   1
   2   2  -4   20.70    1.26   1
   2   2  -4   20.39    1.31   1
   2   2  -4   20.32    1.39   1
  -2   2   4   20.33    1.18   1
   2   2  -4   19.67    1.19   1
  -2   2   4   20.17    1.24   1
   2  -2  -4   22.35    1.22   1
   2  -2  -4   21.58    1.22   1
  -2  -2   4   20.59    1.22   1
   2  -2  -4   20.59    1.27   1
  -2  -2   4   18.73    1.28   1
  -2  -2   4   17.04    1.26   1
  -2  -2   4   18.64    1.38   1
  -2  -2   4   20.91    1.04   1
  -2   2   3    7.76    0.62   1
   2   2  -3    8.30    0.57   1
   2   2  -3    8.32    0.62   1
   2   2  -3    7.21    0.81   1
   2   2  -3    8.09    0.66   1
  -2   2   3    7.87    0.55   1
   2  -2  -3    8.66    0.59   1
  -2  -2   3    9.42    0.68   1
  -2  -2   3    8.35    0.63   1
  -2  -2   3    8.56    0.83   1
  -2  -2   3    7.38    0.56   1
   2  -2  -3    8.17    0.66   1
   2  -2  -3    7.62    0.58   1
   2   2  -2  161.88    7.79   1
  -2   2   2  151.57    7.74   1
  -2   2   2  158.90    7.78   1
   2   2  -2  154.97    7.92   1
   2   2  -2  157.98    7.77   1
   2   2  -2  150.72    7.74   1
  -2  -2   2  157.53    7.78   1
  -2  -2   2  159.94    7.83   1
   2  -2  -2  159.54    7.78   1
   2  -2  -2  154.09    7.79   1
   2  -2  -2  151.29    7.83   1
  -2  -2   2  164.49    7.95   1
   2  -2  -2  158.22    7.79   1
  -2  -2   2  157.15    7.74   1
   2   2  -1   27.90    1.40   1
   2   2  -1   26.78    1.39   1
  -2   2   1   25.44    1.41   1
   2   2  -1   27.33    1.39   1
  -2   2   1   26.59    1.41   1
   2   2  -1   26.50    1.56   1
   2   2  -1   27.94    1.43   1
  -2   2   1   27.34    1.45   1
  -2  -2   1   29.46    1.64   1
  -2  -2   1   26.69    1.41   1
  -2  -2   1   25.97    1.39   1
   2  -2  -1   28.12    1.49   1
  -2  -2   1   26.88    1.46   1
   2  -2  -1   28.04    1.44   1
   2  -2  -1   26.87    1.46   1
   2  -2  -1   26.72    1.46   1
  -2   2   0  109.74    5.30   1
   2   2   0  103.87    5.23   1
  -2   2   0  104.64    5.26   1
   2   2   0  109.65    5.23   1
   2   2   0  105.96    5.26   1
   2  -2   0  103.95    5.30   1
  -2  -2   0  106.09    5.25   1
  -2  -2   0  101.99    5.40   1
   2  -2   0  106.62    5.29   1
   2  -2   0  106.77    5.32   1
  -2  -2   0  106.01    5.26   1
  -2  -2   0  106.42    5.24   1
   2  -2   0  109.21    5.31   1
   2   2   1    3.47    0.31   1
   2   2   1    3.18    0.29   1
  -2   2  -1    3.02    0.35   1
   2   2   1    3.86    0.30   1
   2   2   1    3.82    0.35   1
  -2   2  -1    3.65    0.38   1
  -2   2  -1    3.29    0.40   1
  -2  -2  -1    3.12    0.42   1
   2  -2   1    3.45    0.37   1
  -2  -2  -1    4.08    0.28   1
   2  -2   1    3.75    0.39   1
   2  -2   1    3.38    0.37   1
  -2  -2  -1    3.36    0.31   1
   2  -2   1    3.33    0.38   1
   2   2   2   28.45    1.53   1
   2   2   2   27.89    1.57   1
  -2   2  -2   27.84    1.62   1
   2   2   2   28.95    1.58   1
  -2   2  -2   29.23    1.62   1
  -2   2  -2   32.50    1.63   1
  -2  -2  -2   30.69    1.59   1
  -2  -2  -2   28.62    1.55   1
   2  -2   2   28.47    1.60   1
   2  -2   2   29.04    1.59   1
   2  -2   2   29.42    1.58   1
   2  -2   2   27.68    1.59   1
  -2  -2  -2   27.76    1.56   1
   2   2   3  152.57    6.88   1
  -2   2  -3  137.63    6.86   1
   2   2   3  119.67    6.80   1
  -2   2  -3  146.93    6.91   1
  -2   2  -3  115.79    6.81   1
  -2  -2  -3  137.67    6.79   1
   2  -2   3  139.36    6.78   1
  -2  -2  -3  127.46    6.70   1
   2  -2   3  137.58    6.79   1
  -2  -2  -3  138.49    6.82   1
   2  -2   3  141.90    6.85   1
   2  -2   3  133.27    6.84   1
  -2   2  -4   60.47    3.41   1
   2   2   4   67.14    3.39   1
   2   2   4   58.39    3.42   1
  -2   2  -4   59.73    3.39   1
  -2   2  -4   66.42    3.40   1
  -2   2  -4   60.72    3.46   1
   2  -2   4   64.29    3.34   1
   2  -2   4   65.22    3.34   1
   2  -2   4   67.08    3.42   1
  -2  -2  -4   57.93    3.37   1
  -2  -2  -4   67.98    3.38   1
   2  -2   4   66.49    3.44   1
  -2   2  -5   45.06    2.70   1
   2   2   5   48.63    2.64   1
  -2   2  -5   49.44    2.66   1
   2   2   5   45.47    2.47   1
  -2   2  -5   49.56    2.66   1
   2  -2   5   47.21    2.70   1
   2  -2   5   48.13    2.61   1
  -2  -2  -5   45.97    2.64   1
  -2  -2  -5   46.68    2.39   1
  -2  -2  -5   43.90    2.65   1
   2  -2   5   49.46    2.62   1
   2  -2   5   45.02    2.72   1
  -2   2  -6    8.54    0.87   1
   2   2   6    9.03    0.68   1
   2   2   6    8.62    0.89   1
  -2   2  -6    8.11    0.91   1
   2   2   6    7.62    0.94   1
  -2   2  -6    9.02    1.05   1
  -2   2  -6   11.57    1.18   1
   2  -2   6    7.21    0.82   1
   2  -2   6    9.82    1.04   1
  -2  -2  -6    8.21    0.68   1
  -2  -2  -6    9.40    0.94   1
  -2  -2  -6    9.27    0.98   1
   2  -2   6    8.11    0.96   1
   2  -2   6    6.62    0.96   1
  -2   2  -7    4.62    0.68   1
   2   2   7    5.74    0.85   1
  -2   2  -7    4.03    0.67   1
  -2   2  -7    5.71    0.90   1
   2   2   7    4.48    0.66   1
  -2   2  -7    3.62    0.80   1
  -2  -2  -7    4.89    0.81   1
   2  -2   7    4.27    0.81   1
  -2  -2  -7    4.67    0.76   1
   2  -2   7    4.61    0.67   1
   2  -2   7    3.23    0.79   1
  -2   2  -8   11.94    1.37   1
   2   2   8   12.39    1.36   1
   2   2   8   10.37    1.10   1
  -2   2  -8   11.54    1.33   1
  -2   2  -8   11.21    1.06   1
  -2  -2  -8   11.80    1.26   1
  -2  -2  -8   11.13    1.25   1
   2  -2   8   11.78    1.30   1
   2  -2   8   12.90    1.17   1
   2  -2   8   12.33    1.36   1
  -2   2  -9    8.67    1.20   1
   2   2   9    9.48    1.06   1
  -2   2  -9   11.75    1.36   1
   2   2   9    8.26    1.14   1
   2  -2   9    8.57    1.19   1
  -2  -2  -9   11.02    1.26   1
  -2  -2  -9    9.43    1.13   1
   2  -2   9    8.48    1.06   1
   2  -2   9    8.32    1.20   1
  -2   2 -10    8.30    1.25   1
  -2   2 -10    8.11    1.24   1
   2   2  10    8.14    1.22   1
   2   2  10   11.09    1.32   1
   2  -2  10    8.84    1.26   1
  -2  -2 -10    9.46    1.25   1
   2  -2  10    9.51    1.30   1
  -2   2 -11    4.54    1.00   1
  -2   2 -11    4.29    1.01   1
   2   2  11    3.87    0.94   1
   2  -2  11    4.31    1.01   1
   2  -2  11    3.33    0.92   1
  -2  -2 -11    2.55    0.83   1
  -2   2 -12    1.79    0.84   1
   2   2  12    2.01    0.97   1
  -2   2 -12    1.51    0.85   1
   2   2  12    2.56    0.89   1
   2  -2  12    2.82    0.91   1
   2  -2  12    2.69    0.98   1
   2   3 -13    2.79    0.95   1
  -2   3  13    2.62    0.93   1
  -2  -3  13    3.65    0.92   1
  -2  -3  13    4.77    1.13   1
   2   3 -12   -0.87    0.52   1
  -2   3  12   -0.26    0.59   1
   2   3 -12    0.70    0.71   1
   2   3 -12    0.70    0.67   1
  -2  -3  12   -1.05    0.72   1
  -2  -3  12   -0.38    0.56   1
  -2  -3  12    0.05    0.64   1
   2   3 -11    1.12    0.66   1
  -2   3  11    0.34    0.57   1
   2   3 -11    0.88    0.75   1
  -2   3  11    0.46    0.66   1
   2   3 -11    0.99    0.65   1
  -2   3  11    1.35    0.72   1
  -2  -3  11    0.28    0.75   1
  -2  -3  11    0.49    0.63   1
  -2  -3  11   -0.32    0.56   1
  -2   3  10    2.24    0.73   1
   2   3 -10    1.83    0.70   1
  -2   3  10    2.82    0.77   1
   2   3 -10    3.37    0.84   1
  -2   3  10    3.10    0.78   1
   2   3 -10    1.42    0.69   1
  -2  -3  10    2.61    0.71   1
  -2  -3  10    1.88    0.72   1
  -2  -3  10    3.84    0.87   1
   2   3  -9    0.14    0.54   1
   2   3  -9    0.10    0.52   1
  -2   3   9    0.53    0.51   1
  -2   3   9    0.41    0.54   1
   2   3  -9   -0.34    0.46   1
   2   3  -9   -0.11    0.50   1
  -2  -3   9    0.96    0.64   1
  -2  -3   9    0.75    0.61   1
   2  -3  -9    0.48    0.36   1
  -2  -3   9    0.58    0.49   1
   2  -3  -9    0.11    0.39   1
  -2   3   8   17.99    1.53   1
   2   3  -8   16.91    1.42   1
   2   3  -8   19.74    1.56   1
  -2   3   8   16.15    1.44   1
   2   3  -8   17.87    1.51   1
   2   3  -8   19.62    1.48   1
  -2  -3   8   20.20    1.50   1
  -2  -3   8   18.28    1.38   1
  -2  -3   8   19.30    1.52   1
   2  -3  -8   18.00    1.33   1
  -2  -3   8   17.52    1.41   1
   2  -3  -8   16.83    1.31   1
   2   3  -7    6.94    0.93   1
   2   3  -7    6.02    0.84   1
   2   3  -7    6.28    0.86   1
   2   3  -7    4.40    0.82   1
  -2   3   7    6.64    0.79   1
  -2   3   7    3.09    0.70   1
  -2  -3   7    7.77    0.90   1
   2  -3  -7    6.38    0.79   1
  -2  -3   7    6.01    0.81   1
   2  -3  -7    6.70    0.77   1
  -2  -3   7    6.17    0.89   1
  -2  -3   7    6.21    0.83   1
   2   3  -6   14.38    1.05   1
  -2   3   6   11.89    1.04   1
  -2   3   6   12.67    0.81   1
  -2   3   6   14.30    0.99   1
   2   3  -6   14.38    1.13   1
   2   3  -6   11.51    1.13   1
  -2  -3   6   11.73    1.01   1
  -2  -3   6   12.00    1.05   1
   2  -3  -6   11.64    0.96   1
   2  -3  -6   13.57    1.06   1
  -2  -3   6   13.19    1.10   1
   2  -3  -6   12.51    0.99   1
  -2  -3   6   12.18    0.74   1
  -2  -3   6   14.11    1.10   1
   2   3  -5    0.01    0.41   1
   2   3  -5   -0.09    0.23   1
  -2   3   5   -0.02    0.24   1
  -2   3   5   -0.07    0.29   1
   2   3  -5    0.55    0.37   1
  -2  -3   5    0.28    0.39   1
  -2  -3   5    0.24    0.11   1
  -2  -3   5    0.09    0.40   1
   2  -3  -5    0.26    0.29   1
   2  -3  -5    0.38    0.28   1
  -2  -3   5   -0.08    0.32   1
  -2  -3   5    0.17    0.29   1
   2  -3  -5   -0.19    0.27   1
   2   3  -4    5.89    0.61   1
  -2   3   4    4.28    0.52   1
   2   3  -4    5.52    0.74   1
   2   3  -4    5.18    0.51   1
  -2   3   4    4.16    0.45   1
   2   3  -4    6.39    0.60   1
  -2  -3   4    4.28    0.57   1
   2  -3  -4    4.23    0.52   1
  -2  -3   4    4.06    0.68   1
   2  -3  -4    4.09    0.49   1
  -2  -3   4    4.29    0.48   1
   2  -3  -4    4.58    0.57   1
  -2  -3   4    4.47    0.29   1
  -2  -3   4    4.37    0.55   1
   2   3  -3   69.91    3.71   1
   2   3  -3   70.28    3.56   1
  -2   3   3   66.63    3.49   1
  -2   3   3   73.06    3.54   1
  -2   3   3   72.78    3.51   1
   2   3  -3   67.61    3.50   1
   2   3  -3   68.92    3.55   1
  -2  -3   3   60.96    3.73   1
  -2  -3   3   69.59    3.59   1
  -2  -3   3   67.95    3.52   1
   2  -3  -3   70.36    3.57   1
  -2  -3   3   67.89    3.62   1
  -2  -3   3   69.40    3.40   1
   2  -3  -3   66.81    3.57   1
   2  -3  -3   68.91    3.51   1
  -2   3   2   16.70    0.94   1
   2   3  -2   17.88    1.00   1
   2   3  -2   17.33    0.99   1
  -2   3   2   17.32    0.99   1
   2   3  -2   19.31    1.18   1
   2   3  -2   16.51    0.98   1
  -2   3   2   16.10    0.93   1
   2   3  -2   16.13    0.93   1
   2  -3  -2   18.39    1.06   1
  -2  -3   2   15.21    1.27   1
  -2  -3   2   14.64    1.00   1
   2  -3  -2   17.29    1.03   1
  -2  -3   2   18.36    0.92   1
  -2  -3   2   17.05    0.97   1
   2  -3  -2   17.00    0.96   1
  -2  -3   2   17.09    1.05   1
  -2   3   1   80.14    3.90   1
   2   3  -1   76.56    3.86   1
   2   3  -1   80.27    4.06   1
   2   3  -1   77.92    3.92   1
   2   3  -1   78.71    3.91   1
  -2   3   1   78.39    3.90   1
  -2   3   1   79.41    3.94   1
   2  -3  -1   79.31    3.99   1
   2  -3  -1   80.85    4.00   1
  -2  -3   1   74.68    3.97   1
   2  -3  -1   76.93    4.01   1
  -2  -3   1   77.56    3.92   1
  -2  -3   1   78.17    3.92   1
   2  -3  -1   77.67    3.91   1
  -2   3   0    9.96    0.60   1
   2   3   0   11.13    0.52   1
   2   3   0   10.91    0.52   1
   2   3   0   10.23    0.70   1
  -2   3   0   10.26    0.66   1
   2   3   0    9.57    0.59   1
  -2   3   0    9.39    0.60   1
   2  -3   0   11.02    0.63   1
  -2  -3   0    8.95    0.63   1
  -2  -3   0   10.32    0.67   1
   2  -3   0    8.86    0.69   1
  -2  -3   0    9.15    0.62   1
  -2  -3   0    8.60    0.88   1
   2  -3   0   10.03    0.70   1
   2  -3   0    9.85    0.72   1
   2   3   1    0.75    0.13   1
  -2   3  -1    0.39    0.21   1
  -2   3  -1    0.69    0.22   1
   2   3   1    0.28    0.14   1
  -2   3  -1    0.16    0.28   1
   2   3   1    0.62    0.18   1
  -2   3  -1    1.32    0.26   1
  -2  -3  -1    0.06    0.32   1
   2  -3   1    1.04    0.28   1
   2  -3   1    0.95    0.40   1
   2  -3   1    0.66    0.27   1
   2  -3   1    0.55    0.22   1
   2  -3   1    0.34    0.26   1
  -2  -3  -1    0.62    0.18   1
  -2   3  -2   15.74    1.05   1
   2   3   2   17.20    0.98   1
  -2   3  -2   17.40    1.04   1
   2   3   2   16.64    0.91   1
   2   3   2   17.07    0.97   1
  -2   3  -2   17.49    1.04   1
   2  -3   2   15.37    1.02   1
  -2  -3  -2   15.08    1.03   1
   2  -3   2   18.19    1.04   1
   2  -3   2   13.97    1.15   1
   2  -3   2   16.81    1.00   1
   2  -3   2   15.73    1.00   1
   2   3   3    6.38    0.44   1
  -2   3  -3    6.43    0.67   1
  -2   3  -3    5.63    0.66   1
   2   3   3    6.51    0.51   1
  -2   3  -3    7.29    0.72   1
   2   3   3    6.50    0.58   1
   2   3   3    7.38    0.63   1
   2  -3   3    7.22    0.61   1
   2  -3   3    6.57    0.58   1
  -2  -3  -3    6.90    0.49   1
  -2  -3  -3    6.83    0.51   1
   2  -3   3    5.91    0.57   1
   2  -3   3    6.93    0.66   1
   2  -3   3    6.21    0.78   1
  -2   3  -4   28.17    1.70   1
   2   3   4   25.79    1.69   1
  -2   3  -4   27.80    1.77   1
  -2   3  -4   25.93    1.66   1
   2   3   4   30.76    1.65   1
   2  -3   4   28.29    1.68   1
   2  -3   4   28.02    1.63   1
  -2  -3  -4   28.15    1.65   1
   2  -3   4   28.14    1.66   1
  -2  -3  -4   27.53    1.39   1
  -2  -3  -4   26.04    1.56   1
   2  -3   4   27.95    1.76   1
   2  -3   4   27.02    1.67   1
   2   3   5   17.58    1.50   1
  -2   3  -5   24.54    1.60   1
   2   3   5   26.50    1.52   1
  -2   3  -5   25.52    1.55   1
  -2   3  -5   23.77    1.56   1
  -2  -3  -5   23.92    1.46   1
  -2  -3  -5   25.57    1.56   1
   2  -3   5   24.04    1.51   1
   2  -3   5   22.42    1.48   1
   2  -3   5   23.71    1.58   1
   2  -3   5   20.91    1.54   1
  -2   3  -6    0.55    0.42   1
   2   3   6    1.18    0.48   1
  -2   3  -6    1.13    0.55   1
   2   3   6    0.95    0.42   1
  -2   3  -6    1.40    0.58   1
  -2   3  -6    1.23    0.48   1
   2  -3   6    0.19    0.43   1
  -2  -3  -6    1.41    0.39   1
  -2  -3  -6    1.63    0.52   1
   2  -3   6    0.79    0.49   1
   2  -3   6    0.69    0.51   1
   2  -3   6    0.92    0.47   1
  -2   3  -7   -0.27    0.41   1
   2   3   7    0.58    0.39   1
  -2   3  -7    0.64    0.58   1
  -2   3  -7   -0.72    0.44   1
  -2   3  -7    0.65    0.40   1
   2   3   7   -0.31    0.45   1
   2  -3   7   -0.51    0.48   1
   2  -3   7    0.13    0.50   1
  -2  -3  -7   -0.21    0.40   1
  -2  -3  -7   -0.22    0.27   1
   2  -3   7   -0.02    0.42   1
   2  -3   7   -0.39    0.42   1
   2   3   8    2.07    0.68   1
  -2   3  -8    1.89    0.53   1
   2   3   8    2.03    0.55   1
  -2   3  -8    1.52    0.72   1
  -2   3  -8    2.44    0.62   1
  -2   3  -8    2.83    0.79   1
  -2  -3  -8    2.43    0.70   1
   2  -3   8    1.67    0.56   1
   2  -3   8    2.01    0.71   1
   2  -3   8    1.73    0.76   1
   2  -3   8    1.59    0.56   1
  -2   3  -9    6.30    1.08   1
  -2   3  -9    6.25    1.11   1
   2   3   9    6.56    0.93   1
  -2   3  -9    6.43    0.92   1
   2   3   9    6.03    0.99   1
   2  -3   9    6.85    1.11   1
   2  -3   9    5.30    1.02   1
   2  -3   9    6.00    0.91   1
  -2  -3  -9    6.90    1.03   1
   2  -3   9    6.86    0.93   1
   2   3  10    4.58    0.96   1
  -2   3 -10    6.23    1.11   1
  -2   3 -10    6.87    1.22   1
   2   3  10    5.66    0.90   1
   2  -3  10    5.07    1.11   1
   2  -3  10    6.75    1.15   1
   2   3  11    1.35    0.75   1
  -2   3 -11    1.43    0.82   1
  -2   3 -11    1.33    0.76   1
   2  -3  11    0.74    0.67   1
   2  -3  11    0.76    0.90   1
  -2   3 -12    0.89    0.78   1
   2   3  12   -0.37    0.64   1
   2  -3  12    0.27    0.61   1
   2  -3  12   -0.02    0.88   1
   2   4 -13    1.58    0.94   1
  -2   4  13    0.86    0.82   1
  -2  -4  13    1.92    0.90   1
  -2  -4  13    2.81    0.99   1
   2   4 -12    1.11    0.79   1
  -2   4  12   -1.19    0.59   1
   2   4 -12   -0.58    0.68   1
   2   4 -12    0.30    0.78   1
  -2  -4  12    0.21    0.65   1
  -2  -4  12    0.77    0.86   1
  -2   4  11    4.85    0.90   1
   2   4 -11    3.13    0.90   1
   2   4 -11    3.96    1.03   1
   2   4 -11    2.01    0.89   1
  -2   4  11    3.01    0.87   1
  -2  -4  11    4.09    0.95   1
  -2  -4  11    1.90    0.89   1
  -2   4  10   10.28    1.35   1
   2   4 -10   13.43    1.54   1
   2   4 -10   11.15    1.37   1
   2   4 -10   10.70    1.40   1
  -2   4  10   12.17    1.32   1
  -2  -4  10   10.80    1.35   1
  -2  -4  10   10.49    1.28   1
  -2  -4  10   10.94    1.37   1
  -2   4   9    8.70    1.15   1
   2   4  -9   11.32    1.37   1
   2   4  -9   10.84    1.23   1
   2   4  -9    9.07    1.23   1
   2   4  -9    9.43    1.22   1
  -2   4   9   10.47    1.20   1
  -2  -4   9    7.61    1.12   1
  -2  -4   9   11.40    1.29   1
  -2  -4   9    9.10    1.15   1
  -2  -4   9    9.94    1.16   1
   2   4  -8    2.86    0.69   1
   2   4  -8    1.89    0.67   1
  -2   4   8    2.58    0.70   1
   2   4  -8    2.47    0.72   1
  -2   4   8    1.90    0.61   1
   2   4  -8    1.51    0.60   1
   2  -4  -8    1.30    0.42   1
  -2  -4   8    1.25    0.65   1
  -2  -4   8    1.88    0.64   1
  -2  -4   8    1.94    0.58   1
  -2  -4   8    2.51    0.62   1
  -2   4   7    8.84    1.06   1
  -2   4   7    8.93    0.93   1
   2   4  -7    9.85    1.13   1
   2   4  -7    8.98    1.15   1
   2   4  -7    8.99    1.10   1
   2   4  -7    8.18    1.02   1
  -2  -4   7    9.26    1.12   1
  -2  -4   7   10.50    1.11   1
  -2  -4   7    9.95    1.00   1
  -2  -4   7   10.38    1.03   1
  -2   4   6   57.54    3.12   1
   2   4  -6   49.91    3.23   1
   2   4  -6   55.66    3.15   1
  -2   4   6   53.16    2.98   1
   2   4  -6   58.13    3.09   1
  -2  -4   6   51.67    3.17   1
  -2  -4   6   54.66    3.05   1
   2  -4  -6   54.25    3.06   1
  -2  -4   6   56.38    3.22   1
  -2  -4   6   58.50    3.10   1
   2  -4  -6   53.90    2.98   1
  -2   4   5   46.82    2.55   1
   2   4  -5   47.64    2.68   1
  -2   4   5   49.42    2.64   1
   2   4  -5   47.58    2.76   1
   2   4  -5   40.52    2.79   1
  -2  -4   5   49.20    2.63   1
  -2  -4   5   49.42    2.88   1
  -2  -4   5   49.01    2.67   1
   2  -4  -5   47.14    2.57   1
  -2  -4   5   44.06    2.73   1
   2  -4  -5   49.90    2.65   1
  -2  -4   5   47.38    2.39   1
   2   4  -4    4.60    0.58   1
   2   4  -4    5.38    0.53   1
  -2   4   4    5.15    0.48   1
   2   4  -4    5.09    0.60   1
   2   4  -4    4.55    0.72   1
  -2   4   4    5.19    0.55   1
  -2   4   4    5.33    0.54   1
   2  -4  -4    5.48    0.49   1
   2  -4  -4    4.95    0.60   1
  -2  -4   4    5.57    0.36   1
  -2  -4   4    5.29    0.58   1
  -2  -4   4    5.74    0.83   1
  -2  -4   4    5.32    0.67   1
  -2  -4   4    5.29    0.54   1
  -2   4   3   24.20    1.28   1
  -2   4   3   23.75    1.31   1
   2   4  -3   22.16    1.27   1
   2   4  -3   22.23    1.47   1
   2   4  -3   22.84    1.33   1
  -2   4   3   22.28    1.25   1
   2   4  -3   23.05    1.33   1
   2   4  -3   23.50    1.35   1
  -2  -4   3   22.00    1.41   1
  -2  -4   3   23.39    1.32   1
  -2  -4   3   22.35    1.21   1
   2  -4  -3   22.54    1.38   1
  -2  -4   3   21.62    1.63   1
  -2  -4   3   22.68    1.31   1
   2  -4  -3   23.89    1.39   1
  -2   4   2   80.60    4.00   1
   2   4  -2   83.39    4.01   1
  -2   4   2   77.48    3.95   1
   2   4  -2   79.97    4.19   1
   2   4  -2   81.94    3.99   1
   2   4  -2   80.67    4.04   1
  -2   4   2   78.12    3.95   1
   2   4  -2   77.80    3.95   1
  -2  -4   2   76.42    4.01   1
   2  -4  -2   78.78    4.09   1
  -2  -4   2   72.92    4.32   1
  -2  -4   2   75.11    4.08   1
   2  -4  -2   80.40    4.09   1
  -2  -4   2   81.84    3.97   1
   2   4  -1   53.31    2.50   1
  -2   4   1   49.93    2.54   1
   2   4  -1   54.13    2.76   1
   2   4  -1   50.97    2.49   1
  -2   4   1   51.74    2.59   1
   2   4  -1   52.33    2.56   1
   2   4  -1   50.79    2.61   1
  -2   4   1   51.11    2.54   1
   2  -4  -1   48.95    2.70   1
  -2  -4   1   50.71    2.60   1
  -2  -4   1   49.68    2.67   1
   2  -4  -1   49.73    2.69   1
  -2  -4   1   48.93    2.60   1
  -2  -4   1   39.36    2.82   1
   2  -4  -1   48.51    2.67   1
  -2   4   0   37.10    1.96   1
  -2   4   0   39.66    2.01   1
  -2   4   0   38.39    1.95   1
   2   4   0   38.22    1.94   1
  -2  -4   0   37.01    2.03   1
   2  -4   0   38.83    2.08   1
  -2  -4   0   40.34    2.05   1
   2  -4   0   36.50    2.08   1
  -2  -4   0   37.67    2.01   1
   2  -4   0   37.46    2.10   1
   2  -4   0   38.24    2.22   1
  -2  -4   0   35.99    2.26   1
   2   4   1   -0.13    0.12   1
  -2   4  -1    0.11    0.27   1
   2   4   1    0.13    0.05   1
  -2   4  -1   -0.06    0.19   1
  -2   4  -1    0.36    0.20   1
  -2   4  -1    0.03    0.15   1
   2   4   1    0.08    0.05   1
   2  -4   1    0.18    0.25   1
  -2  -4  -1   -0.28    0.18   1
  -2  -4  -1   -0.08    0.20   1
   2  -4   1    0.24    0.28   1
   2  -4   1    0.22    0.25   1
   2  -4   1   -0.07    0.26   1
   2  -4   1    0.04    0.15   1
  -2  -4  -1   -0.09    0.17   1
  -2  -4  -1   -0.30    0.26   1
  -2   4  -2   61.00    3.67   1
   2   4   2   74.38    3.60   1
   2   4   2   74.00    3.61   1
  -2   4  -2   70.65    3.74   1
  -2   4  -2   73.07    3.69   1
   2   4   2   73.45    3.55   1
   2  -4   2   70.27    3.72   1
  -2  -4  -2   75.31    3.62   1
   2  -4   2   75.39    3.66   1
   2  -4   2   69.66    3.71   1
  -2  -4  -2   71.53    3.72   1
   2  -4   2   70.77    3.67   1
   2  -4   2   59.01    3.85   1
   2   4   3   91.85    4.20   1
  -2   4  -3   81.92    4.26   1
  -2   4  -3   75.86    4.24   1
   2   4   3   88.69    4.16   1
  -2   4  -3   72.45    4.21   1
   2   4   3   81.93    4.09   1
   2  -4   3   71.73    4.38   1
   2  -4   3   80.61    4.17   1
   2  -4   3   77.93    4.23   1
   2  -4   3   80.53    4.23   1
   2  -4   3   80.05    4.18   1
  -2  -4  -3   82.83    4.13   1
  -2   4  -4   30.97    1.74   1
  -2   4  -4   28.27    1.77   1
  -2   4  -4   24.88    1.69   1
   2   4   4   27.69    1.61   1
   2   4   4   24.69    1.66   1
   2  -4   4   25.96    1.60   1
  -2  -4  -4   27.89    1.51   1
   2  -4   4   27.58    1.68   1
   2  -4   4   25.68    1.63   1
  -2  -4  -4   27.30    1.45   1
   2  -4   4   25.65    1.68   1
   2  -4   4   31.41    1.93   1
   2   4   5    0.29    0.30   1
  -2   4  -5   -0.05    0.39   1
   2   4   5    0.16    0.37   1
  -2   4  -5   -0.15    0.44   1
  -2   4  -5    1.28    0.46   1
  -2   4  -5    0.03    0.38   1
   2  -4   5    0.38    0.48   1
   2  -4   5   -0.04    0.37   1
   2  -4   5   -0.36    0.36   1
   2  -4   5    0.30    0.32   1
   2  -4   5    0.79    0.43   1
  -2   4  -6   19.76    1.55   1
   2   4   6   19.24    1.50   1
  -2   4  -6   23.94    1.52   1
  -2   4  -6   18.92    1.61   1
   2   4   6   20.47    1.42   1
  -2   4  -6   23.41    1.61   1
   2  -4   6   20.21    1.53   1
   2  -4   6   18.83    1.41   1
   2  -4   6   21.74    1.59   1
   2  -4   6   23.00    1.60   1
  -2   4  -7   32.44    2.03   1
  -2   4  -7   32.73    2.18   1
  -2   4  -7   30.97    2.13   1
   2   4   7   34.14    1.99   1
   2   4   7   31.38    2.06   1
  -2   4  -7   32.33    2.19   1
   2  -4   7   24.56    1.97   1
   2  -4   7   27.88    2.09   1
   2  -4   7   27.39    2.07   1
   2  -4   7   29.20    1.89   1
  -2   4  -8   12.49    1.25   1
  -2   4  -8   10.33    1.36   1
   2   4   8   10.10    1.08   1
   2   4   8   12.05    1.30   1
  -2   4  -8   12.44    1.40   1
  -2   4  -8   12.53    1.41   1
   2  -4   8   10.91    1.10   1
   2  -4   8    8.99    1.22   1
   2  -4   8   12.43    1.31   1
   2  -4   8    9.93    1.29   1
  -2   4  -9    0.24    0.58   1
   2   4   9    0.22    0.51   1
  -2   4  -9    0.90    0.64   1
   2   4   9   -0.41    0.43   1
  -2   4  -9   -0.02    0.66   1
   2  -4   9   -1.24    0.46   1
   2  -4   9    0.35    0.58   1
   2  -4   9   -0.24    0.56   1
   2  -4   9    0.07    0.68   1
   2   4  10    3.20    0.83   1
  -2   4 -10    2.94    0.93   1
  -2   4 -10    4.05    1.02   1
   2   4  10    4.32    0.84   1
   2  -4  10    1.92    0.76   1
   2  -4  10    2.60    0.94   1
  -2   4 -11    3.68    1.00   1
   2   4  11    4.77    0.95   1
   2   4  11    4.51    1.01   1
  -2   4 -11    5.49    1.14   1
   2  -4  11    4.10    1.14   1
  -2   4 -12    2.31    0.90   1
   2   4  12    2.72    1.04   1
   2  -4  12    1.92    1.11   1
   2   5 -12    8.31    1.39   1
  -2   5  12    8.81    1.28   1
   2   5 -12    9.43    1.41   1
  -2   5  12   10.26    1.45   1
   2   5 -12    9.50    1.40   1
  -2  -5  12   10.20    1.45   1
  -2  -5  12   10.46    1.39   1
   2   5 -11   14.50    1.79   1
   2   5 -11   17.33    1.80   1
   2   5 -11   19.40    1.92   1
  -2   5  11   15.34    1.62   1
  -2   5  11   15.06    1.67   1
  -2  -5  11   17.18    1.74   1
  -2  -5  11   16.16    1.73   1
  -2   5  10   -0.07    0.51   1
   2   5 -10    0.82    0.78   1
  -2   5  10    0.92    0.66   1
   2   5 -10    1.36    0.69   1
   2   5 -10    1.02    0.72   1
   2   5 -10    0.20    0.55   1
  -2  -5  10    0.43    0.72   1
  -2  -5  10    1.06    0.78   1
   2   5  -9   18.76    1.58   1
   2   5  -9   18.48    1.65   1
  -2   5   9   17.04    1.60   1
  -2   5   9   17.65    1.70   1
   2   5  -9   16.85    1.57   1
   2   5  -9   19.26    1.76   1
  -2  -5   9   16.84    1.65   1
  -2  -5   9   23.03    1.80   1
  -2  -5   9   19.67    1.64   1
   2   5  -8   14.71    1.63   1
   2   5  -8   11.74    1.43   1
  -2   5   8   17.03    1.43   1
   2   5  -8   13.92    1.46   1
   2   5  -8   14.97    1.50   1
  -2   5   8   16.94    1.38   1
  -2  -5   8   13.90    1.50   1
  -2  -5   8   15.88    1.44   1
  -2  -5   8   13.03    1.37   1
   2   5  -7   28.10    2.18   1
   2   5  -7   31.73    2.08   1
   2   5  -7   28.54    2.02   1
   2   5  -7   31.92    2.11   1
  -2   5   7   35.05    1.98   1
  -2   5   7   23.41    1.97   1
  -2  -5   7   29.06    1.96   1
  -2  -5   7   28.40    2.11   1
  -2  -5   7   33.27    2.00   1
  -2  -5   7   31.41    2.12   1
   2  -5  -7   33.49    2.02   1
  -2   5   6   24.97    1.62   1
   2   5  -6   26.49    1.63   1
   2   5  -6   20.45    1.66   1
  -2   5   6   23.95    1.51   1
   2   5  -6   24.79    1.69   1
   2   5  -6   21.14    1.80   1
  -2  -5   6   24.96    1.77   1
  -2  -5   6   24.19    1.80   1
   2  -5  -6   26.19    1.65   1
  -2  -5   6   25.73    1.61   1
  -2  -5   6   23.42    1.56   1
  -2   5   5   29.00    1.64   1
  -2   5   5   24.26    1.52   1
   2   5  -5   26.52    1.87   1
   2   5  -5   28.35    1.70   1
  -2  -5   5   29.11    1.93   1
  -2  -5   5   27.91    1.45   1
   2  -5  -5   24.00    1.64   1
  -2  -5   5   24.59    1.58   1
  -2  -5   5   25.56    1.61   1
  -2  -5   5   22.29    1.68   1
  -2   5   4  153.83    7.69   1
   2   5  -4  156.21    7.74   1
   2   5  -4  146.38    7.99   1
   2   5  -4  161.45    7.84   1
  -2   5   4  164.73    7.77   1
  -2   5   4  128.62    7.70   1
  -2  -5   4  164.41    7.75   1
  -2  -5   4  155.64    7.63   1
  -2  -5   4  150.32    7.89   1
  -2  -5   4  154.61    7.78   1
   2  -5  -4  149.00    7.83   1
  -2  -5   4  164.85    8.14   1
   2   5  -3   56.00    2.93   1
  -2   5   3   57.66    2.91   1
   2   5  -3   54.77    2.98   1
   2   5  -3   55.75    2.95   1
   2   5  -3   55.24    3.14   1
   2   5  -3   56.17    2.88   1
  -2   5   3   58.09    2.88   1
  -2   5   3   53.59    2.85   1
  -2  -5   3   57.04    2.86   1
   2  -5  -3   54.58    3.02   1
  -2  -5   3   55.66    2.97   1
   2  -5  -3   57.02    3.05   1
  -2  -5   3   57.11    3.33   1
  -2  -5   3   51.67    3.02   1
   2   5  -2   12.93    0.75   1
   2   5  -2   11.48    0.96   1
  -2   5   2   11.90    0.67   1
   2   5  -2   10.96    0.67   1
  -2   5   2   12.16    0.73   1
   2   5  -2   11.47    0.69   1
   2   5  -2   11.47    0.80   1
  -2   5   2   11.46    0.68   1
   2  -5  -2   10.90    0.86   1
  -2  -5   2   12.40    0.80   1
   2  -5  -2   12.35    0.87   1
  -2  -5   2    9.48    0.84   1
  -2  -5   2   10.77    0.73   1
   2  -5  -2   10.87    0.84   1
  -2  -5   2   11.11    1.23   1
   2   5  -1    1.51    0.11   1
   2   5  -1    1.62    0.11   1
   2   5  -1    1.47    0.21   1
  -2   5   1    1.55    0.26   1
   2   5  -1    1.25    0.27   1
  -2   5   1    1.22    0.19   1
  -2   5   1    1.35    0.19   1
   2   5  -1    1.55    0.41   1
   2  -5  -1    0.94    0.37   1
   2  -5  -1    1.04    0.35   1
   2  -5  -1    1.48    0.37   1
  -2  -5   1    2.40    0.63   1
  -2  -5   1    1.12    0.35   1
  -2  -5   1    1.58    0.30   1
  -2  -5   1    1.78    0.33   1
  -2   5   0  101.39    4.94   1
  -2   5   0   97.54    4.88   1
   2   5   0   98.25    4.85   1
   2   5   0   98.92    4.85   1
  -2   5   0   99.33    4.90   1
  -2  -5   0   95.95    5.01   1
   2  -5   0   97.39    5.22   1
   2  -5   0   98.59    5.06   1
  -2  -5   0  100.35    5.00   1
  -2  -5   0   94.41    4.97   1
  -2  -5   0   91.23    5.22   1
   2  -5   0   99.26    5.09   1
   2  -5   0  100.67    5.04   1
   2   5   1  237.97   11.52   1
  -2   5  -1  241.99   11.62   1
  -2   5  -1  239.43   11.63   1
  -2   5  -1  240.97   11.58   1
   2   5   1  236.91   11.53   1
  -2   5  -1  233.29   11.76   1
   2  -5   1  226.71   11.71   1
  -2  -5  -1  229.46   11.65   1
   2  -5   1  231.53   11.74   1
  -2  -5  -1  239.79   11.83   1
   2  -5   1  227.00   11.93   1
   2  -5   1  235.29   11.68   1
  -2  -5  -1  235.77   11.65   1
  -2  -5  -1  226.57   11.68   1
  -2   5  -2   21.00    1.35   1
   2   5   2   20.63    1.07   1
  -2   5  -2   19.49    1.17   1
   2   5   2   21.30    1.10   1
   2   5   2   20.56    1.13   1
  -2   5  -2   21.32    1.25   1
   2  -5   2   20.96    1.26   1
   2  -5   2   20.26    1.32   1
  -2  -5  -2   19.05    1.29   1
   2  -5   2   20.16    1.17   1
   2  -5   2   18.24    1.53   1
  -2  -5  -2   19.42    1.21   1
  -2  -5  -2   20.46    1.32   1
   2  -5   2   19.12    1.31   1
  -2   5  -3   10.12    0.92   1
  -2   5  -3   12.13    0.89   1
   2   5   3   10.70    0.76   1
   2   5   3   11.57    0.80   1
   2   5   3   11.36    0.70   1
  -2   5  -3   10.73    0.91   1
   2  -5   3    9.08    0.92   1
   2  -5   3   12.21    0.93   1
  -2  -5  -3   10.83    0.79   1
   2  -5   3   10.52    0.83   1
   2  -5   3   10.28    1.21   1
   2  -5   3   11.03    0.78   1
  -2   5  -4   12.21    1.04   1
  -2   5  -4   12.82    1.06   1
   2   5   4   12.41    0.96   1
   2   5   4   12.17    0.89   1
  -2   5  -4   13.44    1.11   1
   2  -5   4   11.95    0.90   1
   2  -5   4   11.92    0.96   1
   2  -5   4   13.36    1.26   1
   2  -5   4   11.51    1.02   1
   2  -5   4   12.97    1.04   1
  -2  -5  -4   12.11    0.80   1
  -2   5  -5   47.16    2.93   1
  -2   5  -5   53.98    2.87   1
  -2   5  -5   42.58    2.91   1
  -2   5  -5   47.40    2.86   1
   2   5   5   47.57    2.70   1
   2  -5   5   49.14    2.86   1
   2  -5   5   51.27    3.04   1
   2  -5   5   52.29    2.80   1
   2  -5   5   49.11    2.87   1
   2  -5   5   49.59    2.74   1
  -2   5  -6   68.24    3.44   1
  -2   5  -6   52.16    3.39   1
  -2   5  -6   54.53    3.51   1
   2   5   6   60.41    3.29   1
   2   5   6   57.46    3.40   1
  -2   5  -6   61.15    3.56   1
   2  -5   6   60.58    3.29   1
   2  -5   6   54.16    3.43   1
   2  -5   6   63.60    3.42   1
   2  -5   6   63.23    3.49   1
  -2   5  -7   -0.32    0.40   1
  -2   5  -7    0.92    0.61   1
   2   5   7    0.00    0.36   1
  -2   5  -7    0.34    0.54   1
   2   5   7    0.42    0.51   1
  -2   5  -7   -0.49    0.53   1
   2  -5   7    0.25    0.45   1
   2  -5   7   -0.03    0.52   1
   2  -5   7   -0.87    0.52   1
   2  -5   7   -0.25    0.38   1
  -2   5  -8   24.00    1.94   1
  -2   5  -8   20.71    1.90   1
   2   5   8   24.02    1.84   1
   2   5   8   25.94    1.72   1
  -2   5  -8   23.11    1.94   1
  -2   5  -8   23.01    1.72   1
   2  -5   8   21.50    1.64   1
   2  -5   8   25.50    1.87   1
   2  -5   8   23.49    1.96   1
   2   5   9    9.49    1.23   1
  -2   5  -9    8.36    1.27   1
  -2   5  -9    5.81    1.23   1
   2   5   9    9.15    1.09   1
  -2   5  -9    8.43    1.26   1
   2  -5   9    8.37    1.31   1
   2  -5   9    8.66    1.17   1
  -2   5 -10    3.16    0.89   1
   2   5  10    4.35    0.89   1
   2   5  10    3.16    0.82   1
  -2   5 -10    4.48    1.08   1
  -2   5 -10    3.82    0.95   1
   2  -5  10    5.00    0.98   1
   2  -5  10    3.64    1.09   1
  -2   5 -11    4.89    1.15   1
  -2   5 -11    4.40    1.06   1
   2   5  11    4.77    0.96   1
   2   5  11    2.47    0.83   1
   2  -5  11    3.89    1.10   1
  -2   6  12    3.52    0.92   1
   2   6 -12    7.75    1.35   1
   2   6 -12    4.59    1.27   1
  -2   6  12    5.80    1.13   1
  -2  -6  12    5.50    1.21   1
  -2  -6  12    6.14    1.17   1
   2   6 -11    0.47    0.75   1
  -2   6  11    0.47    0.66   1
   2   6 -11    0.19    0.62   1
  -2   6  11   -0.38    0.57   1
   2   6 -11   -0.05    0.66   1
  -2  -6  11    0.68    0.81   1
  -2  -6  11    0.53    0.75   1
   2   6 -10   -0.31    0.51   1
  -2   6  10    0.28    0.54   1
   2   6 -10    1.46    0.81   1
  -2   6  10    0.07    0.60   1
   2   6 -10    0.71    0.73   1
   2   6 -10    0.06    0.64   1
  -2  -6  10   -0.10    0.70   1
  -2  -6  10   -0.56    0.66   1
  -2   6   9   36.38    2.38   1
  -2   6   9   32.76    2.35   1
   2   6  -9   38.59    2.53   1
   2   6  -9   30.49    2.53   1
   2   6  -9   30.46    2.33   1
   2   6  -9   37.31    2.45   1
  -2  -6   9   33.92    2.47   1
  -2  -6   9   36.41    2.56   1
  -2  -6   9   32.56    2.38   1
  -2   6   8    3.26    0.72   1
   2   6  -8    3.51    0.88   1
   2   6  -8    4.02    0.80   1
   2   6  -8    3.64    0.97   1
   2   6  -8    5.91    0.92   1
  -2   6   8    2.85    0.70   1
  -2  -6   8    4.40    0.83   1
  -2  -6   8    3.21    0.85   1
  -2  -6   8    2.92    0.85   1
  -2   6   7   42.94    2.90   1
  -2   6   7   48.92    2.82   1
   2   6  -7   49.18    3.03   1
   2   6  -7   47.81    2.98   1
   2   6  -7   48.41    3.22   1
   2   6  -7   44.76    2.91   1
  -2  -6   7   52.03    2.94   1
   2  -6  -7   50.59    2.95   1
  -2  -6   7   51.57    3.13   1
  -2  -6   7   55.05    3.17   1
   2   6  -6   16.37    1.36   1
   2   6  -6   15.67    1.33   1
  -2   6   6   15.12    1.12   1
   2   6  -6   15.01    1.65   1
   2   6  -6   16.39    1.26   1
  -2   6   6   16.69    1.27   1
  -2  -6   6   19.36    1.35   1
   2  -6  -6   15.86    1.33   1
  -2  -6   6   15.79    1.49   1
  -2  -6   6   16.02    1.41   1
   2   6  -5    0.37    0.45   1
  -2   6   5    0.47    0.32   1
   2   6  -5   -0.05    0.46   1
  -2   6   5   -0.38    0.23   1
   2   6  -5   -0.22    0.28   1
   2   6  -5    0.11    0.44   1
  -2  -6   5   -0.30    0.48   1
  -2  -6   5   -0.15    0.45   1
  -2  -6   5   -0.10    0.34   1
   2  -6  -5   -0.30    0.37   1
   2   6  -4   37.39    2.06   1
   2   6  -4   35.91    2.36   1
  -2   6   4   37.94    2.06   1
   2   6  -4   41.67    2.21   1
  -2   6   4   35.63    1.99   1
   2  -6  -4   34.89    2.20   1
  -2  -6   4   38.55    1.98   1
  -2  -6   4   36.43    2.13   1
  -2  -6   4   40.33    2.53   1
   2  -6  -4   33.03    2.17   1
  -2  -6   4   34.30    2.23   1
  -2   6   3    1.91    0.29   1
   2   6  -3    1.79    0.55   1
  -2   6   3    2.36    0.34   1
  -2   6   3    2.77    0.32   1
   2   6  -3    2.76    0.49   1
   2   6  -3    2.14    0.32   1
   2   6  -3    1.90    0.35   1
  -2  -6   3    2.55    0.48   1
   2  -6  -3    2.71    0.52   1
  -2  -6   3    2.45    0.34   1
   2  -6  -3    1.74    0.47   1
  -2  -6   3    2.83    0.49   1
  -2  -6   3    2.08    0.70   1
   2   6  -2  192.24    9.73   1
   2   6  -2  188.13    9.38   1
  -2   6   2  192.55    9.38   1
   2   6  -2  200.13    9.56   1
   2   6  -2  196.78    9.40   1
   2   6  -2  189.02    9.45   1
  -2   6   2  192.65    9.38   1
  -2   6   2  191.94    9.43   1
   2  -6  -2  191.60    9.63   1
   2  -6  -2  185.01    9.59   1
   2  -6  -2  184.07    9.63   1
  -2  -6   2  196.26    9.54   1
  -2  -6   2  187.68    9.62   1
  -2  -6   2  196.40    9.49   1
  -2  -6   2  165.75    9.86   1
   2   6  -1  117.87    5.97   1
  -2   6   1  119.83    5.82   1
   2   6  -1  117.30    5.82   1
  -2   6   1  117.49    5.82   1
   2   6  -1  120.21    5.74   1
   2   6  -1  118.85    5.74   1
   2   6  -1  121.77    6.14   1
  -2   6   1  118.39    5.87   1
   2  -6  -1  114.23    6.02   1
   2  -6  -1  114.06    6.08   1
   2  -6  -1  118.92    6.06   1
  -2  -6   1  119.24    5.95   1
  -2  -6   1  116.28    6.03   1
  -2  -6   1  115.30    5.96   1
  -2  -6   1  105.79    6.27   1
  -2   6   0   10.13    0.70   1
  -2   6   0   10.65    0.65   1
  -2   6   0   10.58    0.67   1
   2   6   0   11.38    0.59   1
   2  -6   0    9.93    0.90   1
   2  -6   0   10.50    1.14   1
  -2  -6   0   10.59    1.14   1
  -2  -6   0   11.09    0.82   1
   2  -6   0   10.53    0.87   1
   2  -6   0   10.70    0.86   1
  -2  -6   0   10.17    0.82   1
  -2  -6   0    9.21    0.77   1
  -2   6  -1    2.11    0.30   1
  -2   6  -1    3.16    0.40   1
  -2   6  -1    1.03    0.46   1
  -2   6  -1    2.42    0.36   1
   2   6   1    2.62    0.23   1
   2  -6   1    2.17    0.49   1
  -2  -6  -1    2.91    0.51   1
   2  -6   1    2.64    0.68   1
   2  -6   1    2.42    0.49   1
  -2  -6  -1    2.46    0.43   1
  -2  -6  -1    1.99    0.52   1
  -2  -6  -1    2.49    0.45   1
   2  -6   1    2.43    0.46   1
   2   6   2    1.88    0.25   1
  -2   6  -2    1.33    0.35   1
   2   6   2    1.73    0.19   1
   2   6   2    1.78    0.18   1
  -2   6  -2    2.08    0.50   1
  -2   6  -2    1.21    0.37   1
   2  -6   2    1.79    0.43   1
  -2  -6  -2    1.54    0.43   1
   2  -6   2    2.17    0.49   1
  -2  -6  -2    1.62    0.36   1
   2  -6   2    2.40    0.44   1
   2  -6   2    1.57    0.66   1
  -2  -6  -2    1.46    0.44   1
   2   6   3  142.05    6.77   1
  -2   6  -3  140.77    6.91   1
  -2   6  -3  139.86    7.01   1
   2   6   3  140.27    6.71   1
   2   6   3  129.33    6.75   1
  -2   6  -3  129.45    6.91   1
   2  -6   3  117.80    7.21   1
  -2  -6  -3  138.13    6.89   1
   2  -6   3  131.90    6.98   1
   2  -6   3  133.86    6.87   1
   2  -6   3  135.01    6.98   1
   2   6   4   48.71    2.82   1
  -2   6  -4   47.22    3.01   1
  -2   6  -4   57.41    3.02   1
  -2   6  -4   52.77    3.03   1
   2   6   4   56.33    2.89   1
   2  -6   4   56.74    3.35   1
   2  -6   4   52.93    3.04   1
  -2  -6  -4   56.63    2.86   1
   2  -6   4   49.33    2.89   1
   2  -6   4   50.52    3.02   1
  -2   6  -5   20.32    1.75   1
   2   6   5   27.91    1.62   1
  -2   6  -5   26.17    1.77   1
  -2   6  -5   25.49    1.90   1
  -2   6  -5   29.91    1.79   1
   2   6   5   22.31    1.65   1
   2  -6   5   26.11    1.67   1
   2  -6   5   24.45    1.78   1
   2  -6   5   29.69    1.88   1
   2  -6   5   32.54    2.15   1
   2   6   6   11.31    1.01   1
  -2   6  -6   10.55    1.26   1
  -2   6  -6   11.94    1.38   1
  -2   6  -6   11.55    1.34   1
   2   6   6   10.77    1.14   1
  -2   6  -6   14.06    1.20   1
   2  -6   6   14.91    1.42   1
   2  -6   6   13.80    1.33   1
   2  -6   6   13.06    1.13   1
  -2   6  -7    0.65    0.48   1
   2   6   7    0.93    0.45   1
   2   6   7   -0.21    0.46   1
  -2   6  -7    0.78    0.64   1
  -2   6  -7   -0.01    0.51   1
  -2   6  -7    0.50    0.49   1
   2  -6   7    0.92    0.67   1
   2  -6   7    0.59    0.48   1
   2  -6   7    1.07    0.67   1
   2   6   8   22.19    1.77   1
  -2   6  -8   23.83    2.08   1
   2   6   8   31.19    2.04   1
  -2   6  -8   25.84    2.09   1
  -2   6  -8   26.55    1.92   1
  -2   6  -8   25.16    2.13   1
   2  -6   8   25.79    2.14   1
   2  -6   8   29.51    2.13   1
  -2   6  -9   11.75    1.31   1
   2   6   9    9.16    1.15   1
  -2   6  -9   11.93    1.52   1
   2   6   9   10.74    1.33   1
  -2   6  -9   11.46    1.55   1
  -2   6  -9    9.75    1.45   1
   2  -6   9    9.17    1.43   1
   2  -6   9   13.07    1.52   1
  -2   6 -10    9.94    1.44   1
  -2   6 -10   11.03    1.49   1
  -2   6 -10   12.89    1.66   1
   2   6  10   10.90    1.36   1
   2   6  10   10.89    1.28   1
   2  -6  10   12.16    1.44   1
   2  -6  10    9.32    1.48   1
  -2   6 -11   12.76    1.63   1
   2   6  11   10.74    1.51   1
   2   6  11   10.86    1.33   1
   2  -6  11   11.15    1.67   1
  -2   7  11   10.72    1.31   1
  -2   7  11   10.52    1.33   1
   2   7 -11    8.96    1.38   1
   2   7 -11   11.27    1.56   1
   2   7 -11    6.59    1.26   1
  -2  -7  11   13.48    1.65   1
  -2  -7  11   10.20    1.48   1
  -2   7  10    6.23    1.05   1
   2   7 -10    8.80    1.42   1
  -2   7  10    6.70    1.04   1
   2   7 -10    6.23    1.08   1
   2   7 -10    8.05    1.31   1
   2   7 -10    6.35    1.09   1
  -2  -7  10    5.29    1.21   1
  -2  -7  10    6.18    1.16   1
   2   7  -9   14.50    1.56   1
   2   7  -9   14.46    1.82   1
   2   7  -9   14.29    1.51   1
  -2   7   9   14.73    1.45   1
  -2   7   9   11.70    1.38   1
   2   7  -9   12.31    1.60   1
  -2  -7   9   13.45    1.67   1
  -2  -7   9   13.69    1.52   1
  -2  -7   9   11.99    1.57   1
   2   7  -8    4.39    1.10   1
   2   7  -8    4.84    1.04   1
  -2   7   8    4.89    0.83   1
   2   7  -8    8.14    1.11   1
   2   7  -8    4.87    0.92   1
  -2   7   8    5.12    0.83   1
  -2  -7   8    4.24    1.03   1
  -2  -7   8    5.58    0.92   1
  -2  -7   8    4.10    0.97   1
  -2   7   7    0.73    0.50   1
   2   7  -7    1.54    0.63   1
   2   7  -7    1.62    0.79   1
   2   7  -7    1.20    0.60   1
   2   7  -7    1.30    0.65   1
  -2   7   7    1.69    0.49   1
  -2  -7   7    2.06    0.64   1
   2  -7  -7    0.22    0.56   1
  -2  -7   7    1.52    0.74   1
  -2  -7   7    0.09    0.65   1
   2   7  -6   47.08    2.66   1
   2   7  -6   41.17    2.54   1
  -2   7   6   43.02    2.40   1
   2   7  -6   46.91    2.68   1
  -2   7   6   35.81    2.49   1
   2   7  -6   39.55    2.85   1
   2  -7  -6   41.72    2.62   1
  -2  -7   6   43.79    2.56   1
  -2  -7   6   43.38    2.87   1
  -2  -7   6   43.66    2.77   1
  -2   7   5   13.44    0.95   1
   2   7  -5   13.73    1.20   1
   2   7  -5   13.48    1.16   1
   2   7  -5   12.57    1.47   1
  -2   7   5   13.40    1.02   1
   2   7  -5   13.67    1.07   1
  -2  -7   5   13.20    1.35   1
  -2  -7   5   16.50    1.52   1
  -2  -7   5   13.38    1.16   1
   2  -7  -5   14.12    1.29   1
   2   7  -4   79.80    4.12   1
   2   7  -4   81.24    4.28   1
   2   7  -4   81.72    4.27   1
   2   7  -4   77.62    4.48   1
  -2   7   4   83.34    4.11   1
  -2   7   4   75.44    4.04   1
  -2  -7   4   74.64    4.34   1
  -2  -7   4   80.66    4.13   1
   2  -7  -4   76.34    4.30   1
  -2  -7   4   80.06    4.65   1
   2  -7  -4   75.49    4.28   1
  -2  -7   4   78.88    4.22   1
   2   7  -3    7.09    0.96   1
  -2   7   3    6.57    0.56   1
  -2   7   3    6.41    0.54   1
   2   7  -3    7.29    0.78   1
  -2   7   3    7.65    0.54   1
   2   7  -3    7.44    0.79   1
   2   7  -3    5.81    0.57   1
   2  -7  -3    8.08    0.88   1
   2  -7  -3    7.55    0.86   1
  -2  -7   3    8.29    0.64   1
  -2  -7   3    6.00    0.72   1
  -2  -7   3    6.66    1.09   1
  -2  -7   3    6.49    0.82   1
   2   7  -2    1.76    0.27   1
  -2   7   2    1.63    0.24   1
   2   7  -2    1.61    0.24   1
   2   7  -2    1.14    0.36   1
   2   7  -2    1.96    0.41   1
  -2   7   2    2.02    0.25   1
  -2   7   2    1.82    0.28   1
   2   7  -2    2.32    0.60   1
  -2  -7   2    1.74    0.68   1
   2  -7  -2    2.47    0.56   1
  -2  -7   2    1.45    0.44   1
   2  -7  -2    2.46    0.55   1
  -2  -7   2    1.21    0.46   1
   2  -7  -2    2.05    0.49   1
  -2  -7   2    2.13    0.38   1
  -2   7   1   57.05    2.88   1
  -2   7   1   56.66    2.88   1
  -2   7   1   56.39    2.92   1
   2   7  -1   57.61    3.26   1
   2   7  -1   54.84    2.80   1
   2   7  -1   56.04    3.06   1
   2   7  -1   57.85    2.80   1
   2  -7  -1   55.64    3.20   1
   2  -7  -1   54.73    3.12   1
  -2  -7   1   54.45    3.14   1
   2  -7  -1   53.96    3.14   1
  -2  -7   1   57.74    3.06   1
  -2  -7   1   60.24    3.09   1
  -2  -7   1   59.41    3.47   1
  -2   7   0    7.99    0.55   1
   2   7   0    8.23    0.46   1
  -2   7   0    7.94    0.58   1
  -2   7   0    7.81    0.60   1
   2  -7   0    9.48    1.13   1
  -2  -7   0    8.32    0.81   1
   2  -7   0    8.16    0.88   1
  -2  -7   0    8.23    0.77   1
  -2  -7   0    8.39    0.84   1
   2  -7   0    7.67    0.81   1
  -2  -7   0    8.32    1.08   1
   2  -7   0    8.56    0.87   1
  -2   7  -1  106.95    5.37   1
  -2   7  -1  104.63    5.59   1
   2   7   1  108.36    5.20   1
  -2   7  -1  108.63    5.38   1
   2  -7   1   98.16    5.57   1
  -2  -7  -1  105.06    5.48   1
   2  -7   1  103.80    5.50   1
  -2  -7  -1  106.20    5.47   1
  -2  -7  -1  106.58    5.51   1
  -2  -7  -1  108.90    5.68   1
   2  -7   1  106.67    5.88   1
   2  -7   1  102.02    5.55   1
   2   7   2    3.19    0.24   1
  -2   7  -2    2.28    0.42   1
   2   7   2    2.69    0.23   1
  -2   7  -2    1.81    0.44   1
   2   7   2    3.45    0.30   1
  -2   7  -2    3.25    0.65   1
   2  -7   2    2.99    0.54   1
  -2  -7  -2    2.40    0.54   1
  -2  -7  -2    2.69    0.58   1
  -2  -7  -2    3.17    0.53   1
   2  -7   2    2.47    0.81   1
   2  -7   2    1.87    0.54   1
  -2  -7  -2    2.52    0.50   1
   2  -7   2    1.75    0.54   1
  -2   7  -3   21.98    1.42   1
   2   7   3   21.63    1.24   1
  -2   7  -3   22.49    1.58   1
  -2   7  -3   19.26    1.45   1
   2   7   3   23.06    1.22   1
   2   7   3   20.20    1.26   1
   2  -7   3   24.23    1.57   1
   2  -7   3   21.48    1.56   1
  -2  -7  -3   23.40    1.49   1
   2  -7   3   19.75    1.85   1
   2  -7   3   21.34    1.43   1
   2   7   4   14.15    0.99   1
  -2   7  -4   15.21    1.21   1
   2   7   4   14.67    1.00   1
  -2   7  -4   14.90    1.26   1
  -2   7  -4   14.80    1.19   1
   2  -7   4   15.84    1.73   1
   2  -7   4   13.58    1.24   1
   2  -7   4   13.39    1.11   1
   2  -7   4   12.13    1.24   1
  -2   7  -5   -0.16    0.49   1
  -2   7  -5    0.09    0.49   1
  -2   7  -5    0.38    0.49   1
   2   7   5   -0.38    0.31   1
  -2   7  -5    0.20    0.45   1
   2   7   5    0.31    0.31   1
   2  -7   5    0.50    0.53   1
   2  -7   5    0.38    0.53   1
   2  -7   5    0.41    0.43   1
   2  -7   5    0.06    0.62   1
   2   7   6   37.33    2.22   1
  -2   7  -6   37.65    2.49   1
  -2   7  -6   37.21    2.61   1
  -2   7  -6   44.31    2.47   1
  -2   7  -6   32.82    2.45   1
   2   7   6   30.29    2.23   1
   2  -7   6   38.37    2.28   1
   2  -7   6   39.52    2.50   1
   2  -7   6   41.91    2.60   1
   2   7   7    0.16    0.43   1
  -2   7  -7    0.13    0.60   1
  -2   7  -7   -0.16    0.50   1
  -2   7  -7    0.18    0.66   1
  -2   7  -7    0.29    0.64   1
   2   7   7    0.43    0.53   1
   2  -7   7   -0.51    0.62   1
   2  -7   7    0.27    0.68   1
   2   7   8   23.46    1.78   1
  -2   7  -8   24.59    2.03   1
  -2   7  -8   23.60    1.99   1
   2   7   8   21.10    1.61   1
  -2   7  -8   20.29    2.16   1
  -2   7  -8   20.59    1.76   1
   2  -7   8   22.08    2.05   1
   2  -7   8   19.06    2.00   1
  -2   7  -9    0.55    0.65   1
   2   7   9    1.73    0.71   1
  -2   7  -9    2.77    0.96   1
  -2   7  -9    0.79    0.72   1
   2   7   9    0.75    0.55   1
  -2   7  -9    2.32    0.92   1
   2  -7   9    0.17    0.91   1
   2  -7   9    1.04    0.77   1
  -2   7 -10    2.56    0.98   1
   2   7  10    1.35    0.72   1
   2   7  10    0.18    0.59   1
  -2   7 -10    1.50    0.84   1
  -2   7 -10   -0.45    0.75   1
   2  -7  10    3.03    1.14   1
   2  -7  10    2.74    0.89   1
  -2   8  11    4.38    0.96   1
  -2   8  11    4.58    1.06   1
   2   8 -11   10.38    1.85   1
   2   8 -11    6.21    1.24   1
  -2  -8  11    5.45    1.38   1
  -2  -8  11    6.58    1.25   1
   2   8 -10   11.97    1.71   1
   2   8 -10   13.71    1.54   1
   2   8 -10   12.30    1.53   1
  -2   8  10   13.45    1.42   1
  -2   8  10   13.16    1.46   1
   2   8 -10   13.88    1.71   1
  -2  -8  10   10.60    1.49   1
  -2  -8  10   14.15    1.81   1
  -2  -8  10   12.12    1.69   1
  -2   8   9    6.75    0.98   1
   2   8  -9    6.05    1.31   1
  -2   8   9    6.04    1.00   1
   2   8  -9    8.09    1.16   1
   2   8  -9    8.14    1.18   1
   2   8  -9    4.73    1.14   1
  -2  -8   9    6.69    1.27   1
  -2  -8   9    6.21    1.29   1
  -2  -8   9    5.49    1.11   1
  -2   8   8    1.60    0.59   1
   2   8  -8    1.53    0.77   1
   2   8  -8    1.15    0.67   1
   2   8  -8    1.74    0.73   1
  -2   8   8    1.48    0.64   1
   2   8  -8    1.07    0.87   1
  -2  -8   8    2.22    0.86   1
  -2  -8   8    0.63    0.70   1
  -2  -8   8    1.83    0.93   1
   2   8  -7   17.78    1.57   1
  -2   8   7   16.08    1.31   1
   2   8  -7   13.96    1.52   1
  -2   8   7   16.84    1.34   1
   2   8  -7   15.41    1.93   1
   2   8  -7   18.51    1.46   1
  -2  -8   7   19.08    1.84   1
   2  -8  -7   15.56    1.59   1
  -2  -8   7   19.43    1.80   1
  -2  -8   7   16.01    1.50   1
  -2   8   6    4.69    0.71   1
   2   8  -6    5.70    0.91   1
   2   8  -6    4.12    0.77   1
   2   8  -6    4.99    1.11   1
   2   8  -6    4.05    0.75   1
  -2   8   6    3.63    0.57   1
  -2  -8   6    6.49    1.08   1
  -2  -8   6    6.20    1.18   1
   2  -8  -6    5.36    0.90   1
  -2  -8   6    4.53    0.77   1
  -2   8   5   48.72    2.86   1
   2   8  -5   54.85    3.01   1
   2   8  -5   50.97    3.04   1
   2   8  -5   49.55    3.30   1
   2   8  -5   50.50    2.89   1
  -2   8   5   49.77    2.77   1
  -2  -8   5   54.99    3.45   1
  -2  -8   5   53.91    3.01   1
   2  -8  -5   51.07    3.07   1
  -2  -8   5   50.50    3.16   1
   2   8  -4    4.10    0.90   1
   2   8  -4    5.17    0.70   1
  -2   8   4    5.64    0.59   1
   2   8  -4    6.39    0.82   1
  -2   8   4    4.24    0.49   1
   2  -8  -4    4.74    0.77   1
  -2  -8   4    4.39    0.72   1
  -2  -8   4    5.11    1.09   1
  -2  -8   4    4.53    0.82   1
   2  -8  -4    6.55    0.88   1
   2   8  -3   15.87    1.21   1
  -2   8   3   18.43    1.11   1
  -2   8   3   18.81    1.10   1
   2   8  -3   19.50    1.14   1
   2   8  -3   20.59    1.62   1
   2   8  -3   17.56    1.31   1
  -2  -8   3   19.89    1.47   1
  -2  -8   3   19.67    1.35   1
  -2  -8   3   15.23    1.81   1
   2  -8  -3   17.44    1.42   1
  -2  -8   3   18.60    1.21   1
   2  -8  -3   19.25    1.42   1
  -2   8   2   16.50    0.99   1
   2   8  -2   16.63    1.21   1
   2   8  -2   19.07    1.05   1
  -2   8   2   17.29    0.99   1
   2   8  -2   16.23    1.05   1
   2   8  -2   18.46    1.48   1
   2   8  -2   17.59    1.00   1
  -2   8   2   17.15    1.01   1
   2  -8  -2   16.72    1.34   1
  -2  -8   2   13.61    1.67   1
  -2  -8   2   16.14    1.34   1
  -2  -8   2   17.22    1.19   1
  -2  -8   2   17.37    1.27   1
   2  -8  -2   17.60    1.32   1
   2  -8  -2   16.46    1.35   1
  -2   8   1    1.94    0.26   1
   2   8  -1    2.05    0.46   1
   2   8  -1    2.06    0.20   1
  -2   8   1    2.03    0.30   1
   2   8  -1    1.63    0.18   1
   2   8  -1    2.38    0.65   1
  -2   8   1    1.79    0.27   1
   2  -8  -1    1.84    0.53   1
   2  -8  -1    1.79    0.54   1
  -2  -8   1    2.54    0.57   1
  -2  -8   1    2.35    0.78   1
  -2  -8   1    1.73    0.48   1
   2  -8  -1    1.97    0.60   1
  -2  -8   1    0.56    0.46   1
  -2   8   0   76.60    3.86   1
   2   8   0   80.01    4.25   1
  -2   8   0   74.26    3.83   1
  -2  -8   0   74.02    4.03   1
   2  -8   0   74.90    4.13   1
   2  -8   0   72.97    4.07   1
  -2  -8   0   77.30    4.11   1
  -2  -8   0   76.80    4.36   1
   2  -8   0   70.74    4.16   1
  -2  -8   0   74.92    4.04   1
  -2   8  -1    5.08    0.53   1
  -2   8  -1    5.66    0.56   1
  -2   8  -1    4.91    0.77   1
  -2  -8  -1    4.65    0.67   1
   2  -8   1    5.25    0.71   1
   2  -8   1    3.34    0.67   1
   2  -8   1    4.96    1.00   1
  -2  -8  -1    4.37    0.79   1
  -2  -8  -1    3.99    0.71   1
   2  -8   1    6.50    0.84   1
  -2  -8  -1    5.00    0.69   1
   2   8   2   54.06    2.61   1
  -2   8  -2   52.31    2.82   1
  -2   8  -2   52.28    3.06   1
   2   8   2   52.90    2.59   1
  -2   8  -2   52.32    2.86   1
   2  -8   2   50.28    2.92   1
  -2  -8  -2   51.89    2.99   1
  -2  -8  -2   50.67    3.04   1
   2  -8   2   48.13    3.03   1
   2  -8   2   46.91    3.37   1
  -2  -8  -2   51.12    2.93   1
  -2  -8  -2   54.03    2.94   1
   2  -8   2   50.86    3.03   1
  -2   8  -3    8.27    1.05   1
  -2   8  -3    8.36    0.83   1
   2   8   3    9.71    0.67   1
  -2   8  -3    5.93    0.83   1
   2  -8   3    8.06    1.01   1
   2  -8   3    7.77    1.00   1
  -2  -8  -3    9.92    1.02   1
   2  -8   3    8.67    1.38   1
   2  -8   3   10.11    0.94   1
  -2   8  -4    5.46    0.83   1
  -2   8  -4    7.29    0.86   1
   2   8   4    6.50    0.61   1
   2   8   4    6.29    0.64   1
  -2   8  -4    6.46    0.97   1
   2  -8   4    6.76    0.96   1
   2  -8   4    6.84    1.30   1
   2  -8   4    6.34    0.93   1
   2  -8   4    6.96    0.82   1
  -2   8  -5   24.28    2.05   1
  -2   8  -5   24.79    1.83   1
  -2   8  -5   28.40    1.98   1
   2   8   5   25.30    1.62   1
  -2   8  -5   29.42    1.92   1
   2   8   5   25.82    1.63   1
   2  -8   5   25.98    1.92   1
   2  -8   5   25.49    1.98   1
   2  -8   5   27.37    1.77   1
  -2   8  -6    0.00    0.57   1
  -2   8  -6    0.41    0.59   1
  -2   8  -6    0.09    0.54   1
   2   8   6    0.01    0.36   1
  -2   8  -6    0.16    0.53   1
   2   8   6    0.75    0.47   1
   2  -8   6   -0.23    0.42   1
   2  -8   6   -0.01    0.63   1
   2  -8   6    0.52    0.70   1
  -2   8  -7   25.61    2.19   1
   2   8   7   25.13    1.71   1
  -2   8  -7   22.18    1.96   1
   2   8   7   21.84    1.76   1
  -2   8  -7   27.15    1.93   1
  -2   8  -7   25.82    2.05   1
   2  -8   7   25.80    2.07   1
   2  -8   7   25.05    2.14   1
  -2   8  -8    0.20    0.73   1
  -2   8  -8    0.46    0.60   1
  -2   8  -8    0.99    0.82   1
   2   8   8    1.42    0.56   1
  -2   8  -8    2.47    0.89   1
   2   8   8    1.15    0.66   1
   2  -8   8    0.65    0.80   1
   2  -8   8    1.22    0.83   1
  -2   8  -9    6.91    1.38   1
  -2   8  -9    6.86    1.34   1
   2   8   9    6.77    0.99   1
  -2   8  -9    7.88    1.17   1
   2   8   9    7.70    1.15   1
  -2   8  -9    8.25    1.31   1
   2  -8   9    8.67    1.41   1
   2  -8   9    6.78    1.34   1
   2   8  10    3.69    1.00   1
  -2   8 -10    4.91    1.24   1
   2   8  10    2.81    0.79   1
   2  -8  10    3.97    1.26   1
   2  -8  10    4.36    1.20   1
   2   9 -10    3.80    1.05   1
  -2   9  10    5.45    0.99   1
  -2   9  10    4.43    0.90   1
   2   9 -10    6.52    1.13   1
  -2  -9  10    7.39    1.24   1
  -2  -9  10    5.78    1.42   1
  -2  -9  10    6.59    1.35   1
   2   9  -9    0.25    0.79   1
   2   9  -9    0.73    0.61   1
   2   9  -9   -1.34    0.59   1
  -2   9   9    0.65    0.55   1
  -2   9   9   -0.60    0.53   1
   2   9  -9   -0.11    0.59   1
  -2  -9   9   -0.02    0.72   1
  -2  -9   9    1.04    0.97   1
  -2  -9   9   -0.58    0.73   1
  -2   9   8   35.32    2.42   1
   2   9  -8   36.24    2.52   1
   2   9  -8   39.24    3.03   1
   2   9  -8   35.08    2.71   1
  -2   9   8   36.61    2.35   1
   2   9  -8   38.50    2.56   1
  -2  -9   8   34.00    2.81   1
  -2  -9   8   39.77    2.61   1
  -2  -9   8   39.57    2.88   1
   2   9  -7    7.96    1.11   1
  -2   9   7    8.02    0.93   1
  -2   9   7    6.99    0.92   1
   2   9  -7    9.05    1.24   1
   2   9  -7    9.32    1.53   1
   2   9  -7    9.26    1.16   1
  -2  -9   7   10.70    1.54   1
   2  -9  -7   11.05    1.35   1
  -2  -9   7    9.94    1.22   1
  -2  -9   7   10.93    1.45   1
  -2   9   6   10.65    1.33   1
   2   9  -6    9.27    1.21   1
   2   9  -6    7.33    1.37   1
   2   9  -6   10.01    1.13   1
  -2   9   6    7.78    0.83   1
   2   9  -6    7.23    1.01   1
  -2  -9   6    9.15    1.50   1
  -2  -9   6   10.27    1.35   1
   2  -9  -6    9.50    1.24   1
  -2  -9   6    9.38    1.13   1
   2   9  -5    0.12    0.38   1
   2   9  -5   -0.03    0.49   1
   2   9  -5    1.06    0.73   1
   2   9  -5   -0.30    0.42   1
  -2   9   5    0.15    0.30   1
  -2  -9   5    0.76    0.79   1
  -2  -9   5   -0.50    0.51   1
   2  -9  -5   -0.55    0.56   1
  -2  -9   5    0.44    0.55   1
   2   9  -4    0.03    0.58   1
  -2   9   4    0.21    0.25   1
   2   9  -4    0.74    0.47   1
   2   9  -4    0.07    0.35   1
   2   9  -4    0.41    0.34   1
   2  -9  -4   -0.07    0.52   1
  -2  -9   4   -0.28    0.53   1
   2  -9  -4    0.42    0.57   1
  -2  -9   4    0.28    0.52   1
  -2  -9   4   -0.18    0.73   1
   2   9  -3   76.98    4.01   1
   2   9  -3   71.18    3.76   1
   2   9  -3   73.16    4.28   1
  -2   9   3   73.03    3.70   1
   2   9  -3   73.03    3.75   1
  -2  -9   3   69.14    4.09   1
   2  -9  -3   71.04    4.05   1
  -2  -9   3   72.34    4.52   1
  -2  -9   3   70.25    3.97   1
   2  -9  -3   67.13    4.05   1
   2   9  -2   14.72    1.22   1
   2   9  -2   15.12    1.47   1
  -2   9   2   15.99    0.96   1
   2   9  -2   15.57    0.96   1
  -2  -9   2   15.21    1.21   1
  -2  -9   2   15.79    1.25   1
   2  -9  -2   16.83    1.39   1
  -2  -9   2   18.12    1.41   1
   2  -9  -2   15.10    1.44   1
  -2  -9   2   16.96    1.87   1
   2  -9  -2   15.98    1.33   1
   2   9  -1   49.01    2.91   1
  -2   9   1   52.79    2.68   1
   2   9  -1   53.90    2.62   1
   2   9  -1   55.12    3.21   1
   2   9  -1   50.73    2.60   1
  -2  -9   1   49.67    2.93   1
   2  -9  -1   45.87    3.00   1
   2  -9  -1   48.80    3.01   1
  -2  -9   1   53.37    2.93   1
  -2  -9   1   52.41    3.38   1
   2  -9  -1   50.51    3.07   1
  -2  -9   1   52.63    3.05   1
  -2   9   0   19.87    1.20   1
   2   9   0   21.34    1.66   1
  -2   9   0   21.35    1.43   1
   2   9   0   18.04    1.37   1
  -2   9   0   21.83    1.61   1
  -2  -9   0   21.27    1.49   1
  -2  -9   0   20.37    1.55   1
   2  -9   0   22.79    1.53   1
   2  -9   0   18.80    1.53   1
   2  -9   0   18.79    1.58   1
  -2  -9   0   23.43    1.83   1
  -2  -9   0   20.67    1.48   1
   2   9   1    0.08    0.37   1
  -2   9  -1    0.10    0.27   1
  -2   9  -1    0.18    0.46   1
  -2   9  -1   -0.20    0.24   1
  -2  -9  -1   -0.26    0.38   1
   2  -9   1    0.21    0.51   1
  -2  -9  -1   -0.27    0.52   1
  -2  -9  -1    0.83    0.46   1
   2  -9   1   -1.05    0.37   1
  -2  -9  -1   -0.21    0.41   1
   2  -9   1   -0.43    0.42   1
  -2   9  -2   29.85    2.05   1
  -2   9  -2   32.29    1.83   1
   2   9   2   29.21    1.55   1
  -2   9  -2   30.87    1.77   1
   2   9   2   29.60    1.52   1
  -2  -9  -2   29.42    1.91   1
   2  -9   2   27.53    1.91   1
  -2  -9  -2   28.72    2.06   1
  -2  -9  -2   28.18    1.96   1
   2  -9   2   29.60    2.08   1
   2  -9   2   29.93    2.47   1
   2  -9   2   28.53    2.02   1
   2   9   3    7.71    0.60   1
  -2   9  -3    6.33    0.97   1
  -2   9  -3    5.93    0.81   1
  -2   9  -3    7.01    0.77   1
   2  -9   3    7.07    1.35   1
   2  -9   3    5.49    0.81   1
   2  -9   3    5.40    0.94   1
  -2  -9  -3    6.78    0.94   1
   2  -9   3    7.43    1.01   1
  -2   9  -4   53.36    3.14   1
  -2   9  -4   55.58    3.37   1
  -2   9  -4   49.53    3.20   1
  -2   9  -4   56.81    3.57   1
   2   9   4   59.78    3.00   1
   2  -9   4   52.92    3.39   1
   2  -9   4   56.58    3.18   1
   2  -9   4   57.23    3.37   1
  -2   9  -5   25.77    2.04   1
  -2   9  -5   32.43    2.22   1
  -2   9  -5   33.46    2.08   1
  -2   9  -5   28.85    2.32   1
   2   9   5   28.60    1.80   1
   2  -9   5   30.71    2.27   1
   2  -9   5   27.86    2.15   1
   2  -9   5   29.38    1.98   1
  -2   9  -6    1.30    0.79   1
  -2   9  -6    0.91    0.69   1
   2   9   6    0.84    0.43   1
  -2   9  -6    1.25    0.72   1
  -2   9  -6    0.35    0.61   1
   2  -9   6    1.05    0.83   1
   2  -9   6    0.68    0.71   1
  -2   9  -7    1.12    0.76   1
  -2   9  -7    2.20    0.99   1
  -2   9  -7    1.07    0.68   1
   2   9   7    0.77    0.47   1
  -2   9  -7    0.07    0.65   1
   2  -9   7    0.61    0.75   1
   2  -9   7    1.18    0.87   1
   2   9   8    0.37    0.50   1
  -2   9  -8    1.68    0.84   1
  -2   9  -8    1.16    0.70   1
  -2   9  -8    2.01    0.94   1
  -2   9  -8   -0.01    0.76   1
   2  -9   8    0.90    0.85   1
   2  -9   8    1.45    0.96   1
  -2   9  -9   20.54    1.76   1
  -2   9  -9   18.99    2.06   1
   2   9   9   16.74    1.62   1
   2  -9   9   17.36    2.02   1
   2  -9   9   18.22    2.11   1
   2  10  -9    0.05    0.86   1
  -2  10   9    1.55    0.71   1
   2  10  -9    0.40    0.74   1
   2  10  -9    0.01    0.61   1
  -2 -10   9    0.49    0.70   1
  -2 -10   9    0.26    1.08   1
  -2 -10   9    0.66    0.97   1
   2  10  -8    0.63    0.81   1
  -2  10   8    0.37    0.55   1
   2  10  -8    0.18    0.61   1
   2  10  -8   -0.13    0.74   1
   2  10  -8   -0.13    0.54   1
  -2 -10   8   -0.15    0.78   1
  -2 -10   8    1.51    1.00   1
  -2 -10   8   -0.94    0.63   1
   2  10  -7    0.22    0.69   1
   2  10  -7    0.70    0.81   1
   2  10  -7   -0.38    0.51   1
   2  10  -7    0.07    0.56   1
  -2  10   7   -0.91    0.40   1
  -2 -10   7    0.03    0.74   1
  -2 -10   7   -0.03    0.79   1
   2 -10  -7    1.71    0.79   1
  -2 -10   7    0.18    0.58   1
   2  10  -6   23.39    1.88   1
   2  10  -6   25.64    1.87   1
  -2  10   6   27.86    1.72   1
   2  10  -6   27.02    2.41   1
   2  10  -6   28.66    2.05   1
   2 -10  -6   27.98    2.12   1
  -2 -10   6   26.05    2.21   1
  -2 -10   6   25.42    2.38   1
  -2 -10   6   25.40    1.92   1
   2  10  -5   51.88    3.54   1
   2  10  -5   59.33    3.22   1
   2  10  -5   50.93    2.97   1
  -2  10   5   50.05    2.81   1
   2  10  -5   45.55    2.98   1
  -2 -10   5   51.03    3.66   1
   2 -10  -5   51.74    3.27   1
  -2 -10   5   54.07    3.36   1
  -2 -10   5   51.54    3.13   1
   2  10  -4    0.25    0.44   1
   2  10  -4   -0.30    0.62   1
   2  10  -4   -0.24    0.33   1
  -2  10   4    0.33    0.29   1
  -2 -10   4    0.91    0.65   1
   2 -10  -4    0.17    0.58   1
  -2 -10   4    0.88    0.58   1
  -2 -10   4    0.51    0.83   1
  -2  10   3   16.83    1.06   1
   2  10  -3   18.31    1.74   1
   2  10  -3   16.25    1.14   1
   2  10  -3   17.33    1.40   1
  -2 -10   3   17.99    1.47   1
  -2 -10   3   17.91    2.13   1
   2 -10  -3   16.02    1.56   1
  -2 -10   3   17.28    1.54   1
   2 -10  -3   16.24    1.60   1
   2  10  -2    3.79    0.44   1
   2  10  -2    3.94    0.92   1
   2  10  -2    4.25    0.73   1
  -2  10   2    3.77    0.43   1
  -2 -10   2    4.40    1.14   1
  -2 -10   2    3.46    0.83   1
  -2 -10   2    3.69    0.75   1
   2 -10  -2    3.75    0.82   1
   2 -10  -2    6.24    0.96   1
  -2 -10   2    4.73    0.84   1
   2  10  -1   24.11    1.70   1
  -2  10   1   25.73    1.45   1
   2  10  -1   25.64    1.37   1
   2  10  -1   29.50    2.08   1
   2 -10  -1   22.87    1.90   1
   2 -10  -1   22.36    1.83   1
  -2 -10   1   25.29    1.78   1
  -2 -10   1   25.17    1.76   1
  -2 -10   1   28.20    1.92   1
  -2 -10   1   28.12    2.27   1
   2 -10  -1   24.57    1.85   1
  -2  10   0   41.56    2.25   1
   2  10   0   36.84    2.09   1
  -2  10   0   43.73    2.70   1
   2  10   0   43.04    2.08   1
   2  10   0   40.11    2.48   1
   2  10   0   43.26    2.78   1
   2 -10   0   39.84    2.64   1
  -2 -10   0   43.40    2.63   1
  -2 -10   0   41.70    2.56   1
   2 -10   0   41.44    2.73   1
   2 -10   0   41.37    2.57   1
  -2 -10   0   48.27    2.98   1
  -2 -10   0   42.66    2.56   1
  -2  10  -1    1.95    0.69   1
   2  10   1    2.37    0.54   1
   2  10   1    3.33    0.75   1
  -2  10  -1    3.84    0.49   1
  -2 -10  -1    2.02    0.67   1
   2 -10   1    1.81    0.66   1
   2 -10   1    0.35    0.61   1
   2 -10   1    1.47    0.60   1
  -2 -10  -1    2.00    0.64   1
  -2 -10  -1    3.10    0.81   1
  -2 -10  -1    2.01    0.63   1
   2  10   2   43.18    2.30   1
  -2  10  -2   44.71    2.55   1
   2 -10   2   44.26    2.91   1
  -2 -10  -2   45.94    2.82   1
  -2 -10  -2   44.93    2.76   1
   2 -10   2   48.36    2.89   1
  -2 -10  -2   45.82    2.92   1
  -2  10  -3    9.81    1.06   1
  -2  10  -3    8.29    1.18   1
  -2  10  -3   10.43    0.93   1
   2  10   3   11.58    0.77   1
   2 -10   3    9.82    1.28   1
   2 -10   3   10.48    1.28   1
   2 -10   3   10.05    1.14   1
  -2  10  -4    5.95    1.16   1
  -2  10  -4    4.43    0.82   1
   2  10   4    4.72    0.56   1
  -2  10  -4    3.59    0.65   1
  -2  10  -4    4.27    0.92   1
   2 -10   4    3.79    0.91   1
   2 -10   4    4.35    0.79   1
   2 -10   4    4.50    1.01   1
  -2  10  -5    6.44    1.21   1
  -2  10  -5    5.60    0.88   1
   2  10   5    6.94    0.75   1
  -2  10  -5    6.38    1.12   1
  -2  10  -5    4.89    0.93   1
   2 -10   5    4.98    1.03   1
   2 -10   5    5.55    1.11   1
  -2  10  -6    8.07    1.15   1
  -2  10  -6    7.20    1.18   1
   2  10   6    7.48    0.88   1
  -2  10  -6    7.41    1.40   1
  -2  10  -6    9.03    1.18   1
   2 -10   6    7.66    1.36   1
   2 -10   6    8.13    1.26   1
  -2  10  -7   32.46    2.89   1
  -2  10  -7   35.29    2.54   1
  -2  10  -7   37.39    2.53   1
   2  10   7   35.42    2.25   1
  -2  10  -7   36.73    2.69   1
   2 -10   7   37.66    2.87   1
   2 -10   7   35.19    2.69   1
   2  10   8    2.04    0.65   1
  -2  10  -8    1.55    0.91   1
  -2  10  -8    1.86    0.80   1
   2 -10   8    1.91    0.99   1
   2 -10   8    0.72    1.02   1
   2  11  -8   14.09    1.52   1
   2  11  -8   12.22    1.48   1
  -2  11   8   12.19    1.38   1
  -2 -11   8   14.00    1.54   1
  -2 -11   8   14.69    1.99   1
  -2 -11   8   11.80    1.95   1
  -2  11   7    5.27    0.87   1
   2  11  -7    6.47    0.97   1
   2  11  -7    6.11    1.38   1
  -2 -11   7    4.96    0.99   1
  -2 -11   7    4.93    1.36   1
  -2 -11   7    5.45    1.29   1
  -2  11   6   -0.81    0.34   1
   2  11  -6    0.43    0.82   1
   2  11  -6    0.47    0.53   1
   2 -11  -6    0.86    0.76   1
  -2 -11   6    0.45    0.57   1
  -2 -11   6    0.16    0.93   1
  -2 -11   6    0.34    0.80   1
  -2  11   5    1.46    0.41   1
   2  11  -5    0.50    0.52   1
   2  11  -5    0.99    0.87   1
  -2 -11   5    1.17    1.01   1
  -2 -11   5    1.37    0.69   1
  -2 -11   5    1.49    0.89   1
   2 -11  -5    2.35    0.85   1
  -2  11   4    7.48    0.67   1
   2  11  -4    4.90    0.81   1
   2  11  -4    6.70    1.27   1
  -2 -11   4    5.11    1.40   1
  -2 -11   4    6.60    1.02   1
  -2 -11   4    6.50    1.16   1
   2 -11  -4    7.47    1.18   1
   2  11  -3   26.36    2.20   1
  -2  11   3   23.02    1.40   1
   2  11  -3   24.22    1.57   1
  -2 -11   3   23.91    1.96   1
   2 -11  -3   26.45    1.98   1
  -2 -11   3   26.38    2.72   1
  -2 -11   3   22.34    1.82   1
   2 -11  -3   22.35    1.89   1
  -2  11   2    4.00    0.48   1
   2  11  -2    5.25    0.57   1
   2  11  -2    5.13    1.17   1
  -2 -11   2    4.64    1.31   1
   2 -11  -2    5.39    0.96   1
   2 -11  -2    5.14    0.98   1
  -2 -11   2    5.93    1.01   1
  -2 -11   2    5.45    0.89   1
  -2  11   1    7.25    0.65   1
   2  11  -1    9.13    1.35   1
  -2  11   1    6.13    1.03   1
  -2 -11   1    6.91    1.40   1
   2 -11  -1    6.69    1.12   1
  -2 -11   1    7.92    1.15   1
   2 -11  -1    8.73    1.19   1
  -2 -11   1    7.09    1.01   1
  -2 -11   1    6.36    1.00   1
   2 -11  -1   10.20    1.19   1
  -2  11   0   13.91    0.95   1
  -2  11   0   11.68    1.36   1
   2  11   0   13.01    0.73   1
   2  11   0   16.52    1.71   1
   2 -11   0   12.09    1.32   1
   2 -11   0   14.54    1.60   1
  -2 -11   0   13.75    1.73   1
  -2 -11   0   15.08    1.48   1
   2 -11   0   11.84    1.40   1
  -2 -11   0   12.14    1.34   1
  -2 -11   0   13.93    1.38   1
  -2  11  -1    7.28    0.71   1
  -2  11  -1    5.82    1.01   1
  -2 -11  -1    6.95    1.01   1
   2 -11   1    7.37    1.13   1
   2 -11   1    6.48    0.97   1
  -2 -11  -1    6.73    0.99   1
  -2 -11  -1    7.64    1.04   1
  -2 -11  -1    6.49    1.13   1
   2 -11   1    9.64    1.26   1
   2  11   2   10.44    0.60   1
  -2  11  -2   10.35    1.28   1
  -2  11  -2    9.56    0.93   1
   2 -11   2    9.29    1.28   1
   2 -11   2   10.58    1.39   1
  -2 -11  -2    9.61    1.33   1
   2 -11   2    8.86    1.11   1
  -2  11  -3    0.49    0.46   1
   2  11   3    0.21    0.24   1
  -2  11  -3    0.65    0.59   1
  -2  11  -3    0.95    0.71   1
   2 -11   3    0.17    0.70   1
   2 -11   3    1.28    0.63   1
   2 -11   3   -1.22    0.64   1
   2  11   4   13.38    1.01   1
  -2  11  -4   14.63    1.59   1
  -2  11  -4   13.75    1.72   1
  -2  11  -4   15.44    1.44   1
   2 -11   4   15.59    1.63   1
   2 -11   4   14.39    1.69   1
  -2  11  -5   16.05    1.92   1
  -2  11  -5   14.31    1.31   1
  -2  11  -5   15.83    1.70   1
   2  11   5   14.45    1.14   1
  -2  11  -5   14.61    1.53   1
   2 -11   5   17.09    1.74   1
   2 -11   5   14.11    1.77   1
  -2  11  -6    1.41    0.61   1
   2  11   6    0.72    0.46   1
  -2  11  -6    1.60    0.88   1
  -2  11  -6    1.45    0.78   1
  -2  11  -6    0.28    0.66   1
   2 -11   6   -0.08    0.83   1
   2 -11   6    2.67    1.00   1
  -2  11  -7   -0.10    0.74   1
   2  11   7   -0.38    0.55   1
  -2  11  -7    0.11    0.70   1
   2 -11   7    0.65    1.20   1
   2 -11   7   -0.12    0.84   1
   2  12  -6    1.22    0.64   1
  -2  12   6    1.12    0.56   1
  -2 -12   6    0.99    0.85   1
   2 -12  -6    1.21    0.86   1
  -2 -12   6    0.34    1.19   1
  -2  12   5    1.08    0.40   1
   2  12  -5    0.05    0.49   1
   2  12  -5    1.45    0.92   1
   2 -12  -5    1.01    0.88   1
  -2 -12   5    0.69    0.84   1
  -2 -12   5    2.09    0.74   1
  -2 -12   5   -0.43    1.07   1
   2  12  -4    1.73    0.94   1
   2  12  -4    1.07    0.51   1
  -2  12   4    0.85    0.33   1
  -2 -12   4    0.10    0.59   1
  -2 -12   4    0.00    1.00   1
   2 -12  -4    0.95    0.84   1
  -2 -12   4   -0.25    0.67   1
   2  12  -3    0.76    0.80   1
   2  12  -3   -0.24    0.41   1
  -2  12   3   -0.03    0.26   1
   2 -12  -3    0.12    0.76   1
  -2 -12   3   -1.55    0.83   1
  -2 -12   3   -0.70    0.57   1
   2 -12  -3   -0.73    0.63   1
  -2 -12   3    0.49    0.73   1
  -2  12   2    2.28    0.79   1
   2  12  -2    2.35    0.92   1
   2  12  -2    3.67    0.56   1
  -2  12   2    2.69    0.40   1
  -2 -12   2    3.28    0.96   1
   2 -12  -2    1.81    0.83   1
  -2 -12   2    3.99    0.83   1
   2 -12  -2    3.26    0.94   1
  -2 -12   2    2.47    1.17   1
  -2  12   1    3.45    0.83   1
   2  12  -1    3.18    0.45   1
  -2  12   1    3.63    0.48   1
   2  12  -1    4.07    1.08   1
  -2 -12   1    3.31    0.86   1
  -2 -12   1    3.20    1.09   1
   2 -12  -1    4.15    0.91   1
   2 -12  -1    4.14    0.98   1
  -2 -12   1    2.92    0.79   1
  -2  12   0    0.71    0.61   1
   2  12   0    0.78    0.19   1
  -2  12   0    0.18    0.32   1
   2 -12   0    0.31    0.73   1
   2 -12   0    0.58    0.66   1
  -2 -12   0    0.14    0.53   1
  -2 -12   0    0.46    0.64   1
   2 -12   0    0.69    0.73   1
  -2 -12   0    1.00    0.83   1
  -2  12  -1    1.18    0.64   1
  -2  12  -1    0.22    0.34   1
  -2 -12  -1   -0.52    0.63   1
  -2 -12  -1    0.26    0.73   1
   2 -12   1    1.01    0.79   1
   2 -12   1   -0.22    0.72   1
   2 -12   1    0.50    0.62   1
  -2  12  -2    3.06    0.82   1
  -2  12  -2    1.52    0.48   1
  -2  12  -2    3.14    0.95   1
   2 -12   2    1.63    0.86   1
   2 -12   2    1.17    0.82   1
   2 -12   2    3.76    0.82   1
  -2  12  -3    2.61    0.93   1
  -2  12  -3    2.08    0.83   1
  -2  12  -3    3.00    0.64   1
   2  12   3    2.53    0.31   1
   2 -12   3    3.00    0.95   1
   2 -12   3    4.08    0.99   1
  -2  12  -4   -0.04    0.50   1
  -2  12  -4    0.11    0.61   1
  -2  12  -4    1.99    0.88   1
   2  12   4    0.73    0.31   1
   2 -12   4    0.66    0.80   1
   2 -12   4    1.87    0.85   1
   2  12   5   -0.29    0.39   1
  -2  12  -5    0.32    0.62   1
   2 -12   5    0.44    1.01   1
   2 -12   5   -0.48    0.78   1
  -2  13   4   -0.62    0.35   1
   2  13  -4   -0.14    0.58   1
   2 -13  -4   -0.14    0.76   1
  -2 -13   4   -1.22    1.04   1
  -2 -13   4   -0.89    0.75   1
   2  13  -3    1.34    0.53   1
  -2  13   3    2.37    0.42   1
  -2 -13   3    2.51    1.23   1
   2 -13  -3    2.14    0.88   1
  -2 -13   3    1.86    0.91   1
   2  13  -2    0.61    0.37   1
  -2  13   2    0.49    0.29   1
  -2  13   2    0.23    0.62   1
   2  13  -2    2.07    0.92   1
  -2 -13   2    0.62    0.94   1
   2 -13  -2    0.17    0.76   1
  -2 -13   2    1.56    0.78   1
   2 -13  -2    1.10    0.79   1
  -2  13   1    1.74    0.39   1
  -2  13   1    1.42    0.69   1
   2  13  -1    2.42    0.30   1
   2 -13  -1    1.74    0.91   1
  -2 -13   1    1.87    1.15   1
   2 -13  -1    0.53    0.74   1
  -2 -13   1    1.64    0.83   1
  -2  13   0    0.38    0.34   1
  -2  13   0    0.90    0.68   1
  -2 -13   0    0.06    0.85   1
   2 -13   0   -1.14    0.65   1
   2 -13   0    1.06    0.82   1
   2 -13   0   -0.28    0.63   1
  -2 -13   0   -0.59    0.65   1
  -2  13  -1    0.46    0.61   1
  -2  13  -1   -0.14    0.36   1
   2 -13   1    1.02    0.88   1
   2 -13   1    0.17    0.60   1
   2 -13   1   -0.27    0.73   1
  -2  13  -2    2.15    0.55   1
   2 -13   2    1.02    0.88   1
   2 -13   2    0.53    0.88   1
  -2  13  -3    0.32    0.56   1
   2 -13   3    1.00    0.87   1
   2 -13   3    0.43    0.88   1
   3   0 -13   -0.35    0.57   1
   3   0 -13    0.02    0.59   1
  -3   0  13   -0.32    0.86   1
  -3   0  13    0.46    0.73   1
  -3   0  13   -0.37    0.72   1
  -3   0  12   -0.44    0.57   1
  -3   0  12    0.14    0.67   1
   3   0 -12    0.21    0.63   1
   3   0 -12    0.35    0.72   1
   3   0 -11   -0.41    0.52   1
   3   0 -11    0.14    0.53   1
   3   0 -11   -0.27    0.55   1
  -3   0  11   -1.10    0.48   1
  -3   0  11    0.20    0.63   1
   3   0 -10    0.52    0.54   1
   3   0 -10    0.56    0.60   1
  -3   0  10   -0.12    0.54   1
   3   0 -10   -0.03    0.53   1
  -3   0  10    0.22    0.56   1
  -3   0   9   -0.35    0.48   1
   3   0  -9   -0.20    0.48   1
   3   0  -9   -0.11    0.38   1
   3   0  -9   -0.32    0.46   1
  -3   0   9   -0.92    0.43   1
   3   0  -8   -0.19    0.50   1
   3   0  -8    0.16    0.46   1
  -3   0   8   -0.38    0.33   1
   3   0  -8   -0.21    0.44   1
  -3   0   8    0.21    0.48   1
  -3   0   8   -0.13    0.36   1
   3   0  -7    0.64    0.32   1
  -3   0   7    0.04    0.33   1
   3   0  -7   -0.25    0.39   1
  -3   0   7    0.39    0.47   1
   3   0  -7    0.37    0.48   1
   3   0  -7   -0.31    0.46   1
  -3   0   7    0.27    0.33   1
  -3   0   7   -0.11    0.41   1
   3   0  -6   -0.32    0.35   1
   3   0  -6    0.40    0.43   1
  -3   0   6   -0.17    0.33   1
   3   0  -6    0.24    0.33   1
  -3   0   6    0.06    0.30   1
   3   0  -6   -0.05    0.25   1
  -3   0   6    0.25    0.32   1
   3   0  -5   -0.07    0.26   1
  -3   0   5    0.19    0.25   1
   3   0  -5    0.08    0.33   1
  -3   0   5    0.24    0.29   1
   3   0  -5    0.16    0.22   1
   3   0  -5    0.02    0.37   1
  -3   0   5   -0.19    0.27   1
   3   0  -4   -0.28    0.24   1
  -3   0   4   -0.03    0.27   1
   3   0  -4    0.61    0.40   1
  -3   0   4    0.23    0.26   1
   3   0  -4   -0.08    0.19   1
   3   0  -4   -0.18    0.13   1
  -3   0   4   -0.10    0.20   1
   3   0  -4   -0.31    0.24   1
   3   0  -3    0.16    0.13   1
   3   0  -3   -0.05    0.21   1
  -3   0   3    1.56    0.37   1
  -3   0   3    0.06    0.19   1
   3   0  -3    0.25    0.34   1
   3   0  -3   -0.09    0.20   1
   3   0  -3   -0.09    0.17   1
  -3   0   3    0.01    0.22   1
  -3   0   2   -0.19    0.17   1
   3   0  -2   -0.12    0.24   1
   3   0  -2   -0.03    0.14   1
   3   0  -2   -0.14    0.16   1
   3   0  -2   -0.34    0.19   1
  -3   0   2   -0.05    0.21   1
   3   0  -1   -0.43    0.21   1
   3   0  -1   -0.07    0.17   1
   3   0  -1   -0.05    0.21   1
  -3   0   1    0.12    0.22   1
   3   0  -1   -0.07    0.16   1
  -3   0   1   -0.20    0.17   1
   3   0  -1    0.05    0.11   1
   3   0   0   -0.60    0.19   1
  -3   0   0   -0.61    0.14   1
  -3   0   0   -0.56    0.18   1
   3   0   0   -0.60    0.12   1
   3   0   0   -0.38    0.20   1
  -3   0   0   -0.59    0.19   1
   3   0   0   -0.81    0.21   1
  -3   0  -1    0.28    0.23   1
   3   0   1   -0.06    0.17   1
  -3   0  -1    0.06    0.16   1
   3   0   1   -0.07    0.18   1
  -3   0  -1    0.20    0.18   1
   3   0   1   -0.15    0.20   1
  -3   0  -2   -0.17    0.21   1
   3   0   2    0.17    0.22   1
  -3   0  -2    0.26    0.19   1
   3   0   2   -0.03    0.09   1
   3   0   2    0.00    0.22   1
  -3   0  -2   -0.05    0.22   1
  -3   0  -3    0.16    0.15   1
   3   0   3    0.02    0.11   1
  -3   0  -3    0.11    0.22   1
   3   0   3    0.32    0.24   1
  -3   0  -3    0.08    0.28   1
   3   0   3    0.11    0.26   1
  -3   0  -3    0.05    0.25   1
  -3   0  -4    0.06    0.21   1
  -3   0  -4    0.70    0.37   1
   3   0   4   -0.07    0.31   1
   3   0   4    0.23    0.28   1
  -3   0  -4   -0.38    0.27   1
  -3   0  -4   -0.16    0.17   1
   3   0   4    0.00    0.16   1
  -3   0  -5    0.12    0.21   1
   3   0   5   -0.14    0.33   1
   3   0   5   -0.16    0.19   1
  -3   0  -5    0.06    0.37   1
   3   0   5   -0.11    0.37   1
  -3   0  -5   -0.03    0.40   1
  -3   0  -5    0.11    0.26   1
   3   0   6   -0.32    0.32   1
   3   0   6    0.35    0.49   1
  -3   0  -6    0.31    0.41   1
  -3   0  -6   -0.72    0.36   1
   3   0   6   -0.12    0.24   1
  -3   0  -6    0.07    0.20   1
   3   0   7   -0.77    0.43   1
   3   0   7    0.57    0.45   1
  -3   0  -7   -0.21    0.47   1
  -3   0  -7   -0.04    0.47   1
   3   0   8    1.00    0.64   1
  -3   0  -8    0.10    0.52   1
   3   0   8    0.19    0.44   1
  -3   0  -8    0.38    0.50   1
   3   0   8   -0.06    0.52   1
  -3   0  -9    0.17    0.55   1
   3   0   9   -0.37    0.59   1
   3   0   9    0.17    0.64   1
  -3   0  -9   -0.01    0.59   1
   3   0  10    1.00    0.78   1
  -3   0 -10   -0.09    0.59   1
  -3   0 -10   -0.11    0.58   1
   3   0  10    0.19    0.68   1
   3   0  11    0.34    0.76   1
  -3   0 -11   -0.35    0.52   1
  -3   0 -11   -0.49    0.53   1
   3   0  11    0.06    0.66   1
   3   0  12    0.46    0.66   1
   3   0  12    0.33    0.94   1
  -3   1  13    3.38    1.08   1
  -3   1  13    1.32    0.83   1
   3   1 -13    2.06    0.88   1
   3   1 -13    2.10    0.81   1
  -3  -1  13    2.69    1.01   1
  -3  -1  13    0.93    0.84   1
  -3  -1  13    1.78    0.83   1
   3   1 -12   10.71    1.42   1
   3   1 -12   10.45    1.39   1
  -3   1  12   11.44    1.52   1
  -3   1  12   11.69    1.38   1
   3   1 -12    7.92    1.32   1
  -3  -1  12    9.25    1.31   1
  -3  -1  12   11.67    1.38   1
   3  -1 -12   11.24    1.42   1
  -3  -1  12    9.34    1.36   1
  -3   1  11   -0.09    0.68   1
   3   1 -11    0.69    0.62   1
   3   1 -11   -0.94    0.53   1
  -3   1  11   -0.48    0.58   1
   3   1 -11   -0.63    0.56   1
   3  -1 -11   -0.33    0.42   1
   3  -1 -11   -0.23    0.53   1
  -3  -1  11   -0.40    0.55   1
   3  -1 -11   -0.98    0.48   1
  -3  -1  11    0.46    0.65   1
  -3   1  10    5.28    1.02   1
   3   1 -10    5.39    1.00   1
   3   1 -10    5.12    0.94   1
  -3   1  10    3.52    0.86   1
   3   1 -10    4.55    0.91   1
   3  -1 -10    6.68    0.96   1
  -3  -1  10    5.84    0.96   1
   3  -1 -10    5.23    0.97   1
  -3  -1  10    5.51    0.95   1
   3  -1 -10    5.18    0.92   1
  -3   1   9    1.87    0.53   1
   3   1  -9    2.38    0.69   1
   3   1  -9    1.46    0.62   1
  -3   1   9    1.40    0.62   1
   3   1  -9    0.64    0.58   1
  -3   1   9    1.36    0.62   1
  -3  -1   9    1.57    0.63   1
   3  -1  -9    2.09    0.69   1
  -3  -1   9    1.25    0.62   1
   3  -1  -9    2.10    0.64   1
   3  -1  -9    1.56    0.61   1
  -3   1   8    9.62    1.23   1
   3   1  -8   13.67    1.25   1
  -3   1   8   11.85    1.17   1
   3   1  -8   14.08    1.20   1
   3   1  -8   10.87    1.33   1
   3   1  -8   11.84    1.19   1
  -3  -1   8   13.88    1.19   1
   3  -1  -8   12.01    1.16   1
   3  -1  -8   13.28    1.34   1
  -3  -1   8   13.05    1.16   1
  -3  -1   8   12.46    1.05   1
   3  -1  -8   13.03    1.35   1
  -3   1   7   28.20    1.64   1
   3   1  -7   29.45    1.84   1
   3   1  -7   30.10    1.79   1
  -3   1   7   29.04    1.90   1
   3   1  -7   28.65    1.89   1
   3   1  -7   27.77    1.95   1
  -3   1   7   28.69    1.80   1
   3  -1  -7   30.07    1.88   1
  -3  -1   7   31.05    1.86   1
  -3  -1   7   22.16    1.72   1
  -3  -1   7   24.84    1.84   1
   3  -1  -7   27.27    1.86   1
  -3  -1   7   26.62    1.68   1
   3  -1  -7   23.01    1.84   1
   3   1  -6    3.04    0.60   1
  -3   1   6    2.73    0.51   1
   3   1  -6    2.46    0.61   1
   3   1  -6    2.63    0.47   1
  -3   1   6    2.96    0.43   1
  -3   1   6    2.37    0.47   1
   3   1  -6    2.00    0.49   1
   3  -1  -6    3.65    0.58   1
  -3  -1   6    3.18    0.50   1
  -3  -1   6    2.42    0.52   1
  -3  -1   6    2.98    0.57   1
  -3  -1   6    2.67    0.56   1
   3  -1  -6    3.24    0.62   1
   3  -1  -6    2.32    0.43   1
   3   1  -5   80.41    4.35   1
  -3   1   5   85.33    4.29   1
   3   1  -5   83.94    4.28   1
   3   1  -5   79.97    4.35   1
   3   1  -5   84.88    4.47   1
  -3   1   5   85.88    4.36   1
  -3   1   5   82.32    4.27   1
  -3  -1   5   82.22    4.36   1
   3  -1  -5   83.75    4.21   1
  -3  -1   5   84.18    4.40   1
   3  -1  -5   83.91    4.27   1
   3  -1  -5   82.84    4.35   1
   3  -1  -5   80.13    4.41   1
   3  -1  -5   82.95    4.33   1
  -3  -1   5   84.62    4.36   1
  -3  -1   5   77.13    4.29   1
  -3   1   4   33.01    1.78   1
   3   1  -4   28.49    1.89   1
  -3   1   4   31.19    1.72   1
  -3   1   4   31.44    1.77   1
   3   1  -4   29.99    1.78   1
   3   1  -4   31.37    1.73   1
   3   1  -4   30.32    1.78   1
  -3  -1   4   33.64    1.86   1
  -3  -1   4   31.15    1.75   1
   3  -1  -4   29.82    1.67   1
   3  -1  -4   30.82    1.77   1
   3  -1  -4   32.67    1.86   1
  -3  -1   4   30.91    1.78   1
  -3  -1   4   33.56    1.84   1
  -3   1   3    0.69    0.23   1
   3   1  -3    0.64    0.25   1
   3   1  -3    0.85    0.41   1
   3   1  -3    0.67    0.25   1
  -3   1   3    0.86    0.27   1
   3   1  -3    0.58    0.21   1
   3   1  -3    1.16    0.10   1
   3  -1  -3    0.77    0.21   1
   3  -1  -3    1.26    0.28   1
  -3  -1   3    1.03    0.26   1
   3  -1  -3    1.08    0.23   1
   3  -1  -3    0.52    0.32   1
  -3  -1   3    0.74    0.35   1
  -3  -1   3    0.68    0.26   1
  -3   1   2    2.88    0.33   1
   3   1  -2    1.98    0.31   1
   3   1  -2    2.35    0.19   1
   3   1  -2    3.37    0.46   1
   3   1  -2    2.33    0.25   1
   3   1  -2    1.53    0.26   1
  -3   1   2    2.31    0.29   1
   3  -1  -2    2.24    0.28   1
   3  -1  -2    2.51    0.35   1
   3  -1  -2    2.70    0.34   1
  -3  -1   2    2.28    0.28   1
  -3  -1   2    2.37    0.32   1
   3  -1  -2    2.25    0.28   1
   3  -1  -2    2.08    0.27   1
  -3  -1   2    2.50    0.44   1
  -3   1   1    2.27    0.28   1
  -3   1   1    2.38    0.33   1
   3   1  -1    2.64    0.35   1
   3   1  -1    1.95    0.31   1
   3   1  -1    1.71    0.26   1
  -3  -1   1    2.91    0.45   1
   3  -1  -1    2.09    0.28   1
   3  -1  -1    2.48    0.30   1
  -3  -1   1    2.29    0.20   1
  -3  -1   1    2.38    0.31   1
   3  -1  -1    2.59    0.27   1
   3  -1  -1    1.63    0.33   1
   3  -1  -1    2.17    0.32   1
   3   1   0  163.31    8.22   1
  -3   1   0  170.64    8.28   1
   3   1   0  167.94    8.24   1
   3   1   0  166.72    8.26   1
  -3   1   0  171.14    8.25   1
  -3  -1   0  168.35    8.25   1
  -3  -1   0  170.83    8.34   1
   3  -1   0  169.44    8.24   1
   3  -1   0  165.49    8.27   1
  -3  -1   0  150.74    8.16   1
  -3  -1   0  170.57    8.19   1
   3  -1   0  166.12    8.22   1
   3  -1   0  164.36    8.25   1
  -3   1  -1   31.10    1.70   1
  -3   1  -1   31.88    1.75   1
  -3   1  -1   31.96    1.71   1
   3   1   1   32.60    1.74   1
   3   1   1   32.49    1.70   1
  -3  -1  -1   32.24    1.72   1
   3  -1   1   32.31    1.71   1
   3  -1   1   32.08    1.69   1
   3  -1   1   31.34    1.66   1
  -3  -1  -1   31.32    1.68   1
   3  -1   1   30.57    1.75   1
  -3  -1  -1   32.95    1.78   1
   3   1   2    6.28    0.51   1
   3   1   2    6.21    0.54   1
  -3   1  -2    6.98    0.55   1
  -3   1  -2    5.68    0.51   1
  -3   1  -2    5.71    0.57   1
   3  -1   2    6.31    0.44   1
  -3  -1  -2    6.15    0.55   1
   3  -1   2    5.64    0.57   1
   3  -1   2    5.84    0.50   1
  -3  -1  -2    6.14    0.34   1
  -3  -1  -2    6.03    0.54   1
   3  -1   2    6.09    0.52   1
   3   1   3    1.01    0.31   1
   3   1   3    1.20    0.32   1
   3   1   3    1.23    0.12   1
  -3   1  -3    1.10    0.34   1
  -3   1  -3    0.84    0.31   1
  -3   1  -3    1.32    0.36   1
   3  -1   3    1.26    0.35   1
  -3  -1  -3    1.07    0.10   1
   3  -1   3    1.00    0.22   1
  -3  -1  -3    0.89    0.21   1
  -3  -1  -3    1.15    0.11   1
   3  -1   3    0.45    0.27   1
   3  -1   3    0.97    0.33   1
  -3  -1  -3    0.73    0.28   1
  -3  -1  -3    0.65    0.31   1
   3   1   4   34.38    1.75   1
  -3   1  -4   33.98    1.88   1
   3   1   4   33.42    2.02   1
  -3   1  -4   31.46    1.98   1
   3   1   4   33.45    1.97   1
  -3   1  -4   34.18    2.04   1
  -3   1  -4   34.81    1.96   1
  -3  -1  -4   31.55    1.95   1
  -3  -1  -4   33.23    1.96   1
  -3  -1  -4   34.27    1.87   1
   3  -1   4   35.06    1.94   1
  -3  -1  -4   32.90    1.72   1
   3  -1   4   33.75    2.02   1
  -3  -1  -4   34.65    1.79   1
   3  -1   4   32.91    1.98   1
   3  -1   4   35.92    1.85   1
  -3   1  -5   66.36    3.73   1
  -3   1  -5   63.68    3.66   1
  -3   1  -5   57.82    3.55   1
   3   1   5   61.61    3.62   1
   3   1   5   65.68    3.73   1
  -3   1  -5   73.13    3.55   1
   3   1   5   55.93    3.37   1
  -3  -1  -5   66.49    3.66   1
  -3  -1  -5   69.12    3.35   1
   3  -1   5   69.57    3.67   1
   3  -1   5   68.41    3.61   1
  -3  -1  -5   70.03    3.63   1
   3  -1   5   71.09    3.75   1
   3  -1   5   72.48    3.50   1
  -3   1  -6    0.53    0.35   1
   3   1   6   -0.61    0.40   1
  -3   1  -6    0.67    0.34   1
  -3   1  -6   -0.66    0.40   1
  -3   1  -6    1.24    0.57   1
   3   1   6    0.53    0.44   1
  -3  -1  -6    0.88    0.46   1
   3  -1   6    0.33    0.50   1
  -3  -1  -6    0.34    0.44   1
   3  -1   6    0.90    0.53   1
   3  -1   6    0.53    0.37   1
   3  -1   6    1.05    0.37   1
  -3   1  -7   17.76    1.46   1
   3   1   7   19.97    1.44   1
  -3   1  -7   16.43    1.51   1
  -3   1  -7   18.66    1.24   1
   3   1   7   17.09    1.53   1
   3  -1   7   16.17    1.65   1
   3  -1   7   16.69    1.56   1
  -3  -1  -7   16.61    1.45   1
   3  -1   7   18.04    1.25   1
  -3  -1  -7   19.76    1.43   1
   3   1   8    5.57    1.01   1
   3   1   8    5.59    0.85   1
  -3   1  -8    6.34    0.97   1
  -3   1  -8    5.60    1.00   1
  -3  -1  -8    7.67    1.01   1
  -3  -1  -8    6.37    0.96   1
   3  -1   8    5.42    1.04   1
   3  -1   8    6.16    1.00   1
   3   1   9    0.78    0.67   1
  -3   1  -9    1.80    0.72   1
  -3   1  -9    1.14    0.67   1
   3  -1   9    1.62    0.74   1
   3  -1   9    2.42    0.78   1
  -3  -1  -9    0.55    0.58   1
  -3  -1  -9    0.91    0.65   1
  -3   1 -10    3.90    0.95   1
   3   1  10    4.71    0.98   1
  -3   1 -10    2.72    0.82   1
   3   1  10    5.10    1.03   1
  -3  -1 -10    4.10    0.96   1
  -3  -1 -10    3.97    0.88   1
   3  -1  10    3.40    0.94   1
   3  -1  10    2.82    0.87   1
   3   1  11    0.39    0.77   1
  -3   1 -11   -0.31    0.53   1
  -3   1 -11   -0.75    0.59   1
   3   1  11   -0.23    0.61   1
   3  -1  11    0.19    0.73   1
  -3  -1 -11    0.01    0.62   1
   3  -1  11    1.16    0.73   1
  -3   1 -12    3.81    0.95   1
   3   1  12    5.79    1.27   1
   3   1  12    4.15    1.05   1
   3  -1  12    5.25    1.14   1
   3  -1  12    6.12    1.28   1
   3   2 -13    2.33    0.90   1
  -3   2  13    2.28    0.96   1
   3   2 -13    2.98    0.92   1
  -3  -2  13    2.29    0.95   1
  -3  -2  13    3.64    0.94   1
  -3  -2  13    3.09    0.94   1
  -3   2  12   -0.13    0.73   1
   3   2 -12    0.07    0.67   1
   3   2 -12    0.91    0.64   1
  -3   2  12    1.59    0.80   1
   3   2 -12    2.04    0.81   1
  -3  -2  12    1.56    0.76   1
  -3  -2  12    1.12    0.72   1
  -3  -2  12    1.31    0.89   1
  -3   2  11   -0.26    0.61   1
  -3   2  11   -0.40    0.56   1
   3   2 -11    0.78    0.71   1
   3   2 -11    0.85    0.66   1
   3   2 -11   -0.16    0.55   1
  -3  -2  11    0.22    0.73   1
  -3  -2  11    0.08    0.68   1
  -3  -2  11    0.12    0.54   1
   3   2 -10   44.21    2.83   1
   3   2 -10   40.58    2.71   1
  -3   2  10   38.02    2.73   1
  -3   2  10   42.18    2.62   1
   3   2 -10   39.50    2.64   1
  -3   2  10   42.68    2.72   1
   3  -2 -10   38.60    2.61   1
  -3  -2  10   42.04    2.69   1
  -3  -2  10   39.74    2.67   1
  -3  -2  10   39.07    2.63   1
   3   2  -9   23.47    1.95   1
   3   2  -9   21.97    1.84   1
   3   2  -9   22.54    1.69   1
  -3   2   9   21.27    1.67   1
  -3   2   9   20.32    1.78   1
   3   2  -9   22.12    1.76   1
   3  -2  -9   23.03    1.71   1
  -3  -2   9   22.19    1.71   1
  -3  -2   9   23.14    1.73   1
   3  -2  -9   25.14    1.71   1
  -3  -2   9   20.95    1.73   1
   3   2  -8   53.72    3.18   1
   3   2  -8   51.09    3.09   1
   3   2  -8   41.21    3.15   1
  -3   2   8   42.80    3.13   1
   3   2  -8   56.22    3.11   1
  -3   2   8   54.08    3.11   1
  -3  -2   8   56.58    3.14   1
   3  -2  -8   56.90    3.15   1
  -3  -2   8   52.11    3.12   1
   3  -2  -8   53.34    3.14   1
  -3  -2   8   58.18    3.10   1
   3   2  -7   68.60    3.97   1
  -3   2   7   75.17    3.87   1
  -3   2   7   72.30    3.96   1
  -3   2   7   69.51    3.93   1
   3   2  -7   70.66    4.06   1
   3   2  -7   73.07    3.85   1
   3   2  -7   73.09    3.90   1
  -3  -2   7   68.26    3.92   1
  -3  -2   7   71.18    3.93   1
  -3  -2   7   63.70    3.87   1
   3  -2  -7   68.86    3.91   1
   3   2  -6    3.93    0.71   1
  -3   2   6    4.28    0.57   1
   3   2  -6    4.30    0.64   1
   3   2  -6    4.54    0.59   1
  -3   2   6    4.86    0.51   1
  -3   2   6    3.94    0.62   1
   3   2  -6    4.32    0.68   1
   3  -2  -6    3.97    0.66   1
  -3  -2   6    4.27    0.69   1
  -3  -2   6    3.44    0.66   1
   3  -2  -6    4.71    0.55   1
   3  -2  -6    5.55    0.74   1
  -3  -2   6    3.32    0.64   1
  -3  -2   6    4.39    0.53   1
   3   2  -5   79.76    3.98   1
   3   2  -5   72.04    4.07   1
   3   2  -5   75.28    3.97   1
  -3   2   5   76.11    3.96   1
  -3   2   5   70.54    3.87   1
   3   2  -5   74.29    3.89   1
  -3  -2   5   71.54    4.03   1
   3  -2  -5   73.46    3.85   1
  -3  -2   5   70.98    3.97   1
   3  -2  -5   74.53    3.93   1
   3  -2  -5   73.65    4.00   1
  -3  -2   5   79.24    3.90   1
  -3  -2   5   78.63    4.04   1
   3   2  -4   21.64    1.27   1
   3   2  -4   19.54    1.39   1
   3   2  -4   19.70    1.25   1
   3   2  -4   19.24    1.19   1
  -3   2   4   20.11    1.18   1
  -3   2   4   20.02    1.24   1
  -3  -2   4   18.50    1.22   1
  -3  -2   4   19.49    1.17   1
   3  -2  -4   20.49    1.31   1
   3  -2  -4   20.39    1.22   1
  -3  -2   4   19.14    1.32   1
  -3  -2   4   19.82    1.37   1
   3  -2  -4   21.36    1.19   1
   3   2  -3  299.36   15.36   1
   3   2  -3  314.94   15.42   1
  -3   2   3  313.17   15.41   1
  -3   2   3  306.32   15.37   1
   3   2  -3  324.48   15.41   1
   3   2  -3  308.30   15.56   1
  -3  -2   3  304.55   15.33   1
  -3  -2   3  314.04   15.41   1
   3  -2  -3  318.31   15.38   1
  -3  -2   3  323.12   15.56   1
  -3  -2   3  310.33   15.47   1
   3  -2  -3  305.41   15.47   1
   3  -2  -3  317.56   15.41   1
  -3   2   2  326.19   15.52   1
   3   2  -2  323.79   15.47   1
   3   2  -2  298.13   15.45   1
   3   2  -2  313.60   15.50   1
  -3   2   2  313.01   15.47   1
   3   2  -2  276.88   15.59   1
   3  -2  -2  325.57   15.50   1
   3  -2  -2  304.02   15.56   1
  -3  -2   2  319.94   15.49   1
  -3  -2   2  326.92   15.66   1
   3  -2  -2  315.76   15.49   1
  -3  -2   2  321.94   15.41   1
  -3  -2   2  322.51   15.53   1
   3  -2  -2  317.04   15.49   1
   3   2  -1   14.85    0.86   1
   3   2  -1   12.99    0.73   1
  -3   2   1   13.31    0.81   1
   3   2  -1   13.66    0.80   1
   3   2  -1   14.83    0.94   1
  -3   2   1   14.36    0.88   1
   3   2  -1   14.74    0.83   1
   3  -2  -1   14.04    0.85   1
  -3  -2   1   13.89    0.72   1
   3  -2  -1   12.85    0.83   1
  -3  -2   1   13.33    0.82   1
   3  -2  -1   13.60    0.85   1
  -3  -2   1   14.55    0.99   1
  -3  -2   1   15.05    0.83   1
  -3   2   0    3.01    0.34   1
   3   2   0    3.14    0.22   1
   3   2   0    3.35    0.31   1
  -3   2   0    3.88    0.42   1
   3   2   0    3.90    0.37   1
   3   2   0    3.92    0.34   1
   3   2   0    3.74    0.38   1
   3  -2   0    3.51    0.39   1
  -3  -2   0    3.25    0.34   1
  -3  -2   0    3.54    0.52   1
  -3  -2   0    3.76    0.29   1
   3  -2   0    3.31    0.39   1
   3  -2   0    3.39    0.40   1
   3  -2   0    3.01    0.35   1
  -3   2  -1    3.41    0.38   1
   3   2   1    3.12    0.34   1
   3   2   1    4.38    0.28   1
  -3   2  -1    3.22    0.41   1
   3   2   1    4.63    0.43   1
  -3   2  -1    3.66    0.43   1
   3  -2   1    3.77    0.43   1
   3  -2   1    3.95    0.40   1
   3  -2   1    3.75    0.41   1
   3  -2   1    3.44    0.42   1
  -3  -2  -1    3.32    0.47   1
  -3  -2  -1    3.46    0.24   1
  -3  -2  -1    3.97    0.38   1
   3  -2   1    2.87    0.32   1
  -3   2  -2  224.81   11.37   1
   3   2   2  228.71   11.31   1
  -3   2  -2  219.96   11.35   1
  -3   2  -2  230.08   11.34   1
   3   2   2  225.87   11.33   1
   3  -2   2  228.72   11.36   1
   3  -2   2  226.13   11.30   1
   3  -2   2  229.17   11.35   1
   3  -2   2  225.61   11.33   1
  -3  -2  -2  229.76   11.31   1
   3  -2   2  229.80   11.30   1
  -3  -2  -2  230.88   11.29   1
  -3  -2  -2  240.20   11.35   1
  -3   2  -3  221.40   10.80   1
   3   2   3  194.94   10.56   1
  -3   2  -3  215.84   10.83   1
   3   2   3  224.13   10.78   1
   3   2   3  217.51   10.80   1
  -3   2  -3  217.58   10.81   1
  -3  -2  -3  220.09   10.76   1
  -3  -2  -3  212.36   10.74   1
   3  -2   3  211.52   10.73   1
   3  -2   3  214.58   10.77   1
  -3  -2  -3  236.56   10.71   1
   3  -2   3  205.69   10.79   1
   3  -2   3  218.36   10.72   1
   3   2   4    4.10    0.60   1
  -3   2  -4    4.35    0.64   1
  -3   2  -4    4.64    0.63   1
  -3   2  -4    4.04    0.59   1
   3   2   4    3.92    0.31   1
   3   2   4    3.22    0.53   1
  -3  -2  -4    4.32    0.33   1
  -3  -2  -4    3.90    0.53   1
  -3  -2  -4    3.40    0.53   1
   3  -2   4    4.09    0.49   1
   3  -2   4    3.04    0.54   1
   3  -2   4    4.59    0.53   1
   3  -2   4    4.60    0.60   1
  -3   2  -5   36.58    2.27   1
  -3   2  -5   35.15    2.33   1
   3   2   5   38.07    2.26   1
   3   2   5   32.36    2.30   1
  -3   2  -5   40.45    2.23   1
  -3   2  -5   36.05    2.26   1
   3  -2   5   40.02    2.18   1
   3  -2   5   41.52    2.23   1
   3  -2   5   40.59    2.36   1
  -3  -2  -5   39.96    2.26   1
   3  -2   5   37.56    2.29   1
  -3  -2  -5   39.62    2.28   1
  -3   2  -6    2.83    0.54   1
   3   2   6    1.75    0.65   1
  -3   2  -6    1.77    0.63   1
  -3   2  -6    2.48    0.67   1
  -3   2  -6    2.00    0.51   1
   3   2   6    2.07    0.52   1
  -3  -2  -6    3.32    0.60   1
   3  -2   6    2.25    0.50   1
   3  -2   6    1.68    0.61   1
  -3  -2  -6    2.53    0.58   1
   3  -2   6    2.51    0.68   1
  -3   2  -7   38.23    2.26   1
   3   2   7   36.32    2.41   1
  -3   2  -7   38.81    2.24   1
   3   2   7   40.67    2.33   1
  -3   2  -7   35.05    2.38   1
  -3   2  -7   34.04    2.43   1
   3  -2   7   31.28    2.14   1
  -3  -2  -7   33.37    2.27   1
   3  -2   7   33.90    2.43   1
  -3  -2  -7   37.81    2.29   1
   3  -2   7   34.98    2.37   1
  -3   2  -8   32.29    2.28   1
   3   2   8   35.73    2.35   1
   3   2   8   32.79    2.15   1
  -3   2  -8   31.89    2.32   1
  -3   2  -8   32.80    2.18   1
   3  -2   8   34.08    2.31   1
  -3  -2  -8   31.94    2.16   1
   3  -2   8   29.01    2.30   1
  -3  -2  -8   30.25    2.17   1
  -3   2  -9   17.44    1.71   1
   3   2   9   15.75    1.49   1
  -3   2  -9   14.94    1.62   1
   3   2   9   13.72    1.55   1
   3  -2   9   12.23    1.49   1
   3  -2   9   16.05    1.70   1
  -3  -2  -9   12.21    1.42   1
  -3   2 -10   26.12    2.03   1
  -3   2 -10   19.83    1.91   1
   3   2  10   19.44    1.89   1
   3  -2  10   25.76    2.15   1
  -3  -2 -10   26.16    1.93   1
   3  -2  10   25.91    2.08   1
  -3   2 -11    0.01    0.63   1
  -3   2 -11   -0.35    0.59   1
   3   2  11    0.42    0.75   1
   3   2  11    0.11    0.65   1
   3  -2  11   -0.92    0.76   1
   3  -2  11   -0.58    0.55   1
  -3  -2 -11    0.21    0.53   1
   3   2  12    0.29    1.04   1
   3   2  12    0.63    0.76   1
  -3   2 -12    0.89    0.86   1
   3  -2  12    0.36    0.78   1
   3  -2  12    0.96    0.99   1
   3   3 -13    8.25    1.43   1
   3   3 -13    7.56    1.33   1
  -3   3  13    8.34    1.32   1
  -3  -3  13    6.39    1.25   1
  -3  -3  13    5.27    1.10   1
  -3   3  12   45.20    3.05   1
   3   3 -12   41.09    3.00   1
  -3   3  12   43.03    2.86   1
   3   3 -12   40.04    2.95   1
   3   3 -12   39.89    2.85   1
  -3  -3  12   43.66    2.89   1
  -3  -3  12   40.42    2.86   1
  -3  -3  12   42.86    2.86   1
   3   3 -11   -0.20    0.60   1
  -3   3  11    0.29    0.57   1
   3   3 -11    1.15    0.73   1
   3   3 -11    1.10    0.66   1
  -3   3  11   -0.25    0.72   1
  -3   3  11    0.89    0.67   1
  -3  -3  11    0.86    0.62   1
  -3  -3  11    0.66    0.74   1
  -3  -3  11    0.77    0.71   1
   3   3 -10   25.44    1.98   1
   3   3 -10   27.30    2.11   1
   3   3 -10   24.50    2.09   1
  -3   3  10   28.00    2.13   1
  -3   3  10   29.00    2.02   1
  -3  -3  10   27.42    2.06   1
   3  -3 -10   27.77    1.89   1
  -3  -3  10   26.37    2.00   1
  -3  -3  10   26.31    1.97   1
   3   3  -9    0.65    0.58   1
  -3   3   9    0.52    0.61   1
   3   3  -9    0.15    0.47   1
   3   3  -9    0.85    0.53   1
  -3   3   9    0.89    0.56   1
   3   3  -9   -0.10    0.54   1
  -3  -3   9   -0.56    0.52   1
   3  -3  -9   -0.26    0.39   1
   3  -3  -9    0.32    0.39   1
  -3  -3   9   -0.09    0.54   1
  -3  -3   9    0.06    0.43   1
  -3  -3   9   -0.25    0.50   1
   3   3  -8   10.60    1.36   1
  -3   3   8   10.92    1.14   1
   3   3  -8   13.36    1.17   1
   3   3  -8   13.10    1.28   1
   3   3  -8   12.47    1.34   1
  -3   3   8    9.98    1.24   1
  -3  -3   8   15.16    1.24   1
  -3  -3   8   11.72    1.18   1
  -3  -3   8   11.05    1.25   1
   3  -3  -8   11.56    1.22   1
  -3  -3   8   11.34    1.20   1
   3  -3  -8   12.02    1.06   1
   3   3  -7  120.16    5.92   1
   3   3  -7  114.58    5.93   1
  -3   3   7  119.69    5.89   1
  -3   3   7  117.44    6.01   1
   3   3  -7  104.48    6.07   1
   3   3  -7  108.45    6.03   1
  -3  -3   7  114.62    6.01   1
   3  -3  -7  112.47    5.82   1
  -3  -3   7  115.22    5.95   1
   3  -3  -7  107.53    5.94   1
  -3  -3   7  106.38    5.86   1
   3  -3  -7  104.82    5.91   1
  -3  -3   7  111.79    6.01   1
   3   3  -6    6.38    0.86   1
  -3   3   6    4.73    0.61   1
   3   3  -6    4.44    0.59   1
   3   3  -6    4.51    0.67   1
  -3   3   6    3.98    0.62   1
  -3  -3   6    4.69    0.74   1
   3  -3  -6    4.36    0.69   1
  -3  -3   6    5.28    0.70   1
   3  -3  -6    3.89    0.62   1
  -3  -3   6    4.63    0.77   1
  -3  -3   6    4.69    0.61   1
   3  -3  -6    4.50    0.58   1
   3   3  -5  217.53   10.75   1
   3   3  -5  221.70   10.68   1
   3   3  -5  221.37   10.91   1
   3   3  -5  223.90   10.77   1
  -3   3   5  217.67   10.73   1
  -3   3   5  225.65   10.67   1
  -3  -3   5  201.96   10.79   1
  -3  -3   5  186.24   10.73   1
   3  -3  -5  223.48   10.68   1
   3  -3  -5  229.53   10.82   1
  -3  -3   5  180.07   10.84   1
   3   3  -4   20.59    1.23   1
  -3   3   4   20.81    1.21   1
   3   3  -4   18.50    1.15   1
   3   3  -4   19.29    1.40   1
  -3   3   4   18.58    1.14   1
   3   3  -4   19.33    1.24   1
  -3  -3   4   18.24    1.22   1
   3  -3  -4   19.32    1.28   1
  -3  -3   4   19.63    1.14   1
  -3  -3   4   16.60    1.40   1
   3  -3  -4   17.68    1.17   1
   3  -3  -4   20.79    1.18   1
  -3  -3   4   19.13    1.30   1
  -3   3   3    0.65    0.27   1
   3   3  -3    0.14    0.18   1
  -3   3   3    0.65    0.22   1
   3   3  -3    0.28    0.23   1
   3   3  -3    0.93    0.28   1
   3   3  -3    0.58    0.41   1
  -3  -3   3    0.52    0.20   1
   3  -3  -3    0.51    0.26   1
  -3  -3   3    0.65    0.28   1
   3  -3  -3    0.88    0.24   1
  -3  -3   3   -0.04    0.41   1
   3  -3  -3    0.53    0.26   1
  -3  -3   3    0.84    0.27   1
   3   3  -2   89.43    4.78   1
   3   3  -2   95.70    4.56   1
   3   3  -2   89.67    4.55   1
   3   3  -2   90.34    4.53   1
  -3   3   2   98.12    4.76   1
   3   3  -2   89.50    4.58   1
  -3   3   2   93.12    4.61   1
  -3   3   2   85.48    4.55   1
   3  -3  -2   88.44    4.61   1
   3  -3  -2   92.70    4.58   1
  -3  -3   2   89.64    4.56   1
  -3  -3   2   88.73    4.83   1
  -3  -3   2   88.38    4.62   1
  -3  -3   2   90.61    4.52   1
   3  -3  -2   91.26    4.62   1
   3   3  -1   65.31    3.10   1
   3   3  -1   49.69    3.25   1
   3   3  -1   64.10    3.07   1
  -3   3   1   61.74    3.17   1
  -3   3   1   60.77    3.13   1
  -3   3   1   67.49    3.17   1
   3   3  -1   63.47    3.15   1
   3   3  -1   58.05    3.09   1
  -3  -3   1   61.58    3.40   1
   3  -3  -1   58.90    3.21   1
  -3  -3   1   60.98    3.16   1
  -3  -3   1   60.47    3.08   1
   3  -3  -1   59.55    3.14   1
   3  -3  -1   63.72    3.20   1
   3  -3  -1   63.71    3.20   1
  -3  -3   1   62.62    3.10   1
   3   3   0  661.71   31.85   1
   3   3   0  667.43   31.89   1
  -3   3   0  626.08   31.89   1
   3   3   0  690.74   31.85   1
  -3   3   0  673.76   31.94   1
   3  -3   0  630.58   31.94   1
   3  -3   0  642.98   31.91   1
   3  -3   0  644.64   31.96   1
   3  -3   0  632.24   31.94   1
  -3  -3   0  631.29   31.85   1
  -3  -3   0  661.02   31.88   1
  -3  -3   0  653.01   31.85   1
  -3   3  -1   20.15    1.14   1
   3   3   1   19.98    1.09   1
  -3   3  -1   17.87    1.20   1
   3   3   1   19.54    1.07   1
   3   3   1   20.25    1.13   1
  -3   3  -1   19.54    1.18   1
   3   3   1   19.48    1.08   1
  -3  -3  -1   19.40    1.05   1
   3  -3   1   19.16    1.15   1
  -3  -3  -1   20.41    1.30   1
  -3  -3  -1   18.68    1.07   1
   3  -3   1   19.53    1.19   1
   3  -3   1   20.25    1.18   1
   3  -3   1   19.36    1.18   1
   3   3   2   96.99    5.02   1
   3   3   2   97.94    5.07   1
  -3   3  -2   98.99    5.13   1
  -3   3  -2  103.94    5.12   1
  -3   3  -2   94.68    5.13   1
   3   3   2  101.86    5.06   1
  -3  -3  -2  102.24    5.04   1
   3  -3   2   98.36    5.10   1
   3  -3   2   99.13    5.12   1
   3  -3   2  105.86    5.14   1
   3  -3   2   98.35    5.12   1
  -3  -3  -2  104.59    5.17   1
  -3   3  -3    0.26    0.27   1
   3   3   3   -0.13    0.25   1
   3   3   3    0.03    0.25   1
  -3   3  -3   -0.25    0.25   1
  -3   3  -3    0.39    0.32   1
  -3  -3  -3   -0.13    0.16   1
   3  -3   3    0.10    0.29   1
   3  -3   3    0.25    0.26   1
   3  -3   3    0.08    0.28   1
   3  -3   3   -0.12    0.26   1
  -3  -3  -3    0.00    0.19   1
   3   3   4   21.39    1.47   1
   3   3   4   22.48    1.51   1
  -3   3  -4   24.11    1.60   1
  -3   3  -4   22.68    1.53   1
  -3  -3  -4   24.20    1.42   1
   3  -3   4   24.45    1.54   1
  -3  -3  -4   22.49    1.27   1
   3  -3   4   24.55    1.50   1
   3  -3   4   25.58    1.49   1
  -3  -3  -4   24.88    1.48   1
   3  -3   4   25.96    1.56   1
  -3   3  -5  199.63   10.50   1
  -3   3  -5  197.57   10.59   1
  -3   3  -5  205.81   10.49   1
   3   3   5  206.25   10.45   1
  -3   3  -5  213.25   10.48   1
   3   3   5  182.44   10.49   1
  -3  -3  -5  200.62   10.44   1
   3  -3   5  210.44   10.49   1
   3  -3   5  209.71   10.44   1
   3  -3   5  218.55   10.55   1
  -3  -3  -5  213.22   10.41   1
   3  -3   5  220.17   10.44   1
  -3   3  -6    5.45    0.75   1
  -3   3  -6    2.17    0.69   1
   3   3   6    4.25    0.70   1
  -3   3  -6    3.95    0.69   1
  -3   3  -6    4.78    0.77   1
   3   3   6    3.40    0.76   1
   3  -3   6    4.38    0.70   1
   3  -3   6    4.07    0.77   1
   3  -3   6    3.55    0.73   1
  -3  -3  -6    4.94    0.65   1
  -3  -3  -6    4.08    0.71   1
   3  -3   6    5.40    0.73   1
  -3   3  -7   60.89    3.75   1
  -3   3  -7   68.43    3.91   1
   3   3   7   63.68    3.78   1
   3   3   7   72.77    3.69   1
  -3   3  -7   71.55    3.68   1
  -3   3  -7   63.22    3.67   1
   3  -3   7   55.90    3.75   1
   3  -3   7   63.85    3.78   1
   3  -3   7   55.89    3.58   1
   3  -3   7   66.23    3.65   1
  -3  -3  -7   65.88    3.68   1
   3   3   8   10.44    1.10   1
  -3   3  -8    8.31    1.23   1
   3   3   8    7.11    1.09   1
  -3   3  -8    8.10    1.04   1
  -3   3  -8    8.74    1.24   1
   3  -3   8    8.75    1.04   1
   3  -3   8    5.83    1.07   1
  -3  -3  -8    7.88    1.03   1
   3  -3   8    8.23    1.03   1
   3  -3   8    9.18    1.24   1
   3   3   9    1.19    0.61   1
  -3   3  -9    2.05    0.82   1
   3   3   9    0.94    0.64   1
  -3   3  -9    1.85    0.76   1
   3  -3   9    2.22    0.74   1
  -3  -3  -9    1.27    0.66   1
   3  -3   9    2.94    0.90   1
   3  -3   9    1.91    0.81   1
  -3   3 -10   25.37    2.13   1
   3   3  10   26.53    2.01   1
  -3   3 -10   26.22    2.22   1
   3   3  10   26.76    2.13   1
   3  -3  10   24.56    2.13   1
   3  -3  10   27.95    2.31   1
   3  -3  10   26.99    2.00   1
  -3   3 -11   -0.44    0.57   1
  -3   3 -11    0.10    0.67   1
   3   3  11   -0.26    0.65   1
   3  -3  11    0.81    0.84   1
   3  -3  11    1.53    0.75   1
  -3   3 -12   23.65    2.27   1
   3   3  12   21.55    2.24   1
   3   3  12   24.18    2.12   1
   3  -3  12   18.68    2.14   1
   3   4 -13    8.23    1.42   1
   3   4 -13   10.35    1.76   1
  -3   4  13   11.34    1.57   1
  -3  -4  13    9.22    1.42   1
  -3  -4  13    9.71    1.36   1
  -3   4  12    0.50    0.68   1
   3   4 -12   -0.82    0.60   1
   3   4 -12    0.37    0.69   1
   3   4 -12   -0.06    0.70   1
  -3  -4  12    0.25    0.74   1
  -3  -4  12   -0.39    0.75   1
   3   4 -11    2.05    0.91   1
  -3   4  11    1.80    0.79   1
   3   4 -11    1.91    0.78   1
   3   4 -11    3.74    1.00   1
  -3   4  11    2.82    0.90   1
  -3   4  11    2.53    0.75   1
  -3  -4  11    2.31    0.94   1
  -3  -4  11    2.41    0.84   1
  -3   4  10   37.24    2.47   1
   3   4 -10   36.82    2.60   1
  -3   4  10   34.80    2.51   1
   3   4 -10   36.40    2.58   1
   3   4 -10   32.69    2.40   1
  -3  -4  10   38.05    2.54   1
  -3  -4  10   33.81    2.40   1
  -3  -4  10   35.48    2.46   1
   3   4  -9   16.70    1.64   1
   3   4  -9   11.99    1.44   1
   3   4  -9   10.53    1.27   1
  -3   4   9   12.47    1.47   1
   3   4  -9    9.88    1.28   1
  -3   4   9   12.23    1.33   1
  -3  -4   9   12.72    1.41   1
  -3  -4   9   10.86    1.21   1
  -3  -4   9   12.69    1.33   1
   3  -4  -9   12.63    1.17   1
  -3  -4   9   14.66    1.44   1
   3   4  -8   68.21    3.80   1
   3   4  -8   66.95    3.93   1
   3   4  -8   60.30    3.90   1
  -3   4   8   57.27    3.82   1
  -3   4   8   72.09    3.77   1
   3   4  -8   67.65    3.81   1
  -3  -4   8   68.50    3.90   1
  -3  -4   8   64.83    3.74   1
   3  -4  -8   64.27    3.75   1
  -3  -4   8   66.67    3.77   1
  -3  -4   8   70.95    3.88   1
   3   4  -7   20.60    1.44   1
  -3   4   7   18.17    1.36   1
   3   4  -7   17.67    1.57   1
   3   4  -7   18.72    1.46   1
  -3   4   7   22.69    1.54   1
  -3  -4   7   22.34    1.64   1
   3  -4  -7   19.84    1.39   1
  -3  -4   7   18.92    1.55   1
  -3  -4   7   20.46    1.43   1
   3  -4  -7   19.98    1.47   1
  -3  -4   7   20.81    1.47   1
   3  -4  -7   18.17    1.47   1
   3   4  -6    6.62    0.93   1
  -3   4   6    8.97    0.81   1
   3   4  -6    7.30    0.87   1
  -3   4   6    9.46    0.93   1
   3  -4  -6    8.52    0.86   1
  -3  -4   6    6.79    0.93   1
  -3  -4   6    8.64    0.88   1
   3  -4  -6    7.09    0.88   1
  -3  -4   6    7.71    0.78   1
   3  -4  -6    7.00    0.79   1
  -3  -4   6    8.40    1.08   1
   3   4  -5   48.99    3.12   1
   3   4  -5   55.29    2.98   1
   3   4  -5   52.61    2.88   1
   3   4  -5   51.96    2.95   1
  -3   4   5   54.47    2.86   1
  -3   4   5   56.04    2.94   1
  -3  -4   5   52.95    2.87   1
  -3  -4   5   57.14    3.08   1
   3  -4  -5   54.61    2.92   1
  -3  -4   5   59.60    2.99   1
  -3  -4   5   52.00    3.20   1
   3  -4  -5   45.66    2.88   1
  -3   4   4   42.83    2.21   1
  -3   4   4   41.15    2.19   1
   3   4  -4   41.43    2.22   1
   3   4  -4   33.72    2.39   1
  -3   4   4   40.47    2.14   1
   3   4  -4   40.60    2.22   1
   3   4  -4   39.36    2.14   1
  -3  -4   4   38.50    2.29   1
  -3  -4   4   34.94    2.46   1
  -3  -4   4   42.31    2.23   1
  -3  -4   4   39.51    2.15   1
   3  -4  -4   40.14    2.22   1
   3  -4  -4   37.23    2.12   1
  -3   4   3  229.97   10.97   1
   3   4  -3  215.49   10.91   1
   3   4  -3  235.60   10.99   1
  -3   4   3  224.28   10.92   1
   3   4  -3  229.04   10.95   1
   3   4  -3  192.71   10.94   1
  -3   4   3  221.72   10.91   1
   3   4  -3  219.43   11.21   1
  -3  -4   3  232.66   10.93   1
  -3  -4   3  227.69   11.06   1
   3  -4  -3  216.90   11.00   1
   3  -4  -3  220.36   11.02   1
   3  -4  -3  229.94   10.92   1
  -3  -4   3  190.14   11.23   1
   3   4  -2  179.34    8.99   1
   3   4  -2  186.56    8.95   1
   3   4  -2  183.45    9.23   1
  -3   4   2  189.89    9.03   1
   3   4  -2  187.94    8.98   1
  -3   4   2  179.87    8.96   1
   3   4  -2  177.88    8.97   1
  -3   4   2  174.29    8.96   1
  -3  -4   2  181.04    8.96   1
   3  -4  -2  181.16    9.08   1
  -3  -4   2  174.99    9.06   1
   3  -4  -2  182.14    8.97   1
   3  -4  -2  174.45    9.05   1
   3   4  -1   36.11    1.99   1
  -3   4   1   33.22    1.74   1
  -3   4   1   31.88    1.79   1
   3   4  -1   33.83    1.70   1
  -3   4   1   32.58    1.74   1
   3   4  -1   32.04    1.69   1
   3   4  -1   34.36    1.73   1
   3   4  -1   32.72    1.75   1
   3  -4  -1   33.59    1.85   1
   3  -4  -1   30.39    1.85   1
  -3  -4   1   33.15    1.74   1
   3  -4  -1   33.61    1.86   1
   3  -4  -1   31.15    1.74   1
  -3  -4   1   32.47    1.82   1
   3   4   0    4.43    0.32   1
   3   4   0    3.62    0.52   1
  -3   4   0    5.02    0.40   1
   3   4   0    4.14    0.39   1
   3   4   0    4.50    0.33   1
  -3   4   0    4.51    0.48   1
  -3   4   0    4.56    0.41   1
   3  -4   0    4.73    0.51   1
  -3  -4   0    3.21    0.66   1
  -3  -4   0    4.86    0.42   1
   3  -4   0    4.68    0.40   1
  -3  -4   0    5.35    0.45   1
   3  -4   0    4.77    0.55   1
   3  -4   0    3.94    0.49   1
   3   4   1   48.30    2.59   1
  -3   4  -1   50.10    2.68   1
  -3   4  -1   47.11    2.56   1
  -3   4  -1   49.19    2.60   1
   3   4   1   49.44    2.47   1
   3   4   1   50.37    2.53   1
   3   4   1   49.74    2.49   1
   3  -4   1   48.89    2.56   1
  -3  -4  -1   41.10    2.72   1
   3  -4   1   50.26    2.62   1
  -3  -4  -1   47.65    2.51   1
   3  -4   1   49.85    2.65   1
   3  -4   1   49.10    2.63   1
  -3   4  -2  168.82    8.88   1
   3   4   2  178.33    8.71   1
   3   4   2  179.92    8.76   1
  -3   4  -2  171.12    8.84   1
   3   4   2  177.72    8.76   1
   3   4   2  190.05    8.72   1
  -3   4  -2  182.40    8.84   1
   3  -4   2  174.07    8.85   1
  -3  -4  -2  155.19    8.87   1
  -3  -4  -2  182.26    8.71   1
   3  -4   2  180.43    8.82   1
   3  -4   2  171.66    8.83   1
   3  -4   2  172.68    8.86   1
   3   4   3  157.73    7.57   1
  -3   4  -3  145.44    7.63   1
   3   4   3  146.15    7.48   1
  -3   4  -3  152.61    7.65   1
  -3   4  -3  151.74    7.66   1
   3  -4   3  149.76    7.59   1
   3  -4   3  152.10    7.61   1
   3  -4   3  146.58    7.58   1
   3  -4   3  146.95    7.63   1
  -3  -4  -3  145.18    7.54   1
  -3  -4  -3  154.12    7.47   1
   3   4   4   42.54    2.35   1
   3   4   4   42.67    2.39   1
  -3   4  -4   38.85    2.41   1
  -3   4  -4   39.55    2.45   1
   3  -4   4   38.36    2.38   1
   3  -4   4   43.15    2.38   1
   3  -4   4   41.52    2.36   1
   3  -4   4   41.69    2.35   1
  -3  -4  -4   41.41    2.16   1
  -3   4  -5   12.75    1.15   1
  -3   4  -5   13.50    1.24   1
  -3   4  -5   12.58    1.13   1
   3   4   5   14.08    1.09   1
  -3   4  -5   12.65    1.22   1
   3   4   5   13.98    1.18   1
   3  -4   5   14.30    1.16   1
   3  -4   5   14.57    1.18   1
   3  -4   5   13.18    1.12   1
   3  -4   5   14.36    1.11   1
  -3   4  -6   11.89    1.22   1
  -3   4  -6   11.82    1.08   1
  -3   4  -6   12.54    1.17   1
  -3   4  -6    6.11    1.08   1
   3   4   6    6.23    1.02   1
   3   4   6   10.74    1.04   1
   3  -4   6   11.56    1.07   1
   3  -4   6   12.51    1.17   1
   3  -4   6   10.39    1.15   1
   3  -4   6   13.03    1.26   1
   3   4   7   18.70    1.45   1
  -3   4  -7   20.46    1.57   1
  -3   4  -7   20.62    1.66   1
  -3   4  -7   19.12    1.69   1
   3   4   7   18.83    1.57   1
  -3   4  -7   20.57    1.50   1
   3  -4   7   19.78    1.68   1
   3  -4   7   20.82    1.53   1
   3  -4   7   16.83    1.66   1
   3  -4   7   13.96    1.40   1
  -3   4  -8   32.24    2.36   1
   3   4   8   35.84    2.41   1
  -3   4  -8   38.34    2.57   1
   3   4   8   36.68    2.30   1
  -3   4  -8   31.91    2.46   1
  -3   4  -8   35.58    2.32   1
   3  -4   8   34.67    2.25   1
   3  -4   8   33.37    2.48   1
   3  -4   8   35.38    2.52   1
   3  -4   8   32.53    2.30   1
  -3   4  -9   14.17    1.67   1
  -3   4  -9   15.13    1.73   1
   3   4   9   15.48    1.63   1
   3   4   9   15.75    1.49   1
   3  -4   9   13.80    1.37   1
   3  -4   9   11.35    1.49   1
   3  -4   9   14.23    1.68   1
   3   4  10   17.02    1.79   1
  -3   4 -10   16.23    1.85   1
   3   4  10   15.45    1.58   1
  -3   4 -10   15.87    1.84   1
   3  -4  10   14.89    1.68   1
   3  -4  10   18.76    1.91   1
  -3   4 -11    1.46    0.80   1
   3   4  11    1.82    0.81   1
  -3   4 -11    2.25    0.90   1
   3  -4  11    2.56    1.00   1
   3   5 -12    7.65    1.38   1
   3   5 -12    9.09    1.37   1
   3   5 -12    9.08    1.30   1
  -3   5  12   10.68    1.47   1
  -3   5  12    8.34    1.22   1
  -3  -5  12    9.77    1.37   1
  -3  -5  12    7.53    1.24   1
   3   5 -11    2.51    0.81   1
   3   5 -11    1.98    0.81   1
  -3   5  11    2.11    0.85   1
   3   5 -11    2.97    0.94   1
  -3   5  11    2.83    0.82   1
  -3  -5  11    1.41    0.82   1
  -3  -5  11    1.99    0.85   1
  -3   5  10    7.23    1.14   1
   3   5 -10    6.44    1.14   1
   3   5 -10    5.03    0.99   1
  -3   5  10    7.94    1.19   1
   3   5 -10    7.35    1.23   1
   3   5 -10    6.60    1.08   1
  -3  -5  10    7.96    1.23   1
  -3  -5  10    7.70    1.14   1
   3   5  -9   21.60    1.61   1
  -3   5   9   19.32    1.59   1
  -3   5   9   14.19    1.61   1
   3   5  -9   16.07    1.76   1
   3   5  -9   15.44    1.61   1
   3   5  -9   17.15    1.58   1
  -3  -5   9   17.74    1.75   1
  -3  -5   9   15.89    1.56   1
  -3  -5   9   17.54    1.61   1
   3   5  -8    0.54    0.56   1
  -3   5   8    0.53    0.62   1
   3   5  -8    0.52    0.62   1
   3   5  -8    0.79    0.55   1
   3   5  -8    1.03    0.57   1
  -3   5   8    0.50    0.51   1
  -3  -5   8    0.24    0.63   1
  -3  -5   8    1.04    0.57   1
  -3  -5   8    0.55    0.61   1
   3   5  -7   49.49    2.92   1
   3   5  -7   37.92    2.94   1
  -3   5   7   50.62    2.93   1
   3   5  -7   52.50    2.88   1
  -3   5   7   49.93    2.79   1
   3   5  -7   48.14    3.09   1
  -3  -5   7   46.58    3.01   1
  -3  -5   7   49.96    3.06   1
  -3  -5   7   49.30    2.84   1
   3  -5  -7   51.08    2.88   1
   3   5  -6    4.71    0.88   1
   3   5  -6    4.63    0.75   1
   3   5  -6    3.20    0.71   1
  -3   5   6    3.69    0.55   1
  -3   5   6    3.11    0.57   1
  -3  -5   6    3.53    0.75   1
  -3  -5   6    3.94    0.83   1
  -3  -5   6    3.87    0.58   1
  -3  -5   6    3.72    0.60   1
   3  -5  -6    3.36    0.61   1
  -3   5   5   59.33    3.10   1
   3   5  -5   54.29    3.12   1
  -3   5   5   56.52    3.02   1
   3   5  -5   59.35    3.16   1
   3   5  -5   56.32    3.06   1
   3   5  -5   50.68    3.34   1
  -3  -5   5   59.08    3.10   1
  -3  -5   5   55.84    3.05   1
  -3  -5   5   56.72    3.25   1
   3  -5  -5   56.88    3.13   1
  -3  -5   5   57.26    3.43   1
   3   5  -4   44.31    2.82   1
   3   5  -4   47.76    2.58   1
  -3   5   4   48.29    2.54   1
   3   5  -4   45.92    2.57   1
  -3   5   4   48.37    2.50   1
   3   5  -4   47.78    2.50   1
  -3  -5   4   49.02    2.54   1
   3  -5  -4   46.57    2.63   1
  -3  -5   4   43.94    2.51   1
  -3  -5   4   44.40    2.36   1
  -3  -5   4   46.85    2.92   1
   3  -5  -4   45.75    2.60   1
  -3  -5   4   46.13    2.65   1
  -3   5   3   37.84    2.02   1
  -3   5   3   38.74    1.98   1
   3   5  -3   38.92    2.04   1
   3   5  -3   37.88    2.03   1
   3   5  -3   34.66    2.28   1
  -3   5   3   39.05    1.97   1
   3   5  -3   28.83    1.99   1
   3   5  -3   36.82    1.96   1
  -3  -5   3   40.54    2.03   1
  -3  -5   3   36.39    2.40   1
  -3  -5   3   32.46    1.92   1
   3  -5  -3   37.02    2.13   1
   3  -5  -3   37.05    2.10   1
  -3  -5   3   37.77    2.14   1
  -3   5   2   82.29    4.11   1
   3   5  -2   84.20    4.15   1
   3   5  -2   86.07    4.44   1
   3   5  -2   80.02    4.13   1
  -3   5   2   82.07    4.17   1
   3   5  -2   81.15    4.09   1
   3   5  -2   83.78    4.16   1
  -3   5   2   82.23    4.11   1
  -3  -5   2   81.36    4.15   1
  -3  -5   2   80.85    4.25   1
  -3  -5   2   72.36    4.54   1
   3  -5  -2   77.39    4.24   1
  -3  -5   2   82.16    4.15   1
   3  -5  -2   78.22    4.26   1
  -3   5   1    1.33    0.29   1
   3   5  -1    0.97    0.24   1
  -3   5   1    1.27    0.22   1
   3   5  -1    1.51    0.20   1
   3   5  -1    1.39    0.24   1
   3   5  -1    1.10    0.44   1
   3   5  -1    1.34    0.18   1
  -3   5   1    1.26    0.25   1
  -3  -5   1    1.17    0.27   1
  -3  -5   1    1.04    0.56   1
   3  -5  -1    0.64    0.33   1
   3  -5  -1    1.54    0.37   1
  -3  -5   1    1.32    0.32   1
  -3  -5   1    1.68    0.36   1
   3  -5  -1    1.40    0.43   1
  -3   5   0   70.26    3.58   1
  -3   5   0   68.27    3.58   1
   3   5   0   72.20    3.50   1
  -3   5   0   72.98    3.65   1
   3   5   0   71.86    3.50   1
   3   5   0   73.31    3.79   1
   3   5   0   70.37    3.55   1
   3  -5   0   67.84    3.70   1
  -3  -5   0   65.03    3.93   1
   3  -5   0   68.29    3.71   1
  -3  -5   0   70.41    3.64   1
   3  -5   0   68.22    3.56   1
  -3  -5   0   73.31    3.62   1
   3  -5   0   69.40    3.75   1
  -3   5  -1   13.62    1.02   1
   3   5   1   13.25    0.74   1
   3   5   1   12.55    0.78   1
  -3   5  -1   13.53    0.84   1
   3   5   1    9.33    0.87   1
  -3   5  -1   13.32    0.88   1
  -3   5  -1   11.72    0.83   1
   3   5   1   12.66    0.71   1
   3  -5   1   12.90    0.93   1
  -3  -5  -1   13.32    1.10   1
   3  -5   1   11.71    0.79   1
   3  -5   1   13.38    0.96   1
   3  -5   1   12.46    0.97   1
  -3  -5  -1   13.71    0.85   1
  -3   5  -2   49.68    2.72   1
  -3   5  -2   49.03    2.81   1
  -3   5  -2   54.45    2.74   1
   3   5   2   46.37    2.60   1
   3   5   2   52.84    2.57   1
   3   5   2   49.67    2.61   1
   3   5   2   52.80    2.67   1
   3  -5   2   49.39    2.66   1
   3  -5   2   46.69    2.72   1
  -3  -5  -2   47.98    2.79   1
   3  -5   2   45.89    2.75   1
  -3  -5  -2   52.85    2.63   1
   3  -5   2   47.26    2.76   1
  -3   5  -3   26.78    1.69   1
  -3   5  -3   27.35    1.69   1
   3   5   3   21.34    1.54   1
  -3   5  -3   27.08    1.74   1
   3   5   3   27.23    1.56   1
   3  -5   3   27.43    1.71   1
   3  -5   3   28.61    1.70   1
   3  -5   3   27.54    1.60   1
  -3  -5  -3   28.55    1.61   1
   3  -5   3   27.86    1.67   1
   3   5   4    7.45    0.77   1
   3   5   4    8.08    0.78   1
  -3   5  -4    6.57    0.86   1
  -3   5  -4    9.20    0.97   1
  -3   5  -4    6.03    0.81   1
  -3  -5  -4    7.95    0.71   1
   3  -5   4    5.72    0.79   1
   3  -5   4    8.04    0.87   1
   3  -5   4    8.46    0.83   1
   3  -5   4    9.06    0.76   1
  -3   5  -5   51.79    3.15   1
  -3   5  -5   54.41    3.14   1
  -3   5  -5   52.16    3.08   1
   3   5   5   53.72    2.96   1
  -3   5  -5   50.14    3.04   1
   3   5   5   51.44    3.02   1
   3  -5   5   52.14    3.08   1
   3  -5   5   53.02    2.97   1
   3  -5   5   51.75    2.99   1
   3  -5   5   55.20    3.07   1
   3   5   6   -0.12    0.35   1
  -3   5  -6    0.32    0.50   1
  -3   5  -6    0.88    0.57   1
  -3   5  -6    0.25    0.45   1
   3   5   6    0.29    0.50   1
  -3   5  -6    0.04    0.44   1
   3  -5   6   -0.21    0.37   1
   3  -5   6   -0.02    0.52   1
   3  -5   6    0.02    0.52   1
   3  -5   6   -0.12    0.42   1
  -3   5  -7   34.29    2.46   1
  -3   5  -7   33.57    2.52   1
   3   5   7   37.24    2.46   1
  -3   5  -7   38.78    2.37   1
   3   5   7   35.41    2.27   1
  -3   5  -7   35.90    2.47   1
   3  -5   7   41.30    2.50   1
   3  -5   7   35.96    2.49   1
   3  -5   7   33.20    2.36   1
   3  -5   7   35.32    2.30   1
  -3   5  -8    2.26    0.68   1
  -3   5  -8    2.63    0.88   1
   3   5   8    2.19    0.66   1
  -3   5  -8    2.67    0.86   1
  -3   5  -8    3.62    0.93   1
   3   5   8    1.97    0.76   1
   3  -5   8    1.87    0.70   1
   3  -5   8    2.57    0.70   1
   3  -5   8    3.20    0.92   1
  -3   5  -9   10.18    1.49   1
  -3   5  -9    9.71    1.41   1
   3   5   9    8.86    1.14   1
  -3   5  -9    9.29    1.30   1
   3   5   9   10.30    1.31   1
   3  -5   9    8.17    1.36   1
   3  -5   9   11.15    1.29   1
   3   5  10   10.55    1.26   1
   3   5  10   12.11    1.48   1
  -3   5 -10    9.26    1.47   1
  -3   5 -10   10.62    1.54   1
   3  -5  10    8.58    1.43   1
   3   5  11    2.61    0.80   1
  -3   5 -11    2.17    0.89   1
   3   5  11    1.64    0.90   1
   3  -5  11    1.61    1.01   1
  -3   6  12    1.30    0.67   1
   3   6 -12    1.66    1.20   1
   3   6 -12    1.34    0.79   1
   3   6 -12    1.24    1.06   1
  -3   6  12    1.87    0.82   1
  -3  -6  12    3.37    1.06   1
  -3  -6  12    3.89    1.03   1
  -3   6  11   16.56    1.73   1
   3   6 -11   16.26    1.74   1
   3   6 -11   15.11    1.74   1
  -3   6  11   14.54    1.57   1
   3   6 -11   15.20    1.90   1
  -3  -6  11   15.27    1.76   1
  -3  -6  11   14.20    1.63   1
   3   6 -10   -0.18    0.57   1
  -3   6  10    0.14    0.56   1
   3   6 -10   -0.07    0.58   1
  -3   6  10    0.13    0.64   1
   3   6 -10    0.33    0.61   1
   3   6 -10    0.19    0.67   1
  -3  -6  10   -0.47    0.68   1
  -3  -6  10    0.83    0.73   1
  -3  -6  10   -0.70    0.57   1
   3   6  -9    0.76    0.62   1
  -3   6   9    0.00    0.58   1
   3   6  -9   -0.47    0.50   1
  -3   6   9   -0.64    0.52   1
   3   6  -9    0.03    0.62   1
   3   6  -9   -0.07    0.73   1
  -3  -6   9   -0.09    0.63   1
  -3  -6   9    0.33    0.62   1
  -3  -6   9   -0.49    0.64   1
  -3   6   8    7.06    0.90   1
   3   6  -8    8.96    1.15   1
   3   6  -8    8.11    1.12   1
  -3   6   8    5.27    0.94   1
   3   6  -8    9.11    1.19   1
   3   6  -8    7.33    1.15   1
  -3  -6   8    6.66    1.14   1
  -3  -6   8    9.05    1.25   1
  -3  -6   8    6.81    0.99   1
   3  -6  -8    7.48    1.01   1
  -3   6   7    7.37    0.83   1
   3   6  -7    6.82    1.02   1
  -3   6   7    7.45    0.96   1
   3   6  -7    8.83    1.25   1
   3   6  -7    7.48    1.07   1
   3   6  -7    6.58    0.88   1
  -3  -6   7   10.27    1.23   1
   3  -6  -7    6.56    0.90   1
  -3  -6   7    6.90    0.88   1
  -3  -6   7    6.74    1.09   1
   3   6  -6   67.78    3.75   1
   3   6  -6   67.40    3.67   1
  -3   6   6   71.74    3.71   1
   3   6  -6   63.12    3.98   1
  -3   6   6   63.64    3.57   1
  -3  -6   6   66.58    3.64   1
   3  -6  -6   63.42    3.70   1
  -3  -6   6   67.59    3.88   1
  -3  -6   6   69.32    4.01   1
   3   6  -5    0.29    0.31   1
   3   6  -5   -0.38    0.42   1
  -3   6   5   -0.20    0.29   1
  -3   6   5   -0.48    0.24   1
   3   6  -5   -0.23    0.47   1
   3   6  -5    0.32    0.39   1
  -3  -6   5   -0.16    0.41   1
  -3  -6   5    0.30    0.33   1
   3  -6  -5    0.16    0.35   1
  -3  -6   5    1.24    0.66   1
   3   6  -4   20.16    1.68   1
  -3   6   4   21.14    1.35   1
   3   6  -4   20.88    1.39   1
   3   6  -4   23.26    1.43   1
   3   6  -4   20.83    1.32   1
  -3   6   4   23.82    1.34   1
  -3  -6   4   20.70    1.79   1
   3  -6  -4   22.83    1.52   1
  -3  -6   4   20.91    1.53   1
  -3  -6   4   24.43    1.40   1
   3  -6  -4   22.77    1.50   1
   3   6  -3    1.30    0.37   1
   3   6  -3    0.74    0.53   1
  -3   6   3    1.12    0.30   1
   3   6  -3    0.74    0.24   1
   3   6  -3    1.25    0.31   1
  -3   6   3    1.08    0.27   1
  -3  -6   3    2.25    0.68   1
   3  -6  -3    1.05    0.40   1
  -3  -6   3    1.37    0.35   1
  -3  -6   3    1.32    0.43   1
  -3  -6   3    1.56    0.31   1
   3  -6  -3    0.73    0.43   1
   3   6  -2    6.76    0.63   1
   3   6  -2    6.26    0.47   1
  -3   6   2    6.96    0.58   1
   3   6  -2    6.32    0.52   1
  -3   6   2    6.12    0.49   1
  -3   6   2    5.84    0.51   1
   3   6  -2    5.56    0.84   1
   3   6  -2    4.89    0.52   1
  -3  -6   2    5.43    0.68   1
   3  -6  -2    6.07    0.73   1
  -3  -6   2    7.34    0.60   1
   3  -6  -2    6.09    0.76   1
   3  -6  -2    6.58    0.71   1
  -3  -6   2    5.96    0.58   1
  -3  -6   2    4.39    0.94   1
   3   6  -1  101.50    5.16   1
  -3   6   1   99.62    5.18   1
   3   6  -1  107.94    5.13   1
   3   6  -1  101.78    5.10   1
   3   6  -1  116.52    5.55   1
  -3   6   1  102.22    5.17   1
   3   6  -1  105.21    5.24   1
  -3   6   1  103.39    5.23   1
  -3  -6   1  104.42    5.34   1
  -3  -6   1   86.46    5.59   1
   3  -6  -1  102.43    5.36   1
   3  -6  -1   98.61    5.40   1
  -3  -6   1  107.54    5.30   1
   3  -6  -1   99.89    5.37   1
  -3  -6   1  105.31    5.25   1
  -3   6   0    0.37    0.28   1
   3   6   0    0.67    0.40   1
  -3   6   0    0.74    0.23   1
   3   6   0    0.66    0.12   1
  -3   6   0    0.81    0.22   1
   3   6   0    0.86    0.19   1
   3   6   0    0.90    0.13   1
  -3  -6   0    0.84    0.34   1
   3  -6   0    0.57    0.37   1
   3  -6   0    0.27    0.33   1
  -3  -6   0    0.76    0.32   1
  -3  -6   0    0.53    0.29   1
   3  -6   0    0.50    0.38   1
  -3  -6   0    1.16    0.57   1
  -3   6  -1  102.72    5.11   1
  -3   6  -1  103.02    5.07   1
   3   6   1   99.62    4.97   1
   3   6   1   83.20    5.16   1
  -3   6  -1  103.08    5.27   1
   3   6   1  106.28    4.94   1
   3   6   1   98.68    4.91   1
   3  -6   1   99.10    5.20   1
   3  -6   1   93.76    5.14   1
  -3  -6  -1  104.80    5.11   1
   3  -6   1   94.02    5.22   1
  -3  -6  -1   97.08    5.08   1
  -3  -6  -1  103.35    5.35   1
   3   6   2    1.53    0.30   1
   3   6   2    2.16    0.27   1
   3   6   2    3.12    0.48   1
  -3   6  -2    2.28    0.44   1
  -3   6  -2    2.62    0.57   1
   3   6   2    2.03    0.32   1
  -3   6  -2    2.24    0.44   1
   3  -6   2    2.89    0.52   1
   3  -6   2    1.62    0.43   1
   3  -6   2    2.27    0.51   1
  -3  -6  -2    2.38    0.39   1
  -3  -6  -2    2.21    0.50   1
   3   6   3   -0.08    0.26   1
   3   6   3   -0.17    0.23   1
  -3   6  -3   -0.03    0.36   1
  -3   6  -3    0.06    0.35   1
  -3   6  -3   -0.25    0.29   1
   3  -6   3   -0.59    0.36   1
   3  -6   3   -0.71    0.32   1
  -3  -6  -3   -0.13    0.24   1
   3  -6   3   -0.16    0.36   1
  -3   6  -4   28.08    1.89   1
   3   6   4   28.95    1.71   1
   3   6   4   26.36    1.68   1
  -3   6  -4   29.10    1.86   1
   3  -6   4   26.24    1.84   1
   3  -6   4   30.43    1.89   1
   3  -6   4   26.94    1.78   1
  -3   6  -5    1.98    0.65   1
  -3   6  -5    1.15    0.61   1
   3   6   5    1.46    0.50   1
  -3   6  -5    1.26    0.57   1
   3   6   5    1.38    0.43   1
  -3   6  -5    1.14    0.48   1
   3  -6   5    1.29    0.52   1
   3  -6   5    1.25    0.57   1
   3  -6   5    0.87    0.54   1
  -3   6  -6   60.45    3.56   1
  -3   6  -6   54.93    3.43   1
  -3   6  -6   46.50    3.43   1
   3   6   6   57.49    3.25   1
  -3   6  -6   63.57    3.45   1
   3   6   6   53.19    3.33   1
   3  -6   6   61.41    3.48   1
   3  -6   6   60.33    3.30   1
   3  -6   6   62.63    3.49   1
   3   6   7    4.04    0.86   1
  -3   6  -7    4.45    1.00   1
  -3   6  -7    4.35    0.94   1
  -3   6  -7    3.17    0.83   1
  -3   6  -7    3.70    0.78   1
   3   6   7    3.27    0.66   1
   3  -6   7    2.50    0.86   1
   3  -6   7    2.93    0.88   1
   3  -6   7    4.36    0.76   1
  -3   6  -8    2.53    0.85   1
   3   6   8    2.54    0.66   1
   3   6   8    3.06    0.81   1
  -3   6  -8    2.20    0.85   1
  -3   6  -8    3.14    0.96   1
  -3   6  -8    2.28    0.74   1
   3  -6   8    2.54    0.85   1
   3  -6   8    2.28    0.72   1
   3  -6   8    2.13    0.91   1
   3   6   9    1.21    0.60   1
  -3   6  -9    1.81    0.90   1
  -3   6  -9    1.34    0.80   1
  -3   6  -9    0.98    0.78   1
   3   6   9    0.34    0.70   1
   3  -6   9    1.70    0.80   1
   3  -6   9   -0.87    0.82   1
  -3   6 -10   -0.10    0.77   1
  -3   6 -10   -0.02    0.77   1
   3   6  10    0.51    0.71   1
   3   6  10    0.99    0.60   1
   3  -6  10    1.33    1.00   1
   3   6  11   10.40    1.33   1
   3   6  11   10.71    1.57   1
  -3   6 -11   13.84    1.80   1
   3  -6  11    9.17    1.66   1
  -3  -7  12    1.62    0.89   1
   3   7 -11    2.66    0.89   1
  -3   7  11    3.32    0.86   1
   3   7 -11    1.70    0.88   1
  -3   7  11    2.94    0.89   1
   3   7 -11    2.12    0.98   1
  -3  -7  11    3.34    1.06   1
  -3  -7  11    2.89    0.94   1
  -3   7  10   -0.24    0.60   1
  -3   7  10    0.49    0.66   1
   3   7 -10    0.23    0.66   1
   3   7 -10    0.08    0.72   1
   3   7 -10   -0.47    0.56   1
   3   7 -10    0.32    0.60   1
  -3  -7  10   -0.80    0.69   1
  -3  -7  10   -0.49    0.70   1
  -3  -7  10    0.64    0.77   1
  -3   7   9   27.52    2.01   1
   3   7  -9   27.59    2.14   1
   3   7  -9   26.25    2.29   1
   3   7  -9   26.95    2.09   1
   3   7  -9   26.28    2.09   1
  -3   7   9   28.13    2.06   1
  -3  -7   9   20.89    1.96   1
  -3  -7   9   26.39    2.18   1
  -3  -7   9   27.89    2.27   1
   3   7  -8   27.10    1.95   1
   3   7  -8   22.67    2.12   1
   3   7  -8   26.12    2.00   1
  -3   7   8   24.80    1.75   1
  -3   7   8   24.29    1.90   1
   3   7  -8   23.50    1.89   1
  -3  -7   8   25.70    1.82   1
  -3  -7   8   24.33    2.06   1
  -3  -7   8   22.43    2.04   1
   3  -7  -8   22.61    1.82   1
   3   7  -7    0.48    0.51   1
   3   7  -7    0.35    0.68   1
  -3   7   7   -0.13    0.38   1
   3   7  -7    0.37    0.60   1
  -3   7   7    0.20    0.49   1
   3   7  -7   -0.09    0.50   1
   3  -7  -7    0.42    0.54   1
  -3  -7   7    1.23    0.73   1
  -3  -7   7    0.34    0.53   1
  -3  -7   7    1.42    0.73   1
   3   7  -6    1.85    0.75   1
   3   7  -6    1.63    0.60   1
  -3   7   6    1.69    0.51   1
  -3   7   6    2.23    0.46   1
   3   7  -6    1.13    0.54   1
   3   7  -6    1.44    0.49   1
  -3  -7   6    1.48    0.75   1
  -3  -7   6    1.34    0.68   1
   3  -7  -6    0.87    0.53   1
  -3  -7   6    2.44    0.54   1
   3   7  -5    9.85    1.22   1
   3   7  -5   16.14    1.14   1
  -3   7   5   14.87    1.07   1
   3   7  -5   17.29    1.29   1
  -3   7   5   18.34    1.16   1
   3   7  -5   14.84    1.62   1
  -3  -7   5   15.75    1.17   1
  -3  -7   5   17.01    1.60   1
   3  -7  -5   16.96    1.28   1
  -3  -7   5   16.08    1.38   1
   3   7  -4   74.35    4.44   1
   3   7  -4   77.67    4.15   1
  -3   7   4   77.36    4.00   1
   3   7  -4   78.23    4.18   1
  -3   7   4   76.38    4.03   1
   3   7  -4   74.73    4.01   1
  -3  -7   4   80.71    4.62   1
  -3  -7   4   75.89    4.26   1
   3  -7  -4   78.24    4.22   1
   3  -7  -4   76.69    4.24   1
  -3  -7   4   77.88    4.11   1
  -3   7   3   34.09    1.80   1
  -3   7   3   32.43    1.81   1
   3   7  -3   34.00    2.25   1
   3   7  -3   33.88    1.85   1
   3   7  -3   30.39    1.77   1
   3   7  -3   31.51    1.91   1
   3  -7  -3   32.24    2.04   1
  -3  -7   3   32.32    2.04   1
   3  -7  -3   29.26    1.98   1
  -3  -7   3   32.15    2.39   1
  -3  -7   3   33.37    1.92   1
  -3  -7   3   31.57    1.83   1
   3   7  -2   10.44    1.15   1
   3   7  -2    8.72    0.59   1
   3   7  -2    5.26    0.63   1
  -3   7   2    8.43    0.67   1
   3   7  -2    8.86    0.64   1
  -3   7   2    7.78    0.62   1
   3   7  -2    9.40    0.75   1
  -3  -7   2   10.58    0.79   1
  -3  -7   2    7.54    1.16   1
  -3  -7   2    8.97    0.74   1
  -3  -7   2    9.32    0.92   1
   3  -7  -2    8.37    0.91   1
   3  -7  -2   10.99    1.05   1
   3  -7  -2    7.84    0.88   1
   3   7  -1   35.76    1.93   1
   3   7  -1   37.75    1.92   1
  -3   7   1   35.34    1.98   1
  -3   7   1   36.71    2.02   1
   3   7  -1   40.06    2.37   1
   3   7  -1   37.15    2.07   1
   3   7  -1   36.70    1.89   1
  -3  -7   1   40.22    2.16   1
   3  -7  -1   36.46    2.22   1
   3  -7  -1   32.65    2.16   1
  -3  -7   1   36.99    2.53   1
  -3  -7   1   36.87    2.09   1
   3  -7  -1   34.56    2.26   1
  -3  -7   1   38.38    2.19   1
   3   7   0   26.65    1.33   1
  -3   7   0   25.37    1.52   1
   3   7   0   27.18    1.78   1
  -3   7   0   22.95    1.45   1
   3   7   0   26.64    1.38   1
   3   7   0   25.95    1.33   1
  -3  -7   0   26.45    1.96   1
   3  -7   0   27.07    1.71   1
   3  -7   0   25.29    1.68   1
  -3  -7   0   24.26    1.60   1
   3  -7   0   28.22    1.78   1
  -3  -7   0   26.12    1.58   1
  -3  -7   0   27.08    1.67   1
  -3   7  -1   48.92    2.70   1
   3   7   1   51.98    2.57   1
  -3   7  -1   51.06    2.74   1
   3   7   1   55.04    2.55   1
  -3   7  -1   49.96    2.91   1
   3   7   1   40.64    2.83   1
   3   7   1   49.09    2.52   1
  -3  -7  -1   50.34    2.77   1
   3  -7   1   49.98    2.89   1
   3  -7   1   47.33    2.82   1
   3  -7   1   49.40    2.91   1
  -3  -7  -1   50.69    2.77   1
  -3  -7  -1   55.91    3.05   1
   3   7   2   14.50    0.83   1
  -3   7  -2   15.54    1.08   1
   3   7   2   13.66    0.86   1
  -3   7  -2   13.03    1.02   1
   3   7   2   11.59    0.86   1
   3   7   2   13.51    1.08   1
  -3   7  -2   15.17    1.17   1
  -3  -7  -2   15.56    1.20   1
   3  -7   2   16.03    1.16   1
  -3  -7  -2   13.91    1.01   1
   3  -7   2   13.19    1.16   1
   3  -7   2   13.91    1.17   1
  -3   7  -3   30.92    1.84   1
   3   7   3   23.82    1.66   1
   3   7   3   30.36    1.66   1
  -3   7  -3   28.60    1.88   1
  -3   7  -3   28.88    1.98   1
   3  -7   3   33.63    1.91   1
  -3  -7  -3   30.03    1.84   1
   3  -7   3   28.93    1.93   1
   3  -7   3   30.65    1.96   1
  -3   7  -4   66.38    3.46   1
   3   7   4   61.04    3.26   1
  -3   7  -4   46.71    3.36   1
  -3   7  -4   58.49    3.50   1
   3   7   4   64.18    3.24   1
   3  -7   4   60.93    3.48   1
   3  -7   4   64.52    3.53   1
   3  -7   4   58.09    3.35   1
  -3   7  -5   11.34    1.28   1
   3   7   5   11.50    1.00   1
  -3   7  -5   11.56    1.38   1
   3   7   5   11.90    1.02   1
  -3   7  -5   11.70    1.27   1
  -3   7  -5   12.00    1.30   1
   3  -7   5   10.81    1.21   1
   3  -7   5   10.95    1.09   1
   3  -7   5   12.48    1.33   1
  -3   7  -6    1.84    0.63   1
   3   7   6    1.63    0.58   1
  -3   7  -6    1.11    0.73   1
   3   7   6    0.87    0.45   1
  -3   7  -6    1.08    0.66   1
  -3   7  -6    1.14    0.63   1
   3  -7   6    0.10    0.49   1
   3  -7   6    1.62    0.74   1
   3  -7   6    1.51    0.69   1
   3   7   7    0.09    0.57   1
  -3   7  -7    0.64    0.75   1
  -3   7  -7    0.66    0.75   1
  -3   7  -7   -0.45    0.52   1
  -3   7  -7    0.83    0.67   1
   3   7   7    0.48    0.47   1
   3  -7   7    0.37    0.74   1
   3  -7   7    0.68    0.68   1
   3  -7   7    0.91    0.58   1
   3   7   8   14.96    1.59   1
  -3   7  -8   16.09    1.84   1
  -3   7  -8   17.17    1.92   1
   3   7   8   15.34    1.48   1
  -3   7  -8   15.68    1.86   1
  -3   7  -8   17.23    1.66   1
   3  -7   8   18.71    1.88   1
   3  -7   8   18.24    1.81   1
   3   7   9   14.33    1.60   1
   3   7   9   15.31    1.50   1
  -3   7  -9   16.52    1.85   1
  -3   7  -9   14.15    1.77   1
  -3   7  -9   16.26    1.91   1
  -3   7  -9   12.45    1.73   1
   3  -7   9   17.55    1.80   1
   3  -7   9   13.91    1.78   1
   3   7  10    1.24    0.74   1
   3   7  10    0.13    0.57   1
  -3   7 -10   -0.76    0.63   1
   3  -7  10   -0.04    0.93   1
   3   8 -11    4.25    1.12   1
  -3   8  11    6.61    1.14   1
  -3   8  11    3.03    0.89   1
   3   8 -11    4.22    0.99   1
  -3  -8  11    5.80    1.13   1
  -3  -8  11    5.75    1.48   1
  -3   8  10    7.68    1.18   1
   3   8 -10    8.34    1.51   1
  -3   8  10    7.71    1.15   1
   3   8 -10    6.92    1.18   1
   3   8 -10    7.24    1.27   1
   3   8 -10    8.77    1.27   1
  -3  -8  10    8.50    1.26   1
  -3  -8  10    9.45    1.49   1
  -3  -8  10    7.48    1.36   1
   3   8  -9    1.96    1.01   1
  -3   8   9    1.46    0.72   1
   3   8  -9    2.77    0.88   1
   3   8  -9    1.26    0.71   1
   3   8  -9    1.78    0.78   1
  -3   8   9    2.60    0.74   1
  -3  -8   9    1.20    0.77   1
  -3  -8   9    1.54    0.92   1
  -3  -8   9    1.22    0.84   1
  -3   8   8    2.17    0.70   1
  -3   8   8    2.51    0.65   1
   3   8  -8    2.47    0.83   1
   3   8  -8    4.31    0.89   1
   3   8  -8    2.33    0.70   1
   3   8  -8    2.17    0.95   1
   3  -8  -8    2.35    0.81   1
  -3  -8   8    2.45    0.72   1
  -3  -8   8    2.65    0.95   1
  -3  -8   8    3.09    1.01   1
   3   8  -7   18.83    1.55   1
  -3   8   7   18.17    1.35   1
   3   8  -7   16.62    1.69   1
   3   8  -7   17.80    2.01   1
  -3   8   7   14.91    1.53   1
   3   8  -7   17.95    1.52   1
  -3  -8   7   20.66    1.89   1
   3  -8  -7   17.99    1.67   1
  -3  -8   7   18.95    1.50   1
  -3  -8   7   19.68    1.90   1
   3   8  -6   27.53    1.81   1
  -3   8   6   28.37    1.81   1
   3   8  -6   26.71    2.26   1
   3   8  -6   27.11    1.92   1
   3   8  -6   29.49    1.91   1
  -3   8   6   24.20    1.64   1
   3  -8  -6   24.25    1.88   1
  -3  -8   6   25.84    2.06   1
  -3  -8   6   25.93    1.81   1
  -3  -8   6   27.88    2.26   1
   3   8  -5    9.33    1.44   1
   3   8  -5   11.71    1.17   1
  -3   8   5   12.87    0.99   1
   3   8  -5   12.90    1.15   1
  -3   8   5   11.87    0.91   1
  -3  -8   5   13.82    1.69   1
  -3  -8   5    8.83    1.21   1
  -3  -8   5   12.18    1.13   1
   3  -8  -5   10.26    1.17   1
   3   8  -4    0.94    0.34   1
  -3   8   4    0.64    0.32   1
   3   8  -4    1.30    0.48   1
   3   8  -4    0.36    0.41   1
   3   8  -4    1.49    0.71   1
  -3   8   4    1.48    0.37   1
  -3  -8   4   -0.17    0.68   1
   3  -8  -4    0.40    0.46   1
   3  -8  -4    1.13    0.57   1
  -3  -8   4    0.79    0.53   1
  -3  -8   4    0.24    0.41   1
  -3   8   3   32.45    1.85   1
   3   8  -3   32.22    2.32   1
   3   8  -3   33.92    2.00   1
  -3   8   3   32.12    1.83   1
   3   8  -3   31.77    1.82   1
  -3  -8   3   35.57    2.57   1
  -3  -8   3   34.76    2.01   1
   3  -8  -3   33.99    2.12   1
  -3  -8   3   32.57    2.12   1
   3  -8  -3   30.63    2.12   1
  -3   8   2   53.60    2.87   1
  -3   8   2   54.78    2.89   1
   3   8  -2   57.56    3.04   1
   3   8  -2   57.46    3.37   1
   3   8  -2   55.54    2.83   1
  -3  -8   2   48.59    3.48   1
   3  -8  -2   50.34    3.13   1
  -3  -8   2   58.05    3.04   1
  -3  -8   2   54.31    3.15   1
   3  -8  -2   55.23    3.23   1
   3  -8  -2   56.45    3.15   1
  -3  -8   2   53.34    3.03   1
   3   8  -1   22.57    1.20   1
   3   8  -1   20.09    1.40   1
  -3   8   1   23.12    1.34   1
   3   8  -1   24.36    1.24   1
   3   8  -1   24.02    1.74   1
  -3   8   1   20.15    1.29   1
   3  -8  -1   21.84    1.56   1
  -3  -8   1   22.39    1.51   1
  -3  -8   1   24.68    1.94   1
   3  -8  -1   19.86    1.62   1
   3  -8  -1   19.46    1.54   1
  -3  -8   1   25.44    1.49   1
  -3  -8   1   21.15    1.56   1
   3   8   0    0.16    0.10   1
   3   8   0    0.42    0.31   1
   3   8   0   -0.11    0.39   1
  -3   8   0    0.11    0.23   1
   3   8   0    0.03    0.10   1
  -3   8   0    0.08    0.27   1
  -3  -8   0    0.01    0.33   1
  -3  -8   0    0.34    0.55   1
   3  -8   0    0.56    0.45   1
   3  -8   0    0.21    0.43   1
   3  -8   0    0.00    0.38   1
  -3  -8   0    0.26    0.41   1
  -3  -8   0    0.18    0.34   1
  -3   8  -1   17.78    1.16   1
  -3   8  -1   16.07    1.37   1
   3   8   1   17.47    0.91   1
   3   8   1   17.95    0.93   1
   3   8   1   12.23    1.26   1
  -3   8  -1   16.44    1.12   1
  -3  -8  -1   19.90    1.27   1
   3  -8   1   16.82    1.34   1
   3  -8   1   16.30    1.28   1
  -3  -8  -1   17.10    1.22   1
   3  -8   1   16.41    1.38   1
  -3  -8  -1   15.03    1.40   1
   3   8   2   56.16    2.89   1
  -3   8  -2   54.65    3.29   1
  -3   8  -2   56.00    3.06   1
  -3   8  -2   57.43    3.08   1
  -3  -8  -2   58.08    3.28   1
   3  -8   2   55.93    3.25   1
   3  -8   2   54.45    3.15   1
   3  -8   2   48.69    3.22   1
  -3  -8  -2   58.45    3.12   1
  -3   8  -3   31.14    1.99   1
  -3   8  -3   30.12    2.11   1
  -3   8  -3   31.17    1.92   1
   3  -8   3   32.36    2.02   1
  -3  -8  -3   28.80    1.96   1
   3  -8   3   31.21    2.10   1
   3  -8   3   32.01    2.11   1
  -3   8  -4    0.06    0.47   1
   3   8   4    0.43    0.31   1
   3   8   4    0.93    0.38   1
  -3   8  -4    1.15    0.60   1
  -3   8  -4    0.16    0.43   1
   3  -8   4    1.01    0.54   1
   3  -8   4    1.05    0.59   1
   3  -8   4    0.42    0.55   1
   3   8   5    5.41    0.68   1
   3   8   5    7.09    0.78   1
  -3   8  -5    3.76    0.93   1
  -3   8  -5    6.44    0.95   1
  -3   8  -5    6.22    0.96   1
  -3   8  -5    5.21    0.96   1
   3  -8   5    5.04    0.98   1
   3  -8   5    5.52    0.94   1
   3  -8   5    6.25    0.88   1
  -3   8  -6   19.05    1.68   1
   3   8   6   18.16    1.41   1
  -3   8  -6   19.36    1.71   1
   3   8   6   17.26    1.39   1
  -3   8  -6   19.79    1.68   1
  -3   8  -6   18.40    1.77   1
   3  -8   6   17.40    1.48   1
   3  -8   6   20.32    1.74   1
   3  -8   6   20.73    1.97   1
  -3   8  -7   16.12    1.87   1
  -3   8  -7   18.06    1.89   1
   3   8   7   14.80    1.39   1
  -3   8  -7   16.46    1.61   1
   3   8   7   16.43    1.36   1
  -3   8  -7   12.72    1.67   1
   3  -8   7   17.30    1.85   1
   3  -8   7   16.74    1.76   1
  -3   8  -8    1.87    0.84   1
  -3   8  -8    2.22    0.93   1
  -3   8  -8    3.14    1.00   1
   3   8   8    2.08    0.73   1
   3   8   8    2.45    0.67   1
  -3   8  -8    1.71    0.74   1
   3  -8   8    1.09    0.86   1
   3  -8   8    2.95    1.06   1
   3   8   9   -0.09    0.63   1
  -3   8  -9    2.93    1.00   1
  -3   8  -9    1.19    0.89   1
  -3   8  -9    1.91    0.77   1
  -3   8  -9    0.93    0.79   1
   3   8   9    0.99    0.63   1
   3  -8   9    2.41    0.99   1
   3  -8   9    0.56    0.87   1
   3   9 -10    5.10    1.01   1
  -3   9  10    2.93    0.80   1
   3   9 -10    5.93    1.06   1
  -3   9  10    2.22    0.82   1
  -3  -9  10    3.39    0.89   1
  -3  -9  10    3.75    1.14   1
  -3  -9  10    5.03    1.30   1
  -3   9   9    0.75    0.61   1
   3   9  -9    0.17    0.58   1
   3   9  -9    0.12    0.76   1
  -3   9   9    0.33    0.56   1
   3   9  -9   -0.08    0.75   1
   3   9  -9    0.60    0.67   1
  -3  -9   9    0.64    0.69   1
  -3  -9   9    0.40    0.87   1
  -3  -9   9    0.86    0.84   1
   3   9  -8    1.76    0.87   1
  -3   9   8    1.73    0.63   1
   3   9  -8    3.45    0.81   1
   3   9  -8    2.14    1.00   1
   3   9  -8    3.51    0.88   1
  -3   9   8    1.90    0.64   1
  -3  -9   8    2.26    1.01   1
  -3  -9   8    0.75    0.64   1
   3  -9  -8    1.34    0.81   1
  -3  -9   8    1.59    0.94   1
   3   9  -7   11.05    1.62   1
  -3   9   7    9.65    0.99   1
   3   9  -7    8.50    1.08   1
  -3   9   7    7.79    0.99   1
   3   9  -7   10.37    1.31   1
   3   9  -7    6.79    1.08   1
  -3  -9   7   10.27    1.54   1
  -3  -9   7    8.06    1.32   1
   3  -9  -7   10.18    1.31   1
  -3  -9   7    8.69    1.12   1
   3   9  -6    0.18    0.50   1
   3   9  -6    0.17    0.49   1
  -3   9   6    0.32    0.36   1
   3   9  -6    0.84    0.80   1
   3   9  -6    0.81    0.48   1
  -3   9   6    0.74    0.47   1
  -3  -9   6    0.36    0.80   1
  -3  -9   6    0.58    0.67   1
  -3  -9   6    1.05    0.54   1
   3  -9  -6    0.84    0.63   1
   3   9  -5   16.52    1.96   1
  -3   9   5   18.34    1.27   1
   3   9  -5   20.47    1.46   1
   3   9  -5   19.83    1.49   1
  -3   9   5   18.66    1.32   1
   3   9  -5   19.01    1.38   1
  -3  -9   5   21.54    2.23   1
   3  -9  -5   18.75    1.58   1
  -3  -9   5   17.79    1.65   1
  -3  -9   5   20.69    1.50   1
  -3   9   4    4.15    0.55   1
  -3   9   4    2.97    0.47   1
   3   9  -4    5.33    0.77   1
   3   9  -4    3.41    0.60   1
   3   9  -4    3.51    0.54   1
   3   9  -4    4.88    1.05   1
  -3  -9   4    4.62    0.86   1
   3  -9  -4    3.76    0.77   1
   3  -9  -4    3.25    0.80   1
  -3  -9   4    4.94    0.73   1
  -3  -9   4    3.80    1.09   1
   3   9  -3    1.76    0.35   1
  -3   9   3    1.59    0.36   1
   3   9  -3    1.92    0.47   1
  -3   9   3    1.70    0.55   1
   3   9  -3    1.86    0.81   1
   3   9  -3    2.25    0.55   1
   3  -9  -3    2.16    0.67   1
   3  -9  -3    1.04    0.57   1
  -3  -9   3    1.50    0.55   1
  -3  -9   3    1.59    0.64   1
  -3  -9   3    1.10    0.85   1
   3   9  -2    5.19    0.96   1
  -3   9   2    3.89    0.46   1
  -3   9   2    3.94    0.47   1
   3   9  -2    3.63    0.60   1
   3   9  -2    3.73    0.41   1
  -3  -9   2    3.94    0.77   1
  -3  -9   2    3.33    1.06   1
   3  -9  -2    3.95    0.76   1
  -3  -9   2    3.94    0.67   1
  -3  -9   2    2.97    0.60   1
   3  -9  -2    4.75    0.83   1
   3   9  -1    9.53    1.29   1
  -3   9   1   10.12    0.76   1
  -3   9   1    9.36    0.76   1
   3   9  -1    9.44    0.63   1
   3   9  -1    9.63    0.86   1
  -3  -9   1   13.20    1.09   1
  -3  -9   1   12.88    1.14   1
   3  -9  -1    9.81    1.11   1
   3  -9  -1    9.10    1.14   1
  -3  -9   1    9.63    0.98   1
   3  -9  -1    9.10    1.04   1
  -3  -9   1   11.13    1.48   1
  -3   9   0   43.97    2.49   1
   3   9   0   46.21    2.63   1
   3   9   0   45.67    2.33   1
  -3   9   0   44.63    2.84   1
   3   9   0   46.90    2.93   1
   3   9   0   46.22    2.33   1
  -3   9   0   47.66    2.52   1
   3  -9   0   44.38    2.81   1
  -3  -9   0   45.69    2.74   1
   3  -9   0   44.92    2.77   1
   3  -9   0   45.16    2.87   1
  -3  -9   0   45.61    2.72   1
  -3  -9   0   45.97    2.67   1
  -3  -9   0   51.76    3.13   1
   3   9   1    3.12    0.28   1
   3   9   1    3.08    0.27   1
  -3   9  -1    3.49    0.53   1
   3   9   1    2.53    0.70   1
  -3   9  -1    3.52    0.77   1
  -3   9  -1    2.79    0.47   1
   3  -9   1    2.74    0.71   1
   3  -9   1    4.47    0.74   1
  -3  -9  -1    4.48    0.86   1
  -3  -9  -1    3.50    0.62   1
  -3  -9  -1    3.47    0.62   1
   3  -9   1    3.50    0.74   1
  -3   9  -2    3.71    0.81   1
  -3   9  -2    3.07    0.56   1
   3   9   2    3.51    0.38   1
  -3   9  -2    3.81    0.60   1
   3  -9   2    3.60    0.78   1
  -3  -9  -2    3.96    0.67   1
  -3  -9  -2    4.22    0.84   1
   3  -9   2    4.22    0.83   1
   3  -9   2    3.46    0.69   1
   3   9   3    0.85    0.33   1
  -3   9  -3    0.91    0.48   1
  -3   9  -3    0.45    0.41   1
  -3   9  -3    0.12    0.54   1
  -3  -9  -3   -0.07    0.62   1
   3  -9   3    0.40    0.58   1
   3  -9   3    0.70    0.57   1
   3  -9   3    0.77    0.51   1
  -3   9  -4    6.73    1.04   1
  -3   9  -4    3.66    0.79   1
  -3   9  -4    4.21    0.73   1
   3   9   4    3.96    0.60   1
   3  -9   4    5.48    1.00   1
   3  -9   4    4.86    0.82   1
   3  -9   4    4.74    0.92   1
   3   9   5   17.51    1.36   1
  -3   9  -5   21.21    1.88   1
  -3   9  -5   19.11    1.65   1
  -3   9  -5   19.27    1.89   1
  -3   9  -5   21.01    1.60   1
   3  -9   5   16.94    1.77   1
   3  -9   5   18.33    1.86   1
   3  -9   5   19.04    1.54   1
  -3   9  -6    1.74    0.80   1
   3   9   6    1.40    0.51   1
  -3   9  -6    1.28    0.68   1
  -3   9  -6    1.77    0.76   1
  -3   9  -6    2.14    0.80   1
   3  -9   6    0.57    0.73   1
   3  -9   6    1.33    0.85   1
  -3   9  -7    4.12    1.03   1
  -3   9  -7    4.77    1.10   1
  -3   9  -7    7.17    1.10   1
   3   9   7    5.82    0.87   1
  -3   9  -7    5.37    1.13   1
   3  -9   7    5.44    1.26   1
   3  -9   7    5.35    1.22   1
  -3   9  -8   -0.14    0.77   1
  -3   9  -8    1.55    0.88   1
   3   9   8    1.67    0.63   1
  -3   9  -8    1.53    0.74   1
  -3   9  -8    1.69    0.89   1
   3  -9   8    0.53    0.94   1
   3  -9   8    2.22    0.96   1
  -3   9  -9    1.77    0.77   1
   3   9   9    1.50    0.69   1
  -3   9  -9    1.72    1.15   1
   3  -9   9   -1.64    1.05   1
   3  -9   9    1.63    1.14   1
   3  10  -9    1.35    0.71   1
   3  10  -9   -0.25    0.63   1
  -3  10   9    0.92    0.71   1
  -3 -10   9    0.35    1.01   1
  -3 -10   9    0.95    1.06   1
   3  10  -8    6.68    1.40   1
  -3  10   8    7.03    0.99   1
   3  10  -8    8.48    1.18   1
   3  10  -8    6.89    1.11   1
  -3 -10   8    7.24    1.10   1
  -3 -10   8    7.74    1.56   1
  -3 -10   8    8.58    1.46   1
  -3  10   7    0.03    0.41   1
   3  10  -7    2.03    0.95   1
   3  10  -7    0.43    0.58   1
   3  10  -7   -0.11    0.57   1
   3 -10  -7    0.15    0.72   1
  -3 -10   7    0.22    0.78   1
  -3 -10   7   -0.45    0.81   1
  -3 -10   7    1.07    0.64   1
  -3  10   6    4.84    0.68   1
   3  10  -6    5.16    0.89   1
   3  10  -6    6.15    0.86   1
   3  10  -6    6.03    1.29   1
  -3 -10   6    5.51    1.12   1
   3 -10  -6    6.47    1.12   1
  -3 -10   6    4.87    1.29   1
  -3 -10   6    4.91    0.89   1
  -3  10   5    1.20    0.41   1
   3  10  -5    2.07    0.58   1
   3  10  -5    1.72    0.51   1
   3  10  -5    1.61    0.89   1
  -3 -10   5    2.34    0.82   1
  -3 -10   5    1.67    0.62   1
   3 -10  -5    2.06    0.79   1
  -3 -10   5    1.49    0.96   1
   3  10  -4    6.85    1.26   1
  -3  10   4    5.63    0.64   1
  -3 -10   4    6.90    1.06   1
  -3 -10   4    5.50    1.35   1
   3 -10  -4    7.09    1.05   1
  -3 -10   4    4.91    0.84   1
   3 -10  -4    7.47    1.09   1
   3  10  -3   10.82    1.50   1
   3  10  -3    9.94    0.81   1
  -3  10   3   10.27    0.81   1
  -3 -10   3   10.27    1.25   1
  -3 -10   3   10.70    1.12   1
   3 -10  -3   10.41    1.25   1
  -3 -10   3    9.50    1.60   1
   3 -10  -3    9.62    1.24   1
  -3  10   2    3.79    0.48   1
   3  10  -2    3.65    0.43   1
   3  10  -2    4.03    1.01   1
   3 -10  -2    3.24    0.82   1
  -3 -10   2    4.55    1.16   1
   3 -10  -2    5.66    0.90   1
  -3 -10   2    3.44    0.84   1
  -3 -10   2    4.15    0.71   1
   3  10  -1    9.58    0.61   1
  -3  10   1    8.90    0.76   1
   3  10  -1    9.23    1.31   1
  -3 -10   1    6.17    0.96   1
   3 -10  -1    7.01    1.04   1
  -3 -10   1    8.56    0.99   1
   3 -10  -1    9.21    1.21   1
   3 -10  -1    8.94    1.14   1
  -3 -10   1    9.99    1.15   1
  -3 -10   1   10.03    1.49   1
   3  10   0    0.27    0.14   1
  -3  10   0   -0.34    0.27   1
  -3  10   0    1.09    0.61   1
   3  10   0   -0.37    0.41   1
  -3 -10   0    0.16    0.46   1
   3 -10   0    0.75    0.58   1
   3 -10   0   -0.03    0.53   1
   3 -10   0   -0.70    0.53   1
  -3 -10   0    0.43    0.50   1
  -3 -10   0    0.23    0.65   1
  -3  10  -1    9.33    0.83   1
   3  10   1    9.68    0.59   1
  -3  10  -1    8.83    1.18   1
   3 -10   1   10.20    1.13   1
   3 -10   1    9.19    1.21   1
  -3 -10  -1    9.19    1.29   1
  -3 -10  -1    9.25    1.07   1
   3 -10   1    9.87    1.21   1
  -3  10  -2    5.71    0.96   1
   3  10   2    4.73    0.43   1
  -3  10  -2    4.90    0.66   1
  -3  10  -2    4.43    0.66   1
  -3 -10  -2    4.25    0.87   1
   3 -10   2    3.69    0.75   1
   3 -10   2    4.73    0.92   1
   3 -10   2    3.80    0.90   1
  -3  10  -3    5.45    0.77   1
  -3  10  -3    6.08    0.84   1
  -3  10  -3    7.63    1.10   1
   3  10   3    6.98    0.62   1
   3 -10   3    6.66    0.93   1
   3 -10   3    5.70    1.05   1
   3 -10   3    3.38    0.93   1
  -3  10  -4    6.26    1.16   1
  -3  10  -4    4.90    0.76   1
   3  10   4    3.58    0.59   1
  -3  10  -4    4.96    0.99   1
  -3  10  -4    5.26    0.91   1
   3 -10   4    4.55    1.06   1
   3 -10   4    4.34    0.81   1
   3 -10   4    4.42    0.97   1
  -3  10  -5    0.94    0.67   1
  -3  10  -5    0.20    0.66   1
   3  10   5    0.36    0.40   1
  -3  10  -5    0.47    0.67   1
  -3  10  -5   -0.02    0.51   1
   3 -10   5   -0.04    0.75   1
   3 -10   5    1.18    0.77   1
  -3  10  -6    6.95    1.31   1
   3  10   6    4.59    0.78   1
  -3  10  -6    8.98    1.23   1
  -3  10  -6    6.07    1.13   1
  -3  10  -6    6.38    1.06   1
   3 -10   6    6.43    1.26   1
   3 -10   6    5.97    1.23   1
  -3  10  -7    0.41    0.81   1
  -3  10  -7    1.19    0.85   1
  -3  10  -7    0.71    0.72   1
  -3  10  -7    0.86    0.72   1
   3  10   7    0.36    0.50   1
   3 -10   7    0.41    0.92   1
   3 -10   7    0.94    0.89   1
  -3  10  -8    2.87    0.88   1
  -3  10  -8    3.07    1.16   1
   3  10   8    2.47    0.78   1
   3 -10   8    0.30    1.21   1
   3 -10   8    5.52    1.51   1
  -3  11   8    4.46    0.92   1
   3  11  -8    6.31    1.07   1
  -3 -11   8    6.64    1.56   1
  -3 -11   8    4.36    1.29   1
  -3  11   7    3.82    0.73   1
   3  11  -7    4.68    1.26   1
   3  11  -7    5.28    0.93   1
  -3 -11   7    5.27    1.21   1
  -3 -11   7    4.40    1.28   1
   3 -11  -7    4.48    1.06   1
   3  11  -6    0.62    0.89   1
   3  11  -6   -1.07    0.44   1
  -3  11   6   -0.49    0.35   1
  -3 -11   6   -0.08    0.72   1
   3 -11  -6    0.55    0.72   1
  -3 -11   6   -1.02    0.83   1
   3  11  -5    0.66    0.88   1
  -3  11   5    1.41    0.44   1
   3  11  -5    0.44    0.51   1
  -3 -11   5    2.92    1.20   1
  -3 -11   5    0.63    1.11   1
  -3 -11   5    0.57    0.74   1
   3 -11  -5   -0.30    0.64   1
  -3  11   4   23.65    1.50   1
   3  11  -4   24.99    2.35   1
   3  11  -4   24.08    1.60   1
  -3 -11   4   23.04    1.80   1
  -3 -11   4   24.01    2.00   1
  -3 -11   4   26.22    2.76   1
   3 -11  -4   24.32    1.97   1
  -3  11   3   19.50    1.30   1
   3  11  -3   23.46    2.16   1
   3 -11  -3   24.81    1.81   1
  -3 -11   3   16.09    2.23   1
  -3 -11   3   19.62    1.59   1
  -3 -11   3   20.80    1.78   1
   3 -11  -3   20.14    1.87   1
  -3  11   2   11.03    0.87   1
   3  11  -2   12.44    1.68   1
   3  11  -2   11.06    0.81   1
  -3 -11   2   11.62    1.34   1
   3 -11  -2   10.88    1.32   1
  -3 -11   2   11.84    1.20   1
   3 -11  -2    9.62    1.29   1
  -3 -11   2   11.57    1.74   1
   3  11  -1    8.66    1.38   1
  -3  11   1    9.19    1.23   1
   3  11  -1    8.34    0.59   1
  -3  11   1    8.77    0.77   1
   3 -11  -1    8.73    1.28   1
   3 -11  -1    6.72    1.10   1
   3 -11  -1    5.17    0.96   1
  -3 -11   1    9.53    1.18   1
  -3 -11   1   11.21    1.57   1
  -3 -11   1    7.91    1.00   1
   3  11   0    0.20    0.15   1
  -3  11   0    1.04    0.37   1
  -3  11   0    0.12    0.59   1
  -3 -11   0    0.27    0.71   1
   3 -11   0    0.00    0.68   1
  -3 -11   0    1.13    0.59   1
   3 -11   0   -0.61    0.57   1
   3 -11   0   -0.20    0.54   1
  -3 -11   0   -0.83    0.46   1
  -3  11  -1   10.25    0.89   1
  -3  11  -1    7.64    1.19   1
   3  11   1   10.23    0.61   1
   3 -11   1   10.66    1.35   1
  -3 -11  -1   11.30    1.22   1
  -3 -11  -1    9.61    1.39   1
   3 -11   1   10.25    1.39   1
   3 -11   1   11.18    1.23   1
  -3  11  -2   11.51    1.04   1
  -3  11  -2   10.48    1.35   1
   3  11   2   10.02    0.68   1
   3 -11   2   10.84    1.40   1
  -3 -11  -2   12.87    1.48   1
   3 -11   2   11.70    1.28   1
   3 -11   2    9.79    1.36   1
   3  11   3   15.20    0.97   1
  -3  11  -3   14.27    1.60   1
  -3  11  -3   15.57    1.29   1
   3 -11   3   16.73    1.75   1
   3 -11   3   12.61    1.54   1
   3 -11   3   12.28    1.37   1
   3  11   4   11.98    0.95   1
  -3  11  -4   10.25    1.60   1
  -3  11  -4   13.69    1.73   1
  -3  11  -4   11.70    1.26   1
  -3  11  -4   10.65    1.44   1
   3 -11   4   11.38    1.58   1
   3 -11   4   12.61    1.50   1
  -3  11  -5    3.73    1.02   1
  -3  11  -5    1.13    0.72   1
   3  11   5    1.95    0.54   1
  -3  11  -5    1.95    0.66   1
  -3  11  -5    1.31    0.71   1
   3 -11   5    0.49    0.86   1
   3 -11   5    1.11    0.87   1
  -3  11  -6    0.28    0.61   1
  -3  11  -6    0.95    0.73   1
   3  11   6    0.05    0.50   1
   3 -11   6   -1.23    0.80   1
   3 -11   6    0.89    0.91   1
  -3  12   6   38.05    2.28   1
   3  12  -6   35.78    2.43   1
  -3 -12   6   40.21    3.32   1
   3 -12  -6   31.89    2.66   1
   3  12  -5    0.07    0.84   1
   3  12  -5    0.41    0.54   1
  -3  12   5    0.66    0.39   1
  -3 -12   5    0.23    0.71   1
   3 -12  -5    0.30    0.73   1
  -3 -12   5   -0.85    0.84   1
   3  12  -4    9.48    1.65   1
  -3  12   4    8.26    0.79   1
   3  12  -4    8.81    1.01   1
  -3 -12   4    8.25    1.66   1
  -3 -12   4    6.94    1.19   1
   3 -12  -4    8.23    1.29   1
   3  12  -3    0.17    0.38   1
   3  12  -3    1.83    0.93   1
  -3  12   3   -0.54    0.28   1
  -3 -12   3    0.16    0.92   1
   3 -12  -3    0.22    0.68   1
  -3 -12   3    0.48    0.69   1
   3 -12  -3   -1.03    0.58   1
  -3  12   2    5.50    0.62   1
   3  12  -2    5.60    1.27   1
  -3  12   2    4.04    0.99   1
   3  12  -2    5.58    0.61   1
   3 -12  -2    5.09    1.14   1
  -3 -12   2    4.85    1.32   1
   3 -12  -2    6.34    1.06   1
  -3 -12   2    5.88    1.08   1
  -3  12   1   34.38    2.12   1
  -3  12   1   39.64    2.68   1
  -3 -12   1   35.36    2.60   1
  -3 -12   1   38.86    2.99   1
   3 -12  -1   46.13    2.70   1
   3 -12  -1   34.92    2.71   1
   3  12   0    0.24    0.14   1
  -3  12   0    0.11    0.36   1
  -3  12   0    0.60    0.64   1
  -3 -12   0   -0.16    0.72   1
   3 -12   0   -0.25    0.73   1
  -3 -12   0   -0.38    0.55   1
   3 -12   0   -0.01    0.66   1
   3 -12   0    0.34    0.74   1
  -3  12  -1   35.30    2.12   1
   3  12   1   35.29    1.82   1
  -3  12  -1   33.58    2.52   1
   3 -12   1   40.47    2.68   1
   3 -12   1   35.86    2.48   1
   3 -12   1   35.94    2.68   1
  -3  12  -2    4.92    1.02   1
   3  12   2    4.06    0.36   1
  -3  12  -2    4.65    0.69   1
   3 -12   2    4.49    1.05   1
   3 -12   2    3.35    0.83   1
   3 -12   2    4.48    1.10   1
   3  12   3    0.25    0.23   1
  -3  12  -3    0.43    0.63   1
  -3  12  -3   -0.23    0.42   1
  -3  12  -3    0.69    0.78   1
   3 -12   3   -0.57    0.67   1
   3 -12   3    0.98    0.87   1
  -3  12  -4   10.07    1.18   1
   3  12   4    8.77    0.79   1
   3 -12   4   14.20    1.64   1
   3 -12   4   10.13    1.56   1
   3  12   5    0.25    0.49   1
  -3  12  -5    1.18    0.76   1
   3 -12   5    1.76    1.19   1
   3 -12   5   -0.87    0.82   1
   3  13  -4   26.33    1.86   1
  -3  13   4   24.70    1.64   1
  -3 -13   4   20.53    2.79   1
  -3 -13   4   28.19    2.31   1
   3  13  -3   14.84    1.24   1
  -3  13   3   14.09    1.08   1
  -3 -13   3   14.05    1.64   1
   3 -13  -3   16.34    1.76   1
  -3 -13   3    8.93    1.93   1
  -3  13   2    6.91    0.74   1
   3  13  -2    8.35    0.81   1
  -3 -13   2    6.52    1.19   1
   3 -13  -2    7.74    1.24   1
  -3 -13   2    8.27    1.63   1
   3 -13  -2    7.90    1.35   1
  -3  13   1    9.62    0.85   1
   3  13  -1    9.21    0.69   1
  -3 -13   1    8.61    1.60   1
   3 -13  -1    7.02    1.20   1
  -3 -13   1    8.95    1.30   1
   3 -13  -1    7.68    1.32   1
  -3  13   0    0.30    0.42   1
  -3 -13   0    0.08    0.84   1
   3 -13   0    1.18    0.92   1
   3 -13   0    1.50    0.77   1
  -3  13  -1   13.73    1.18   1
   3 -13   1   12.42    1.62   1
   3 -13   1   14.58    1.75   1
  -3  13  -2    8.46    0.97   1
   3 -13   2    8.22    1.51   1
   3 -13   2    9.93    1.47   1
  -4   0  13    0.99    0.82   1
   4   0 -13    2.26    0.83   1
  -4   0  13    1.03    0.85   1
   4   0 -12    1.07    0.67   1
   4   0 -12    0.81    0.70   1
  -4   0  12   -0.11    0.65   1
  -4   0  12   -0.13    0.65   1
   4   0 -12    0.94    0.69   1
   4   0 -11   49.53    3.12   1
  -4   0  11   45.54    3.05   1
   4   0 -11   45.50    3.14   1
  -4   0  11   50.35    3.23   1
   4   0 -11   47.86    3.08   1
  -4   0  10   56.39    3.44   1
   4   0 -10   56.60    3.59   1
  -4   0  10   55.91    3.58   1
   4   0 -10   57.33    3.49   1
   4   0 -10   58.40    3.50   1
  -4   0   9   35.78    2.61   1
  -4   0   9   40.34    2.52   1
   4   0  -9   42.92    2.58   1
   4   0  -9   32.17    2.58   1
   4   0  -9   41.38    2.58   1
   4   0  -8   59.40    3.41   1
  -4   0   8   48.61    3.25   1
  -4   0   8   54.58    3.12   1
  -4   0   8   51.87    3.08   1
   4   0  -8   55.35    3.24   1
  -4   0   8   54.33    3.20   1
   4   0  -8   58.21    3.31   1
   4   0  -7    1.63    0.57   1
   4   0  -7    1.67    0.52   1
  -4   0   7    2.35    0.53   1
  -4   0   7    1.27    0.42   1
   4   0  -7    2.42    0.46   1
  -4   0   7    2.39    0.59   1
   4   0  -7    1.53    0.61   1
   4   0  -6   84.94    4.96   1
   4   0  -6   93.90    4.88   1
   4   0  -6   91.44    4.78   1
   4   0  -6   89.23    4.86   1
  -4   0   6   93.51    4.83   1
  -4   0   6   94.41    4.89   1
  -4   0   6   95.19    4.81   1
   4   0  -5  172.49    8.58   1
   4   0  -5  185.90    8.78   1
   4   0  -5  159.28    8.87   1
  -4   0   5  177.77    8.78   1
   4   0  -5  175.85    8.71   1
   4   0  -5  169.39    8.77   1
  -4   0   5  178.74    8.72   1
  -4   0   5  168.76    8.78   1
   4   0  -4  184.36    9.45   1
   4   0  -4  189.12    9.29   1
   4   0  -4  191.68    9.40   1
   4   0  -4  190.68    9.57   1
  -4   0   4  184.98    9.46   1
  -4   0   4  193.47    9.50   1
  -4   0   4  190.29    9.40   1
   4   0  -4  184.81    9.40   1
   4   0  -3  420.00   20.86   1
   4   0  -3  408.56   20.79   1
  -4   0   3  430.17   20.86   1
  -4   0   3  434.54   20.75   1
   4   0  -3  424.74   20.67   1
  -4   0   3  421.21   20.79   1
   4   0  -3  415.11   20.74   1
   4   0  -2    0.72    0.23   1
  -4   0   2    0.82    0.24   1
   4   0  -2    0.88    0.21   1
   4   0  -2    1.04    0.34   1
  -4   0   2    0.81    0.28   1
   4   0  -2    0.67    0.24   1
   4   0  -1   -0.44    0.18   1
  -4   0   1   -0.44    0.18   1
   4   0  -1   -0.21    0.24   1
  -4   0   1   -0.08    0.20   1
   4   0  -1   -0.36    0.19   1
   4   0  -1   -0.47    0.10   1
   4   0  -1   -0.03    0.20   1
   4   0   0   20.66    1.21   1
  -4   0   0   21.49    1.15   1
   4   0   0   21.91    1.27   1
   4   0   0   20.80    1.21   1
  -4   0   0   21.56    1.21   1
  -4   0   0   21.51    1.26   1
   4   0   0   21.59    1.13   1
   4   0   1  208.09   10.20   1
  -4   0  -1  205.86   10.24   1
  -4   0  -1  203.10   10.21   1
  -4   0  -1  203.06   10.29   1
   4   0   1  213.10   10.32   1
   4   0   1  207.74   10.26   1
  -4   0  -2  418.21   20.25   1
  -4   0  -2  404.47   20.24   1
   4   0   2  432.43   20.24   1
   4   0   2  405.71   20.26   1
  -4   0  -2  399.96   20.30   1
   4   0   2  407.61   20.32   1
  -4   0  -3   13.64    0.98   1
   4   0   3   13.36    1.01   1
  -4   0  -3   14.85    1.02   1
   4   0   3   14.21    0.97   1
   4   0   3   15.51    0.99   1
   4   0   3   13.96    0.77   1
  -4   0  -3   15.01    0.94   1
  -4   0  -4   92.55    4.98   1
   4   0   4   95.70    4.70   1
  -4   0  -4   85.90    4.93   1
  -4   0  -4   94.17    4.76   1
  -4   0  -4   99.24    4.90   1
   4   0   4   94.86    5.01   1
   4   0   4   92.88    4.94   1
   4   0   4   98.89    4.95   1
  -4   0  -5    1.38    0.48   1
  -4   0  -5    1.34    0.28   1
   4   0   5    1.39    0.48   1
   4   0   5    2.22    0.59   1
   4   0   5    0.93    0.49   1
  -4   0  -5    1.14    0.50   1
   4   0   6   33.80    2.36   1
  -4   0  -6   43.16    2.43   1
   4   0   6   42.27    2.48   1
  -4   0  -6   43.02    2.56   1
   4   0   6   34.37    2.52   1
  -4   0  -7  111.23    5.55   1
  -4   0  -7   87.02    5.57   1
   4   0   7   82.79    5.61   1
   4   0   7  110.71    5.57   1
   4   0   7  118.76    5.61   1
   4   0   8   10.98    1.25   1
  -4   0  -8   10.11    1.23   1
   4   0   8   10.96    1.45   1
  -4   0  -8   11.96    1.40   1
   4   0   9   60.80    3.80   1
  -4   0  -9   58.04    3.70   1
  -4   0  -9   57.12    3.56   1
   4   0   9   60.57    3.62   1
  -4   0 -10    0.21    0.59   1
   4   0  10    0.09    0.74   1
  -4   0 -10    1.01    0.66   1
   4   0  10    1.31    0.74   1
   4   0  11    0.88    0.75   1
  -4   0 -11    0.57    0.67   1
   4   0  11    1.91    0.86   1
   4   0  12    8.58    1.48   1
   4   0  12    7.40    1.29   1
  -4   1  13   31.49    2.46   1
   4   1 -13   27.73    2.25   1
   4   1 -13   28.36    2.37   1
  -4   1  13   30.08    2.35   1
  -4  -1  13   28.27    2.34   1
  -4  -1  13   32.07    2.43   1
  -4  -1  13   28.63    2.38   1
  -4   1  12   -0.23    0.74   1
   4   1 -12   -0.26    0.54   1
  -4   1  12    0.00    0.67   1
   4   1 -12    0.02    0.64   1
   4   1 -12   -0.91    0.55   1
  -4  -1  12   -0.20    0.65   1
  -4  -1  12   -0.23    0.67   1
  -4  -1  12   -0.34    0.70   1
   4  -1 -12    0.13    0.57   1
   4  -1 -12   -0.04    0.56   1
   4   1 -11   17.12    1.79   1
   4   1 -11   19.37    1.97   1
  -4   1  11   18.91    1.82   1
   4   1 -11   20.01    1.77   1
  -4   1  11   19.18    2.00   1
  -4  -1  11   21.36    1.77   1
  -4  -1  11   20.54    1.83   1
   4  -1 -11   20.53    1.76   1
   4  -1 -11   21.23    1.79   1
   4   1 -10    0.03    0.56   1
  -4   1  10    1.34    0.71   1
   4   1 -10    0.44    0.57   1
  -4   1  10    1.04    0.70   1
   4   1 -10    0.08    0.62   1
   4  -1 -10   -0.22    0.51   1
  -4  -1  10    0.24    0.60   1
  -4  -1  10   -0.01    0.56   1
   4  -1 -10    0.21    0.59   1
   4   1  -9    1.67    0.69   1
   4   1  -9    1.58    0.65   1
  -4   1   9    2.40    0.63   1
  -4   1   9    1.52    0.74   1
  -4   1   9    1.94    0.70   1
   4   1  -9    1.37    0.72   1
   4  -1  -9    3.82    0.84   1
   4  -1  -9    2.50    0.74   1
   4  -1  -9    1.82    0.64   1
  -4  -1   9    2.03    0.70   1
  -4  -1   9    2.67    0.76   1
  -4   1   8   92.69    4.88   1
   4   1  -8   97.14    5.03   1
   4   1  -8   94.79    5.13   1
  -4   1   8   87.31    4.99   1
   4   1  -8   99.12    4.95   1
   4   1  -8   93.38    4.85   1
  -4  -1   8   90.48    4.90   1
   4  -1  -8   93.30    5.07   1
  -4  -1   8   71.80    4.90   1
   4  -1  -8   99.84    5.03   1
   4  -1  -8   83.34    4.92   1
  -4  -1   8   74.95    4.81   1
   4   1  -7   -0.19    0.29   1
   4   1  -7   -0.69    0.43   1
  -4   1   7   -0.08    0.33   1
   4   1  -7    0.32    0.40   1
   4   1  -7    0.07    0.44   1
  -4   1   7    0.39    0.42   1
  -4   1   7   -0.37    0.36   1
   4  -1  -7   -0.16    0.46   1
  -4  -1   7    0.94    0.48   1
   4  -1  -7   -0.09    0.40   1
  -4  -1   7   -0.23    0.41   1
   4  -1  -7   -0.12    0.35   1
  -4  -1   7    0.33    0.46   1
  -4  -1   7    0.02    0.29   1
  -4   1   6  226.86   10.89   1
   4   1  -6  201.54   10.84   1
   4   1  -6  212.73   10.99   1
  -4   1   6  219.65   10.79   1
  -4   1   6  213.80   10.78   1
   4   1  -6  212.53   10.87   1
  -4  -1   6  211.77   10.90   1
   4  -1  -6  211.17   10.96   1
  -4  -1   6  207.06   10.79   1
   4  -1  -6  219.60   10.77   1
   4  -1  -6  216.71   10.67   1
  -4  -1   6  215.89   10.88   1
   4  -1  -6  216.95   10.86   1
  -4  -1   6  220.97   10.88   1
   4   1  -5   31.49    1.77   1
   4   1  -5   27.29    1.82   1
   4   1  -5   30.26    1.99   1
  -4   1   5   31.21    1.78   1
  -4   1   5   31.08    1.85   1
  -4   1   5   31.48    1.82   1
   4   1  -5   31.76    1.84   1
   4  -1  -5   33.58    1.84   1
  -4  -1   5   29.52    1.77   1
  -4  -1   5   32.01    1.90   1
  -4  -1   5   32.18    1.89   1
   4  -1  -5   30.55    1.94   1
  -4  -1   5   31.19    1.85   1
   4  -1  -5   31.23    1.68   1
   4   1  -4    2.60    0.42   1
   4   1  -4    2.62    0.56   1
  -4   1   4    2.91    0.45   1
   4   1  -4    2.69    0.21   1
  -4   1   4    2.47    0.37   1
   4   1  -4    2.68    0.37   1
   4   1  -4    3.26    0.42   1
  -4  -1   4    3.36    0.53   1
   4  -1  -4    3.22    0.38   1
  -4  -1   4    2.75    0.37   1
   4  -1  -4    2.93    0.53   1
   4  -1  -4    2.76    0.43   1
   4  -1  -4    2.90    0.33   1
  -4  -1   4    2.94    0.44   1
  -4   1   3  101.90    5.25   1
   4   1  -3  103.68    5.21   1
   4   1  -3  105.06    5.09   1
   4   1  -3  102.23    5.16   1
  -4   1   3  100.18    5.20   1
   4   1  -3  112.87    5.38   1
   4   1  -3   98.03    5.25   1
   4  -1  -3  105.29    5.17   1
  -4  -1   3  103.68    5.19   1
   4  -1  -3   99.10    5.25   1
  -4  -1   3  101.91    5.25   1
   4  -1  -3  104.46    5.20   1
  -4  -1   3  106.24    5.35   1
   4  -1  -3  100.67    5.31   1
   4   1  -2    1.46    0.21   1
  -4   1   2    1.43    0.29   1
  -4   1   2    1.75    0.35   1
   4   1  -2    1.65    0.39   1
   4   1  -2    1.26    0.27   1
   4   1  -2    1.43    0.32   1
   4  -1  -2    1.54    0.26   1
   4  -1  -2    1.65    0.37   1
  -4  -1   2    2.27    0.29   1
   4  -1  -2    1.85    0.25   1
   4  -1  -2    1.42    0.32   1
   4  -1  -2    1.86    0.28   1
  -4  -1   2    1.97    0.45   1
  -4  -1   2    1.40    0.30   1
   4   1  -1  663.05   33.71   1
  -4   1   1  701.41   33.69   1
   4   1  -1  710.17   33.73   1
   4   1  -1  686.81   33.68   1
  -4   1   1  705.34   33.73   1
  -4  -1   1  653.49   33.63   1
  -4  -1   1  671.25   33.66   1
   4  -1  -1  703.72   33.69   1
   4  -1  -1  670.17   33.74   1
  -4  -1   1  625.65   33.79   1
  -4  -1   1  688.38   33.71   1
   4  -1  -1  720.40   33.74   1
   4  -1  -1  718.39   33.64   1
   4  -1  -1  712.77   33.69   1
  -4   1   0  117.28    5.88   1
  -4   1   0  119.71    5.95   1
   4   1   0  116.21    5.93   1
  -4   1   0  120.79    5.90   1
   4   1   0  118.40    5.78   1
   4   1   0  117.23    5.89   1
   4   1   0  113.81    5.87   1
  -4  -1   0  115.70    5.91   1
  -4  -1   0  120.94    6.02   1
   4  -1   0  117.04    5.91   1
   4  -1   0  116.11    5.85   1
   4  -1   0  114.47    5.94   1
   4  -1   0  118.24    5.90   1
  -4  -1   0  121.18    5.79   1
  -4   1  -1   54.96    2.84   1
  -4   1  -1   52.79    2.77   1
   4   1   1   51.08    2.77   1
  -4   1  -1   50.31    2.77   1
   4   1   1   53.87    2.83   1
   4  -1   1   53.97    2.75   1
  -4  -1  -1   52.86    2.72   1
   4  -1   1   54.43    2.84   1
   4  -1   1   53.00    2.71   1
  -4  -1  -1   53.62    2.80   1
   4  -1   1   54.63    2.78   1
  -4   1  -2    5.69    0.57   1
   4   1   2    5.13    0.57   1
  -4   1  -2    5.78    0.61   1
  -4   1  -2    6.69    0.57   1
   4   1   2    6.65    0.58   1
   4  -1   2    6.26    0.53   1
  -4  -1  -2    6.16    0.57   1
  -4  -1  -2    4.76    0.43   1
   4  -1   2    5.66    0.62   1
   4  -1   2    5.94    0.43   1
   4  -1   2    6.28    0.54   1
  -4  -1  -2    7.02    0.56   1
  -4   1  -3    3.00    0.48   1
  -4   1  -3    3.02    0.45   1
  -4   1  -3    3.38    0.49   1
   4   1   3    3.76    0.48   1
   4   1   3    3.95    0.53   1
   4  -1   3    3.80    0.36   1
   4  -1   3    3.50    0.45   1
   4  -1   3    3.40    0.48   1
  -4  -1  -3    3.15    0.47   1
  -4  -1  -3    2.66    0.19   1
  -4  -1  -3    4.13    0.51   1
  -4  -1  -3    4.00    0.20   1
   4  -1   3    4.62    0.57   1
  -4  -1  -3    4.06    0.42   1
   4   1   4  254.19   12.88   1
  -4   1  -4  264.10   12.81   1
  -4   1  -4  254.33   12.89   1
   4   1   4  258.96   12.82   1
  -4   1  -4  249.56   12.83   1
  -4  -1  -4  259.20   12.68   1
  -4  -1  -4  257.17   12.83   1
   4  -1   4  250.13   12.87   1
  -4  -1  -4  251.22   12.78   1
   4  -1   4  259.79   12.81   1
   4  -1   4  262.63   12.80   1
   4  -1   4  250.49   12.64   1
  -4   1  -5   31.39    2.14   1
   4   1   5   38.96    2.35   1
  -4   1  -5   32.54    2.23   1
   4   1   5   36.66    2.24   1
  -4   1  -5   38.07    2.35   1
  -4   1  -5   36.54    2.07   1
   4  -1   5   38.68    2.34   1
   4  -1   5   37.32    2.19   1
   4  -1   5   37.34    2.28   1
  -4  -1  -5   34.58    2.16   1
   4  -1   5   40.84    2.05   1
  -4  -1  -5   39.01    2.27   1
  -4   1  -6   47.04    2.71   1
  -4   1  -6   41.25    2.96   1
  -4   1  -6   49.49    2.94   1
   4   1   6   43.13    3.00   1
   4   1   6   47.19    2.92   1
   4  -1   6   50.68    2.95   1
   4  -1   6   53.78    3.10   1
  -4  -1  -6   55.21    2.91   1
   4  -1   6   51.85    2.89   1
  -4  -1  -6   53.25    3.01   1
  -4   1  -7    6.89    1.06   1
  -4   1  -7    8.20    1.04   1
   4   1   7    9.01    1.05   1
   4   1   7    6.07    1.09   1
   4  -1   7    6.52    0.97   1
  -4  -1  -7    5.12    0.92   1
  -4  -1  -7    6.66    0.90   1
   4  -1   7    4.85    0.96   1
  -4   1  -8   -0.16    0.51   1
   4   1   8   -0.15    0.59   1
   4   1   8   -0.31    0.49   1
  -4   1  -8   -0.44    0.54   1
   4  -1   8   -0.79    0.52   1
   4  -1   8    0.82    0.67   1
  -4  -1  -8    0.20    0.58   1
  -4  -1  -8   -0.70    0.41   1
   4   1   9   26.06    2.09   1
  -4   1  -9   23.55    2.01   1
  -4   1  -9   21.54    1.87   1
   4   1   9   23.06    1.88   1
  -4  -1  -9   25.82    1.88   1
  -4  -1  -9   24.42    1.94   1
   4  -1   9   26.24    2.13   1
   4  -1   9   22.50    1.94   1
   4   1  10    5.07    1.05   1
  -4   1 -10    3.98    0.96   1
  -4   1 -10    5.65    1.05   1
   4   1  10    5.48    1.13   1
  -4  -1 -10    6.18    1.04   1
   4  -1  10    4.14    1.04   1
   4  -1  10    4.64    1.03   1
   4   1  11   16.61    1.91   1
  -4   1 -11   17.18    1.93   1
  -4   1 -11   17.85    1.94   1
   4   1  11   21.49    1.97   1
   4  -1  11   19.24    2.02   1
   4  -1  11   19.50    1.89   1
  -4  -1 -11   20.12    1.74   1
  -4   2  13   -0.28    0.67   1
  -4   2  13   -0.21    0.75   1
   4   2 -13    0.81    0.61   1
   4   2 -13   -0.23    0.59   1
   4   2 -13    0.45    0.71   1
  -4  -2  13   -1.73    0.67   1
  -4  -2  13   -0.21    0.60   1
  -4  -2  13   -0.25    0.67   1
  -4   2  12    2.88    0.91   1
  -4   2  12    3.78    0.94   1
   4   2 -12    2.39    0.91   1
   4   2 -12    4.14    1.04   1
   4   2 -12    2.64    0.82   1
  -4  -2  12    2.71    0.89   1
  -4  -2  12    2.61    0.92   1
  -4  -2  12    3.62    0.93   1
  -4   2  11   12.39    1.54   1
  -4   2  11   10.71    1.37   1
   4   2 -11    9.85    1.29   1
   4   2 -11   11.02    1.45   1
   4   2 -11   12.31    1.53   1
  -4  -2  11   12.88    1.41   1
  -4  -2  11   10.73    1.38   1
   4  -2 -11   12.47    1.39   1
  -4  -2  11   10.87    1.38   1
   4  -2 -11   10.42    1.31   1
  -4   2  10   13.64    1.43   1
   4   2 -10   13.10    1.50   1
   4   2 -10   14.27    1.66   1
  -4   2  10   13.07    1.56   1
   4   2 -10   14.19    1.45   1
  -4   2  10   11.46    1.37   1
  -4  -2  10   13.49    1.47   1
  -4  -2  10   13.21    1.42   1
  -4  -2  10   10.92    1.29   1
   4  -2 -10   13.38    1.45   1
   4  -2 -10   16.07    1.44   1
   4   2  -9    6.95    1.28   1
  -4   2   9    9.81    1.35   1
  -4   2   9   12.35    1.29   1
   4   2  -9   11.76    1.26   1
   4   2  -9   12.29    1.39   1
   4   2  -9   13.94    1.35   1
  -4  -2   9   10.13    1.22   1
   4  -2  -9   15.55    1.32   1
  -4  -2   9   14.94    1.45   1
   4  -2  -9   12.04    1.37   1
  -4  -2   9   12.98    1.26   1
  -4  -2   9   13.92    1.34   1
  -4   2   8    7.05    0.89   1
   4   2  -8    9.85    1.05   1
   4   2  -8    7.39    0.90   1
   4   2  -8    8.94    1.23   1
  -4   2   8    8.68    1.08   1
   4   2  -8    8.20    1.10   1
   4  -2  -8    8.74    1.09   1
  -4  -2   8    5.91    0.94   1
  -4  -2   8    7.73    1.00   1
  -4  -2   8    6.53    0.94   1
  -4   2   7    5.79    0.80   1
  -4   2   7    5.46    0.63   1
   4   2  -7    5.88    0.80   1
   4   2  -7    5.11    0.71   1
   4   2  -7    5.32    0.77   1
  -4   2   7    5.31    0.71   1
   4   2  -7    5.31    0.86   1
  -4  -2   7    3.81    0.74   1
   4  -2  -7    5.20    0.82   1
   4  -2  -7    6.31    0.65   1
  -4  -2   7    3.67    0.75   1
  -4  -2   7    5.93    0.85   1
   4   2  -6   14.48    1.33   1
   4   2  -6   17.02    1.21   1
  -4   2   6   15.46    1.11   1
  -4   2   6   15.98    1.11   1
   4   2  -6   15.91    1.11   1
  -4   2   6   15.84    1.19   1
   4   2  -6   14.90    1.19   1
   4  -2  -6   17.78    1.22   1
  -4  -2   6   15.30    1.20   1
  -4  -2   6   15.86    1.30   1
  -4  -2   6   17.02    1.30   1
   4  -2  -6   16.62    1.30   1
   4  -2  -6   15.89    1.06   1
   4   2  -5   35.49    1.98   1
   4   2  -5   34.30    2.05   1
   4   2  -5   34.17    2.03   1
   4   2  -5   35.47    2.22   1
  -4   2   5   34.84    1.97   1
  -4   2   5   32.65    2.02   1
  -4  -2   5   33.16    1.97   1
   4  -2  -5   34.67    1.93   1
   4  -2  -5   37.17    2.16   1
  -4  -2   5   35.92    2.17   1
   4  -2  -5   35.72    2.03   1
  -4  -2   5   37.47    2.15   1
  -4  -2   5   35.94    2.05   1
   4   2  -4   50.54    2.94   1
  -4   2   4   50.02    2.71   1
   4   2  -4   51.57    2.72   1
   4   2  -4   47.36    2.76   1
   4   2  -4   52.65    2.74   1
  -4   2   4   51.98    2.78   1
  -4  -2   4   53.74    2.92   1
   4  -2  -4   54.40    2.77   1
  -4  -2   4   52.09    2.66   1
   4  -2  -4   51.75    2.86   1
  -4  -2   4   51.58    2.77   1
   4  -2  -4   52.49    2.70   1
  -4  -2   4   45.77    2.82   1
   4   2  -3   54.10    2.53   1
   4   2  -3   49.66    2.69   1
  -4   2   3   50.33    2.70   1
  -4   2   3   48.76    2.74   1
   4   2  -3   51.17    2.89   1
   4   2  -3   56.37    2.67   1
   4   2  -3   48.16    2.73   1
  -4  -2   3   53.45    2.91   1
  -4  -2   3   50.56    2.73   1
  -4  -2   3   50.66    2.60   1
   4  -2  -3   51.54    2.73   1
   4  -2  -3   52.66    2.70   1
  -4  -2   3   50.66    2.79   1
   4  -2  -3   50.51    2.82   1
   4  -2  -3   51.70    2.70   1
  -4   2   2   43.14    2.38   1
   4   2  -2   44.73    2.28   1
  -4   2   2   45.01    2.45   1
   4   2  -2   46.00    2.39   1
   4   2  -2   47.13    2.53   1
   4   2  -2   47.25    2.45   1
   4  -2  -2   44.56    2.49   1
   4  -2  -2   45.29    2.43   1
  -4  -2   2   44.41    2.26   1
  -4  -2   2   45.36    2.40   1
   4  -2  -2   45.31    2.38   1
   4  -2  -2   45.21    2.40   1
  -4  -2   2   46.83    2.44   1
  -4  -2   2   49.48    2.59   1
  -4   2   1    0.19    0.20   1
   4   2  -1   -0.30    0.20   1
   4   2  -1    0.02    0.24   1
  -4   2   1    0.19    0.19   1
   4   2  -1    0.12    0.17   1
   4  -2  -1    0.16    0.24   1
  -4  -2   1    0.43    0.39   1
  -4  -2   1   -0.21    0.16   1
  -4  -2   1    0.03    0.18   1
   4  -2  -1   -0.10    0.13   1
   4  -2  -1    0.08    0.20   1
   4  -2  -1    0.02    0.22   1
   4   2   0   78.68    3.95   1
   4   2   0   77.69    3.93   1
  -4   2   0   79.13    4.02   1
  -4   2   0   74.37    3.96   1
   4   2   0   79.12    3.99   1
   4  -2   0   79.20    3.98   1
   4  -2   0   77.52    3.99   1
  -4  -2   0   79.41    3.96   1
  -4  -2   0   76.98    3.88   1
   4  -2   0   75.43    3.94   1
   4  -2   0   79.59    3.95   1
  -4  -2   0   78.58    4.12   1
   4  -2   0   75.13    4.00   1
   4   2   1   37.06    2.00   1
  -4   2  -1   36.53    2.05   1
   4   2   1   39.10    1.92   1
  -4   2  -1   36.29    2.02   1
  -4   2  -1   36.95    2.09   1
   4   2   1   37.05    2.06   1
   4  -2   1   36.20    2.08   1
   4  -2   1   38.28    2.01   1
   4  -2   1   38.38    2.02   1
  -4  -2  -1   37.26    2.13   1
  -4  -2  -1   38.74    1.92   1
  -4  -2  -1   38.67    2.03   1
   4  -2   1   34.85    2.05   1
   4  -2   1   38.98    2.03   1
   4   2   2   92.10    4.93   1
  -4   2  -2   98.06    4.97   1
  -4   2  -2   95.13    4.98   1
   4   2   2   96.05    4.99   1
  -4   2  -2   91.86    5.00   1
  -4  -2  -2   98.40    4.90   1
   4  -2   2   96.04    4.91   1
   4  -2   2   98.29    5.00   1
   4  -2   2  102.58    4.97   1
  -4  -2  -2   98.05    4.96   1
   4  -2   2   98.56    5.02   1
   4  -2   2   97.42    4.94   1
  -4  -2  -2  100.45    5.01   1
   4   2   3   14.42    1.06   1
   4   2   3   14.51    1.04   1
  -4   2  -3   15.97    1.12   1
  -4   2  -3   18.29    1.13   1
  -4   2  -3   15.17    1.08   1
   4  -2   3   15.97    1.11   1
  -4  -2  -3   14.54    1.01   1
   4  -2   3   15.51    1.01   1
  -4  -2  -3   17.16    1.02   1
   4  -2   3   15.58    1.07   1
  -4  -2  -3   15.11    1.04   1
   4  -2   3   15.46    0.97   1
  -4   2  -4   17.61    1.22   1
  -4   2  -4   16.36    1.22   1
   4   2   4   17.37    1.24   1
   4   2   4   15.66    1.22   1
  -4   2  -4   19.16    1.32   1
   4  -2   4   16.74    1.23   1
   4  -2   4   16.05    1.11   1
  -4  -2  -4   17.32    1.02   1
  -4  -2  -4   16.74    1.15   1
   4  -2   4   17.90    1.09   1
   4  -2   4   15.29    1.18   1
  -4  -2  -4   16.57    1.15   1
  -4   2  -5    5.81    0.66   1
  -4   2  -5    5.64    0.79   1
  -4   2  -5    3.78    0.64   1
  -4   2  -5    5.16    0.85   1
   4   2   5    4.07    0.67   1
   4   2   5    6.17    0.86   1
  -4  -2  -5    6.21    0.74   1
   4  -2   5    5.73    0.63   1
   4  -2   5    5.99    0.81   1
   4  -2   5    5.08    0.74   1
  -4  -2  -5    5.88    0.72   1
  -4   2  -6    7.61    1.00   1
  -4   2  -6    4.10    0.89   1
   4   2   6    5.84    0.96   1
  -4   2  -6    6.79    0.87   1
   4   2   6    6.68    0.89   1
  -4   2  -6    7.95    0.82   1
  -4  -2  -6    7.89    0.92   1
   4  -2   6    7.47    1.03   1
   4  -2   6    6.79    0.75   1
   4  -2   6    5.88    0.91   1
  -4  -2  -6    5.90    0.82   1
  -4   2  -7   24.15    1.52   1
   4   2   7   19.33    1.73   1
  -4   2  -7   18.01    1.73   1
   4   2   7   23.98    1.66   1
  -4   2  -7   20.13    1.67   1
   4  -2   7   21.54    1.71   1
  -4  -2  -7   18.24    1.58   1
  -4  -2  -7   23.16    1.60   1
   4  -2   7   14.36    1.70   1
  -4   2  -8    4.76    1.02   1
  -4   2  -8    5.38    1.01   1
   4   2   8    6.89    0.99   1
   4   2   8    4.98    1.02   1
   4  -2   8    3.47    0.92   1
  -4  -2  -8    5.35    0.90   1
  -4  -2  -8    4.88    1.00   1
   4  -2   8    6.27    1.10   1
  -4   2  -9   11.55    1.52   1
   4   2   9   12.51    1.38   1
   4   2   9   13.37    1.59   1
  -4   2  -9   14.85    1.58   1
  -4  -2  -9   13.34    1.42   1
   4  -2   9   10.99    1.45   1
   4  -2   9   13.51    1.62   1
  -4   2 -10    1.07    0.73   1
   4   2  10    1.24    0.70   1
  -4   2 -10    1.01    0.80   1
   4   2  10    0.85    0.76   1
   4  -2  10    1.66    0.78   1
   4  -2  10    2.03    0.78   1
   4  -2  10    2.56    0.91   1
  -4  -2 -10    1.58    0.70   1
   4   2  11   -0.82    0.52   1
  -4   2 -11   -0.18    0.56   1
   4   2  11   -0.46    0.66   1
  -4   2 -11   -0.45    0.60   1
   4  -2  11   -1.06    0.79   1
   4  -2  11    0.40    0.73   1
  -4  -2 -11    0.22    0.58   1
   4  -2  11    0.30    0.67   1
   4   3 -13   -0.22    0.76   1
   4   3 -13   -0.02    0.67   1
  -4   3  13   -0.69    0.63   1
  -4   3  13    1.11    0.88   1
   4   3 -13   -0.09    0.68   1
  -4  -3  13    1.03    0.74   1
  -4  -3  13    1.50    0.83   1
  -4   3  12    0.93    0.73   1
   4   3 -12    1.56    0.82   1
  -4   3  12    0.75    0.89   1
   4   3 -12    0.24    0.61   1
   4   3 -12    0.72    0.86   1
  -4  -3  12    0.38    0.71   1
  -4  -3  12    1.07    0.72   1
  -4  -3  12    1.39    0.76   1
   4   3 -11    0.47    0.57   1
  -4   3  11    0.60    0.67   1
   4   3 -11    0.55    0.69   1
  -4   3  11    1.78    0.83   1
   4   3 -11    0.31    0.65   1
  -4   3  11    0.92    0.67   1
  -4  -3  11    0.82    0.69   1
  -4  -3  11    0.77    0.75   1
  -4  -3  11    0.27    0.64   1
   4  -3 -11    1.56    0.60   1
  -4   3  10    5.08    0.99   1
  -4   3  10    5.51    1.13   1
   4   3 -10    6.45    1.20   1
   4   3 -10    6.16    1.13   1
   4   3 -10    7.42    1.04   1
  -4  -3  10    5.81    1.02   1
  -4  -3  10    5.44    0.94   1
   4  -3 -10    5.80    0.97   1
  -4  -3  10    6.49    1.06   1
   4   3  -9    4.79    1.05   1
  -4   3   9    4.56    0.97   1
   4   3  -9    5.99    0.91   1
   4   3  -9    6.41    1.07   1
   4   3  -9    7.29    1.02   1
  -4   3   9    8.00    1.05   1
  -4  -3   9    5.36    0.87   1
   4  -3  -9    6.72    1.00   1
  -4  -3   9    7.89    1.04   1
   4  -3  -9    6.31    0.93   1
  -4  -3   9    7.22    1.01   1
  -4  -3   9    7.36    0.97   1
   4   3  -8    1.60    0.55   1
   4   3  -8    1.21    0.53   1
  -4   3   8    0.87    0.52   1
   4   3  -8    1.64    0.70   1
  -4   3   8    0.80    0.51   1
   4   3  -8    1.71    0.65   1
  -4  -3   8    1.67    0.56   1
  -4  -3   8    0.86    0.54   1
  -4  -3   8    1.27    0.54   1
  -4  -3   8    1.16    0.60   1
   4  -3  -8    0.44    0.43   1
   4  -3  -8    1.05    0.59   1
  -4   3   7    0.26    0.41   1
   4   3  -7    0.39    0.38   1
   4   3  -7    0.15    0.41   1
  -4   3   7    1.26    0.47   1
  -4   3   7    0.78    0.36   1
   4   3  -7    0.73    0.47   1
   4   3  -7    0.53    0.54   1
  -4  -3   7    0.31    0.45   1
   4  -3  -7    0.20    0.44   1
   4  -3  -7    0.37    0.36   1
  -4  -3   7    0.58    0.52   1
  -4  -3   7    0.58    0.50   1
   4  -3  -7    0.62    0.42   1
  -4  -3   7   -0.08    0.48   1
   4   3  -6    2.79    0.54   1
   4   3  -6    2.41    0.45   1
   4   3  -6    3.40    0.70   1
  -4   3   6    0.76    0.36   1
   4   3  -6    2.06    0.50   1
  -4   3   6    2.50    0.49   1
   4  -3  -6    2.41    0.43   1
  -4  -3   6    1.89    0.58   1
  -4  -3   6    1.31    0.38   1
   4  -3  -6    1.41    0.39   1
  -4  -3   6    1.15    0.58   1
  -4  -3   6    1.32    0.50   1
   4  -3  -6    2.31    0.59   1
   4   3  -5   28.81    1.78   1
   4   3  -5   30.85    1.99   1
  -4   3   5   29.37    1.72   1
  -4   3   5   29.58    1.76   1
   4   3  -5   30.79    1.78   1
   4   3  -5   27.81    1.69   1
  -4  -3   5   28.80    1.99   1
  -4  -3   5   29.73    1.67   1
  -4  -3   5   26.98    1.82   1
   4  -3  -5   29.76    1.87   1
   4  -3  -5   30.81    1.75   1
   4  -3  -5   27.27    1.68   1
  -4  -3   5   30.81    1.80   1
  -4   3   4   17.10    1.12   1
   4   3  -4   20.24    1.20   1
  -4   3   4   17.94    1.17   1
   4   3  -4   19.08    1.21   1
   4   3  -4   17.81    1.12   1
   4   3  -4   18.58    1.40   1
   4  -3  -4   18.79    1.16   1
  -4  -3   4   19.44    1.18   1
   4  -3  -4   16.50    1.12   1
  -4  -3   4   17.33    1.26   1
   4  -3  -4   17.96    1.28   1
  -4  -3   4   19.07    1.43   1
  -4  -3   4   18.24    1.06   1
   4   3  -3    9.22    0.65   1
   4   3  -3    8.81    0.68   1
  -4   3   3    8.69    0.68   1
   4   3  -3    9.22    0.72   1
  -4   3   3    9.20    0.72   1
   4   3  -3    9.61    0.99   1
  -4  -3   3   11.36    1.02   1
   4  -3  -3    9.10    0.71   1
   4  -3  -3    9.66    0.69   1
  -4  -3   3    9.46    0.78   1
  -4  -3   3    9.85    0.59   1
  -4  -3   3    9.04    0.66   1
   4  -3  -3    7.94    0.68   1
  -4   3   2    1.29    0.27   1
   4   3  -2    1.30    0.27   1
   4   3  -2    1.55    0.46   1
  -4   3   2    1.23    0.32   1
   4   3  -2    1.25    0.30   1
   4   3  -2    1.31    0.23   1
   4  -3  -2    1.40    0.31   1
  -4  -3   2    2.34    0.58   1
   4  -3  -2    1.29    0.29   1
   4  -3  -2    1.17    0.30   1
  -4  -3   2    1.60    0.18   1
  -4  -3   2    1.31    0.26   1
  -4  -3   2    1.13    0.32   1
   4   3  -1   -0.23    0.15   1
  -4   3   1    0.11    0.21   1
   4   3  -1   -0.21    0.21   1
  -4   3   1   -0.39    0.21   1
   4   3  -1   -0.19    0.16   1
   4   3  -1   -0.20    0.26   1
   4  -3  -1   -0.09    0.23   1
   4  -3  -1   -0.27    0.21   1
  -4  -3   1   -0.24    0.37   1
  -4  -3   1   -0.17    0.16   1
   4  -3  -1   -0.25    0.20   1
  -4  -3   1   -0.06    0.10   1
  -4  -3   1   -0.17    0.15   1
   4   3   0   17.54    0.95   1
   4   3   0   15.51    0.97   1
   4   3   0   16.25    0.81   1
  -4   3   0   14.99    1.02   1
  -4   3   0   14.23    0.96   1
   4   3   0   16.98    0.93   1
   4   3   0   15.98    0.98   1
   4  -3   0   15.94    1.00   1
  -4  -3   0   15.99    1.20   1
   4  -3   0   16.41    1.03   1
   4  -3   0   15.92    1.01   1
  -4  -3   0   15.11    0.92   1
   4  -3   0   15.66    1.03   1
  -4  -3   0   16.17    0.90   1
  -4   3  -1   14.79    0.94   1
   4   3   1   15.40    0.88   1
   4   3   1   14.90    0.93   1
  -4   3  -1   12.94    0.97   1
   4   3   1   13.85    0.88   1
  -4   3  -1   14.59    0.99   1
   4   3   1   14.03    0.82   1
  -4  -3  -1   15.88    1.13   1
   4  -3   1   15.02    0.97   1
   4  -3   1   12.61    0.96   1
   4  -3   1   15.23    0.98   1
   4  -3   1   13.94    0.94   1
  -4  -3  -1   13.98    0.87   1
  -4  -3  -1   14.89    0.79   1
   4   3   2   11.09    0.82   1
  -4   3  -2   11.72    0.87   1
   4   3   2   10.46    0.77   1
  -4   3  -2    9.87    0.81   1
  -4   3  -2   12.11    0.89   1
  -4  -3  -2   11.21    0.75   1
   4  -3   2   11.62    0.87   1
   4  -3   2   10.47    0.84   1
   4  -3   2   11.08    0.85   1
  -4  -3  -2   12.76    0.93   1
   4  -3   2   11.42    0.80   1
  -4   3  -3   23.57    1.55   1
  -4   3  -3   25.39    1.58   1
  -4   3  -3   26.48    1.57   1
   4   3   3   24.92    1.51   1
   4   3   3   24.47    1.52   1
  -4  -3  -3   24.88    1.44   1
  -4  -3  -3   24.58    1.48   1
   4  -3   3   26.69    1.56   1
   4  -3   3   27.54    1.74   1
   4  -3   3   23.32    1.52   1
  -4  -3  -3   23.34    1.44   1
   4  -3   3   23.53    1.47   1
   4  -3   3   24.97    1.55   1
   4   3   4    0.31    0.35   1
   4   3   4    0.12    0.37   1
  -4   3  -4   -0.31    0.35   1
  -4   3  -4    0.88    0.43   1
  -4   3  -4   -0.03    0.36   1
   4  -3   4    0.56    0.45   1
   4  -3   4    0.30    0.29   1
  -4  -3  -4    0.33    0.20   1
   4  -3   4   -0.14    0.33   1
  -4  -3  -4    0.15    0.29   1
   4  -3   4    0.69    0.41   1
  -4  -3  -4    0.20    0.26   1
  -4   3  -5   -0.15    0.44   1
   4   3   5    0.30    0.43   1
  -4   3  -5   -0.55    0.35   1
   4   3   5   -0.18    0.41   1
  -4   3  -5    0.18    0.34   1
  -4   3  -5    0.11    0.48   1
   4  -3   5   -0.07    0.38   1
   4  -3   5    0.29    0.34   1
   4  -3   5   -0.06    0.43   1
  -4  -3  -5    0.09    0.28   1
  -4  -3  -5   -0.36    0.27   1
   4  -3   5   -0.16    0.43   1
   4   3   6    4.07    0.83   1
  -4   3  -6    5.12    0.72   1
  -4   3  -6    3.85    0.89   1
   4   3   6    5.10    0.79   1
  -4   3  -6    6.20    0.85   1
  -4   3  -6    5.90    0.90   1
  -4  -3  -6    3.52    0.66   1
   4  -3   6    3.54    0.75   1
  -4  -3  -6    4.48    0.66   1
   4  -3   6    5.33    0.73   1
   4  -3   6    6.45    0.91   1
   4  -3   6    3.88    0.78   1
   4   3   7    5.69    1.01   1
  -4   3  -7    4.58    1.00   1
   4   3   7    7.58    0.98   1
  -4   3  -7    5.63    0.81   1
  -4   3  -7    7.06    1.09   1
   4  -3   7    4.45    0.76   1
  -4  -3  -7    7.03    0.91   1
   4  -3   7    4.77    0.85   1
   4  -3   7    4.83    0.96   1
   4  -3   7    4.56    0.93   1
  -4   3  -8    9.69    1.37   1
   4   3   8   11.05    1.26   1
   4   3   8   11.96    1.43   1
  -4   3  -8   11.69    1.48   1
   4  -3   8   10.84    1.23   1
   4  -3   8    9.57    1.31   1
  -4  -3  -8   10.05    1.22   1
   4  -3   8    9.69    1.37   1
   4   3   9    1.26    0.64   1
  -4   3  -9   -0.44    0.62   1
  -4   3  -9    0.31    0.69   1
   4   3   9   -0.11    0.65   1
   4  -3   9    0.79    0.80   1
   4  -3   9   -0.34    0.62   1
   4  -3   9   -0.63    0.68   1
  -4  -3  -9   -0.25    0.50   1
  -4   3 -10   -0.19    0.65   1
   4   3  10    0.03    0.62   1
  -4   3 -10    0.40    0.67   1
   4  -3  10   -0.26    0.68   1
   4  -3  10    0.89    0.73   1
   4  -3  10   -0.28    0.85   1
  -4   3 -11    0.18    0.66   1
   4   3  11    0.26    0.61   1
   4   3  11   -0.02    0.80   1
  -4   3 -11   -0.55    0.63   1
   4  -3  11    1.10    0.89   1
   4  -3  11    0.52    0.76   1
  -4   4  13   -0.30    0.72   1
   4   4 -13    0.40    0.76   1
  -4  -4  13    0.71    0.79   1
  -4  -4  13    1.03    0.99   1
   4   4 -12    3.19    0.81   1
   4   4 -12    2.02    0.95   1
  -4   4  12    3.75    1.04   1
  -4   4  12    1.55    0.79   1
   4   4 -12    2.31    0.98   1
  -4  -4  12    2.43    0.97   1
  -4  -4  12    1.53    0.79   1
   4   4 -11    7.17    1.29   1
   4   4 -11    7.75    1.14   1
  -4   4  11    8.53    1.21   1
  -4   4  11    4.15    1.02   1
   4   4 -11    7.76    1.27   1
  -4  -4  11    8.17    1.21   1
  -4  -4  11    6.47    1.17   1
   4   4 -10    7.98    1.29   1
   4   4 -10    7.29    1.05   1
  -4   4  10    7.41    1.25   1
   4   4 -10    7.18    1.10   1
  -4   4  10    6.52    1.08   1
   4   4 -10    9.39    1.32   1
  -4  -4  10    6.87    1.12   1
  -4  -4  10    8.05    1.07   1
   4  -4 -10    7.78    1.07   1
  -4  -4  10    8.54    1.15   1
   4   4  -9   -0.11    0.44   1
   4   4  -9    0.41    0.60   1
   4   4  -9   -0.12    0.58   1
  -4   4   9    0.58    0.54   1
  -4   4   9   -0.15    0.55   1
   4   4  -9   -0.63    0.57   1
  -4  -4   9   -0.25    0.57   1
  -4  -4   9   -0.36    0.60   1
   4  -4  -9   -0.27    0.47   1
  -4  -4   9   -0.24    0.53   1
  -4  -4   9    0.09    0.46   1
   4   4  -8   15.82    1.52   1
  -4   4   8   19.65    1.43   1
  -4   4   8   17.56    1.46   1
   4   4  -8   13.24    1.62   1
   4   4  -8   16.84    1.37   1
   4   4  -8   18.98    1.44   1
   4  -4  -8   17.59    1.34   1
  -4  -4   8   18.02    1.38   1
   4  -4  -8   17.23    1.46   1
  -4  -4   8   16.77    1.53   1
  -4  -4   8   18.09    1.56   1
  -4  -4   8   18.72    1.44   1
  -4   4   7   32.56    1.92   1
  -4   4   7   29.53    1.98   1
   4   4  -7   31.43    2.17   1
   4   4  -7   33.08    1.97   1
   4   4  -7   30.10    1.96   1
   4  -4  -7   31.18    2.08   1
   4  -4  -7   31.34    1.91   1
  -4  -4   7   31.50    1.94   1
  -4  -4   7   28.59    2.11   1
  -4  -4   7   31.19    2.00   1
  -4  -4   7   29.12    2.16   1
   4   4  -6   22.63    1.71   1
  -4   4   6   21.93    1.48   1
   4   4  -6   22.83    1.50   1
   4   4  -6   21.67    1.52   1
  -4   4   6   21.83    1.44   1
   4   4  -6   23.81    1.47   1
  -4  -4   6   17.96    1.58   1
  -4  -4   6   19.98    1.73   1
   4  -4  -6   22.84    1.60   1
  -4  -4   6   22.27    1.51   1
  -4  -4   6   22.62    1.42   1
   4  -4  -6   23.51    1.51   1
   4  -4  -6   23.00    1.47   1
  -4   4   5   -0.35    0.24   1
   4   4  -5   -0.19    0.24   1
   4   4  -5   -0.05    0.29   1
   4   4  -5   -0.39    0.45   1
  -4   4   5   -0.05    0.32   1
   4   4  -5    2.67    0.49   1
  -4  -4   5   -0.27    0.40   1
  -4  -4   5    0.06    0.26   1
  -4  -4   5    0.24    0.55   1
   4  -4  -5    0.27    0.25   1
   4  -4  -5    0.23    0.30   1
  -4  -4   5    0.03    0.26   1
   4   4  -4   28.67    1.69   1
   4   4  -4   29.31    2.01   1
   4   4  -4   32.49    1.78   1
  -4   4   4   28.81    1.73   1
  -4   4   4   28.99    1.69   1
   4   4  -4   30.43    1.75   1
  -4  -4   4   31.39    1.66   1
   4  -4  -4   32.88    1.77   1
  -4  -4   4   28.41    1.75   1
  -4  -4   4   31.28    1.86   1
  -4  -4   4   25.31    1.97   1
   4  -4  -4   30.42    1.70   1
   4  -4  -4   29.12    1.77   1
   4   4  -3   67.83    3.70   1
  -4   4   3   61.12    3.37   1
   4   4  -3   66.25    3.38   1
   4   4  -3   65.97    3.38   1
  -4   4   3   64.10    3.44   1
   4   4  -3   66.72    3.39   1
   4   4  -3   69.00    3.44   1
  -4  -4   3   64.55    3.32   1
   4  -4  -3   59.23    3.43   1
  -4  -4   3   65.48    3.48   1
   4  -4  -3   67.43    3.48   1
   4  -4  -3   64.70    3.39   1
  -4  -4   3   67.35    3.41   1
  -4  -4   3   63.20    3.77   1
  -4   4   2   46.73    2.50   1
   4   4  -2   48.74    2.44   1
   4   4  -2   48.78    2.52   1
   4   4  -2   47.88    2.47   1
  -4   4   2   47.30    2.56   1
   4   4  -2   47.54    2.48   1
   4   4  -2   41.80    2.73   1
  -4  -4   2   43.93    2.86   1
   4  -4  -2   46.19    2.58   1
  -4  -4   2   47.85    2.42   1
   4  -4  -2   48.90    2.51   1
  -4  -4   2   49.08    2.47   1
   4  -4  -2   45.91    2.57   1
  -4  -4   2   48.82    2.57   1
   4   4  -1    2.63    0.31   1
  -4   4   1    2.47    0.39   1
  -4   4   1    3.32    0.39   1
   4   4  -1    2.88    0.24   1
   4   4  -1    2.80    0.32   1
   4   4  -1    3.25    0.38   1
   4   4  -1    3.28    0.57   1
  -4  -4   1    2.81    0.26   1
   4  -4  -1    2.38    0.34   1
   4  -4  -1    2.36    0.41   1
   4  -4  -1    2.74    0.48   1
  -4  -4   1    3.06    0.39   1
   4  -4  -1    3.09    0.45   1
  -4  -4   1    3.12    0.71   1
  -4  -4   1    3.42    0.30   1
   4   4   0   11.65    0.73   1
   4   4   0   13.12    0.76   1
   4   4   0   12.58    0.79   1
   4   4   0   12.55    0.88   1
  -4   4   0   11.51    0.78   1
  -4   4   0   11.68    0.85   1
   4  -4   0   11.15    0.87   1
   4  -4   0   10.08    0.84   1
   4  -4   0   12.59    0.91   1
   4  -4   0   11.62    0.81   1
  -4  -4   0   11.12    1.10   1
  -4  -4   0   11.79    0.75   1
   4   4   1   44.17    2.31   1
   4   4   1   42.65    2.31   1
   4   4   1   43.42    2.32   1
  -4   4  -1   41.88    2.37   1
   4   4   1   45.26    2.38   1
  -4   4  -1   45.13    2.45   1
  -4   4  -1   43.80    2.49   1
   4  -4   1   43.15    2.44   1
  -4  -4  -1   44.34    2.61   1
   4  -4   1   48.21    2.42   1
  -4  -4  -1   44.87    2.29   1
   4  -4   1   43.24    2.44   1
   4  -4   1   45.68    2.46   1
  -4  -4  -1   43.57    2.28   1
   4   4   2   77.14    3.91   1
   4   4   2   76.35    3.93   1
  -4   4  -2   76.30    4.00   1
  -4   4  -2   74.66    4.03   1
   4   4   2   77.52    3.76   1
   4   4   2   77.10    3.97   1
  -4   4  -2   75.37    4.07   1
   4  -4   2   76.38    4.01   1
   4  -4   2   72.53    4.01   1
  -4  -4  -2   72.06    4.10   1
   4  -4   2   76.96    4.04   1
   4  -4   2   79.35    4.02   1
  -4  -4  -2   78.40    3.88   1
  -4   4  -3   16.05    1.23   1
   4   4   3   16.70    1.15   1
  -4   4  -3   16.16    1.21   1
   4   4   3   17.66    1.16   1
  -4   4  -3   18.81    1.27   1
  -4  -4  -3   14.03    1.13   1
   4  -4   3   17.41    1.22   1
   4  -4   3   18.60    1.19   1
   4  -4   3   19.93    1.26   1
   4  -4   3   18.19    1.19   1
  -4   4  -4    8.73    0.96   1
  -4   4  -4    7.42    0.92   1
   4   4   4    6.91    0.82   1
  -4   4  -4    6.40    0.86   1
   4   4   4    9.94    0.83   1
   4  -4   4    8.17    0.86   1
   4  -4   4    9.27    0.81   1
   4  -4   4    7.45    0.85   1
   4  -4   4    9.13    0.91   1
   4   4   5   34.81    2.07   1
   4   4   5   27.24    1.94   1
  -4   4  -5   30.70    2.01   1
  -4   4  -5   35.35    2.21   1
  -4   4  -5   23.07    1.92   1
   4  -4   5   31.53    1.98   1
   4  -4   5   30.23    1.92   1
   4  -4   5   32.70    2.03   1
   4  -4   5   30.39    1.95   1
  -4   4  -6   24.14    1.80   1
   4   4   6   24.38    1.75   1
   4   4   6   21.47    1.78   1
  -4   4  -6   26.13    1.78   1
  -4   4  -6   20.02    1.86   1
  -4   4  -6   28.08    1.83   1
   4  -4   6   24.80    1.81   1
   4  -4   6   26.91    1.76   1
   4  -4   6   24.57    1.74   1
   4  -4   6   23.71    1.82   1
  -4   4  -7    6.07    1.14   1
  -4   4  -7    6.79    0.97   1
  -4   4  -7    6.22    1.06   1
  -4   4  -7    8.21    1.01   1
   4   4   7    8.46    1.02   1
   4   4   7    4.95    0.96   1
   4  -4   7    6.32    0.93   1
   4  -4   7    5.17    0.95   1
   4  -4   7    6.83    1.07   1
   4  -4   7    5.88    0.92   1
   4   4   8    0.66    0.66   1
  -4   4  -8    0.72    0.83   1
  -4   4  -8    0.42    0.51   1
   4   4   8    0.33    0.53   1
  -4   4  -8    1.96    0.83   1
   4  -4   8    0.69    0.70   1
   4  -4   8    0.56    0.61   1
   4  -4   8   -0.65    0.66   1
   4   4   9    7.20    1.03   1
   4   4   9    5.83    1.12   1
  -4   4  -9    6.89    1.26   1
  -4   4  -9    5.75    1.20   1
   4  -4   9    4.85    1.07   1
   4  -4   9    6.72    1.28   1
   4  -4   9    5.15    0.99   1
   4   4  10    5.37    1.15   1
  -4   4 -10    5.36    1.16   1
   4   4  10    5.23    0.95   1
  -4   4 -10    6.06    1.17   1
   4  -4  10    6.50    1.22   1
  -4   4 -11    2.41    0.94   1
   4   4  11    1.38    0.89   1
   4  -4  11    2.15    1.17   1
  -4   5  13    9.50    1.50   1
  -4  -5  13    9.80    1.37   1
  -4  -5  13   12.18    1.67   1
  -4   5  12   -0.78    0.89   1
   4   5 -12    0.05    0.69   1
   4   5 -12    0.19    0.72   1
   4   5 -12    0.23    0.65   1
  -4   5  12    1.21    0.76   1
  -4   5  12    1.18    0.74   1
  -4  -5  12    0.64    0.88   1
  -4  -5  12    2.06    0.89   1
   4   5 -11    4.40    1.12   1
  -4   5  11    2.69    0.83   1
   4   5 -11    3.90    1.05   1
   4   5 -11    4.53    0.94   1
  -4   5  11    2.68    0.94   1
  -4  -5  11    5.28    1.09   1
  -4  -5  11    2.38    0.86   1
  -4   5  10    3.92    0.95   1
   4   5 -10    5.37    1.03   1
   4   5 -10    3.83    1.01   1
   4   5 -10    4.40    0.91   1
  -4   5  10    4.84    1.00   1
   4   5 -10    1.96    0.86   1
  -4  -5  10    5.35    1.00   1
  -4  -5  10    3.42    0.95   1
  -4  -5  10    5.62    0.99   1
  -4   5   9   11.08    1.45   1
   4   5  -9   13.49    1.58   1
   4   5  -9   15.05    1.45   1
   4   5  -9   13.73    1.48   1
  -4   5   9   11.96    1.30   1
   4   5  -9   11.96    1.52   1
  -4  -5   9   13.37    1.50   1
  -4  -5   9   13.24    1.52   1
  -4  -5   9   12.26    1.29   1
  -4   5   8   32.39    2.20   1
  -4   5   8   32.84    2.09   1
   4   5  -8   33.79    2.16   1
   4   5  -8   35.98    2.19   1
   4   5  -8   27.73    2.21   1
   4  -5  -8   33.48    2.08   1
  -4  -5   8   33.00    2.07   1
  -4  -5   8   30.46    2.28   1
  -4  -5   8   29.12    2.28   1
   4   5  -7    0.16    0.49   1
   4   5  -7   -0.17    0.44   1
  -4   5   7    0.38    0.40   1
  -4   5   7    0.01    0.37   1
   4   5  -7   -0.28    0.52   1
   4   5  -7    0.19    0.39   1
   4  -5  -7   -0.21    0.44   1
  -4  -5   7    0.59    0.41   1
  -4  -5   7   -0.24    0.53   1
  -4  -5   7    0.01    0.57   1
  -4   5   6   72.60    3.81   1
   4   5  -6   68.94    4.05   1
   4   5  -6   70.40    3.84   1
  -4   5   6   67.26    3.71   1
   4   5  -6   68.10    3.74   1
   4   5  -6   68.08    3.80   1
  -4  -5   6   69.63    3.93   1
  -4  -5   6   69.28    3.70   1
   4  -5  -6   69.31    3.77   1
  -4  -5   6   68.81    4.11   1
   4   5  -5   49.65    2.81   1
   4   5  -5   50.67    2.88   1
  -4   5   5   53.01    2.86   1
   4   5  -5   51.16    3.16   1
   4   5  -5   52.58    2.91   1
  -4   5   5   51.39    2.81   1
   4  -5  -5   50.09    2.88   1
  -4  -5   5   47.30    3.20   1
  -4  -5   5   54.68    2.80   1
  -4  -5   5   54.39    3.03   1
   4   5  -4   18.69    1.52   1
   4   5  -4   19.78    1.23   1
   4   5  -4   18.05    1.18   1
  -4   5   4   17.35    1.14   1
  -4   5   4   18.00    1.19   1
   4   5  -4   17.60    1.12   1
  -4  -5   4   17.73    1.30   1
   4  -5  -4   18.42    1.27   1
  -4  -5   4   16.17    1.56   1
   4  -5  -4   16.95    1.21   1
  -4  -5   4   16.62    1.09   1
   4   5  -3   20.67    1.24   1
   4   5  -3   20.14    1.18   1
  -4   5   3   19.33    1.19   1
  -4   5   3   20.82    1.26   1
   4   5  -3   18.41    1.55   1
   4   5  -3   19.77    1.17   1
  -4  -5   3   19.46    1.31   1
   4  -5  -3   19.24    1.14   1
   4  -5  -3   17.93    1.27   1
  -4  -5   3   16.96    1.63   1
  -4  -5   3   19.81    1.15   1
   4  -5  -3   18.45    1.30   1
   4   5  -2   20.38    1.17   1
  -4   5   2   21.46    1.28   1
   4   5  -2   20.62    1.56   1
   4   5  -2   20.85    1.22   1
  -4   5   2   18.51    1.20   1
   4   5  -2   19.99    1.16   1
   4   5  -2   20.05    1.15   1
   4  -5  -2   21.10    1.17   1
   4  -5  -2   20.06    1.32   1
  -4  -5   2   21.99    1.31   1
   4  -5  -2   19.62    1.33   1
  -4  -5   2   21.85    1.17   1
  -4  -5   2   14.90    1.72   1
   4   5  -1  217.87   10.51   1
  -4   5   1  214.07   10.63   1
   4   5  -1  215.52   10.57   1
  -4   5   1  209.36   10.58   1
   4   5  -1  208.68   10.51   1
   4   5  -1  220.20   10.52   1
   4  -5  -1  209.69   10.73   1
  -4  -5   1  221.69   10.54   1
   4  -5  -1  204.50   10.67   1
  -4  -5   1  215.00   10.63   1
   4  -5  -1  208.37   10.68   1
   4  -5  -1  208.30   10.55   1
   4   5   0   83.58    4.06   1
   4   5   0   77.65    4.29   1
   4   5   0   83.66    4.07   1
   4   5   0   81.29    4.11   1
  -4   5   0   86.34    4.22   1
  -4   5   0   81.52    4.14   1
   4  -5   0   81.05    4.13   1
  -4  -5   0   64.04    4.43   1
   4  -5   0   78.02    4.23   1
   4  -5   0   81.11    4.24   1
  -4  -5   0   81.65    4.14   1
   4  -5   0   81.68    4.29   1
  -4   5  -1   -0.06    0.23   1
  -4   5  -1    0.20    0.37   1
   4   5   1   -0.10    0.25   1
   4   5   1    0.14    0.23   1
   4   5   1    0.21    0.19   1
   4   5   1    0.24    0.18   1
  -4   5  -1    0.35    0.30   1
  -4  -5  -1    0.39    0.43   1
  -4  -5  -1    0.20    0.20   1
   4  -5   1    0.06    0.32   1
   4  -5   1   -0.10    0.19   1
   4  -5   1   -0.16    0.31   1
   4  -5   1    0.11    0.31   1
   4   5   2    2.23    0.38   1
   4   5   2    2.32    0.31   1
   4   5   2    2.02    0.35   1
  -4   5  -2    2.75    0.56   1
  -4   5  -2    2.41    0.47   1
  -4   5  -2    1.97    0.44   1
   4  -5   2    2.74    0.43   1
   4  -5   2    1.87    0.48   1
   4  -5   2    2.53    0.50   1
  -4  -5  -2    2.69    0.55   1
   4  -5   2    2.24    0.48   1
   4   5   3   38.18    2.12   1
   4   5   3   36.55    2.09   1
  -4   5  -3   35.55    2.19   1
  -4   5  -3   36.90    2.26   1
  -4   5  -3   38.75    2.23   1
  -4  -5  -3   35.99    2.14   1
   4  -5   3   37.45    2.19   1
   4  -5   3   35.97    2.21   1
   4  -5   3   37.86    2.19   1
   4  -5   3   36.12    2.13   1
  -4   5  -4   90.78    5.62   1
  -4   5  -4  108.48    5.71   1
   4   5   4  114.27    5.59   1
  -4   5  -4  101.44    5.67   1
   4  -5   4  116.54    5.66   1
   4  -5   4  105.86    5.65   1
   4  -5   4  107.15    5.59   1
   4  -5   4  107.42    5.61   1
  -4   5  -5   15.88    1.40   1
  -4   5  -5   17.06    1.41   1
   4   5   5   13.99    1.29   1
  -4   5  -5   17.38    1.49   1
   4   5   5   20.71    1.43   1
   4  -5   5   19.53    1.40   1
   4  -5   5   17.58    1.42   1
   4  -5   5   17.58    1.33   1
   4  -5   5   17.63    1.40   1
  -4   5  -6   11.09    1.39   1
   4   5   6   11.08    1.22   1
  -4   5  -6   10.12    1.19   1
  -4   5  -6    9.32    1.22   1
  -4   5  -6   10.87    1.22   1
   4   5   6   11.06    1.16   1
   4  -5   6   12.22    1.28   1
   4  -5   6   10.75    1.23   1
   4  -5   6   13.82    1.17   1
   4  -5   6   10.76    1.17   1
  -4   5  -7   13.61    1.36   1
  -4   5  -7    8.91    1.42   1
  -4   5  -7   12.70    1.46   1
   4   5   7   14.29    1.33   1
  -4   5  -7   12.20    1.36   1
   4   5   7   11.41    1.36   1
   4  -5   7   11.35    1.25   1
   4  -5   7    8.28    1.20   1
   4  -5   7   10.59    1.33   1
  -4   5  -8    8.15    1.19   1
   4   5   8    9.56    1.32   1
   4   5   8    9.16    1.13   1
  -4   5  -8    9.45    1.42   1
  -4   5  -8    7.91    1.30   1
   4  -5   8    8.53    1.12   1
   4  -5   8    8.37    1.34   1
  -4   5  -9   12.00    1.64   1
   4   5   9   14.48    1.64   1
  -4   5  -9   13.35    1.70   1
   4   5   9   12.90    1.40   1
   4  -5   9    9.74    1.57   1
   4  -5   9   11.64    1.32   1
   4   5  10    0.05    0.61   1
  -4   5 -10   -0.74    0.64   1
   4   5  10    0.61    0.62   1
  -4   5 -10    0.72    0.75   1
   4  -5  10   -0.61    0.83   1
  -4   5 -11    7.43    1.34   1
   4   5  11    6.60    1.32   1
   4  -5  11    9.12    1.62   1
  -4   6  12    0.97    0.81   1
  -4   6  12   -0.19    0.64   1
   4   6 -12   -0.52    0.56   1
   4   6 -12    0.12    0.72   1
  -4  -6  12    0.02    0.77   1
  -4  -6  12   -0.41    0.80   1
  -4   6  11   15.50    1.69   1
   4   6 -11   17.34    1.75   1
   4   6 -11   20.70    2.09   1
   4   6 -11   19.79    1.97   1
  -4   6  11   17.59    1.84   1
  -4  -6  11   16.29    1.68   1
  -4  -6  11   13.32    1.72   1
  -4   6  10   15.21    1.70   1
   4   6 -10   14.17    1.55   1
  -4   6  10   13.00    1.53   1
   4   6 -10   16.01    1.85   1
   4   6 -10   14.31    1.71   1
   4   6 -10   16.17    1.69   1
  -4  -6  10   15.15    1.52   1
  -4  -6  10   14.97    1.70   1
  -4  -6  10   15.62    1.72   1
  -4   6   9   10.33    1.20   1
   4   6  -9   12.53    1.58   1
   4   6  -9   10.09    1.36   1
   4   6  -9   10.40    1.26   1
   4   6  -9    9.01    1.27   1
  -4   6   9    8.29    1.29   1
  -4  -6   9   12.42    1.47   1
  -4  -6   9   13.16    1.58   1
  -4  -6   9   11.57    1.25   1
   4   6  -8   15.38    1.47   1
  -4   6   8   14.37    1.27   1
   4   6  -8   12.10    1.51   1
   4   6  -8   14.22    1.42   1
   4   6  -8   14.98    1.69   1
  -4   6   8   15.36    1.53   1
  -4  -6   8   15.91    1.64   1
  -4  -6   8   17.14    1.61   1
   4  -6  -8   13.81    1.37   1
  -4  -6   8   15.83    1.28   1
  -4   6   7    0.51    0.41   1
   4   6  -7    1.11    0.48   1
   4   6  -7    0.98    0.69   1
  -4   6   7    0.45    0.43   1
   4   6  -7    0.50    0.58   1
   4   6  -7    0.11    0.45   1
  -4  -6   7    0.51    0.68   1
  -4  -6   7    0.52    0.45   1
   4  -6  -7    0.25    0.47   1
  -4  -6   7   -0.22    0.57   1
   4   6  -6   26.61    2.09   1
  -4   6   6   28.68    1.78   1
  -4   6   6   26.59    1.72   1
   4   6  -6   28.47    1.86   1
   4   6  -6   28.40    1.76   1
  -4  -6   6   26.95    1.71   1
  -4  -6   6   28.64    1.99   1
   4  -6  -6   28.11    1.83   1
  -4  -6   6   27.51    2.16   1
   4   6  -5   29.02    1.88   1
  -4   6   5   31.58    1.86   1
   4   6  -5   30.89    2.22   1
  -4   6   5   31.87    1.82   1
   4   6  -5   27.79    1.79   1
   4   6  -5   28.91    1.87   1
  -4  -6   5   28.32    2.24   1
  -4  -6   5   31.77    1.81   1
  -4  -6   5   32.18    2.05   1
   4  -6  -5   30.89    1.92   1
   4   6  -4   48.70    2.66   1
   4   6  -4   50.85    2.70   1
  -4   6   4   49.84    2.66   1
   4   6  -4   48.72    3.06   1
   4   6  -4   45.26    2.60   1
  -4   6   4   46.81    2.62   1
   4  -6  -4   47.18    2.74   1
  -4  -6   4   50.87    3.15   1
  -4  -6   4   47.09    2.61   1
  -4  -6   4   47.75    2.80   1
   4  -6  -4   48.74    2.79   1
  -4   6   3  114.83    5.66   1
  -4   6   3  105.49    5.59   1
   4   6  -3  112.86    5.64   1
   4   6  -3  107.39    5.57   1
   4   6  -3  111.01    5.61   1
   4   6  -3  113.88    6.06   1
   4  -6  -3  106.53    5.77   1
  -4  -6   3  115.07    5.61   1
   4  -6  -3  103.58    5.73   1
  -4  -6   3  108.08    6.18   1
  -4  -6   3  112.52    5.76   1
   4   6  -2    1.39    0.30   1
   4   6  -2    0.97    0.26   1
   4   6  -2    0.96    0.25   1
  -4   6   2    1.31    0.32   1
  -4   6   2    0.65    0.33   1
   4   6  -2    0.99    0.24   1
   4   6  -2    1.74    0.65   1
  -4  -6   2    1.52    0.41   1
  -4  -6   2    0.59    0.65   1
   4  -6  -2    1.11    0.42   1
  -4  -6   2    1.25    0.29   1
   4  -6  -2    1.17    0.42   1
   4   6  -1    0.63    0.52   1
   4   6  -1    1.34    0.28   1
   4   6  -1    1.46    0.23   1
   4   6  -1    1.31    0.24   1
  -4   6   1    1.30    0.32   1
   4   6  -1    1.86    0.29   1
  -4   6   1    1.66    0.38   1
   4  -6  -1    1.40    0.49   1
  -4  -6   1    1.62    0.31   1
   4  -6  -1    1.32    0.38   1
   4  -6  -1    0.63    0.39   1
  -4  -6   1    1.54    0.38   1
  -4  -6   1    1.31    0.71   1
   4   6   0    4.06    0.37   1
   4   6   0    3.48    0.36   1
   4   6   0    3.61    0.41   1
   4   6   0    2.00    0.55   1
   4   6   0    4.09    0.42   1
  -4   6   0    2.88    0.43   1
  -4   6   0    3.29    0.49   1
  -4  -6   0    3.69    0.45   1
   4  -6   0    3.69    0.58   1
  -4  -6   0    3.58    0.50   1
   4  -6   0    4.40    0.61   1
  -4  -6   0    4.00    0.83   1
   4  -6   0    3.16    0.60   1
  -4   6  -1   91.93    5.01   1
  -4   6  -1   94.01    4.83   1
  -4   6  -1   91.61    4.88   1
   4   6   1   93.18    4.75   1
   4   6   1   92.72    4.70   1
   4   6   1  100.56    4.95   1
   4   6   1   89.97    4.70   1
  -4  -6  -1   93.35    5.13   1
  -4  -6  -1   96.26    4.80   1
   4  -6   1   92.27    4.92   1
   4  -6   1   93.77    4.95   1
   4  -6   1   92.40    4.96   1
  -4   6  -2  102.82    5.20   1
  -4   6  -2   99.46    5.22   1
  -4   6  -2   97.89    5.32   1
   4   6   2   99.69    5.07   1
   4   6   2   99.22    5.09   1
   4  -6   2   99.57    5.28   1
   4  -6   2   97.35    5.28   1
  -4  -6  -2   98.61    5.33   1
   4  -6   2   95.47    5.22   1
  -4  -6  -2  104.35    5.08   1
  -4   6  -3    4.80    0.70   1
  -4   6  -3    4.82    0.72   1
   4   6   3    5.85    0.64   1
   4   6   3    6.38    0.63   1
  -4   6  -3    3.74    0.68   1
   4  -6   3    4.99    0.78   1
  -4  -6  -3    6.09    0.70   1
   4  -6   3    5.85    0.77   1
   4  -6   3    4.83    0.71   1
  -4   6  -4   13.73    1.32   1
  -4   6  -4   13.04    1.15   1
  -4   6  -4    7.87    1.11   1
   4   6   4   14.21    1.03   1
   4  -6   4   12.82    1.23   1
   4  -6   4   12.22    1.15   1
   4  -6   4   15.35    1.20   1
  -4   6  -5   -0.63    0.46   1
   4   6   5   -0.57    0.36   1
  -4   6  -5   -0.19    0.49   1
   4   6   5    0.11    0.41   1
  -4   6  -5   -0.45    0.43   1
   4  -6   5    0.16    0.52   1
   4  -6   5   -0.41    0.50   1
   4  -6   5   -0.53    0.46   1
   4   6   6   24.01    1.76   1
  -4   6  -6   20.77    1.87   1
   4   6   6   24.94    1.70   1
  -4   6  -6   20.34    1.76   1
  -4   6  -6   24.04    1.84   1
  -4   6  -6   22.58    1.81   1
   4  -6   6   22.85    1.79   1
   4  -6   6   21.20    1.79   1
   4  -6   6   22.29    1.73   1
  -4   6  -7   23.86    2.21   1
  -4   6  -7   29.13    2.16   1
   4   6   7   32.58    2.06   1
   4   6   7   23.94    2.05   1
  -4   6  -7   34.17    2.17   1
  -4   6  -7   27.81    2.19   1
   4  -6   7   28.81    2.06   1
   4  -6   7   27.19    2.16   1
   4  -6   7   28.41    2.21   1
   4   6   8    4.88    0.86   1
   4   6   8    4.55    0.97   1
  -4   6  -8    3.95    0.84   1
  -4   6  -8    3.17    0.97   1
  -4   6  -8    5.04    1.10   1
  -4   6  -8    3.30    0.89   1
   4  -6   8    4.27    0.96   1
   4  -6   8    3.32    1.06   1
   4  -6   8    3.33    0.82   1
   4   6   9   20.52    1.69   1
  -4   6  -9   15.47    1.93   1
  -4   6  -9   20.00    2.09   1
   4   6   9   19.37    1.96   1
   4  -6   9   18.42    2.02   1
  -4   6 -10    0.24    0.72   1
   4   6  10    1.53    0.86   1
   4   6  10    0.16    0.59   1
   4  -6  10    0.17    0.92   1
  -4   7  12   -1.26    0.89   1
   4   7 -12   -0.99    0.84   1
  -4   7  12    0.33    0.67   1
  -4   7  11    7.98    1.21   1
   4   7 -11    8.60    1.57   1
   4   7 -11    9.31    1.35   1
  -4   7  11    8.94    1.30   1
   4   7 -11    8.60    1.28   1
   4   7 -11    9.62    1.40   1
  -4  -7  11    9.45    1.29   1
  -4  -7  11   10.17    1.48   1
   4   7 -10    1.92    0.90   1
   4   7 -10    1.93    0.82   1
  -4   7  10    3.45    0.89   1
  -4   7  10    3.13    0.90   1
   4   7 -10    1.49    0.76   1
   4   7 -10    2.56    0.88   1
  -4  -7  10    3.76    1.07   1
  -4  -7  10    2.80    0.99   1
  -4  -7  10    2.67    0.80   1
  -4   7   9    0.52    0.57   1
   4   7  -9    1.06    0.66   1
   4   7  -9   -0.22    0.55   1
  -4   7   9    0.53    0.60   1
   4   7  -9    0.96    0.80   1
   4   7  -9    0.68    0.69   1
  -4  -7   9    0.55    0.76   1
  -4  -7   9    0.92    0.78   1
  -4  -7   9    0.37    0.56   1
  -4   7   8   25.95    1.95   1
   4   7  -8   25.21    1.88   1
   4   7  -8   22.78    1.90   1
   4   7  -8   26.02    1.85   1
  -4   7   8   23.56    1.71   1
   4   7  -8   21.31    2.03   1
   4  -7  -8   24.04    1.82   1
  -4  -7   8   25.13    1.74   1
  -4  -7   8   25.76    2.12   1
  -4  -7   8   22.03    2.02   1
   4   7  -7   -0.31    0.38   1
   4   7  -7    0.39    0.70   1
   4   7  -7    0.07    0.60   1
   4   7  -7    0.67    0.56   1
  -4   7   7    0.00    0.46   1
  -4   7   7    0.37    0.39   1
   4  -7  -7    0.17    0.54   1
  -4  -7   7    0.68    0.70   1
  -4  -7   7   -0.06    0.62   1
  -4  -7   7    0.64    0.46   1
  -4   7   6   54.53    2.85   1
   4   7  -6   45.97    3.18   1
  -4   7   6   46.33    2.72   1
   4   7  -6   47.40    2.87   1
   4   7  -6   40.40    2.92   1
   4   7  -6   51.08    2.81   1
  -4  -7   6   51.00    3.28   1
  -4  -7   6   49.71    2.77   1
   4  -7  -6   49.07    2.89   1
  -4  -7   6   48.12    3.04   1
   4   7  -5   -0.20    0.32   1
  -4   7   5    0.06    0.33   1
   4   7  -5   -0.26    0.28   1
   4   7  -5    0.02    0.61   1
  -4   7   5   -0.05    0.32   1
  -4  -7   5   -0.49    0.31   1
  -4  -7   5    0.66    0.68   1
  -4  -7   5   -0.03    0.47   1
   4  -7  -5    0.18    0.44   1
   4   7  -4    4.24    0.54   1
  -4   7   4    5.06    0.60   1
   4   7  -4    5.90    0.69   1
   4   7  -4    4.01    0.59   1
   4   7  -4    5.24    1.03   1
  -4   7   4    5.29    0.58   1
  -4  -7   4    5.20    0.63   1
   4  -7  -4    4.99    0.73   1
  -4  -7   4    5.09    0.78   1
   4  -7  -4    4.58    0.76   1
  -4  -7   4    4.77    1.07   1
   4   7  -3   29.80    1.78   1
  -4   7   3   29.20    1.78   1
   4   7  -3   28.63    1.71   1
   4   7  -3   36.18    2.38   1
  -4   7   3   29.91    1.75   1
   4   7  -3   33.84    1.79   1
  -4  -7   3   27.64    2.34   1
   4  -7  -3   31.29    1.95   1
   4  -7  -3   31.14    1.98   1
  -4  -7   3   29.93    1.77   1
  -4  -7   3   30.97    1.96   1
   4   7  -2    0.12    0.21   1
   4   7  -2    0.16    0.23   1
   4   7  -2    0.01    0.53   1
  -4   7   2    0.43    0.31   1
  -4   7   2    0.01    0.26   1
   4   7  -2    0.15    0.23   1
   4  -7  -2   -0.10    0.39   1
  -4  -7   2    0.03    0.62   1
  -4  -7   2    0.41    0.39   1
   4  -7  -2    0.59    0.42   1
  -4  -7   2    0.05    0.26   1
   4   7  -1   86.49    5.36   1
   4   7  -1   97.22    4.92   1
  -4   7   1   98.35    5.02   1
   4   7  -1  101.41    4.92   1
  -4   7   1   99.69    5.06   1
   4   7  -1  101.72    4.97   1
   4   7  -1   97.94    5.01   1
   4  -7  -1   95.01    5.19   1
  -4  -7   1  100.08    5.04   1
  -4  -7   1   95.15    5.56   1
   4  -7  -1   93.06    5.20   1
  -4  -7   1  104.32    5.16   1
   4  -7  -1   98.61    5.28   1
   4   7   0    2.10    0.62   1
   4   7   0    5.07    0.51   1
   4   7   0    3.78    0.41   1
  -4   7   0    4.68    0.57   1
   4   7   0    3.89    0.37   1
   4   7   0    3.57    0.37   1
  -4   7   0    3.14    0.45   1
  -4  -7   0    3.95    0.86   1
   4  -7   0    3.18    0.60   1
  -4  -7   0    3.15    0.53   1
  -4  -7   0    5.56    0.58   1
   4  -7   0    3.12    0.61   1
   4  -7   0    3.83    0.70   1
   4   7   1   21.69    1.24   1
  -4   7  -1   20.81    1.57   1
   4   7   1   21.23    1.49   1
   4   7   1   19.72    1.19   1
  -4   7  -1   21.82    1.35   1
  -4   7  -1   21.86    1.42   1
  -4  -7  -1   22.24    1.36   1
   4  -7   1   20.88    1.53   1
   4  -7   1   21.50    1.48   1
   4  -7   1   19.84    1.50   1
  -4  -7  -1   23.06    1.67   1
  -4   7  -2    6.42    0.77   1
   4   7   2    6.21    0.60   1
   4   7   2    6.41    0.60   1
  -4   7  -2    7.84    0.80   1
  -4   7  -2    8.20    0.99   1
   4  -7   2    6.53    0.86   1
   4  -7   2    6.77    0.82   1
   4  -7   2    6.52    0.88   1
  -4  -7  -2    6.64    0.89   1
  -4  -7  -2    7.49    0.70   1
   4   7   3    2.16    0.44   1
   4   7   3    2.02    0.41   1
  -4   7  -3    1.94    0.54   1
  -4   7  -3    1.59    0.61   1
  -4   7  -3    2.03    0.59   1
   4  -7   3    2.24    0.62   1
   4  -7   3    2.27    0.62   1
  -4  -7  -3    2.72    0.55   1
   4  -7   3    1.39    0.57   1
  -4   7  -4   44.04    3.08   1
  -4   7  -4   53.34    3.09   1
  -4   7  -4   54.60    3.22   1
   4   7   4   51.86    2.90   1
   4  -7   4   55.43    3.17   1
   4  -7   4   54.95    3.08   1
   4  -7   4   53.40    3.15   1
  -4   7  -5    5.27    0.92   1
   4   7   5    5.98    0.78   1
  -4   7  -5    4.44    0.91   1
   4   7   5    4.80    0.76   1
  -4   7  -5    6.93    1.04   1
   4  -7   5    6.74    1.04   1
   4  -7   5    8.25    0.97   1
   4  -7   5    4.51    0.91   1
   4   7   6   20.29    1.60   1
  -4   7  -6   20.02    1.87   1
   4   7   6   21.98    1.62   1
  -4   7  -6   20.47    1.79   1
  -4   7  -6   22.07    1.85   1
  -4   7  -6   23.68    1.85   1
   4  -7   6   21.87    1.66   1
   4  -7   6   22.50    1.83   1
   4  -7   6   19.79    1.80   1
  -4   7  -7    0.66    0.71   1
  -4   7  -7    0.15    0.66   1
  -4   7  -7    0.03    0.60   1
  -4   7  -7    0.91    0.74   1
   4   7   7    0.49    0.64   1
   4   7   7    0.06    0.49   1
   4  -7   7    0.21    0.74   1
   4  -7   7    0.30    0.64   1
   4  -7   7    0.35    0.75   1
  -4   7  -8    4.72    1.17   1
  -4   7  -8    4.42    0.96   1
   4   7   8    4.78    0.88   1
  -4   7  -8    5.68    1.18   1
   4   7   8    2.97    0.85   1
  -4   7  -8    4.42    1.04   1
   4  -7   8    3.06    1.06   1
   4  -7   8    2.63    0.90   1
   4   7   9    7.12    1.09   1
  -4   7  -9   12.19    1.59   1
   4   7   9   10.31    1.38   1
  -4   7  -9    9.92    1.56   1
   4  -7   9    6.38    1.39   1
  -4   7 -10    1.49    1.07   1
   4   7  10    1.71    1.04   1
   4   7  10    3.35    0.83   1
   4  -7  10    4.06    1.44   1
   4   8 -11    1.01    0.76   1
  -4   8  11    1.46    0.85   1
  -4   8  11   -0.19    0.62   1
   4   8 -11    2.22    0.89   1
  -4  -8  11    0.67    1.08   1
  -4   8  10    4.69    1.01   1
   4   8 -10    4.81    1.23   1
   4   8 -10    2.28    0.85   1
   4   8 -10    6.32    1.13   1
  -4   8  10    4.07    0.93   1
  -4  -8  10    6.77    1.37   1
  -4  -8  10    3.92    1.07   1
  -4  -8  10    4.06    1.16   1
   4   8  -9    7.06    1.30   1
   4   8  -9    8.37    1.21   1
  -4   8   9    9.04    1.13   1
  -4   8   9    8.56    1.22   1
   4   8  -9    9.36    1.52   1
   4   8  -9    7.72    1.23   1
  -4  -8   9    7.55    1.08   1
  -4  -8   9    7.07    1.37   1
  -4  -8   9    8.46    1.45   1
   4   8  -8   -0.04    0.67   1
   4   8  -8    0.93    0.66   1
   4   8  -8   -0.19    0.58   1
   4   8  -8    0.12    0.56   1
  -4   8   8   -0.30    0.42   1
  -4   8   8    0.31    0.62   1
  -4  -8   8    0.10    0.72   1
   4  -8  -8    0.73    0.63   1
  -4  -8   8    0.85    0.60   1
  -4  -8   8    0.32    0.77   1
   4   8  -7   27.95    2.12   1
   4   8  -7   31.54    2.09   1
   4   8  -7   31.13    2.47   1
  -4   8   7   29.19    1.93   1
   4   8  -7   30.54    2.17   1
  -4   8   7   31.66    2.11   1
  -4  -8   7   32.67    2.04   1
  -4  -8   7   29.78    2.33   1
   4  -8  -7   29.68    2.13   1
  -4  -8   7   29.33    2.46   1
  -4   8   6   -0.27    0.37   1
  -4   8   6   -0.17    0.36   1
   4   8  -6   -0.44    0.38   1
   4   8  -6   -0.68    0.59   1
   4   8  -6    0.32    0.51   1
  -4  -8   6    0.55    0.72   1
  -4  -8   6   -0.35    0.40   1
  -4  -8   6    0.28    0.63   1
   4  -8  -6   -0.28    0.46   1
   4   8  -5   23.22    1.59   1
   4   8  -5   21.04    1.47   1
  -4   8   5   21.76    1.46   1
   4   8  -5   20.65    1.97   1
  -4   8   5   23.93    1.52   1
  -4  -8   5   24.18    2.10   1
  -4  -8   5   24.04    1.54   1
  -4  -8   5   20.80    1.74   1
   4  -8  -5   22.50    1.67   1
  -4   8   4    7.44    0.73   1
  -4   8   4    5.07    0.63   1
   4   8  -4    6.26    0.68   1
   4   8  -4    7.60    0.84   1
   4   8  -4    7.12    1.20   1
   4  -8  -4    5.91    0.86   1
  -4  -8   4    6.42    1.24   1
  -4  -8   4    7.37    0.77   1
   4  -8  -4    7.56    1.00   1
  -4  -8   4    6.08    0.91   1
   4   8  -3    1.21    0.36   1
   4   8  -3    2.42    0.86   1
  -4   8   3    1.25    0.36   1
   4   8  -3    0.67    0.56   1
   4   8  -3    1.19    0.32   1
  -4   8   3    0.84    0.34   1
  -4  -8   3    1.08    0.43   1
  -4  -8   3    1.20    0.54   1
  -4  -8   3    0.69    0.73   1
   4  -8  -3    1.65    0.57   1
   4  -8  -3    1.46    0.55   1
   4   8  -2   67.61    3.50   1
   4   8  -2   64.45    3.51   1
  -4   8   2   65.74    3.56   1
   4   8  -2   72.03    4.12   1
  -4   8   2   68.14    3.59   1
   4  -8  -2   65.83    3.80   1
   4  -8  -2   69.24    3.81   1
  -4  -8   2   64.56    4.21   1
  -4  -8   2   71.18    3.65   1
  -4  -8   2   70.78    3.79   1
  -4   8   1    0.76    0.35   1
   4   8  -1    1.71    0.29   1
   4   8  -1    1.62    0.70   1
   4   8  -1    1.43    0.27   1
  -4   8   1    2.07    0.40   1
  -4  -8   1    1.70    0.78   1
   4  -8  -1    2.16    0.58   1
  -4  -8   1    1.86    0.43   1
   4  -8  -1    1.50    0.53   1
   4  -8  -1    2.18    0.66   1
  -4  -8   1    2.34    0.54   1
  -4   8   0   61.54    3.50   1
   4   8   0   64.47    3.10   1
  -4   8   0   57.18    3.21   1
  -4   8   0   60.11    3.27   1
  -4  -8   0   63.26    3.35   1
   4  -8   0   60.07    3.44   1
  -4  -8   0   57.06    3.69   1
  -4  -8   0   61.37    3.28   1
   4  -8   0   57.66    3.44   1
   4  -8   0   58.18    3.51   1
  -4   8  -1    0.14    0.36   1
  -4   8  -1    0.51    0.42   1
   4   8   1   -0.18    0.19   1
  -4   8  -1    0.08    0.28   1
   4  -8   1   -0.43    0.40   1
   4  -8   1    0.43    0.50   1
  -4  -8  -1    0.62    0.52   1
  -4  -8  -1   -0.31    0.31   1
   4  -8   1    0.64    0.52   1
  -4   8  -2   10.35    0.96   1
  -4   8  -2    7.82    1.03   1
   4   8   2    8.89    0.69   1
  -4   8  -2    7.89    0.88   1
   4  -8   2    6.87    1.01   1
  -4  -8  -2   10.97    1.16   1
   4  -8   2   10.09    1.12   1
   4  -8   2    9.84    1.06   1
   4   8   3   23.71    1.45   1
  -4   8  -3   25.31    1.68   1
   4   8   3   23.04    1.50   1
  -4   8  -3   24.60    1.85   1
  -4   8  -3   25.37    1.73   1
   4  -8   3   24.37    1.81   1
   4  -8   3   24.37    1.82   1
  -4  -8  -3   23.68    1.81   1
   4  -8   3   25.26    1.72   1
  -4   8  -4    3.39    0.78   1
  -4   8  -4    3.77    0.75   1
  -4   8  -4    4.51    0.91   1
   4   8   4    4.41    0.58   1
   4   8   4    3.63    0.63   1
   4  -8   4    4.27    0.85   1
   4  -8   4    5.09    0.92   1
   4  -8   4    4.18    0.80   1
  -4   8  -5   27.92    2.00   1
  -4   8  -5   25.35    2.04   1
  -4   8  -5   29.55    2.20   1
  -4   8  -5   26.08    2.07   1
   4   8   5   27.79    1.76   1
   4   8   5   21.37    1.77   1
   4  -8   5   34.31    2.27   1
   4  -8   5   30.61    2.00   1
   4  -8   5   26.31    2.04   1
   4   8   6    0.17    0.51   1
  -4   8  -6    0.55    0.65   1
  -4   8  -6    0.47    0.63   1
  -4   8  -6    0.67    0.71   1
   4   8   6    1.12    0.55   1
  -4   8  -6    0.14    0.66   1
   4  -8   6    0.57    0.70   1
   4  -8   6    1.36    0.65   1
   4  -8   6    1.55    0.78   1
   4   8   7    8.18    1.05   1
  -4   8  -7    8.63    1.33   1
   4   8   7   10.20    1.15   1
  -4   8  -7    5.96    1.19   1
  -4   8  -7    8.19    1.32   1
  -4   8  -7    6.50    1.15   1
   4  -8   7    8.30    1.31   1
   4  -8   7    7.46    1.29   1
  -4   8  -8    3.27    0.99   1
  -4   8  -8    2.91    1.02   1
   4   8   8    3.07    0.76   1
  -4   8  -8    2.76    0.86   1
  -4   8  -8    3.28    1.01   1
   4   8   8    2.10    0.79   1
   4  -8   8    4.21    1.15   1
   4  -8   8    1.68    0.89   1
  -4   8  -9    3.69    1.18   1
   4   8   9    3.28    0.82   1
   4   8   9    3.34    0.95   1
   4  -8   9    2.42    1.23   1
   4   9 -10   18.29    1.80   1
  -4   9  10   17.61    1.71   1
  -4   9  10   12.07    1.50   1
  -4  -9  10   15.02    1.94   1
  -4  -9  10   16.80    2.06   1
   4   9  -9   18.07    1.87   1
   4   9  -9   21.19    1.72   1
  -4   9   9   18.43    1.61   1
   4   9  -9   16.93    2.11   1
  -4  -9   9   19.20    2.19   1
  -4  -9   9   12.77    1.82   1
   4   9  -8    2.35    0.96   1
  -4   9   8    0.20    0.47   1
   4   9  -8    0.59    0.65   1
  -4   9   8    1.25    0.62   1
   4   9  -8    1.86    0.71   1
  -4  -9   8    2.07    0.97   1
   4  -9  -8   -0.35    0.65   1
  -4  -9   8    1.67    0.98   1
   4   9  -7    0.12    0.51   1
   4   9  -7    0.27    0.52   1
  -4   9   7   -0.10    0.40   1
  -4   9   7   -0.47    0.49   1
   4   9  -7    0.02    0.75   1
   4  -9  -7   -0.29    0.53   1
  -4  -9   7   -0.12    0.54   1
  -4  -9   7    0.93    0.76   1
  -4  -9   7    0.34    0.80   1
   4   9  -6    1.89    0.58   1
   4   9  -6    3.35    0.73   1
  -4   9   6    2.58    0.59   1
   4   9  -6    3.44    1.03   1
  -4   9   6    1.92    0.51   1
   4  -9  -6    2.05    0.75   1
  -4  -9   6    3.11    0.64   1
  -4  -9   6    3.58    0.94   1
  -4  -9   6    3.12    1.08   1
   4   9  -5   37.19    2.19   1
  -4   9   5   38.67    2.15   1
   4   9  -5   32.74    2.72   1
   4   9  -5   34.67    2.28   1
  -4   9   5   38.45    2.19   1
   4  -9  -5   33.66    2.37   1
  -4  -9   5   38.21    2.89   1
  -4  -9   5   34.81    2.22   1
  -4  -9   5   35.27    2.49   1
  -4   9   4   55.31    2.99   1
  -4   9   4   51.03    2.95   1
   4   9  -4   56.71    3.66   1
   4   9  -4   53.02    2.97   1
   4   9  -4   52.31    3.09   1
  -4  -9   4   59.18    3.82   1
  -4  -9   4   55.29    3.30   1
   4  -9  -4   53.50    3.28   1
   4  -9  -4   53.67    3.26   1
  -4  -9   4   55.71    3.09   1
   4   9  -3    9.07    1.35   1
  -4   9   3    8.44    0.74   1
   4   9  -3    4.65    0.78   1
  -4   9   3    7.80    0.72   1
   4   9  -3    7.08    0.67   1
  -4  -9   3    8.52    0.88   1
  -4  -9   3    8.12    1.02   1
  -4  -9   3    7.15    1.37   1
   4  -9  -3    6.41    0.96   1
   4  -9  -3    8.55    1.09   1
   4   9  -2   18.08    2.02   1
  -4   9   2   19.43    1.30   1
  -4   9   2   21.31    1.32   1
   4   9  -2   20.33    1.23   1
  -4  -9   2   18.53    2.11   1
   4  -9  -2   21.07    1.66   1
  -4  -9   2   21.61    1.42   1
  -4  -9   2   22.58    1.60   1
   4  -9  -2   21.20    1.60   1
   4   9  -1    0.15    0.21   1
   4   9  -1   -0.44    0.54   1
  -4   9   1    0.10    0.32   1
  -4   9   1    0.46    0.33   1
  -4  -9   1    0.54    0.44   1
  -4  -9   1    0.61    0.70   1
   4  -9  -1    0.79    0.54   1
  -4  -9   1   -0.40    0.31   1
   4  -9  -1    0.88    0.53   1
   4  -9  -1    0.81    0.60   1
   4   9   0   12.75    1.59   1
   4   9   0   19.55    1.07   1
  -4   9   0   18.33    1.23   1
  -4   9   0   20.68    1.28   1
  -4   9   0   18.16    1.54   1
   4  -9   0   19.18    1.47   1
  -4  -9   0   15.94    1.77   1
   4  -9   0   16.51    1.49   1
  -4  -9   0   19.24    1.40   1
   4  -9   0   17.52    1.56   1
  -4  -9   0   17.98    1.33   1
   4   9   1   38.94    1.95   1
  -4   9  -1   37.17    2.16   1
  -4   9  -1   34.49    2.11   1
  -4   9  -1   34.26    2.40   1
   4  -9   1   36.35    2.40   1
   4  -9   1   33.70    2.40   1
  -4  -9  -1   38.64    2.22   1
  -4  -9  -1   35.31    2.47   1
   4  -9   1   33.15    2.28   1
  -4   9  -2   18.66    1.62   1
  -4   9  -2   19.81    1.39   1
  -4   9  -2   19.31    1.37   1
   4   9   2   19.00    1.16   1
   4  -9   2   19.97    1.57   1
   4  -9   2   20.56    1.64   1
   4  -9   2   15.82    1.63   1
  -4  -9  -2   19.69    1.60   1
   4   9   3   50.58    2.69   1
  -4   9  -3   51.80    2.89   1
  -4   9  -3   48.68    2.91   1
  -4   9  -3   49.64    3.13   1
   4  -9   3   50.92    2.99   1
   4  -9   3   43.02    3.02   1
   4  -9   3   45.94    3.07   1
  -4   9  -4   -0.24    0.53   1
  -4   9  -4    0.71    0.60   1
  -4   9  -4    0.08    0.45   1
   4   9   4    0.41    0.40   1
   4  -9   4    0.40    0.62   1
   4  -9   4   -0.20    0.58   1
   4  -9   4   -0.50    0.59   1
  -4   9  -5    0.55    0.62   1
  -4   9  -5    0.37    0.56   1
  -4   9  -5   -0.25    0.62   1
   4   9   5    0.42    0.46   1
  -4   9  -5    0.93    0.71   1
   4  -9   5    1.95    0.88   1
   4  -9   5   -0.61    0.51   1
   4  -9   5   -0.22    0.73   1
  -4   9  -6    4.98    1.10   1
  -4   9  -6    7.03    1.17   1
   4   9   6    5.63    0.88   1
  -4   9  -6    6.26    1.16   1
  -4   9  -6    6.36    1.10   1
   4  -9   6    5.83    1.24   1
   4  -9   6    6.06    1.00   1
   4  -9   6    7.11    1.20   1
  -4   9  -7    8.50    1.42   1
  -4   9  -7   12.08    1.47   1
   4   9   7   11.30    1.22   1
  -4   9  -7    9.57    1.45   1
  -4   9  -7    8.36    1.37   1
   4  -9   7    8.78    1.47   1
   4  -9   7    9.42    1.52   1
  -4   9  -8   23.78    2.44   1
   4   9   8   27.30    2.03   1
   4  -9   8   26.25    2.50   1
   4  -9   8   29.77    2.64   1
  -4  10   9    2.55    0.79   1
   4  10  -9    3.30    0.91   1
   4  10  -9    2.33    0.88   1
  -4 -10   9    2.96    1.30   1
  -4 -10   9    2.10    1.16   1
  -4  10   8    2.69    0.72   1
   4  10  -8    3.97    0.96   1
   4  10  -8    3.83    0.85   1
   4  10  -8    5.20    1.24   1
  -4 -10   8    4.32    1.29   1
   4 -10  -8    5.35    1.10   1
  -4 -10   8    3.20    1.05   1
   4  10  -7   49.17    2.95   1
  -4  10   7   45.14    2.75   1
   4  10  -7   43.89    2.94   1
   4  10  -7   47.69    3.43   1
   4 -10  -7   46.15    3.12   1
  -4 -10   7   48.14    3.28   1
  -4 -10   7   47.17    3.47   1
   4  10  -6    5.74    0.87   1
  -4  10   6    5.00    0.71   1
   4  10  -6    6.02    1.30   1
   4  10  -6    6.18    0.88   1
  -4 -10   6    4.57    1.23   1
  -4 -10   6    5.99    1.18   1
   4 -10  -6    5.05    1.06   1
  -4  10   5    6.90    0.79   1
   4  10  -5    8.97    1.51   1
  -4 -10   5    9.26    1.26   1
  -4 -10   5   12.22    1.80   1
   4 -10  -5    5.69    1.03   1
   4  10  -4    2.01    0.47   1
   4  10  -4    1.76    0.92   1
  -4  10   4    1.45    0.44   1
  -4 -10   4    1.66    1.02   1
   4 -10  -4    1.68    0.77   1
   4 -10  -4    2.54    0.78   1
  -4 -10   4    2.21    0.79   1
   4  10  -3   12.10    1.66   1
   4  10  -3   10.54    0.84   1
  -4  10   3    9.54    0.85   1
  -4 -10   3    8.83    1.62   1
   4 -10  -3   10.41    1.26   1
  -4 -10   3   10.07    1.21   1
   4 -10  -3   10.48    1.28   1
   4  10  -2   60.67    3.75   1
  -4  10   2   53.86    2.99   1
   4  10  -2   56.90    2.92   1
  -4 -10   2   57.90    3.33   1
   4 -10  -2   53.94    3.36   1
   4 -10  -2   48.45    3.26   1
  -4 -10   2   53.97    3.80   1
   4  10  -1    2.75    0.38   1
  -4  10   1    4.54    0.59   1
   4  10  -1    3.82    0.95   1
  -4  10   1    4.04    0.90   1
   4 -10  -1    3.14    0.78   1
  -4 -10   1    5.61    1.20   1
  -4 -10   1    4.50    0.79   1
   4 -10  -1    3.11    0.78   1
   4 -10  -1    3.93    0.92   1
   4  10   0   32.08    1.72   1
  -4  10   0   31.47    1.90   1
  -4  10   0   32.26    1.92   1
  -4  10   0   30.68    2.26   1
   4 -10   0   32.87    2.27   1
  -4 -10   0   32.07    2.49   1
  -4 -10   0   32.19    2.11   1
   4 -10   0   29.08    2.17   1
   4 -10   0   31.52    2.30   1
  -4  10  -1   15.73    1.65   1
  -4  10  -1   18.52    1.30   1
   4  10   1   17.52    1.05   1
  -4  10  -1   17.78    1.27   1
   4 -10   1   18.39    1.80   1
   4 -10   1   18.68    1.75   1
   4 -10   1   19.42    1.53   1
  -4 -10  -1   15.38    1.72   1
  -4  10  -2    4.69    0.96   1
  -4  10  -2    6.48    0.80   1
   4  10   2    6.01    0.55   1
  -4  10  -2    5.55    0.75   1
   4 -10   2    5.43    1.03   1
   4 -10   2    4.99    0.89   1
  -4 -10  -2    6.27    1.00   1
   4 -10   2    6.07    1.08   1
  -4  10  -3   20.20    1.56   1
   4  10   3   19.28    1.26   1
  -4  10  -3   18.12    1.46   1
  -4  10  -3   20.14    1.76   1
   4 -10   3   20.98    1.63   1
   4 -10   3   19.72    1.90   1
   4 -10   3   20.26    1.87   1
   4  10   4   -0.38    0.34   1
  -4  10  -4    0.81    0.69   1
  -4  10  -4    0.27    0.48   1
  -4  10  -4    0.33    0.59   1
   4 -10   4    0.29    0.56   1
   4 -10   4   -0.10    0.66   1
   4 -10   4   -0.01    0.69   1
   4  10   5   32.60    2.26   1
  -4  10  -5   37.27    2.82   1
  -4  10  -5   39.23    2.73   1
  -4  10  -5   36.83    2.46   1
  -4  10  -5   31.75    2.54   1
   4 -10   5   38.95    2.79   1
   4 -10   5   42.52    2.87   1
   4 -10   5   40.23    2.54   1
   4  10   6   13.26    1.35   1
  -4  10  -6   15.35    1.83   1
  -4  10  -6   12.28    1.56   1
  -4  10  -6   17.79    1.71   1
  -4  10  -6   12.40    1.65   1
   4 -10   6   15.99    1.88   1
   4 -10   6   17.90    1.82   1
  -4  10  -7    0.86    0.83   1
   4  10   7   -0.45    0.54   1
  -4  10  -7    0.04    0.72   1
   4 -10   7    1.66    1.16   1
   4 -10   7    0.12    1.01   1
  -4  11   8    0.10    0.61   1
   4  11  -8    0.52    0.70   1
   4 -11  -8   -0.01    0.92   1
  -4 -11   8   -1.26    1.19   1
  -4 -11   8    0.56    1.11   1
   4  11  -7   -0.54    0.75   1
  -4  11   7   -0.62    0.40   1
   4  11  -7   -0.35    0.57   1
   4 -11  -7    0.91    0.85   1
  -4 -11   7   -0.23    0.90   1
  -4 -11   7    0.35    0.89   1
  -4  11   6    1.18    0.48   1
   4  11  -6    1.26    0.59   1
   4  11  -6    0.49    0.95   1
  -4 -11   6    1.66    1.17   1
  -4 -11   6    1.00    0.81   1
   4 -11  -6    1.00    0.79   1
   4  11  -5   18.51    1.37   1
  -4  11   5   16.61    1.25   1
   4  11  -5   14.46    1.94   1
  -4 -11   5   15.41    1.74   1
  -4 -11   5   16.68    2.19   1
   4 -11  -5   18.10    1.82   1
  -4  11   4   15.03    1.18   1
   4  11  -4   17.19    2.06   1
  -4 -11   4   21.30    2.45   1
   4 -11  -4   15.15    1.61   1
  -4 -11   4   16.81    1.71   1
   4 -11  -4   16.00    1.74   1
   4  11  -3    1.36    1.01   1
   4  11  -3    0.31    0.33   1
  -4  11   3    0.01    0.34   1
  -4 -11   3    0.03    0.85   1
  -4 -11   3    0.73    0.69   1
   4 -11  -3   -0.23    0.68   1
   4 -11  -3    1.60    0.73   1
   4  11  -2    7.26    1.38   1
   4  11  -2    7.02    0.66   1
  -4  11   2    7.56    0.77   1
  -4 -11   2    7.85    1.49   1
  -4 -11   2    7.62    1.09   1
   4 -11  -2    8.90    1.17   1
   4 -11  -2    5.68    1.10   1
  -4  11   1    3.97    0.96   1
  -4  11   1    6.13    0.71   1
   4  11  -1    4.89    0.50   1
  -4 -11   1    6.10    1.34   1
   4 -11  -1    4.54    0.92   1
   4 -11  -1    6.64    1.06   1
  -4 -11   1    5.98    0.97   1
  -4  11   0   12.68    1.09   1
  -4  11   0   14.36    1.57   1
   4  11   0   14.61    0.88   1
  -4 -11   0   15.16    1.79   1
   4 -11   0   12.88    1.41   1
   4 -11   0   12.36    1.54   1
  -4 -11   0   12.53    1.35   1
   4 -11   0   16.15    1.64   1
   4  11   1    7.42    0.59   1
  -4  11  -1    7.92    1.19   1
  -4  11  -1    7.05    0.83   1
   4 -11   1    8.53    1.26   1
   4 -11   1    6.14    1.04   1
  -4 -11  -1    7.67    1.28   1
   4 -11   1    8.75    1.28   1
  -4  11  -2    4.96    0.73   1
   4  11   2    4.27    0.48   1
  -4  11  -2    4.97    1.02   1
   4 -11   2    3.74    0.97   1
   4 -11   2    5.27    1.11   1
   4 -11   2    5.50    0.94   1
  -4  11  -3   21.57    1.79   1
   4  11   3   16.32    1.13   1
  -4  11  -3   14.91    1.45   1
   4 -11   3   20.01    1.60   1
   4 -11   3   15.66    1.80   1
   4 -11   3   19.74    1.88   1
  -4  11  -4    4.49    0.88   1
   4  11   4    4.37    0.61   1
  -4  11  -4    4.59    0.80   1
  -4  11  -4    5.73    1.21   1
  -4  11  -4    3.01    0.91   1
   4 -11   4    5.59    1.18   1
   4 -11   4    6.28    0.99   1
   4 -11   4    7.16    1.20   1
  -4  11  -5    1.32    0.99   1
  -4  11  -5    0.50    0.60   1
  -4  11  -5    0.17    0.63   1
   4  11   5    0.78    0.48   1
  -4  11  -5    1.66    0.80   1
   4 -11   5    0.93    0.92   1
   4 -11   5    1.36    0.93   1
   4  11   6   -0.43    0.59   1
  -4  11  -6   -0.77    0.71   1
  -4  11  -6   -0.50    0.70   1
   4 -11   6    0.08    1.10   1
   4 -11   6    0.55    0.95   1
   4  12  -6    0.01    0.63   1
  -4  12   6    0.65    0.54   1
  -4 -12   6   -1.04    1.03   1
  -4 -12   6    0.18    0.78   1
   4 -12  -6   -1.55    0.84   1
  -4  12   5    0.05    0.40   1
   4  12  -5   -0.87    0.78   1
   4  12  -5    0.44    0.53   1
  -4 -12   5   -0.16    0.94   1
  -4 -12   5    0.68    0.72   1
   4 -12  -5    0.18    0.81   1
   4  12  -4    1.72    1.02   1
  -4  12   4   -0.10    0.36   1
   4  12  -4    0.84    0.46   1
  -4 -12   4   -0.62    0.93   1
  -4 -12   4    0.05    0.66   1
   4 -12  -4    0.29    0.80   1
   4  12  -3    6.81    1.45   1
  -4  12   3    2.48    0.50   1
   4 -12  -3    2.24    0.98   1
  -4 -12   3    1.29    0.80   1
   4 -12  -3    2.21    0.82   1
  -4 -12   3    3.94    1.30   1
  -4  12   2    1.84    0.84   1
   4  12  -2    2.01    0.39   1
  -4  12   2    1.98    0.48   1
   4 -12  -2    1.63    0.95   1
  -4 -12   2    1.41    0.77   1
   4 -12  -2    2.78    0.85   1
  -4 -12   2    2.52    1.23   1
  -4  12   1    0.21    0.38   1
  -4  12   1    0.31    0.61   1
   4  12  -1   -0.18    0.21   1
   4 -12  -1    1.99    0.94   1
   4 -12  -1    0.95    0.70   1
  -4 -12   1    1.08    0.64   1
  -4 -12   1    1.02    0.95   1
   4  12   0    0.71    0.23   1
  -4  12   0    1.61    0.47   1
  -4  12   0    1.84    0.77   1
  -4 -12   0    0.58    0.82   1
   4 -12   0    0.80    0.82   1
   4 -12   0    0.16    0.64   1
   4  12   1    2.39    0.31   1
  -4  12  -1    2.73    0.84   1
  -4  12  -1    2.01    0.55   1
  -4 -12  -1    1.79    0.91   1
   4 -12   1    2.11    0.95   1
   4 -12   1    1.88    0.92   1
   4 -12   1    2.04    0.80   1
  -4  12  -2    1.13    0.72   1
  -4  12  -2    0.37    0.45   1
   4  12   2    1.18    0.28   1
   4 -12   2    2.16    0.91   1
   4 -12   2    1.53    0.88   1
   4 -12   2    0.57    0.69   1
  -4  12  -3    0.75    0.80   1
   4  12   3   -0.58    0.24   1
  -4  12  -3    0.55    0.52   1
   4 -12   3   -0.70    0.51   1
   4 -12   3    0.16    0.89   1
   4 -12   3    0.12    0.89   1
   4  12   4   -0.57    0.37   1
  -4  12  -4   -0.26    0.61   1
   4 -12   4    0.15    1.02   1
   4 -12   4    1.39    0.99   1
  -4  13   3    0.44    0.51   1
   4  13  -3    0.44    0.56   1
  -4 -13   3   -0.64    0.70   1
   4 -13  -3    0.74    0.88   1
  -4 -13   3   -1.41    0.88   1
   4 -13  -3   -0.02    0.80   1
   4  13  -2    1.23    0.44   1
  -4  13   2    0.49    0.50   1
   4 -13  -2    0.37    0.91   1
  -4 -13   2   -0.28    0.66   1
   4 -13  -2    0.68    0.81   1
  -4 -13   2    1.17    1.13   1
  -4  13   1    0.02    0.47   1
   4 -13  -1   -0.85    0.79   1
  -4 -13   1    0.00    0.78   1
   4 -13  -1    0.59    0.71   1
  -4  13   0    0.70    0.53   1
   4 -13   0    1.30    0.94   1
   4 -13   0   -0.42    0.62   1
  -4 -13   0   -0.81    0.74   1
  -4  13  -1    1.42    0.63   1
   4 -13   1    1.69    0.76   1
   4 -13   1    1.01    0.92   1
  -5   0  13   -0.42    0.73   1
   5   0 -13    0.26    0.63   1
  -5   0  13   -0.63    0.66   1
   5   0 -13   -0.33    0.65   1
  -5   0  12    0.81    0.78   1
  -5   0  12    0.03    0.72   1
   5   0 -12   -0.54    0.63   1
   5   0 -12    0.68    0.70   1
   5   0 -11   -0.16    0.62   1
   5   0 -11   -0.78    0.60   1
  -5   0  11   -0.87    0.60   1
  -5   0  11   -0.27    0.65   1
  -5   0  10   -0.37    0.59   1
  -5   0  10    0.52    0.63   1
   5   0 -10    0.27    0.59   1
   5   0 -10    0.33    0.62   1
   5   0 -10    0.18    0.71   1
   5   0  -9   -0.50    0.46   1
  -5   0   9    0.54    0.61   1
   5   0  -9    0.03    0.53   1
   5   0  -9    0.68    0.64   1
  -5   0   9    0.34    0.61   1
  -5   0   8    0.34    0.43   1
  -5   0   8    0.48    0.55   1
   5   0  -8    0.21    0.43   1
   5   0  -8   -0.12    0.54   1
  -5   0   8    0.10    0.33   1
   5   0  -8    0.02    0.47   1
  -5   0   8    0.47    0.52   1
   5   0  -7   -0.07    0.50   1
   5   0  -7    0.09    0.41   1
   5   0  -7    0.04    0.26   1
  -5   0   7   -0.71    0.37   1
   5   0  -7   -0.20    0.37   1
  -5   0   7   -0.13    0.36   1
  -5   0   7    0.01    0.33   1
  -5   0   6   -0.07    0.41   1
   5   0  -6   -0.16    0.32   1
   5   0  -6    0.11    0.24   1
  -5   0   6   -0.09    0.33   1
   5   0  -6   -0.29    0.44   1
  -5   0   6   -0.39    0.22   1
   5   0  -6    0.03    0.17   1
   5   0  -5    0.02    0.13   1
  -5   0   5   -0.17    0.36   1
   5   0  -5   -0.15    0.27   1
  -5   0   5   -0.08    0.23   1
  -5   0   5    0.06    0.31   1
   5   0  -5    0.14    0.41   1
   5   0  -5    0.14    0.23   1
  -5   0   4   -0.20    0.26   1
  -5   0   4    0.26    0.38   1
  -5   0   4    0.12    0.26   1
   5   0  -4    0.15    0.36   1
   5   0  -4    0.24    0.22   1
   5   0  -4    0.09    0.14   1
   5   0  -4   -0.07    0.20   1
  -5   0   3    0.05    0.20   1
   5   0  -3   -0.08    0.19   1
   5   0  -3    0.25    0.21   1
   5   0  -3    0.28    0.32   1
   5   0  -3   -0.20    0.15   1
  -5   0   3    0.38    0.27   1
  -5   0   3    0.23    0.37   1
   5   0  -2    0.01    0.22   1
  -5   0   2    0.21    0.22   1
  -5   0   2   -0.37    0.23   1
   5   0  -2   -0.73    0.22   1
   5   0  -2   -0.09    0.17   1
   5   0  -2   -0.06    0.26   1
   5   0  -1   -0.09    0.25   1
   5   0  -1   -0.17    0.17   1
  -5   0   1   -0.01    0.24   1
   5   0  -1    0.28    0.12   1
   5   0  -1    0.27    0.22   1
   5   0  -1   -0.19    0.18   1
  -5   0   1    0.04    0.20   1
   5   0   0   -0.11    0.21   1
   5   0   0    0.00    0.26   1
   5   0   0    0.09    0.19   1
  -5   0   0    0.24    0.23   1
   5   0   0   -0.08    0.13   1
  -5   0   0    0.24    0.26   1
  -5   0   0    0.38    0.17   1
   5   0   1   -0.17    0.15   1
  -5   0  -1   -0.03    0.26   1
   5   0   1    0.07    0.28   1
   5   0   1   -0.16    0.22   1
  -5   0  -1    0.19    0.21   1
  -5   0  -1   -0.05    0.19   1
  -5   0  -2   -0.20    0.22   1
  -5   0  -2    0.09    0.28   1
   5   0   2   -0.07    0.21   1
  -5   0  -2   -0.49    0.15   1
   5   0   2    0.01    0.29   1
   5   0   2   -0.37    0.22   1
  -5   0  -3    0.04    0.33   1
   5   0   3   -0.01    0.26   1
  -5   0  -3   -0.46    0.19   1
   5   0   3   -0.08    0.32   1
   5   0   3   -0.04    0.27   1
  -5   0  -3   -0.37    0.27   1
  -5   0  -4   -0.22    0.34   1
   5   0   4   -0.10    0.36   1
  -5   0  -4    0.01    0.14   1
   5   0   4   -0.73    0.30   1
   5   0   4   -0.10    0.39   1
  -5   0  -4   -0.12    0.34   1
  -5   0  -4   -0.02    0.36   1
  -5   0  -5   -0.28    0.35   1
   5   0   5   -0.23    0.48   1
  -5   0  -5   -0.09    0.41   1
   5   0   5    0.21    0.39   1
   5   0   5   -0.26    0.42   1
   5   0   6   -0.23    0.45   1
  -5   0  -6   -0.19    0.47   1
  -5   0  -6   -0.02    0.56   1
   5   0   6   -0.36    0.51   1
   5   0   6   -1.07    0.49   1
  -5   0  -7    0.05    0.57   1
  -5   0  -7    0.13    0.48   1
   5   0   7    0.17    0.65   1
   5   0   7    0.43    0.67   1
   5   0   8   -0.45    0.57   1
  -5   0  -8   -0.18    0.64   1
   5   0   8   -0.92    0.59   1
  -5   0  -8   -0.96    0.41   1
   5   0   9   -0.12    0.70   1
   5   0   9   -0.41    0.67   1
  -5   0  -9    0.35    0.56   1
  -5   0  -9   -0.45    0.53   1
  -5   0 -10   -0.27    0.57   1
   5   0  10   -0.08    0.66   1
   5   0  10    0.32    0.72   1
  -5   0 -10   -0.04    0.61   1
  -5   0 -11    0.01    0.60   1
   5   0  11   -1.01    0.73   1
   5   0  11    0.04    0.71   1
  -5   1  13   -0.27    0.70   1
  -5   1  13    0.52    0.74   1
   5   1 -13    0.90    0.74   1
   5   1 -13    0.83    0.74   1
  -5  -1  13   -0.71    0.68   1
  -5  -1  13    0.41    0.78   1
  -5  -1  13    0.15    0.76   1
  -5   1  12    1.96    0.84   1
   5   1 -12    2.04    0.75   1
  -5   1  12    1.81    0.86   1
   5   1 -12    0.92    0.69   1
   5   1 -12    1.91    0.83   1
  -5  -1  12    0.83    0.74   1
   5  -1 -12    0.31    0.70   1
  -5  -1  12   -1.08    0.66   1
  -5  -1  12    2.56    0.88   1
   5  -1 -12    2.76    0.82   1
   5   1 -11    0.64    0.66   1
  -5   1  11    0.24    0.70   1
   5   1 -11    0.68    0.68   1
   5   1 -11   -0.15    0.52   1
  -5   1  11   -0.18    0.68   1
  -5  -1  11   -0.55    0.62   1
  -5  -1  11   -0.03    0.67   1
   5  -1 -11    0.01    0.66   1
   5  -1 -11   -0.25    0.58   1
  -5   1  10    2.61    0.83   1
   5   1 -10    3.13    0.79   1
   5   1 -10    2.16    0.83   1
   5   1 -10    2.26    0.88   1
  -5   1  10    2.38    0.87   1
  -5  -1  10    3.71    0.87   1
   5  -1 -10    4.08    0.90   1
  -5  -1  10    1.93    0.80   1
   5  -1 -10    1.63    0.74   1
  -5   1   9   28.95    2.14   1
  -5   1   9   26.26    1.93   1
   5   1  -9   31.86    2.26   1
   5   1  -9   27.92    2.02   1
   5   1  -9   31.19    2.18   1
  -5  -1   9   23.64    1.92   1
   5  -1  -9   30.83    2.15   1
  -5  -1   9   26.71    1.99   1
   5  -1  -9   28.26    2.15   1
  -5  -1   9   21.95    2.03   1
   5   1  -8    4.67    0.82   1
  -5   1   8    2.75    0.69   1
   5   1  -8    2.59    0.67   1
  -5   1   8    3.74    0.66   1
   5   1  -8    2.34    0.65   1
  -5   1   8    3.24    0.61   1
   5   1  -8    2.55    0.52   1
  -5  -1   8    2.50    0.69   1
   5  -1  -8    2.20    0.74   1
  -5  -1   8    3.81    0.76   1
  -5  -1   8    3.65    0.78   1
  -5   1   7   36.69    2.26   1
  -5   1   7   39.43    2.27   1
   5   1  -7   37.07    2.49   1
   5   1  -7   40.86    2.36   1
   5   1  -7   36.63    2.31   1
  -5   1   7   39.13    2.36   1
  -5  -1   7   37.71    2.35   1
   5  -1  -7   37.81    2.47   1
  -5  -1   7   36.77    2.36   1
  -5  -1   7   38.60    2.37   1
   5  -1  -7   36.76    2.31   1
   5  -1  -7   37.70    2.08   1
  -5   1   6   25.42    1.60   1
  -5   1   6   24.08    1.65   1
   5   1  -6   25.04    1.84   1
   5   1  -6   26.95    1.64   1
  -5   1   6   27.90    1.70   1
   5   1  -6   25.61    1.66   1
   5   1  -6   25.03    1.56   1
  -5  -1   6   26.73    1.71   1
  -5  -1   6   25.40    1.72   1
   5  -1  -6   26.35    1.82   1
   5  -1  -6   26.02    1.45   1
  -5  -1   6   24.18    1.56   1
   5  -1  -6   25.00    1.64   1
  -5  -1   6   24.42    1.66   1
   5   1  -5    1.28    0.39   1
   5   1  -5    0.86    0.14   1
   5   1  -5    0.09    0.26   1
  -5   1   5    0.80    0.33   1
  -5   1   5    1.03    0.43   1
  -5   1   5    0.52    0.34   1
   5   1  -5    0.61    0.32   1
   5   1  -5    0.74    0.49   1
   5  -1  -5    1.22    0.50   1
  -5  -1   5    0.99    0.36   1
   5  -1  -5    0.76    0.27   1
   5  -1  -5    0.22    0.32   1
   5  -1  -5    0.90    0.23   1
  -5  -1   5    1.37    0.32   1
  -5  -1   5    1.25    0.48   1
  -5   1   4   26.86    1.56   1
   5   1  -4   27.39    1.39   1
   5   1  -4   26.94    1.62   1
  -5   1   4   24.43    1.61   1
   5   1  -4   25.28    1.54   1
   5   1  -4   31.55    1.81   1
  -5  -1   4   26.92    1.72   1
   5  -1  -4   25.80    1.67   1
   5  -1  -4   27.47    1.48   1
   5  -1  -4   26.94    1.54   1
  -5  -1   4   27.68    1.54   1
  -5  -1   4   26.53    1.61   1
   5  -1  -4   27.13    1.62   1
   5   1  -3    1.79    0.38   1
  -5   1   3    2.61    0.43   1
   5   1  -3    2.91    0.26   1
  -5   1   3    2.41    0.37   1
   5   1  -3    2.76    0.51   1
   5   1  -3    2.32    0.35   1
   5  -1  -3    1.60    0.38   1
  -5  -1   3    2.66    0.35   1
   5  -1  -3    2.05    0.32   1
  -5  -1   3    2.56    0.52   1
  -5  -1   3    2.28    0.40   1
   5  -1  -3    2.50    0.46   1
   5  -1  -3    2.08    0.32   1
   5   1  -2  127.65    6.51   1
   5   1  -2  128.03    6.59   1
  -5   1   2  131.72    6.58   1
   5   1  -2  132.88    6.44   1
   5   1  -2  132.44    6.59   1
  -5   1   2  126.73    6.51   1
   5  -1  -2  132.55    6.51   1
   5  -1  -2  129.29    6.58   1
   5  -1  -2  127.51    6.44   1
  -5  -1   2  131.99    6.68   1
  -5  -1   2  131.74    6.56   1
   5  -1  -2  129.34    6.60   1
  -5  -1   2  123.80    6.48   1
   5  -1  -2  129.36    6.49   1
   5   1  -1   39.78    2.15   1
  -5   1   1   39.53    2.14   1
   5   1  -1   38.45    2.13   1
   5   1  -1   39.23    2.18   1
  -5   1   1   39.25    2.17   1
   5  -1  -1   37.78    2.11   1
   5  -1  -1   36.80    2.17   1
  -5  -1   1   40.15    1.97   1
   5  -1  -1   38.84    2.05   1
   5  -1  -1   41.75    2.15   1
  -5  -1   1   43.09    2.33   1
   5  -1  -1   40.05    2.19   1
  -5  -1   1   40.52    2.10   1
  -5  -1   1   39.12    2.16   1
  -5   1   0    0.92    0.26   1
  -5   1   0    1.33    0.35   1
   5   1   0    1.52    0.30   1
   5   1   0    1.48    0.28   1
   5   1   0    1.54    0.16   1
  -5   1   0    1.27    0.31   1
   5   1   0    1.35    0.34   1
   5  -1   0    1.29    0.33   1
  -5  -1   0    1.57    0.44   1
   5  -1   0    0.94    0.33   1
   5  -1   0    1.26    0.28   1
  -5  -1   0    1.58    0.18   1
  -5  -1   0    1.60    0.33   1
  -5  -1   0    1.77    0.27   1
   5  -1   0    1.42    0.24   1
  -5   1  -1    6.60    0.60   1
   5   1   1    7.29    0.50   1
   5   1   1    7.90    0.65   1
  -5   1  -1    6.85    0.59   1
   5   1   1    7.86    0.69   1
  -5   1  -1    8.05    0.71   1
   5  -1   1    7.47    0.74   1
  -5  -1  -1    7.37    0.39   1
  -5  -1  -1    7.59    0.65   1
  -5  -1  -1    7.42    0.55   1
   5  -1   1    7.83    0.58   1
   5  -1   1    7.98    0.63   1
  -5  -1  -1    7.64    0.55   1
   5   1   2    2.30    0.33   1
  -5   1  -2    1.66    0.42   1
  -5   1  -2    1.95    0.39   1
   5   1   2    1.46    0.40   1
   5   1   2    2.11    0.39   1
  -5   1  -2    1.71    0.37   1
  -5  -1  -2    1.60    0.34   1
  -5  -1  -2    2.03    0.40   1
   5  -1   2    2.39    0.28   1
  -5  -1  -2    2.24    0.32   1
   5  -1   2    2.01    0.38   1
   5  -1   2    2.38    0.46   1
   5  -1   2    1.64    0.34   1
   5   1   3   81.58    4.68   1
   5   1   3   90.30    4.65   1
   5   1   3   95.16    4.63   1
  -5   1  -3   88.93    4.72   1
  -5   1  -3   87.50    4.64   1
  -5   1  -3   91.76    4.66   1
   5  -1   3   86.35    4.61   1
  -5  -1  -3   91.83    4.39   1
  -5  -1  -3   88.56    4.67   1
   5  -1   3   88.70    4.48   1
  -5  -1  -3   93.47    4.67   1
   5  -1   3   86.01    4.71   1
  -5  -1  -3   89.22    4.61   1
   5  -1   3   86.96    4.63   1
   5   1   4   28.06    1.71   1
  -5   1  -4   26.97    1.73   1
  -5   1  -4   23.91    1.73   1
   5   1   4   26.26    1.75   1
  -5   1  -4   26.72    1.66   1
   5  -1   4   26.76    1.65   1
   5  -1   4   28.01    1.69   1
  -5  -1  -4   26.64    1.59   1
   5  -1   4   26.76    1.47   1
   5  -1   4   26.20    1.75   1
  -5  -1  -4   27.29    1.64   1
  -5  -1  -4   25.57    1.69   1
   5   1   5   11.50    1.19   1
   5   1   5    9.88    1.04   1
  -5   1  -5   10.32    0.78   1
  -5   1  -5    9.82    1.08   1
  -5   1  -5    8.96    1.11   1
  -5  -1  -5   11.79    1.14   1
   5  -1   5   10.15    1.04   1
   5  -1   5    8.33    0.95   1
  -5  -1  -5   11.09    1.03   1
   5  -1   5   10.08    1.13   1
  -5   1  -6   12.17    1.30   1
   5   1   6   10.27    1.13   1
   5   1   6   10.44    1.17   1
  -5   1  -6   11.49    1.33   1
   5   1   6   11.07    1.33   1
   5  -1   6   10.46    1.17   1
  -5  -1  -6    9.78    1.18   1
  -5  -1  -6   12.14    1.04   1
   5  -1   6   11.55    1.33   1
  -5   1  -7    2.01    0.68   1
   5   1   7    0.23    0.64   1
   5   1   7    0.60    0.57   1
   5   1   7    0.24    0.54   1
  -5   1  -7    1.21    0.75   1
  -5  -1  -7    0.14    0.59   1
   5  -1   7    0.08    0.60   1
   5  -1   7    0.70    0.64   1
  -5  -1  -7    1.61    0.55   1
  -5   1  -8    5.26    1.13   1
   5   1   8    7.24    1.05   1
   5   1   8    7.31    1.23   1
  -5   1  -8    6.24    1.03   1
   5  -1   8    6.77    1.22   1
  -5  -1  -8    7.66    1.06   1
   5  -1   8    7.68    1.12   1
  -5  -1  -8    6.04    1.05   1
  -5   1  -9    3.18    0.94   1
   5   1   9    2.82    0.81   1
   5   1   9    2.60    0.91   1
  -5   1  -9    4.50    0.91   1
   5  -1   9    2.68    0.95   1
   5  -1   9    3.20    0.93   1
  -5  -1  -9    2.52    0.74   1
   5   1  10    6.81    1.29   1
   5   1  10    4.55    1.00   1
  -5   1 -10    2.56    0.85   1
  -5   1 -10    4.67    1.05   1
   5  -1  10    6.34    1.27   1
  -5  -1 -10    6.51    1.09   1
   5  -1  10    5.07    1.07   1
   5   1  11    5.55    1.13   1
  -5   1 -11    3.54    1.13   1
   5   1  11    4.37    1.07   1
  -5   1 -11    2.65    0.87   1
  -5  -1 -11    2.20    0.75   1
   5  -1  11    5.22    1.15   1
   5  -1  11    4.17    1.04   1
   5   2 -13    1.22    0.79   1
  -5   2  13    0.37    0.77   1
   5   2 -13    1.15    0.77   1
  -5   2  13    1.47    0.82   1
   5   2 -13    1.15    0.66   1
  -5  -2  13    1.67    0.86   1
  -5  -2  13    0.33    0.70   1
  -5  -2  13    0.32    0.77   1
   5   2 -12   16.01    1.69   1
  -5   2  12   13.84    1.73   1
  -5   2  12   13.19    1.63   1
   5   2 -12   15.21    1.80   1
   5   2 -12   15.14    1.75   1
   5  -2 -12   15.93    1.51   1
  -5  -2  12   14.14    1.52   1
  -5  -2  12   17.29    1.77   1
  -5  -2  12   12.46    1.62   1
   5   2 -11   29.07    2.26   1
   5   2 -11   33.97    2.60   1
   5   2 -11   33.75    2.48   1
  -5   2  11   34.95    2.58   1
  -5   2  11   31.66    2.45   1
  -5  -2  11   34.51    2.47   1
  -5  -2  11   33.70    2.42   1
  -5  -2  11   32.48    2.34   1
   5  -2 -11   33.49    2.40   1
   5   2 -10    5.48    1.17   1
   5   2 -10    4.66    1.01   1
  -5   2  10    4.53    1.04   1
   5   2 -10    7.77    1.08   1
  -5   2  10    7.18    1.04   1
   5  -2 -10    6.40    1.10   1
  -5  -2  10    5.69    1.00   1
  -5  -2  10    7.13    0.96   1
   5  -2 -10    7.88    1.14   1
  -5  -2  10    7.64    1.15   1
   5   2  -9   22.74    2.06   1
   5   2  -9   26.87    2.02   1
  -5   2   9   26.95    1.92   1
   5   2  -9   28.99    1.90   1
  -5   2   9   26.22    2.06   1
  -5  -2   9   23.24    1.89   1
  -5  -2   9   25.20    1.91   1
  -5  -2   9   24.67    1.97   1
  -5  -2   9   27.34    1.82   1
   5  -2  -9   23.31    1.93   1
  -5   2   8    0.44    0.43   1
  -5   2   8   -0.59    0.40   1
   5   2  -8    1.18    0.51   1
  -5   2   8    0.35    0.46   1
   5   2  -8    0.33    0.38   1
   5   2  -8   -0.17    0.51   1
   5   2  -8   -0.82    0.38   1
  -5  -2   8    0.78    0.60   1
  -5  -2   8   -0.41    0.46   1
  -5  -2   8   -0.21    0.39   1
   5  -2  -8    0.03    0.54   1
   5   2  -7   39.13    2.28   1
  -5   2   7   41.81    2.33   1
   5   2  -7   36.64    2.38   1
  -5   2   7   38.11    2.38   1
  -5   2   7   39.79    2.31   1
   5   2  -7   44.23    2.62   1
   5   2  -7   37.04    2.35   1
   5  -2  -7   40.49    2.54   1
   5  -2  -7   37.44    2.17   1
  -5  -2   7   39.08    2.53   1
   5  -2  -7   39.16    2.37   1
  -5  -2   7   36.21    2.43   1
  -5  -2   7   38.61    2.43   1
  -5   2   6   70.92    3.75   1
  -5   2   6   69.61    3.68   1
   5   2  -6   61.46    3.69   1
   5   2  -6   69.13    3.96   1
   5   2  -6   67.64    3.67   1
  -5   2   6   65.32    3.75   1
   5   2  -6   68.94    3.77   1
  -5  -2   6   71.02    3.78   1
   5  -2  -6   64.48    3.57   1
   5  -2  -6   68.37    3.74   1
   5  -2  -6   74.87    3.93   1
  -5  -2   6   74.19    3.93   1
  -5  -2   6   69.83    3.85   1
   5   2  -5   72.06    3.88   1
   5   2  -5   65.71    4.01   1
  -5   2   5   75.70    3.82   1
   5   2  -5   79.59    3.84   1
  -5   2   5   68.02    3.86   1
   5   2  -5   71.19    3.80   1
  -5  -2   5   72.59    4.02   1
   5  -2  -5   71.44    3.85   1
   5  -2  -5   70.55    3.74   1
  -5  -2   5   71.89    3.87   1
   5  -2  -5   73.60    4.00   1
  -5  -2   5   75.09    3.97   1
   5   2  -4  241.25   11.19   1
  -5   2   4  223.68   11.30   1
   5   2  -4  216.78   11.22   1
   5   2  -4  224.73   11.30   1
  -5   2   4  227.37   11.24   1
   5   2  -4  221.71   11.45   1
   5  -2  -4  231.76   11.20   1
  -5  -2   4  227.00   11.28   1
   5  -2  -4  219.91   11.38   1
   5  -2  -4  227.65   11.29   1
  -5  -2   4  227.77   11.12   1
  -5  -2   4  207.31   11.33   1
  -5  -2   4  229.97   11.45   1
   5  -2  -4  228.45   11.20   1
  -5   2   3   11.80    0.79   1
   5   2  -3   11.88    0.98   1
   5   2  -3   11.17    0.62   1
   5   2  -3   11.34    0.84   1
   5   2  -3   10.57    0.79   1
  -5   2   3   11.15    0.85   1
   5  -2  -3   11.66    0.84   1
   5  -2  -3   10.98    0.74   1
   5  -2  -3   11.40    0.77   1
  -5  -2   3    9.60    1.03   1
   5  -2  -3   10.29    0.89   1
  -5  -2   3   11.30    0.81   1
  -5  -2   3   11.02    0.61   1
   5  -2  -3   12.16    0.78   1
  -5  -2   3   11.20    0.88   1
   5   2  -2    2.45    0.46   1
  -5   2   2    2.58    0.43   1
   5   2  -2    2.00    0.34   1
  -5   2   2    2.52    0.38   1
   5   2  -2    2.42    0.40   1
  -5  -2   2    2.57    0.38   1
  -5  -2   2    2.91    0.17   1
   5  -2  -2    2.62    0.35   1
   5  -2  -2    2.75    0.33   1
  -5  -2   2    2.69    0.40   1
  -5  -2   2    3.26    0.58   1
   5  -2  -2    2.44    0.37   1
   5  -2  -2    2.51    0.46   1
   5  -2  -2    2.04    0.41   1
  -5   2   1   21.49    1.23   1
   5   2  -1   20.94    1.26   1
  -5   2   1   20.47    1.26   1
   5   2  -1   20.24    1.26   1
   5   2  -1   20.13    1.21   1
   5  -2  -1   20.59    1.19   1
  -5  -2   1   21.09    1.24   1
   5  -2  -1   18.80    1.26   1
  -5  -2   1   22.07    1.41   1
   5  -2  -1   19.66    1.19   1
  -5  -2   1   21.49    1.18   1
   5  -2  -1   21.41    1.26   1
  -5   2   0  120.99    5.95   1
   5   2   0  117.48    5.98   1
   5   2   0  117.86    5.93   1
   5   2   0  117.53    5.76   1
  -5   2   0  113.16    6.00   1
  -5   2   0  115.04    5.94   1
   5   2   0  116.36    5.88   1
   5  -2   0  114.93    5.90   1
   5  -2   0  119.30    5.98   1
  -5  -2   0  118.40    5.82   1
  -5  -2   0  117.95    5.94   1
  -5  -2   0  116.62    6.10   1
   5  -2   0  117.23    5.99   1
   5  -2   0  120.43    5.92   1
   5   2   1  397.74   19.62   1
  -5   2  -1  396.51   19.64   1
   5   2   1  400.28   19.50   1
  -5   2  -1  401.91   19.71   1
   5   2   1  401.14   19.68   1
  -5   2  -1  398.68   19.63   1
   5  -2   1  392.67   19.59   1
   5  -2   1  399.06   19.62   1
  -5  -2  -1  371.22   19.73   1
   5  -2   1  403.36   19.70   1
  -5  -2  -1  406.00   19.64   1
   5  -2   1  411.70   19.61   1
   5  -2   1  392.65   19.66   1
  -5  -2  -1  398.33   19.48   1
  -5   2  -2    6.24    0.69   1
   5   2   2    5.35    0.64   1
   5   2   2    4.83    0.55   1
  -5   2  -2    7.12    0.70   1
  -5   2  -2    5.70    0.61   1
   5  -2   2    5.88    0.60   1
  -5  -2  -2    6.05    0.61   1
   5  -2   2    5.94    0.51   1
  -5  -2  -2    6.40    0.73   1
   5  -2   2    6.03    0.58   1
   5  -2   2    6.04    0.68   1
  -5  -2  -2    5.89    0.48   1
   5  -2   2    6.63    0.69   1
   5   2   3   40.14    2.19   1
   5   2   3   33.77    2.18   1
  -5   2  -3   40.84    2.21   1
  -5   2  -3   40.10    2.22   1
  -5   2  -3   37.33    2.25   1
   5  -2   3   40.24    2.19   1
   5  -2   3   37.90    2.07   1
  -5  -2  -3   37.92    2.17   1
   5  -2   3   36.43    2.23   1
  -5  -2  -3   36.99    2.10   1
   5  -2   3   36.90    2.14   1
  -5  -2  -3   39.20    2.18   1
  -5   2  -4    0.59    0.42   1
  -5   2  -4    0.69    0.37   1
   5   2   4   -0.11    0.32   1
  -5   2  -4    0.26    0.41   1
   5   2   4   -0.12    0.34   1
   5  -2   4    0.00    0.37   1
  -5  -2  -4    0.14    0.30   1
  -5  -2  -4    0.58    0.31   1
   5  -2   4    0.12    0.26   1
   5  -2   4   -0.03    0.22   1
   5  -2   4    0.61    0.41   1
  -5  -2  -4   -0.06    0.20   1
  -5   2  -5   34.18    2.31   1
  -5   2  -5   38.26    2.40   1
  -5   2  -5   37.76    2.22   1
  -5   2  -5   39.37    2.51   1
   5   2   5   40.92    2.42   1
   5   2   5   39.46    2.46   1
   5  -2   5   39.22    2.46   1
  -5  -2  -5   37.65    2.32   1
   5  -2   5   41.86    2.40   1
  -5  -2  -5   39.08    2.28   1
   5  -2   5   39.70    2.22   1
  -5   2  -6  101.87    5.92   1
  -5   2  -6  108.61    5.61   1
   5   2   6  105.27    5.91   1
   5   2   6   86.11    5.71   1
  -5   2  -6  107.87    5.83   1
  -5  -2  -6  109.52    5.76   1
  -5  -2  -6  112.24    5.68   1
   5  -2   6  114.47    5.82   1
   5  -2   6  115.46    5.95   1
  -5   2  -7    0.64    0.68   1
   5   2   7    0.38    0.60   1
  -5   2  -7   -0.73    0.51   1
   5   2   7    0.41    0.54   1
  -5  -2  -7    0.50    0.47   1
   5  -2   7    0.72    0.74   1
  -5  -2  -7    0.43    0.44   1
   5  -2   7    0.01    0.61   1
   5   2   8   35.57    2.39   1
  -5   2  -8   33.46    2.38   1
   5   2   8   31.67    2.49   1
  -5   2  -8   30.88    2.49   1
   5  -2   8   30.93    2.51   1
  -5  -2  -8   32.28    2.23   1
   5  -2   8   37.39    2.47   1
   5   2   9    1.49    0.71   1
  -5   2  -9    1.41    0.76   1
   5   2   9    0.93    0.75   1
  -5   2  -9    1.53    0.81   1
   5  -2   9    0.65    0.73   1
  -5  -2  -9    1.55    0.66   1
   5  -2   9    2.16    0.86   1
   5  -2   9    2.43    0.89   1
  -5   2 -10    1.06    0.81   1
   5   2  10    0.91    0.77   1
  -5   2 -10    1.56    0.76   1
   5   2  10    1.38    0.79   1
   5  -2  10    2.28    0.91   1
   5  -2  10    1.82    0.84   1
   5  -2  10    1.62    0.93   1
  -5  -2 -10    3.35    0.77   1
  -5   2 -11    8.72    1.37   1
   5   2  11    7.85    1.38   1
   5   2  11    7.65    1.27   1
   5  -2  11    7.50    1.23   1
   5  -2  11    7.34    1.40   1
   5  -2  11    7.99    1.39   1
  -5  -2 -11    8.07    1.37   1
   5   3 -13    3.23    1.00   1
   5   3 -13    1.49    0.86   1
   5   3 -13    2.16    0.79   1
  -5   3  13    1.60    0.82   1
  -5   3  13    2.18    0.96   1
  -5  -3  13    1.62    0.86   1
  -5  -3  13    0.78    0.87   1
  -5   3  12   10.83    1.50   1
  -5   3  12   13.35    1.64   1
   5   3 -12   11.48    1.41   1
   5   3 -12   10.92    1.57   1
   5   3 -12    9.95    1.51   1
  -5  -3  12   12.95    1.54   1
  -5  -3  12   11.91    1.39   1
  -5  -3  12   13.83    1.56   1
   5   3 -11    0.33    0.68   1
   5   3 -11    0.36    0.59   1
   5   3 -11    0.10    0.72   1
  -5   3  11   -0.82    0.61   1
  -5  -3  11    0.34    0.69   1
  -5  -3  11    0.26    0.63   1
  -5  -3  11    1.22    0.74   1
   5  -3 -11    0.64    0.61   1
   5   3 -10    2.90    0.83   1
  -5   3  10    0.70    0.71   1
   5   3 -10    1.33    0.83   1
   5   3 -10    1.78    0.65   1
  -5   3  10    0.85    0.61   1
  -5  -3  10    1.99    0.76   1
  -5  -3  10    0.77    0.69   1
  -5  -3  10    1.88    0.70   1
   5  -3 -10    2.37    0.77   1
   5   3  -9   78.56    4.42   1
   5   3  -9   80.08    4.64   1
  -5   3   9   73.94    4.40   1
   5   3  -9   74.66    4.70   1
  -5   3   9   77.06    4.56   1
   5   3  -9   83.63    4.47   1
  -5  -3   9   77.60    4.53   1
   5  -3  -9   72.96    4.51   1
  -5  -3   9   78.74    4.60   1
  -5  -3   9   85.53    4.59   1
  -5  -3   9   82.44    4.40   1
   5  -3  -9   81.87    4.62   1
   5   3  -8    9.93    1.05   1
   5   3  -8    7.70    1.15   1
  -5   3   8    9.57    0.99   1
   5   3  -8    9.38    0.99   1
  -5   3   8    7.85    1.00   1
  -5  -3   8    6.30    1.08   1
   5  -3  -8    9.55    0.90   1
  -5  -3   8    9.85    1.15   1
   5  -3  -8    8.26    1.13   1
  -5  -3   8    7.56    1.07   1
  -5  -3   8    9.35    0.96   1
   5  -3  -8    9.44    1.16   1
   5   3  -7  106.02    5.51   1
   5   3  -7  111.35    5.45   1
  -5   3   7  105.24    5.36   1
   5   3  -7   99.27    5.36   1
   5   3  -7  103.13    5.63   1
  -5   3   7  101.81    5.45   1
  -5   3   7  109.44    5.39   1
  -5  -3   7  101.26    5.54   1
   5  -3  -7  107.83    5.31   1
  -5  -3   7   86.50    5.45   1
   5  -3  -7  103.86    5.42   1
   5  -3  -7  105.06    5.60   1
  -5  -3   7  100.97    5.31   1
  -5  -3   7   84.79    5.55   1
   5   3  -6   30.70    2.12   1
   5   3  -6   31.87    1.90   1
  -5   3   6   31.70    1.97   1
   5   3  -6   27.56    1.94   1
  -5   3   6   32.33    1.92   1
   5   3  -6   34.51    1.96   1
   5  -3  -6   34.50    1.97   1
  -5  -3   6   31.26    1.81   1
   5  -3  -6   34.13    2.13   1
  -5  -3   6   30.07    2.17   1
  -5  -3   6   34.26    2.02   1
   5  -3  -6   30.84    1.85   1
  -5  -3   6   29.00    2.05   1
   5   3  -5    0.18    0.53   1
  -5   3   5    0.83    0.36   1
   5   3  -5    2.07    0.44   1
  -5   3   5    1.05    0.34   1
   5   3  -5    0.76    0.31   1
   5   3  -5    1.53    0.41   1
   5  -3  -5    1.68    0.38   1
  -5  -3   5    1.00    0.36   1
  -5  -3   5    1.67    0.62   1
   5  -3  -5    1.07    0.48   1
  -5  -3   5    1.07    0.51   1
   5  -3  -5    0.82    0.31   1
  -5  -3   5    0.71    0.24   1
   5   3  -4  110.88    6.97   1
  -5   3   4  137.83    6.87   1
   5   3  -4  127.05    6.83   1
   5   3  -4  141.17    6.76   1
   5   3  -4  134.03    6.79   1
  -5   3   4  141.19    6.81   1
  -5  -3   4  136.24    7.08   1
   5  -3  -4  136.05    6.83   1
  -5  -3   4  137.89    6.83   1
  -5  -3   4  129.33    6.89   1
  -5  -3   4  136.83    6.66   1
   5  -3  -4  134.37    6.96   1
   5  -3  -4  137.43    6.79   1
  -5   3   3   11.02    0.75   1
   5   3  -3   11.05    0.97   1
   5   3  -3    9.54    0.59   1
   5   3  -3    7.88    0.71   1
  -5   3   3    9.37    0.77   1
   5   3  -3    8.95    0.51   1
   5   3  -3    8.85    0.68   1
  -5  -3   3    7.94    0.69   1
  -5  -3   3    9.57    1.05   1
   5  -3  -3    6.93    0.71   1
   5  -3  -3    7.81    0.69   1
  -5  -3   3    9.12    0.52   1
  -5  -3   3    8.45    0.76   1
   5  -3  -3    9.84    0.73   1
   5   3  -2  389.02   19.66   1
  -5   3   2  395.00   19.68   1
   5   3  -2  408.27   19.73   1
  -5   3   2  404.77   19.75   1
   5   3  -2  407.86   19.82   1
  -5  -3   2  396.76   19.95   1
   5  -3  -2  404.40   19.69   1
  -5  -3   2  393.55   19.67   1
   5  -3  -2  388.83   19.71   1
   5  -3  -2  410.37   19.73   1
  -5  -3   2  395.06   19.69   1
   5   3  -1  139.98    7.14   1
   5   3  -1  139.97    7.09   1
   5   3  -1  143.55    7.15   1
  -5   3   1  145.03    7.13   1
  -5   3   1  136.90    7.17   1
   5  -3  -1  139.98    7.11   1
   5  -3  -1  142.49    7.16   1
  -5  -3   1  142.38    7.09   1
   5  -3  -1  143.97    7.16   1
  -5  -3   1  142.97    7.07   1
  -5  -3   1  139.11    7.36   1
  -5   3   0   20.89    1.34   1
   5   3   0   21.02    1.24   1
  -5   3   0   21.61    1.28   1
   5   3   0   21.70    1.30   1
   5   3   0   20.92    1.22   1
  -5  -3   0   21.35    1.23   1
  -5  -3   0   21.25    1.14   1
  -5  -3   0   20.14    1.48   1
   5  -3   0   19.98    1.30   1
   5  -3   0   20.00    1.28   1
   5  -3   0   22.23    1.29   1
   5  -3   0   19.91    1.31   1
  -5   3  -1    2.60    0.47   1
   5   3   1    1.76    0.40   1
   5   3   1    2.10    0.26   1
  -5   3  -1    2.20    0.38   1
  -5   3  -1    2.16    0.43   1
   5   3   1    1.98    0.35   1
  -5  -3  -1    2.10    0.17   1
   5  -3   1    3.18    0.45   1
  -5  -3  -1    2.19    0.34   1
  -5  -3  -1    2.15    0.55   1
   5  -3   1    3.10    0.42   1
   5  -3   1    2.18    0.43   1
   5  -3   1    2.49    0.45   1
  -5   3  -2    0.35    0.26   1
  -5   3  -2   -0.01    0.31   1
  -5   3  -2   -0.11    0.26   1
   5   3   2   -0.14    0.25   1
   5   3   2    0.08    0.25   1
   5  -3   2   -0.12    0.29   1
   5  -3   2   -0.20    0.20   1
  -5  -3  -2    0.00    0.35   1
   5  -3   2   -0.35    0.31   1
   5  -3   2    0.28    0.34   1
  -5  -3  -2    0.00    0.21   1
   5   3   3  193.36    9.80   1
  -5   3  -3  182.84    9.87   1
  -5   3  -3  192.92    9.85   1
   5   3   3  186.51    9.82   1
  -5   3  -3  200.92    9.86   1
   5  -3   3  195.93    9.76   1
   5  -3   3  194.43    9.86   1
  -5  -3  -3  209.50    9.83   1
  -5  -3  -3  196.65    9.70   1
   5  -3   3  191.31    9.86   1
   5  -3   3  194.87    9.82   1
  -5  -3  -3  194.84    9.77   1
  -5   3  -4   66.20    3.46   1
  -5   3  -4   56.15    3.38   1
  -5   3  -4   60.66    3.46   1
   5   3   4   65.28    3.42   1
   5   3   4   58.63    3.39   1
  -5  -3  -4   58.62    3.26   1
  -5  -3  -4   60.19    3.27   1
  -5  -3  -4   61.51    3.30   1
   5  -3   4   61.73    3.44   1
   5  -3   4   61.40    3.42   1
   5  -3   4   58.98    3.37   1
   5  -3   4   62.29    3.28   1
  -5   3  -5   40.96    2.51   1
  -5   3  -5   29.58    2.26   1
   5   3   5   36.15    2.36   1
   5   3   5   35.58    2.33   1
  -5   3  -5   41.12    2.40   1
  -5  -3  -5   35.36    2.19   1
   5  -3   5   38.83    2.35   1
   5  -3   5   42.06    2.23   1
  -5  -3  -5   38.29    2.23   1
   5  -3   5   36.56    2.36   1
   5  -3   5   38.93    2.40   1
  -5   3  -6   11.80    1.37   1
   5   3   6   13.85    1.45   1
  -5   3  -6   11.53    1.45   1
  -5   3  -6   12.98    1.31   1
   5   3   6   12.11    1.29   1
  -5   3  -6   11.57    1.05   1
   5  -3   6   13.45    1.36   1
  -5  -3  -6   14.22    1.12   1
   5  -3   6   13.07    1.33   1
   5  -3   6   15.52    1.38   1
  -5   3  -7    0.46    0.65   1
   5   3   7    0.50    0.62   1
   5   3   7    0.19    0.52   1
  -5   3  -7   -0.07    0.61   1
   5  -3   7   -0.23    0.59   1
   5  -3   7   -0.39    0.65   1
  -5  -3  -7   -0.38    0.38   1
   5  -3   7    0.90    0.66   1
   5   3   8   28.85    2.38   1
  -5   3  -8   36.64    2.60   1
  -5   3  -8   28.26    2.31   1
   5   3   8   34.65    2.32   1
   5  -3   8   27.81    2.43   1
   5  -3   8   27.38    2.35   1
  -5  -3  -8   32.21    2.16   1
   5  -3   8   37.75    2.42   1
  -5   3  -9   11.26    1.50   1
   5   3   9   11.00    1.52   1
   5   3   9   11.92    1.39   1
  -5   3  -9   15.06    1.76   1
   5  -3   9   11.98    1.57   1
   5  -3   9   13.28    1.45   1
   5  -3   9   12.24    1.64   1
   5   3  10   23.64    2.08   1
  -5   3 -10   20.11    2.05   1
   5   3  10   16.67    1.79   1
  -5   3 -10   18.89    2.04   1
   5  -3  10   20.91    2.06   1
   5  -3  10   21.78    2.23   1
   5   3  11   11.21    1.55   1
  -5   3 -11   10.87    1.56   1
   5   3  11   14.34    1.74   1
   5  -3  11   14.04    1.80   1
   5   4 -13    3.25    1.06   1
  -5   4  13    6.04    1.31   1
  -5   4  13    3.37    1.03   1
  -5  -4  13    4.56    1.20   1
  -5  -4  13    5.13    1.10   1
  -5   4  12    5.96    1.28   1
   5   4 -12    8.23    1.22   1
  -5   4  12    8.10    1.32   1
   5   4 -12    6.09    1.25   1
   5   4 -12    9.40    1.43   1
  -5  -4  12    6.46    1.18   1
  -5  -4  12    9.27    1.22   1
   5   4 -11   25.48    2.17   1
   5   4 -11   25.62    1.94   1
  -5   4  11   25.74    2.20   1
   5   4 -11   20.08    2.19   1
  -5   4  11   24.14    2.05   1
  -5  -4  11   20.82    1.84   1
  -5  -4  11   25.43    2.05   1
   5  -4 -11   25.14    1.96   1
   5   4 -10    9.95    1.46   1
   5   4 -10    9.22    1.35   1
   5   4 -10   10.96    1.25   1
  -5   4  10    6.84    1.23   1
  -5   4  10    9.97    1.25   1
   5   4 -10    7.86    1.18   1
  -5  -4  10   11.34    1.23   1
   5  -4 -10   12.30    1.39   1
  -5  -4  10    9.03    1.30   1
  -5  -4  10    9.19    1.29   1
  -5   4   9   17.09    1.69   1
   5   4  -9   16.16    1.41   1
  -5   4   9   17.70    1.47   1
   5   4  -9   11.65    1.65   1
   5   4  -9   16.84    1.53   1
   5   4  -9   19.08    1.48   1
  -5  -4   9   16.50    1.37   1
  -5  -4   9   17.82    1.49   1
   5  -4  -9   15.27    1.49   1
  -5  -4   9   17.13    1.79   1
  -5  -4   9   15.13    1.59   1
   5   4  -8    5.50    0.84   1
  -5   4   8    5.56    0.78   1
  -5   4   8    5.32    0.84   1
   5   4  -8    5.42    0.79   1
   5   4  -8    8.05    1.13   1
  -5  -4   8    5.32    0.77   1
  -5  -4   8    4.99    0.82   1
  -5  -4   8    4.12    0.89   1
  -5  -4   8    4.31    0.97   1
   5  -4  -8    6.41    1.00   1
   5  -4  -8    5.37    0.75   1
  -5   4   7    7.69    0.91   1
   5   4  -7    6.96    0.86   1
   5   4  -7    9.60    1.21   1
   5   4  -7    7.14    0.94   1
  -5   4   7    8.74    0.90   1
   5   4  -7    7.39    0.85   1
  -5  -4   7    8.55    0.98   1
  -5  -4   7    8.41    0.83   1
  -5  -4   7    7.75    1.14   1
  -5  -4   7    7.00    1.02   1
   5  -4  -7    7.29    1.03   1
   5  -4  -7    8.12    0.86   1
   5   4  -6   57.31    3.31   1
   5   4  -6   66.39    3.69   1
   5   4  -6   67.48    3.41   1
  -5   4   6   62.34    3.34   1
  -5   4   6   59.92    3.39   1
   5   4  -6   60.12    3.43   1
   5  -4  -6   62.84    3.36   1
  -5  -4   6   59.26    3.52   1
   5  -4  -6   59.94    3.32   1
  -5  -4   6   63.19    3.26   1
  -5  -4   6   49.46    3.60   1
   5  -4  -6   65.07    3.58   1
   5   4  -5   39.73    2.30   1
  -5   4   5   40.55    2.24   1
   5   4  -5   38.94    2.22   1
   5   4  -5   41.14    2.56   1
   5   4  -5   40.92    2.25   1
  -5   4   5   36.14    2.27   1
  -5  -4   5   35.67    2.56   1
  -5  -4   5   39.89    2.40   1
  -5  -4   5   39.27    2.29   1
  -5  -4   5   39.89    2.12   1
   5  -4  -5   39.17    2.23   1
   5  -4  -5   38.86    2.24   1
  -5   4   4  154.61    7.61   1
   5   4  -4  153.28    7.67   1
   5   4  -4  148.68    7.59   1
   5   4  -4  148.64    7.58   1
   5   4  -4  147.21    7.90   1
  -5   4   4  143.69    7.65   1
  -5  -4   4  152.93    7.73   1
   5  -4  -4  152.27    7.62   1
  -5  -4   4  142.37    7.96   1
  -5  -4   4  154.35    7.49   1
   5  -4  -4  154.23    7.64   1
   5  -4  -4  148.11    7.64   1
  -5  -4   4  153.79    7.63   1
   5   4  -3    3.07    0.46   1
   5   4  -3    3.19    0.44   1
  -5   4   3    3.83    0.53   1
  -5   4   3    3.27    0.44   1
   5   4  -3    3.38    0.41   1
   5   4  -3    2.42    0.64   1
   5  -4  -3    3.33    0.50   1
   5  -4  -3    3.86    0.48   1
  -5  -4   3    3.35    0.42   1
   5  -4  -3    3.56    0.52   1
  -5  -4   3    3.40    0.52   1
  -5  -4   3    3.53    0.80   1
  -5  -4   3    4.23    0.32   1
   5   4  -2    1.18    0.31   1
   5   4  -2    0.76    0.27   1
  -5   4   2    1.24    0.33   1
  -5   4   2    0.95    0.36   1
   5   4  -2    1.50    0.48   1
   5   4  -2    1.41    0.17   1
   5  -4  -2    1.09    0.36   1
  -5  -4   2    1.22    0.35   1
  -5  -4   2    1.24    0.25   1
   5  -4  -2    1.32    0.29   1
  -5  -4   2    1.29    0.17   1
  -5  -4   2    0.45    0.54   1
   5  -4  -2    1.16    0.36   1
  -5   4   1   48.11    2.63   1
   5   4  -1   50.26    2.53   1
   5   4  -1   46.63    2.52   1
  -5   4   1   49.44    2.58   1
   5   4  -1   47.89    2.58   1
   5   4  -1   50.72    2.67   1
  -5  -4   1   48.29    2.53   1
  -5  -4   1   47.00    2.91   1
  -5  -4   1   47.42    2.49   1
   5  -4  -1   45.44    2.59   1
   5  -4  -1   44.10    2.56   1
   5  -4  -1   46.57    2.63   1
  -5   4   0   62.44    3.35   1
   5   4   0   64.52    3.29   1
   5   4   0   61.81    3.23   1
   5   4   0   61.20    3.23   1
  -5   4   0   61.31    3.28   1
   5  -4   0   59.56    3.33   1
   5  -4   0   60.62    3.34   1
  -5  -4   0   60.68    3.59   1
   5  -4   0   62.92    3.31   1
   5  -4   0   66.38    3.33   1
  -5  -4   0   62.65    3.20   1
  -5  -4   0   61.47    3.18   1
  -5   4  -1  217.81   11.28   1
  -5   4  -1  230.27   11.28   1
   5   4   1  231.36   11.21   1
   5   4   1  220.30   11.06   1
   5   4   1  218.91   11.14   1
  -5   4  -1  214.63   11.18   1
  -5  -4  -1  217.62   11.10   1
   5  -4   1  225.23   11.23   1
  -5  -4  -1  240.70   11.46   1
   5  -4   1  226.64   11.24   1
  -5  -4  -1  230.62   11.03   1
   5  -4   1  216.80   11.24   1
   5  -4   1  224.91   11.23   1
  -5   4  -2    0.97    0.39   1
   5   4   2    1.51    0.38   1
  -5   4  -2    1.07    0.44   1
   5   4   2    0.97    0.32   1
  -5   4  -2    0.78    0.36   1
   5  -4   2    1.44    0.45   1
   5  -4   2    1.18    0.38   1
   5  -4   2    1.55    0.41   1
   5  -4   2    1.45    0.43   1
  -5  -4  -2    1.29    0.49   1
  -5   4  -3   21.98    1.58   1
  -5   4  -3   25.08    1.60   1
  -5   4  -3   23.69    1.61   1
   5   4   3   23.78    1.52   1
   5   4   3   27.99    1.56   1
  -5  -4  -3   23.49    1.55   1
   5  -4   3   23.91    1.52   1
   5  -4   3   24.68    1.59   1
   5  -4   3   21.73    1.57   1
   5  -4   3   23.62    1.58   1
  -5   4  -4    6.58    0.85   1
  -5   4  -4    5.57    0.82   1
  -5   4  -4    6.26    0.84   1
   5   4   4    6.40    0.79   1
   5   4   4    5.25    0.75   1
   5  -4   4    5.74    0.79   1
   5  -4   4    6.12    0.82   1
   5  -4   4    5.83    0.77   1
   5  -4   4    5.50    0.70   1
   5   4   5    7.23    1.00   1
   5   4   5   12.66    1.11   1
  -5   4  -5   10.91    1.17   1
  -5   4  -5    7.22    1.03   1
  -5   4  -5   10.33    1.23   1
   5  -4   5   11.92    1.16   1
   5  -4   5   11.02    1.15   1
   5  -4   5   11.75    1.02   1
   5  -4   5   11.24    1.17   1
   5   4   6   71.68    4.26   1
  -5   4  -6   75.88    4.20   1
   5   4   6   76.35    4.36   1
  -5   4  -6   78.93    4.30   1
  -5   4  -6   73.36    4.29   1
  -5   4  -6   68.60    4.41   1
   5  -4   6   79.86    4.35   1
   5  -4   6   75.70    4.25   1
   5  -4   6   76.60    4.30   1
   5  -4   6   71.62    4.14   1
   5   4   7    0.23    0.57   1
  -5   4  -7    0.41    0.70   1
   5   4   7   -0.12    0.57   1
  -5   4  -7   -0.60    0.56   1
  -5   4  -7   -0.18    0.38   1
   5  -4   7    1.17    0.65   1
   5  -4   7   -0.04    0.65   1
   5  -4   7    0.96    0.68   1
   5   4   8   25.46    2.12   1
  -5   4  -8   26.02    2.24   1
   5   4   8   30.02    2.06   1
  -5   4  -8   22.34    2.07   1
   5  -4   8   24.41    2.15   1
   5  -4   8   29.49    2.12   1
   5  -4   8   19.88    2.16   1
   5   4   9   -0.56    0.53   1
   5   4   9   -0.11    0.65   1
  -5   4  -9    0.22    0.71   1
  -5   4  -9    0.35    0.77   1
   5  -4   9    1.02    0.78   1
   5  -4   9   -0.02    0.87   1
   5  -4   9   -0.84    0.62   1
  -5   4 -10   -0.39    0.77   1
   5   4  10    0.12    0.72   1
  -5   4 -10    0.95    0.79   1
   5  -4  10   -0.25    0.83   1
   5  -4  10    0.31    0.70   1
   5   5 -12    8.69    1.50   1
   5   5 -12    8.92    1.27   1
   5   5 -12    8.41    1.44   1
  -5   5  12    8.49    1.60   1
  -5   5  12   11.40    1.54   1
  -5  -5  12    9.65    1.28   1
  -5  -5  12   10.06    1.45   1
   5   5 -11    2.73    0.96   1
  -5   5  11    2.70    0.92   1
  -5   5  11    2.79    0.85   1
   5   5 -11    3.75    0.85   1
   5   5 -11    2.85    0.96   1
  -5  -5  11    2.80    0.97   1
  -5  -5  11    4.92    0.94   1
  -5   5  10    4.03    0.87   1
   5   5 -10    6.48    0.98   1
   5   5 -10    4.37    1.04   1
   5   5 -10    4.34    1.05   1
   5   5 -10    5.08    1.00   1
  -5   5  10    2.68    0.89   1
  -5  -5  10    6.25    0.92   1
  -5  -5  10    5.01    1.06   1
  -5  -5  10    5.26    1.08   1
  -5   5   9   20.43    1.66   1
   5   5  -9   22.77    1.64   1
   5   5  -9   18.63    1.63   1
   5   5  -9   21.74    1.90   1
  -5   5   9   20.10    1.76   1
  -5  -5   9   22.10    1.64   1
  -5  -5   9   22.95    1.88   1
  -5  -5   9   24.36    2.02   1
   5  -5  -9   19.25    1.55   1
  -5   5   8    0.78    0.48   1
   5   5  -8    1.51    0.50   1
   5   5  -8    0.85    0.67   1
  -5   5   8    1.90    0.59   1
   5   5  -8    1.91    0.73   1
   5   5  -8    0.57    0.46   1
  -5  -5   8    2.05    0.54   1
  -5  -5   8    2.07    0.78   1
   5  -5  -8    1.29    0.57   1
  -5  -5   8    2.72    0.85   1
   5   5  -7   35.72    2.25   1
  -5   5   7   34.94    2.21   1
  -5   5   7   36.85    2.30   1
   5   5  -7   36.48    2.54   1
   5   5  -7   38.57    2.38   1
   5   5  -7   40.61    2.31   1
  -5  -5   7   34.33    2.45   1
   5  -5  -7   38.14    2.26   1
  -5  -5   7   37.58    2.64   1
   5   5  -6    0.39    0.59   1
  -5   5   6    0.85    0.45   1
  -5   5   6    1.24    0.43   1
   5   5  -6    1.00    0.44   1
   5   5  -6    0.54    0.38   1
   5   5  -6    0.27    0.39   1
  -5  -5   6    0.47    0.42   1
   5  -5  -6    0.82    0.43   1
  -5  -5   6    0.94    0.35   1
  -5  -5   6    0.14    0.66   1
   5   5  -5   25.89    1.68   1
   5   5  -5   29.14    2.01   1
  -5   5   5   26.80    1.62   1
   5   5  -5   27.02    1.64   1
   5   5  -5   22.92    1.54   1
  -5   5   5   25.73    1.63   1
  -5  -5   5   26.45    1.50   1
   5  -5  -5   26.34    1.65   1
  -5  -5   5   20.77    1.98   1
  -5  -5   5   26.77    1.78   1
   5   5  -4   19.57    1.35   1
   5   5  -4   19.75    1.27   1
   5   5  -4   22.64    1.71   1
  -5   5   4   21.32    1.36   1
   5   5  -4   22.33    1.33   1
  -5   5   4   20.82    1.31   1
   5  -5  -4   18.88    1.35   1
  -5  -5   4   19.01    1.17   1
   5  -5  -4   21.52    1.41   1
  -5  -5   4   20.50    1.43   1
  -5  -5   4   17.31    1.87   1
   5   5  -3   16.61    1.08   1
   5   5  -3   16.43    1.11   1
   5   5  -3   16.42    1.05   1
   5   5  -3   14.62    1.41   1
  -5   5   3   15.47    1.09   1
  -5   5   3   19.11    1.21   1
   5  -5  -3   17.50    1.21   1
  -5  -5   3   17.48    0.98   1
   5  -5  -3   15.80    1.17   1
  -5  -5   3   17.09    1.19   1
  -5  -5   3   15.23    1.67   1
   5  -5  -3   17.14    1.06   1
  -5   5   2   30.64    1.76   1
  -5   5   2   30.49    1.81   1
   5   5  -2   30.34    1.76   1
   5   5  -2   26.56    1.98   1
   5   5  -2   33.42    1.64   1
   5   5  -2   29.49    1.70   1
   5  -5  -2   33.91    1.87   1
   5  -5  -2   30.15    1.72   1
  -5  -5   2   31.85    1.63   1
  -5  -5   2   29.72    1.79   1
  -5  -5   2   26.52    2.20   1
   5  -5  -2   30.08    1.85   1
  -5   5   1   -0.07    0.31   1
   5   5  -1    0.49    0.28   1
  -5   5   1    0.35    0.29   1
   5   5  -1    0.48    0.24   1
   5   5  -1    0.19    0.37   1
  -5  -5   1   -0.25    0.57   1
   5  -5  -1    0.36    0.36   1
   5  -5  -1    0.52    0.35   1
  -5  -5   1    0.44    0.29   1
   5  -5  -1    0.22    0.21   1
  -5   5   0   44.37    2.45   1
  -5   5   0   41.21    2.37   1
   5   5   0   43.87    2.40   1
   5   5   0   43.72    2.32   1
   5   5   0   44.09    2.36   1
  -5  -5   0   39.44    2.74   1
   5  -5   0   43.79    2.37   1
  -5  -5   0   42.12    2.30   1
   5  -5   0   43.76    2.47   1
   5  -5   0   42.58    2.49   1
   5  -5   0   45.17    2.47   1
   5   5   1    8.79    0.69   1
   5   5   1    9.30    0.76   1
  -5   5  -1   10.85    0.94   1
  -5   5  -1    7.73    0.86   1
   5   5   1    8.89    0.66   1
  -5   5  -1    9.69    0.77   1
   5  -5   1    8.80    0.75   1
   5  -5   1    8.45    0.87   1
   5  -5   1    9.01    0.89   1
  -5  -5  -1    8.49    1.08   1
  -5  -5  -1    9.71    0.63   1
   5  -5   1    9.10    0.90   1
   5   5   2   34.46    2.01   1
  -5   5  -2   39.48    2.15   1
  -5   5  -2   35.21    2.15   1
  -5   5  -2   39.18    2.25   1
   5   5   2   37.46    2.08   1
   5  -5   2   36.76    2.10   1
   5  -5   2   34.82    2.17   1
   5  -5   2   36.74    2.17   1
   5  -5   2   35.77    2.15   1
  -5  -5  -2   30.09    2.21   1
   5   5   3   26.00    1.59   1
   5   5   3   24.20    1.58   1
  -5   5  -3   24.04    1.71   1
  -5   5  -3   26.34    1.72   1
  -5   5  -3   24.45    1.68   1
   5  -5   3   26.09    1.70   1
   5  -5   3   24.70    1.68   1
   5  -5   3   28.30    1.71   1
   5  -5   3   25.45    1.62   1
  -5  -5  -3   23.69    1.63   1
  -5   5  -4    7.36    0.97   1
   5   5   4    7.97    0.92   1
  -5   5  -4    8.54    1.00   1
   5   5   4    7.98    0.87   1
  -5   5  -4    7.72    0.96   1
   5  -5   4    6.47    0.85   1
   5  -5   4    8.54    0.90   1
   5  -5   4    8.20    0.97   1
   5  -5   4    8.23    0.95   1
  -5   5  -5   35.19    2.35   1
   5   5   5   34.63    2.17   1
  -5   5  -5   32.74    2.24   1
   5  -5   5   34.91    2.22   1
   5  -5   5   31.76    2.21   1
   5  -5   5   31.52    2.13   1
   5  -5   5   34.29    2.17   1
   5   5   6    0.16    0.55   1
  -5   5  -6    0.21    0.46   1
   5   5   6    0.20    0.56   1
  -5   5  -6   -0.65    0.49   1
  -5   5  -6   -0.38    0.59   1
  -5   5  -6    0.22    0.54   1
   5  -5   6   -0.37    0.60   1
   5  -5   6    0.86    0.66   1
   5  -5   6   -0.24    0.41   1
   5  -5   6    0.31    0.54   1
  -5   5  -7   16.68    1.57   1
   5   5   7   12.18    1.55   1
   5   5   7   17.94    1.62   1
  -5   5  -7   16.21    1.70   1
  -5   5  -7   14.48    1.40   1
  -5   5  -7   10.13    1.56   1
   5  -5   7   14.55    1.48   1
   5  -5   7   15.74    1.62   1
  -5   5  -8    2.67    0.99   1
   5   5   8    2.13    0.84   1
   5   5   8    5.06    0.90   1
  -5   5  -8    5.00    1.12   1
   5  -5   8    2.52    0.97   1
   5  -5   8    2.93    0.94   1
   5   5   9    5.30    1.14   1
  -5   5  -9    5.50    1.24   1
   5   5   9    3.73    0.86   1
  -5   5  -9    1.92    0.96   1
   5  -5   9    3.96    0.98   1
   5  -5   9    3.16    1.08   1
   5   5  10    8.58    1.39   1
   5   5  10    4.68    1.00   1
  -5   5 -10    8.07    1.42   1
   5  -5  10    6.22    1.39   1
  -5   6  12    0.43    0.68   1
  -5   6  12    1.00    0.79   1
   5   6 -12    0.11    0.73   1
  -5  -6  12    0.92    0.91   1
   5   6 -11    0.39    0.78   1
   5   6 -11   -0.07    0.77   1
  -5   6  11    1.16    0.80   1
  -5   6  11   -0.03    0.66   1
   5   6 -11   -0.10    0.50   1
  -5  -6  11   -0.72    0.74   1
  -5  -6  11    0.60    1.17   1
   5   6 -10    5.12    0.94   1
   5   6 -10    5.68    1.15   1
   5   6 -10    7.54    1.31   1
  -5   6  10    2.51    0.81   1
  -5   6  10    4.11    1.07   1
   5   6 -10    7.01    1.15   1
  -5  -6  10    5.29    1.12   1
  -5  -6  10    7.42    1.23   1
  -5  -6  10    5.18    0.94   1
   5   6  -9    0.14    0.67   1
   5   6  -9   -0.67    0.44   1
  -5   6   9   -0.26    0.58   1
   5   6  -9   -0.21    0.49   1
   5   6  -9   -0.17    0.58   1
  -5   6   9    0.21    0.51   1
   5  -6  -9   -0.18    0.54   1
  -5  -6   9    0.19    0.73   1
  -5  -6   9    0.85    0.74   1
  -5  -6   9   -0.05    0.55   1
   5   6  -8   38.82    2.80   1
   5   6  -8   44.20    2.57   1
   5   6  -8   31.66    2.67   1
  -5   6   8   46.05    2.55   1
   5   6  -8   39.67    2.49   1
  -5   6   8   39.45    2.61   1
   5  -6  -8   40.20    2.51   1
  -5  -6   8   41.57    2.46   1
  -5  -6   8   38.95    2.77   1
  -5  -6   8   41.63    2.89   1
   5   6  -7   10.24    1.08   1
  -5   6   7    9.06    1.02   1
   5   6  -7    9.01    1.01   1
   5   6  -7   11.99    1.46   1
  -5   6   7    9.25    1.01   1
   5  -6  -7   11.38    1.13   1
  -5  -6   7    8.98    1.26   1
  -5  -6   7   11.37    1.51   1
  -5  -6   7   11.27    0.99   1
   5   6  -6    6.08    0.84   1
   5   6  -6    6.52    0.78   1
   5   6  -6    6.40    1.13   1
  -5   6   6    6.89    0.84   1
   5   6  -6    8.31    0.91   1
  -5   6   6    6.76    0.79   1
  -5  -6   6    7.59    0.74   1
  -5  -6   6    8.88    1.07   1
   5  -6  -6    7.80    0.90   1
  -5  -6   6    7.56    1.27   1
   5   6  -5    0.40    0.36   1
  -5   6   5    0.48    0.38   1
  -5   6   5    0.18    0.36   1
   5   6  -5    0.22    0.39   1
   5   6  -5    0.73    0.35   1
   5   6  -5    0.77    0.63   1
  -5  -6   5    0.17    0.25   1
  -5  -6   5   -0.10    0.63   1
   5  -6  -5   -0.07    0.38   1
  -5  -6   5   -0.80    0.39   1
  -5   6   4    0.04    0.34   1
  -5   6   4    0.45    0.33   1
   5   6  -4   -0.01    0.31   1
   5   6  -4   -0.10    0.32   1
   5   6  -4    0.16    0.64   1
   5   6  -4    0.00    0.27   1
  -5  -6   4   -0.18    0.61   1
   5  -6  -4   -0.33    0.39   1
  -5  -6   4    0.10    0.21   1
   5  -6  -4    0.20    0.37   1
  -5  -6   4    0.29    0.42   1
   5   6  -3   85.80    4.25   1
   5   6  -3   81.22    4.19   1
  -5   6   3   75.99    4.20   1
  -5   6   3   82.73    4.28   1
   5   6  -3   87.15    4.68   1
   5   6  -3   84.76    4.44   1
  -5  -6   3   66.24    4.70   1
  -5  -6   3   83.72    4.14   1
  -5  -6   3   81.20    4.33   1
   5  -6  -3   73.78    4.31   1
   5  -6  -3   83.17    4.37   1
   5   6  -2   12.73    1.48   1
  -5   6   2   18.47    1.17   1
   5   6  -2   17.56    1.13   1
   5   6  -2   18.21    1.09   1
  -5   6   2   20.85    1.25   1
  -5  -6   2   18.13    1.04   1
  -5  -6   2   14.40    1.73   1
   5  -6  -2   15.19    1.24   1
  -5  -6   2   17.66    1.21   1
   5  -6  -2   15.91    1.25   1
  -5   6   1   38.59    2.18   1
   5   6  -1   40.14    2.10   1
   5   6  -1   40.22    2.14   1
   5   6  -1   40.65    2.45   1
  -5   6   1   39.99    2.24   1
   5  -6  -1   37.77    2.35   1
   5  -6  -1   36.28    2.27   1
   5  -6  -1   36.54    2.28   1
  -5  -6   1   38.47    2.20   1
  -5  -6   1   31.05    2.60   1
  -5  -6   1   41.29    2.08   1
   5   6   0    8.79    0.64   1
   5   6   0    8.23    0.68   1
   5   6   0    8.80    0.89   1
  -5   6   0    8.07    0.81   1
  -5   6   0    8.10    0.76   1
  -5  -6   0    5.46    1.07   1
   5  -6   0    8.07    0.86   1
   5  -6   0    6.35    0.81   1
  -5  -6   0    7.39    0.64   1
   5  -6   0    8.64    0.91   1
   5   6   1   -0.02    0.26   1
   5   6   1   -0.13    0.21   1
  -5   6  -1    0.51    0.40   1
  -5   6  -1    0.05    0.30   1
  -5   6  -1   -0.13    0.40   1
   5  -6   1   -0.41    0.32   1
  -5  -6  -1   -0.15    0.51   1
   5  -6   1    0.90    0.44   1
   5  -6   1   -0.23    0.35   1
  -5  -6  -1    0.31    0.21   1
   5   6   2   25.61    1.61   1
   5   6   2   29.15    1.68   1
  -5   6  -2   29.30    1.77   1
  -5   6  -2   28.02    1.79   1
  -5   6  -2   26.09    1.86   1
   5  -6   2   27.48    1.85   1
   5  -6   2   29.04    1.84   1
  -5  -6  -2   29.25    1.94   1
   5  -6   2   26.52    1.79   1
   5   6   3    4.33    0.60   1
  -5   6  -3    4.85    0.73   1
  -5   6  -3    5.49    0.86   1
  -5   6  -3    4.78    0.75   1
   5   6   3    5.15    0.64   1
   5  -6   3    4.49    0.76   1
  -5  -6  -3    5.57    0.73   1
   5  -6   3    5.19    0.77   1
   5  -6   3    4.70    0.73   1
   5   6   4   35.26    2.25   1
  -5   6  -4   31.57    2.30   1
  -5   6  -4   39.83    2.44   1
  -5   6  -4   38.67    2.43   1
   5   6   4   38.22    2.23   1
   5  -6   4   36.00    2.38   1
   5  -6   4   38.48    2.37   1
   5  -6   4   37.21    2.35   1
  -5   6  -5   17.65    1.49   1
   5   6   5   15.83    1.33   1
  -5   6  -5   13.74    1.53   1
   5  -6   5   15.93    1.54   1
   5  -6   5   15.92    1.47   1
   5  -6   5   15.20    1.52   1
  -5   6  -6    1.60    0.64   1
  -5   6  -6    1.07    0.67   1
   5   6   6    1.14    0.62   1
  -5   6  -6    1.49    0.72   1
  -5   6  -6    2.77    0.83   1
   5   6   6    1.44    0.67   1
   5  -6   6    1.81    0.73   1
   5  -6   6    0.46    0.67   1
   5  -6   6    0.96    0.68   1
  -5   6  -7   -0.01    0.71   1
  -5   6  -7   -0.19    0.56   1
   5   6   7    0.90    0.65   1
   5   6   7   -0.42    0.60   1
  -5   6  -7    1.15    0.74   1
  -5   6  -7    0.46    0.61   1
   5  -6   7    0.45    0.68   1
   5  -6   7    0.75    0.68   1
   5  -6   7    0.46    0.76   1
   5   6   8    0.62    0.61   1
   5   6   8    0.20    0.70   1
  -5   6  -8    0.15    0.71   1
  -5   6  -8    0.78    0.81   1
   5  -6   8    1.54    0.93   1
   5  -6   8    0.48    0.76   1
  -5   6  -9   11.77    1.69   1
  -5   6  -9    9.68    1.62   1
   5   6   9   11.89    1.39   1
   5   6   9   12.31    1.55   1
   5  -6   9   12.42    1.70   1
   5   6  10    4.78    1.27   1
   5   6  10    5.55    1.02   1
  -5   6 -10    6.96    1.40   1
   5  -6  10    8.00    1.74   1
  -5   7  11    4.90    1.07   1
   5   7 -11    5.54    1.28   1
  -5   7  11    4.32    1.00   1
   5   7 -11    5.83    1.10   1
   5   7 -11    5.73    1.17   1
  -5  -7  11   10.43    1.43   1
   5   7 -10   17.09    1.83   1
   5   7 -10   17.65    2.00   1
  -5   7  10   15.16    1.74   1
  -5   7  10   14.64    1.56   1
   5   7 -10   16.06    1.78   1
  -5  -7  10   14.61    1.86   1
  -5  -7  10   16.41    1.87   1
   5   7  -9    2.53    0.79   1
  -5   7   9    2.35    0.71   1
   5   7  -9    2.31    0.88   1
  -5   7   9    2.86    0.88   1
   5   7  -9    3.85    0.97   1
   5  -7  -9    2.27    0.79   1
  -5  -7   9    2.60    0.94   1
  -5  -7   9    3.52    0.99   1
   5   7  -8    1.31    0.59   1
   5   7  -8    0.20    0.69   1
  -5   7   8    0.42    0.49   1
   5   7  -8    0.96    0.74   1
  -5   7   8    0.84    0.60   1
   5  -7  -8    0.21    0.54   1
  -5  -7   8    1.23    0.53   1
  -5  -7   8    0.86    0.79   1
  -5  -7   8    0.52    0.81   1
   5   7  -7    0.27    0.63   1
   5   7  -7    1.21    0.70   1
  -5   7   7    1.04    0.47   1
  -5   7   7    0.49    0.50   1
   5  -7  -7    1.29    0.63   1
  -5  -7   7    0.03    0.71   1
  -5  -7   7    0.71    0.68   1
  -5  -7   7    1.45    0.48   1
   5   7  -6   39.66    2.74   1
  -5   7   6   38.58    2.28   1
   5   7  -6   33.56    2.23   1
  -5   7   6   38.03    2.31   1
  -5  -7   6   37.95    2.20   1
  -5  -7   6   42.80    2.89   1
   5  -7  -6   35.53    2.35   1
  -5  -7   6   39.03    2.54   1
  -5   7   5   55.63    2.99   1
   5   7  -5   48.90    2.90   1
   5   7  -5   55.27    3.45   1
   5   7  -5   52.55    3.00   1
  -5   7   5   53.97    2.96   1
  -5  -7   5   56.06    3.58   1
  -5  -7   5   49.73    2.86   1
   5  -7  -5   52.74    3.07   1
  -5  -7   5   51.48    3.15   1
   5   7  -4    0.07    0.27   1
  -5   7   4   -0.07    0.33   1
   5   7  -4   -0.02    0.66   1
   5   7  -4    0.24    0.33   1
  -5   7   4    0.12    0.31   1
   5  -7  -4    0.14    0.46   1
  -5  -7   4    0.19    0.25   1
   5  -7  -4    0.28    0.46   1
  -5  -7   4    0.13    0.44   1
  -5  -7   4    0.62    0.74   1
   5   7  -3   16.88    1.10   1
  -5   7   3   16.41    1.19   1
   5   7  -3   20.05    1.70   1
  -5   7   3   15.45    1.12   1
   5   7  -3   16.54    1.13   1
  -5  -7   3   18.26    1.34   1
  -5  -7   3   16.19    1.07   1
   5  -7  -3   15.09    1.29   1
  -5  -7   3   19.95    1.86   1
   5  -7  -3   16.29    1.30   1
  -5   7   2   13.25    0.95   1
   5   7  -2   14.07    0.92   1
  -5   7   2   14.22    1.01   1
   5   7  -2   10.58    1.37   1
   5   7  -2   10.93    0.85   1
  -5  -7   2   12.83    0.86   1
  -5  -7   2   12.44    1.65   1
   5  -7  -2   11.76    1.14   1
   5  -7  -2   11.29    1.14   1
  -5  -7   2   10.94    1.00   1
   5   7  -1   35.87    2.57   1
   5   7  -1   41.44    2.23   1
   5   7  -1   40.73    2.19   1
  -5   7   1   40.99    2.30   1
  -5   7   1   42.51    2.35   1
  -5  -7   1   42.62    2.23   1
  -5  -7   1   39.22    2.84   1
  -5  -7   1   39.99    2.33   1
   5  -7  -1   37.72    2.42   1
   5  -7  -1   40.73    2.52   1
   5  -7  -1   42.69    2.47   1
   5   7   0   46.78    2.73   1
   5   7   0   44.19    2.43   1
  -5   7   0   45.58    2.60   1
  -5   7   0   44.12    2.54   1
   5   7   0   46.64    2.47   1
  -5   7   0   46.19    2.77   1
  -5  -7   0   45.76    2.54   1
  -5  -7   0   47.22    3.03   1
   5  -7   0   44.98    2.69   1
   5  -7   0   46.93    2.70   1
   5  -7   0   44.10    2.74   1
  -5   7  -1    2.13    0.54   1
   5   7   1    3.06    0.41   1
  -5   7  -1    3.88    0.75   1
   5   7   1    2.83    0.43   1
  -5   7  -1    3.01    0.53   1
   5  -7   1    3.08    0.65   1
   5  -7   1    1.59    0.54   1
   5  -7   1    1.69    0.58   1
  -5  -7  -1    2.74    0.75   1
  -5  -7  -1    2.90    0.44   1
  -5   7  -2   54.93    3.28   1
   5   7   2   54.10    2.97   1
  -5   7  -2   57.90    3.12   1
  -5   7  -2   57.12    3.14   1
   5   7   2   54.05    2.94   1
   5  -7   2   55.81    3.24   1
  -5  -7  -2   57.85    3.27   1
   5  -7   2   51.57    3.14   1
   5  -7   2   51.45    3.19   1
  -5   7  -3   27.16    1.82   1
  -5   7  -3   23.18    1.80   1
  -5   7  -3   25.16    1.75   1
   5   7   3   25.77    1.62   1
   5   7   3   27.22    1.63   1
   5  -7   3   26.93    1.85   1
   5  -7   3   23.19    1.76   1
   5  -7   3   26.87    1.87   1
   5   7   4    9.86    0.95   1
  -5   7  -4    9.43    1.20   1
  -5   7  -4    9.69    1.17   1
  -5   7  -4    9.37    1.14   1
   5   7   4    9.18    0.99   1
   5  -7   4    8.44    1.11   1
   5  -7   4   11.37    1.18   1
   5  -7   4    9.32    1.18   1
   5   7   5    3.24    0.65   1
   5   7   5    2.36    0.64   1
  -5   7  -5    3.43    0.86   1
  -5   7  -5    2.42    0.78   1
  -5   7  -5    1.51    0.73   1
   5  -7   5    1.97    0.75   1
   5  -7   5    3.04    0.76   1
   5  -7   5    3.78    0.85   1
   5   7   6    9.45    1.15   1
  -5   7  -6    8.93    1.33   1
  -5   7  -6    8.29    1.26   1
   5   7   6   12.00    1.24   1
  -5   7  -6    7.98    1.23   1
  -5   7  -6    8.65    1.25   1
   5  -7   6   10.27    1.35   1
   5  -7   6    9.02    1.17   1
   5  -7   6   10.59    1.38   1
   5   7   7   30.73    2.14   1
  -5   7  -7   29.42    2.27   1
  -5   7  -7   34.61    2.34   1
  -5   7  -7   27.62    2.43   1
   5   7   7   28.19    2.15   1
  -5   7  -7   27.22    2.28   1
   5  -7   7   29.31    2.20   1
   5  -7   7   22.06    2.17   1
   5  -7   7   30.84    2.39   1
  -5   7  -8    2.78    1.04   1
  -5   7  -8    2.66    1.02   1
  -5   7  -8    5.93    1.13   1
   5   7   8    3.05    0.94   1
   5   7   8    5.06    0.93   1
   5  -7   8    3.18    0.90   1
   5  -7   8    2.97    1.09   1
   5   7   9    0.81    0.63   1
  -5   7  -9   -0.07    0.89   1
   5   7   9   -1.05    0.71   1
   5  -7   9   -2.47    0.89   1
  -5   8  11    3.56    0.98   1
   5   8 -11    2.57    0.90   1
   5   8 -11    3.04    1.05   1
  -5   8  11    3.68    1.09   1
  -5  -8  11    3.55    1.32   1
  -5   8  10    0.15    0.64   1
   5   8 -10   -0.30    0.65   1
   5   8 -10   -1.31    0.72   1
   5   8 -10    1.54    0.83   1
  -5   8  10    0.31    0.69   1
  -5  -8  10   -0.76    0.68   1
  -5  -8  10    0.80    0.87   1
   5   8  -9    4.74    1.01   1
  -5   8   9    3.98    0.94   1
   5   8  -9    6.06    1.08   1
  -5   8   9    3.78    0.80   1
   5   8  -9    4.23    1.10   1
  -5  -8   9    5.59    1.21   1
   5  -8  -9    4.37    0.99   1
  -5  -8   9    4.46    1.18   1
   5   8  -8   17.39    2.00   1
  -5   8   8   17.70    1.46   1
   5   8  -8   19.40    1.61   1
   5   8  -8   20.04    1.72   1
  -5   8   8   17.54    1.62   1
  -5  -8   8   16.72    1.87   1
   5  -8  -8   19.60    1.79   1
  -5  -8   8   18.76    2.07   1
   5   8  -7   10.15    1.35   1
   5   8  -7   13.78    1.73   1
  -5   8   7   12.73    1.26   1
  -5   8   7   13.37    1.14   1
  -5  -8   7   11.12    1.44   1
   5  -8  -7   10.82    1.28   1
  -5  -8   7   12.50    1.71   1
  -5   8   6    1.80    0.52   1
   5   8  -6    1.93    0.53   1
  -5   8   6    1.06    0.46   1
   5   8  -6    0.44    0.76   1
   5   8  -6    1.85    0.68   1
   5  -8  -6    1.67    0.64   1
  -5  -8   6   -0.26    0.78   1
  -5  -8   6    1.46    0.70   1
  -5   8   5    3.99    0.63   1
   5   8  -5    4.12    1.07   1
  -5   8   5    4.66    0.69   1
   5   8  -5    3.66    0.60   1
  -5  -8   5    5.26    0.90   1
  -5  -8   5    6.53    1.25   1
   5  -8  -5    4.96    0.82   1
   5   8  -4   31.99    1.94   1
   5   8  -4   32.99    2.52   1
   5   8  -4   29.83    1.86   1
  -5   8   4   30.12    1.92   1
  -5   8   4   32.26    1.91   1
  -5  -8   4   35.46    2.18   1
   5  -8  -4   31.82    2.15   1
   5  -8  -4   29.89    2.09   1
  -5  -8   4   34.65    2.67   1
   5   8  -3   42.38    2.80   1
  -5   8   3   36.40    2.15   1
  -5   8   3   35.51    2.17   1
   5   8  -3   37.21    2.10   1
   5   8  -3   37.95    2.14   1
  -5  -8   3   37.72    2.88   1
   5  -8  -3   38.83    2.43   1
  -5  -8   3   37.75    2.35   1
   5  -8  -3   35.34    2.34   1
  -5   8   2    7.80    0.79   1
   5   8  -2    9.34    0.70   1
  -5   8   2    8.32    0.83   1
   5   8  -2    6.14    1.17   1
   5   8  -2    8.28    0.70   1
   5  -8  -2    9.56    1.02   1
  -5  -8   2    6.18    1.28   1
  -5  -8   2    8.17    0.95   1
   5  -8  -2    9.31    1.03   1
   5   8  -1    2.73    0.41   1
  -5   8   1    3.77    0.55   1
   5   8  -1    2.72    0.78   1
   5   8  -1    2.43    0.38   1
  -5   8   1    3.09    0.52   1
   5  -8  -1    2.14    0.62   1
  -5  -8   1    3.13    0.59   1
   5  -8  -1    3.86    0.77   1
  -5  -8   1    3.46    0.97   1
   5  -8  -1    2.74    0.68   1
   5   8   0   35.18    1.85   1
  -5   8   0   35.42    2.00   1
  -5   8   0   33.08    2.22   1
  -5   8   0   33.52    2.04   1
   5   8   0   33.34    1.84   1
   5  -8   0   31.19    2.15   1
  -5  -8   0   32.95    2.00   1
   5  -8   0   31.65    2.21   1
   5  -8   0   28.22    2.09   1
  -5  -8   0   35.54    2.52   1
   5   8   1   40.63    2.18   1
  -5   8  -1   38.19    2.32   1
  -5   8  -1   42.22    2.61   1
   5   8   1   37.42    2.17   1
  -5   8  -1   42.56    2.41   1
   5  -8   1   40.93    2.57   1
   5  -8   1   41.71    2.50   1
  -5  -8  -1   40.44    2.66   1
   5  -8   1   36.34    2.49   1
  -5   8  -2   13.22    1.17   1
   5   8   2   13.10    0.95   1
  -5   8  -2   10.46    1.34   1
  -5   8  -2   14.68    1.16   1
   5   8   2   12.75    0.94   1
   5  -8   2   14.27    1.41   1
  -5  -8  -2   16.30    1.35   1
   5  -8   2   14.17    1.39   1
   5  -8   2   12.31    1.26   1
   5   8   3    0.02    0.31   1
  -5   8  -3    0.21    0.47   1
  -5   8  -3    0.13    0.48   1
   5   8   3    0.25    0.34   1
  -5   8  -3    0.32    0.58   1
   5  -8   3    0.54    0.60   1
   5  -8   3    0.97    0.59   1
   5  -8   3    0.05    0.51   1
   5   8   4   16.34    1.19   1
  -5   8  -4   16.86    1.70   1
  -5   8  -4   12.62    1.37   1
  -5   8  -4   17.01    1.60   1
   5   8   4   15.96    1.26   1
   5  -8   4   16.42    1.52   1
   5  -8   4   13.66    1.51   1
   5  -8   4   17.91    1.69   1
  -5   8  -5   17.68    1.91   1
  -5   8  -5   24.33    1.99   1
   5   8   5   24.40    1.64   1
   5   8   5   19.71    1.68   1
  -5   8  -5   26.14    1.97   1
   5  -8   5   26.92    1.88   1
   5  -8   5   27.14    2.12   1
   5  -8   5   25.86    1.98   1
  -5   8  -6   11.28    1.43   1
   5   8   6    5.48    0.96   1
  -5   8  -6    9.62    1.32   1
  -5   8  -6    7.19    1.22   1
  -5   8  -6    6.47    1.19   1
   5   8   6    9.76    1.09   1
   5  -8   6    8.38    1.33   1
   5  -8   6    9.00    1.38   1
   5  -8   6    8.92    1.17   1
   5   8   7   -0.39    0.53   1
  -5   8  -7   -0.32    0.58   1
   5   8   7   -0.49    0.53   1
  -5   8  -7    1.54    0.79   1
  -5   8  -7    0.24    0.72   1
  -5   8  -7    0.83    0.85   1
   5  -8   7    0.29    0.67   1
   5  -8   7    0.35    0.83   1
   5  -8   7   -0.42    0.75   1
  -5   8  -8    3.30    1.03   1
   5   8   8    2.82    0.80   1
  -5   8  -8    2.28    1.01   1
   5   8   8    3.37    0.85   1
  -5   8  -8    3.39    1.43   1
   5  -8   8    1.80    1.04   1
   5   9 -10    1.65    0.80   1
   5   9 -10    1.89    0.80   1
  -5   9  10    0.75    0.71   1
  -5   9  10    1.23    0.78   1
  -5  -9  10    0.19    0.96   1
  -5  -9  10    1.27    1.12   1
  -5   9   9    5.93    1.08   1
   5   9  -9    6.30    1.30   1
  -5   9   9    4.91    0.88   1
   5   9  -9    6.03    1.07   1
   5   9  -9    7.52    1.18   1
  -5  -9   9    5.42    1.27   1
   5  -9  -9    5.99    1.14   1
  -5  -9   9    6.30    1.40   1
   5   9  -8    1.97    0.69   1
   5   9  -8    0.43    0.60   1
   5   9  -8    0.09    0.79   1
  -5   9   8   -0.05    0.49   1
  -5   9   8    0.31    0.63   1
  -5  -9   8    0.74    0.92   1
   5  -9  -8    0.18    0.65   1
  -5  -9   8    1.55    0.94   1
  -5   9   7    6.48    0.98   1
   5   9  -7    7.98    1.41   1
  -5   9   7    6.24    0.86   1
   5   9  -7    5.65    0.90   1
   5   9  -7    8.28    1.10   1
  -5  -9   7    6.19    1.18   1
   5  -9  -7    6.42    1.06   1
  -5  -9   7    8.68    1.49   1
   5   9  -6    4.15    0.84   1
   5   9  -6    6.11    1.27   1
  -5   9   6    5.41    0.81   1
  -5   9   6    4.81    0.73   1
   5   9  -6    6.40    0.84   1
  -5  -9   6    5.52    1.31   1
  -5  -9   6    7.55    1.15   1
   5  -9  -6    4.90    0.94   1
   5   9  -5    1.06    0.59   1
   5   9  -5    1.94    0.50   1
  -5   9   5    2.75    0.57   1
   5   9  -5    5.01    1.23   1
  -5   9   5    1.81    0.50   1
  -5  -9   5    1.37    0.70   1
  -5  -9   5    2.99    1.05   1
   5  -9  -5    2.27    0.69   1
  -5   9   4    7.96    0.83   1
   5   9  -4   10.40    1.52   1
   5   9  -4    5.88    0.70   1
  -5   9   4    5.40    0.71   1
   5  -9  -4    7.26    1.04   1
  -5  -9   4    6.70    1.01   1
  -5  -9   4    7.38    1.46   1
   5  -9  -4    8.14    1.10   1
   5   9  -3   -0.14    0.27   1
   5   9  -3    0.20    0.32   1
  -5   9   3    0.21    0.34   1
  -5   9   3   -0.20    0.31   1
   5   9  -3    1.57    0.91   1
   5  -9  -3   -0.33    0.51   1
  -5  -9   3    0.11    0.49   1
   5  -9  -3   -0.12    0.54   1
  -5  -9   3   -2.06    0.57   1
   5   9  -2   21.44    2.09   1
  -5   9   2   27.04    1.65   1
  -5   9   2   26.23    1.66   1
   5   9  -2   28.23    1.56   1
  -5  -9   2   26.88    1.86   1
   5  -9  -2   23.96    1.87   1
   5  -9  -2   25.22    1.87   1
  -5  -9   2   26.65    2.38   1
  -5   9   1   17.40    1.27   1
   5   9  -1   16.56    1.79   1
  -5   9   1   17.40    1.28   1
   5   9  -1   18.74    1.13   1
   5  -9  -1   18.08    1.54   1
   5  -9  -1   16.12    1.57   1
  -5  -9   1   18.76    1.37   1
  -5  -9   1   18.82    2.00   1
   5   9   0   -0.16    0.23   1
  -5   9   0   -0.24    0.50   1
  -5   9   0    0.07    0.35   1
  -5   9   0   -0.41    0.36   1
   5  -9   0    0.17    0.57   1
  -5  -9   0    0.30    0.68   1
   5  -9   0   -0.54    0.48   1
  -5  -9   0   -0.17    0.38   1
   5  -9   0   -0.59    0.53   1
  -5   9  -1    0.66    0.59   1
   5   9   1   -0.05    0.25   1
  -5   9  -1    0.67    0.44   1
  -5   9  -1    0.01    0.34   1
   5  -9   1    0.37    0.59   1
  -5  -9  -1   -0.44    0.57   1
   5  -9   1    0.45    0.59   1
   5  -9   1   -0.02    0.52   1
  -5   9  -2    1.82    0.56   1
   5   9   2    1.89    0.40   1
  -5   9  -2    1.85    0.55   1
  -5   9  -2    1.07    0.67   1
   5  -9   2    1.15    0.61   1
   5  -9   2    1.16    0.64   1
  -5  -9  -2    1.66    0.63   1
   5  -9   2    1.38    0.68   1
  -5   9  -3   17.02    1.69   1
  -5   9  -3   14.23    1.41   1
  -5   9  -3   16.52    1.35   1
   5   9   3   14.74    1.12   1
   5  -9   3   14.77    1.47   1
   5  -9   3   15.02    1.58   1
   5  -9   3   18.19    1.70   1
  -5   9  -4    6.38    0.95   1
  -5   9  -4    7.15    1.13   1
  -5   9  -4    6.67    1.05   1
   5   9   4    5.14    0.75   1
   5  -9   4    6.57    1.19   1
   5  -9   4    6.11    1.08   1
   5  -9   4    6.90    1.00   1
   5   9   5    0.81    0.53   1
  -5   9  -5    2.80    0.87   1
  -5   9  -5    1.49    0.85   1
  -5   9  -5    1.23    0.76   1
  -5   9  -5    0.96    0.69   1
   5  -9   5    2.39    0.85   1
   5  -9   5    1.70    0.75   1
   5  -9   5    1.78    0.86   1
   5   9   6    1.84    0.67   1
  -5   9  -6    1.56    0.82   1
  -5   9  -6    1.27    0.79   1
  -5   9  -6    1.86    0.85   1
  -5   9  -6    2.64    0.86   1
   5  -9   6    2.34    0.76   1
   5  -9   6    1.60    0.98   1
   5  -9   6    1.95    0.97   1
  -5   9  -7    1.55    0.83   1
  -5   9  -7    0.98    0.89   1
  -5   9  -7    0.46    0.73   1
   5   9   7    0.22    0.62   1
  -5   9  -7    1.30    0.98   1
   5  -9   7    1.87    0.92   1
   5  -9   7    1.39    0.93   1
   5  10  -9    3.13    0.98   1
  -5  10   9    0.30    0.61   1
   5  10  -9    1.43    0.82   1
  -5 -10   9    2.36    1.11   1
   5 -10  -9    2.67    1.07   1
  -5 -10   9    0.66    1.13   1
   5  10  -8    6.07    1.05   1
   5  10  -8    3.66    0.87   1
  -5  10   8    4.39    0.80   1
   5  10  -8    5.72    1.27   1
   5 -10  -8    5.08    1.12   1
  -5 -10   8    3.68    1.24   1
  -5 -10   8    4.15    1.18   1
   5  10  -7    0.73    0.55   1
   5  10  -7    0.02    0.51   1
   5  10  -7    0.24    0.79   1
  -5  10   7   -0.05    0.43   1
  -5 -10   7   -0.84    0.76   1
  -5 -10   7   -0.39    0.71   1
   5 -10  -7   -0.61    0.64   1
   5  10  -6    7.73    0.96   1
  -5  10   6    5.69    0.78   1
   5  10  -6    6.60    0.89   1
   5  10  -6    6.09    1.33   1
  -5 -10   6    4.59    1.34   1
   5 -10  -6    5.16    1.01   1
  -5 -10   6    7.65    1.25   1
   5  10  -5    4.58    1.21   1
  -5  10   5    2.13    0.54   1
   5  10  -5    3.21    0.63   1
  -5 -10   5    4.45    1.25   1
   5 -10  -5    2.00    0.79   1
  -5 -10   5    2.36    0.82   1
   5  10  -4    8.13    0.84   1
   5  10  -4    9.18    1.47   1
  -5  10   4    7.73    0.85   1
   5 -10  -4    8.13    1.19   1
  -5 -10   4    8.22    1.59   1
  -5 -10   4   10.06    1.23   1
   5 -10  -4    9.31    1.20   1
  -5  10   3    5.42    0.68   1
   5  10  -3    4.61    0.60   1
   5  10  -3    7.58    1.42   1
  -5 -10   3    6.62    1.40   1
   5 -10  -3    3.45    0.91   1
   5 -10  -3    6.05    1.00   1
  -5 -10   3    5.70    0.93   1
   5  10  -2    1.10    0.86   1
  -5  10   2    1.18    0.45   1
   5  10  -2    1.10    0.35   1
  -5  10   2    1.13    0.48   1
   5 -10  -2    0.87    0.69   1
  -5 -10   2    0.80    0.85   1
   5 -10  -2    0.22    0.63   1
  -5 -10   2    1.68    0.61   1
  -5  10   1    7.46    1.13   1
  -5  10   1    8.66    0.87   1
  -5  10   1    6.60    0.81   1
   5  10  -1    8.11    0.69   1
   5 -10  -1    8.10    1.10   1
   5 -10  -1    7.48    1.11   1
  -5 -10   1    7.43    0.96   1
  -5 -10   1    9.00    1.49   1
  -5  10   0    1.60    0.49   1
  -5  10   0    0.69    0.44   1
   5  10   0    1.07    0.32   1
  -5  10   0    0.42    0.62   1
   5 -10   0    1.59    0.80   1
  -5 -10   0    0.87    0.81   1
   5 -10   0    0.30    0.64   1
   5 -10   0    1.63    0.72   1
   5  10   1   11.40    0.83   1
  -5  10  -1   10.80    1.09   1
  -5  10  -1   10.67    1.06   1
  -5  10  -1   10.22    1.34   1
   5 -10   1   10.58    1.25   1
   5 -10   1   14.42    1.50   1
   5 -10   1   11.70    1.42   1
  -5 -10  -1   11.12    1.43   1
  -5  10  -2    1.70    0.56   1
   5  10   2    2.35    0.43   1
  -5  10  -2    3.21    0.84   1
  -5  10  -2    2.53    0.63   1
   5 -10   2    2.22    0.81   1
   5 -10   2    3.29    0.84   1
   5 -10   2    2.56    0.88   1
  -5  10  -3    3.94    0.96   1
  -5  10  -3    2.64    0.68   1
   5  10   3    3.55    0.54   1
  -5  10  -3    2.13    0.67   1
   5 -10   3    3.38    0.90   1
   5 -10   3    2.03    0.77   1
   5 -10   3    2.24    0.85   1
   5  10   4    4.91    0.72   1
  -5  10  -4    3.88    0.89   1
  -5  10  -4    5.25    0.90   1
  -5  10  -4    4.68    1.03   1
   5 -10   4    5.93    1.05   1
   5 -10   4    4.44    1.07   1
   5 -10   4    6.74    1.20   1
  -5  10  -5    0.28    0.65   1
  -5  10  -5   -0.25    0.69   1
   5  10   5   -0.26    0.45   1
  -5  10  -5   -0.41    0.56   1
  -5  10  -5    1.54    0.83   1
   5 -10   5   -0.17    0.83   1
   5 -10   5   -0.47    0.62   1
   5 -10   5    0.56    0.81   1
  -5  10  -6    6.22    1.18   1
   5  10   6    5.77    0.94   1
  -5  10  -6    6.31    1.15   1
  -5  10  -6    8.55    1.52   1
   5 -10   6    7.72    1.42   1
   5 -10   6    6.51    1.33   1
  -5  11   7    4.93    0.79   1
   5  11  -7    3.82    0.88   1
   5 -11  -7    6.19    1.24   1
  -5 -11   7    4.20    1.18   1
  -5 -11   7    4.92    1.40   1
   5  11  -6    4.35    1.19   1
  -5  11   6    4.43    0.71   1
   5  11  -6    4.08    0.77   1
  -5 -11   6    5.46    1.10   1
   5 -11  -6    5.64    1.10   1
  -5 -11   6    3.81    1.28   1
   5  11  -5   23.21    2.58   1
  -5  11   5   24.37    1.66   1
   5 -11  -5   20.32    2.06   1
  -5 -11   5   27.81    2.15   1
  -5 -11   5   26.55    2.82   1
   5  11  -4    2.13    0.51   1
  -5  11   4    1.67    0.50   1
   5  11  -4    2.53    1.13   1
   5 -11  -4    1.75    0.89   1
   5 -11  -4    1.67    0.77   1
  -5 -11   4    3.47    1.38   1
  -5 -11   4    2.42    0.85   1
   5  11  -3   10.08    1.65   1
   5  11  -3    8.72    0.84   1
  -5  11   3    8.54    0.90   1
   5 -11  -3    8.07    1.25   1
  -5 -11   3    9.55    1.20   1
   5 -11  -3   10.46    1.33   1
  -5 -11   3   10.15    1.73   1
  -5  11   2    0.38    0.42   1
  -5  11   2    2.46    0.82   1
   5  11  -2    0.67    0.34   1
  -5 -11   2    1.24    0.60   1
  -5 -11   2    0.69    0.91   1
   5 -11  -2    1.38    0.72   1
   5 -11  -2    0.56    0.73   1
  -5  11   1    5.43    1.04   1
   5  11  -1    4.99    0.55   1
  -5  11   1    4.65    0.71   1
   5 -11  -1    4.95    1.04   1
  -5 -11   1    5.29    1.27   1
   5 -11  -1    7.03    1.08   1
   5  11   0   22.74    1.42   1
  -5  11   0   25.71    2.04   1
  -5  11   0   24.21    1.64   1
   5 -11   0   25.13    2.05   1
   5 -11   0   27.56    2.03   1
  -5 -11   0   22.94    2.12   1
   5  11   1    3.61    0.49   1
  -5  11  -1    5.04    0.74   1
  -5  11  -1    5.24    1.02   1
  -5 -11  -1    4.37    1.07   1
   5 -11   1    4.59    1.04   1
   5 -11   1    3.52    0.91   1
   5 -11   1    4.18    1.04   1
   5  11   2   23.27    1.45   1
  -5  11  -2   25.14    1.73   1
  -5  11  -2   23.47    2.00   1
   5 -11   2   25.36    2.11   1
   5 -11   2   22.51    2.21   1
   5  11   3    0.05    0.33   1
  -5  11  -3   -1.03    0.42   1
  -5  11  -3    1.36    0.72   1
  -5  11  -3    0.11    0.47   1
   5 -11   3   -1.58    0.64   1
   5 -11   3    0.50    0.83   1
   5 -11   3    0.03    0.67   1
  -5  11  -4    0.93    0.58   1
  -5  11  -4   -0.31    0.62   1
  -5  11  -4    0.33    0.58   1
   5  11   4    0.34    0.39   1
  -5  11  -4    0.32    0.72   1
   5 -11   4    0.64    0.83   1
   5 -11   4    0.03    0.64   1
   5 -11   4    0.27    0.81   1
  -5  11  -5    8.22    1.20   1
   5  11   5    9.40    1.04   1
  -5  11  -5    8.20    1.28   1
   5 -11   5    7.51    1.59   1
   5 -11   5   10.16    1.54   1
   5  12  -6    3.02    0.85   1
  -5  12   6    2.02    0.67   1
  -5 -12   6    5.06    1.63   1
  -5 -12   6    2.94    1.04   1
   5 -12  -6    2.10    1.10   1
  -5  12   5   -0.71    0.42   1
   5  12  -5    0.18    0.51   1
  -5 -12   5   -0.31    0.63   1
  -5 -12   5    1.10    1.19   1
   5 -12  -5    0.51    0.89   1
   5  12  -4    1.43    1.01   1
  -5  12   4    0.38    0.43   1
  -5 -12   4    0.54    1.05   1
   5 -12  -4    1.85    0.82   1
  -5 -12   4    0.61    0.67   1
   5  12  -3   39.79    2.32   1
  -5  12   3   41.30    2.40   1
  -5 -12   3   38.98    3.32   1
   5 -12  -3   41.88    2.81   1
  -5 -12   3   38.32    2.77   1
   5 -12  -3   41.59    2.93   1
   5  12  -2    8.11    0.77   1
  -5  12   2    8.44    1.30   1
  -5  12   2    8.74    0.91   1
   5 -12  -2   10.53    1.35   1
   5 -12  -2    7.45    1.31   1
  -5 -12   2   10.69    1.87   1
  -5 -12   2   10.94    1.83   1
   5  12  -1   17.88    1.14   1
  -5  12   1   17.88    1.85   1
  -5  12   1   18.46    1.37   1
   5 -12  -1   16.41    1.71   1
   5 -12  -1   18.36    1.91   1
  -5 -12   1   17.11    2.06   1
  -5  12   0    5.24    0.78   1
   5  12   0    5.45    0.55   1
  -5  12   0    6.64    1.16   1
   5 -12   0    6.79    1.10   1
  -5 -12   0    4.76    1.21   1
   5 -12   0    7.59    1.28   1
   5  12   1   -0.40    0.23   1
  -5  12  -1    0.97    0.49   1
  -5  12  -1   -0.23    0.61   1
   5 -12   1   -0.23    0.79   1
   5 -12   1    0.03    0.63   1
   5 -12   1   -0.14    0.73   1
  -5  12  -2   12.24    1.27   1
   5  12   2   14.36    0.98   1
   5 -12   2   13.61    1.74   1
   5 -12   2   13.68    1.73   1
   5 -12   2   14.98    1.59   1
  -5  12  -3    4.40    0.86   1
   5  12   3    2.92    0.52   1
   5 -12   3    1.35    0.77   1
   5 -12   3    3.40    1.20   1
   5 -12   3    2.43    1.11   1
   6   0 -13   10.35    1.50   1
   6   0 -13   10.52    1.48   1
  -6   0  13   10.58    1.51   1
  -6   0  13    8.75    1.33   1
  -6   0  12   43.98    3.03   1
   6   0 -12   43.32    3.10   1
   6   0 -12   42.01    3.02   1
  -6   0  12   46.85    3.18   1
  -6   0  11    3.24    0.93   1
   6   0 -11    4.67    1.00   1
   6   0 -11    4.98    1.10   1
  -6   0  11    3.50    1.02   1
   6   0 -10   26.75    2.35   1
   6   0 -10   35.38    2.41   1
  -6   0  10   24.98    2.28   1
  -6   0  10   33.73    2.29   1
   6   0  -9    0.63    0.64   1
  -6   0   9    0.61    0.59   1
  -6   0   9    0.49    0.54   1
  -6   0   9   -0.02    0.47   1
  -6   0   8   31.82    2.11   1
  -6   0   8   35.02    2.15   1
   6   0  -8   30.25    2.05   1
   6   0  -8   28.28    2.24   1
   6   0  -7  135.35    6.96   1
  -6   0   7  133.70    6.86   1
  -6   0   7  135.19    6.97   1
   6   0  -7  125.78    7.12   1
  -6   0   7  132.06    6.97   1
   6   0  -6   19.57    1.28   1
   6   0  -6   19.77    1.11   1
  -6   0   6   20.89    1.49   1
  -6   0   6   20.34    1.30   1
  -6   0   6   19.18    1.41   1
   6   0  -6   18.45    1.38   1
   6   0  -6   19.89    1.60   1
   6   0  -5  224.34   11.81   1
   6   0  -5  239.77   11.74   1
   6   0  -5  242.70   11.98   1
  -6   0   5  247.44   11.92   1
  -6   0   5  228.03   11.81   1
   6   0  -5  225.74   11.57   1
  -6   0   5  237.43   11.73   1
   6   0  -4   21.98    1.22   1
  -6   0   4   23.07    1.55   1
   6   0  -4   21.71    1.51   1
   6   0  -4   22.09    1.34   1
  -6   0   4   21.85    1.41   1
   6   0  -4   20.77    1.39   1
  -6   0   4   20.73    1.31   1
   6   0  -3   15.20    1.17   1
  -6   0   3   15.75    1.09   1
   6   0  -3   16.08    1.05   1
   6   0  -3   17.68    0.99   1
  -6   0   3   16.70    1.27   1
   6   0  -3   16.80    1.16   1
  -6   0   3   16.47    1.04   1
   6   0  -2  103.75    5.57   1
  -6   0   2  106.35    5.57   1
   6   0  -2  110.36    5.52   1
   6   0  -2  112.71    5.47   1
   6   0  -2  107.08    5.59   1
  -6   0   2  109.17    5.50   1
  -6   0   1   57.57    3.19   1
   6   0  -1   59.62    2.98   1
   6   0  -1   61.87    3.15   1
   6   0  -1   56.48    3.20   1
  -6   0   1   58.84    3.12   1
   6   0  -1   61.29    3.18   1
   6   0  -1   62.43    3.13   1
  -6   0   1   58.06    3.02   1
  -6   0   0  516.82   25.48   1
   6   0   0  533.93   25.60   1
   6   0   0  526.70   25.45   1
  -6   0   0  513.31   25.64   1
   6   0   0  508.10   25.66   1
   6   0   1   10.20    0.88   1
  -6   0  -1   10.59    0.76   1
  -6   0  -1    9.92    0.70   1
   6   0   1   10.53    0.68   1
  -6   0  -1    9.66    0.85   1
   6   0   1   11.32    0.82   1
   6   0   2   43.11    2.37   1
  -6   0  -2   45.67    2.54   1
  -6   0  -2   44.09    2.41   1
   6   0   2   43.41    2.46   1
   6   0   2   47.41    2.58   1
  -6   0  -2   43.32    2.43   1
  -6   0  -3   12.31    0.91   1
  -6   0  -3   11.03    0.98   1
   6   0   3   11.55    0.93   1
   6   0   3    9.31    1.02   1
   6   0   3   12.93    0.88   1
   6   0   4   17.72    1.23   1
  -6   0  -4   15.68    1.18   1
  -6   0  -4   16.02    1.27   1
   6   0   4   17.10    1.20   1
   6   0   4   13.39    1.24   1
   6   0   5  172.43    9.09   1
  -6   0  -5  179.41    9.22   1
   6   0   5  185.36    9.16   1
  -6   0  -5  170.85    9.06   1
   6   0   5  178.21    9.27   1
  -6   0  -6    1.26    0.55   1
   6   0   6    0.76    0.64   1
   6   0   6    1.12    0.53   1
  -6   0  -6    0.96    0.61   1
   6   0   6    1.07    0.58   1
  -6   0  -7   49.15    2.79   1
   6   0   7   50.12    2.91   1
  -6   0  -7   37.00    2.87   1
   6   0   7   40.74    3.03   1
   6   0   8   -0.06    0.74   1
  -6   0  -8    2.28    0.72   1
   6   0   8    2.36    0.93   1
  -6   0  -8    2.80    0.84   1
   6   0   9    1.54    0.86   1
  -6   0  -9    0.87    0.74   1
   6   0   9    0.98    0.73   1
  -6   0  -9    1.01    0.64   1
   6   0  10   18.17    1.85   1
  -6   0 -10   19.07    1.90   1
   6   0  10   22.67    2.30   1
  -6   1  13    2.92    1.05   1
  -6   1  13    7.14    1.25   1
   6   1 -13    6.79    1.22   1
   6   1 -13    6.43    1.24   1
  -6  -1  13    6.42    1.20   1
  -6  -1  13    4.82    1.10   1
  -6  -1  13    4.39    1.02   1
   6  -1 -13    3.53    0.95   1
  -6   1  12    0.72    0.81   1
   6   1 -12    0.91    0.77   1
  -6   1  12   -0.24    0.74   1
   6   1 -12    0.59    0.70   1
   6  -1 -12   -0.32    0.63   1
  -6  -1  12    0.21    0.71   1
  -6  -1  12   -0.19    0.66   1
   6  -1 -12    0.72    0.76   1
  -6  -1  12   -1.55    0.62   1
   6   1 -11   -0.45    0.59   1
   6   1 -11    0.23    0.72   1
  -6   1  11    0.74    0.75   1
  -6   1  11    0.49    0.77   1
  -6  -1  11    0.07    0.67   1
  -6  -1  11   -1.17    0.55   1
   6  -1 -11    0.26    0.63   1
   6  -1 -11   -0.10    0.68   1
   6   1 -10   46.06    3.21   1
   6   1 -10   52.70    3.06   1
  -6   1  10   43.14    3.15   1
  -6   1  10   43.67    3.01   1
   6   1 -10   57.17    3.27   1
   6  -1 -10   35.43    3.01   1
  -6  -1  10   45.34    2.99   1
   6  -1 -10   51.67    3.16   1
  -6  -1  10   41.57    3.08   1
   6   1  -9   15.87    1.53   1
   6   1  -9   19.32    1.54   1
  -6   1   9   15.47    1.66   1
  -6  -1   9   19.95    1.71   1
  -6  -1   9   16.05    1.54   1
  -6  -1   9   18.14    1.58   1
   6  -1  -9   21.76    1.75   1
   6   1  -8   54.41    3.27   1
   6   1  -8   55.81    3.47   1
  -6   1   8   57.90    3.22   1
   6   1  -8   50.46    3.22   1
  -6   1   8   53.78    3.29   1
  -6   1   8   53.47    3.16   1
   6   1  -8   53.95    3.16   1
   6  -1  -8   54.39    3.44   1
  -6  -1   8   65.50    3.42   1
  -6  -1   8   53.99    3.31   1
   6  -1  -8   55.31    3.26   1
  -6  -1   8   56.38    3.34   1
   6   1  -7   20.71    1.49   1
  -6   1   7   21.79    1.55   1
  -6   1   7   24.36    1.48   1
  -6   1   7   18.49    1.49   1
   6   1  -7   19.50    1.38   1
   6   1  -7   19.29    1.70   1
   6   1  -7   20.47    1.51   1
  -6  -1   7   20.00    1.53   1
   6  -1  -7   21.04    1.50   1
   6  -1  -7   20.34    1.69   1
   6  -1  -7   20.57    1.24   1
  -6  -1   7   20.80    1.61   1
  -6  -1   7   20.93    1.58   1
  -6   1   6    2.11    0.54   1
  -6   1   6    2.81    0.50   1
   6   1  -6    2.07    0.69   1
  -6   1   6    3.02    0.62   1
   6   1  -6    2.17    0.52   1
   6   1  -6    2.43    0.47   1
   6  -1  -6    2.06    0.49   1
  -6  -1   6    2.40    0.64   1
  -6  -1   6    3.51    0.68   1
  -6  -1   6    2.13    0.53   1
   6  -1  -6    2.67    0.64   1
   6  -1  -6    2.72    0.63   1
   6  -1  -6    2.23    0.35   1
  -6  -1   6    2.89    0.59   1
   6   1  -5   69.46    3.86   1
   6   1  -5   70.90    3.57   1
  -6   1   5   73.42    3.94   1
   6   1  -5   73.64    3.79   1
  -6   1   5   73.51    3.88   1
  -6   1   5   69.52    3.77   1
   6   1  -5   73.12    4.04   1
  -6  -1   5   67.36    3.74   1
   6  -1  -5   70.97    3.84   1
  -6  -1   5   69.82    3.96   1
   6  -1  -5   74.44    4.01   1
   6  -1  -5   72.24    3.67   1
   6  -1  -5   72.90    3.76   1
  -6  -1   5   68.52    3.85   1
  -6   1   4   25.40    1.49   1
   6   1  -4   26.17    1.33   1
  -6   1   4   23.11    1.56   1
   6   1  -4   20.97    1.62   1
   6   1  -4   24.08    1.57   1
   6   1  -4   26.93    1.52   1
   6  -1  -4   24.85    1.41   1
  -6  -1   4   24.56    1.55   1
  -6  -1   4   23.59    1.68   1
  -6  -1   4   26.55    1.46   1
   6  -1  -4   25.08    1.46   1
   6  -1  -4   24.68    1.64   1
   6  -1  -4   24.04    1.56   1
   6   1  -3  260.35   13.02   1
   6   1  -3  260.95   12.78   1
  -6   1   3  258.71   12.90   1
   6   1  -3  264.70   12.91   1
  -6   1   3  252.82   12.97   1
   6   1  -3  266.58   12.99   1
  -6  -1   3  263.75   12.87   1
   6  -1  -3  264.09   12.99   1
   6  -1  -3  259.23   12.84   1
   6  -1  -3  264.72   12.89   1
  -6  -1   3  259.77   13.10   1
   6  -1  -3  243.96   13.00   1
  -6  -1   3  254.21   12.94   1
  -6   1   2  126.84    6.32   1
   6   1  -2  123.53    6.38   1
   6   1  -2  125.10    6.40   1
   6   1  -2  128.39    6.25   1
   6   1  -2  121.22    6.31   1
  -6   1   2  123.28    6.39   1
   6  -1  -2  123.51    6.21   1
   6  -1  -2  124.98    6.29   1
  -6  -1   2  131.32    6.55   1
  -6  -1   2  124.44    6.29   1
  -6  -1   2  122.09    6.36   1
   6  -1  -2  123.99    6.39   1
   6  -1  -2  126.03    6.32   1
   6  -1  -2  122.43    6.40   1
  -6   1   1   19.26    1.15   1
   6   1  -1   18.81    1.17   1
  -6   1   1   16.90    1.17   1
   6   1  -1   19.64    1.15   1
   6   1  -1   17.67    1.19   1
  -6  -1   1   18.58    1.36   1
  -6  -1   1   18.27    1.09   1
   6  -1  -1   17.04    1.14   1
  -6  -1   1   18.64    0.94   1
   6  -1  -1   17.13    1.02   1
  -6  -1   1   16.96    1.16   1
   6  -1  -1   17.62    1.20   1
   6  -1  -1   18.26    1.13   1
   6   1   0    3.96    0.30   1
   6   1   0    3.78    0.44   1
  -6   1   0    3.78    0.57   1
   6   1   0    4.71    0.52   1
  -6   1   0    5.11    0.48   1
   6   1   0    4.80    0.61   1
  -6   1   0    4.26    0.49   1
  -6  -1   0    4.65    0.33   1
  -6  -1   0    5.01    0.72   1
   6  -1   0    4.91    0.61   1
   6  -1   0    3.95    0.52   1
  -6  -1   0    4.03    0.54   1
   6  -1   0    4.53    0.42   1
   6  -1   0    3.78    0.47   1
  -6  -1   0    4.06    0.45   1
  -6   1  -1    3.02    0.43   1
   6   1   1    1.49    0.43   1
  -6   1  -1    2.05    0.36   1
   6   1   1    2.96    0.31   1
  -6   1  -1    1.49    0.44   1
   6   1   1    2.10    0.41   1
  -6  -1  -1    3.08    0.39   1
   6  -1   1    2.16    0.38   1
  -6  -1  -1    2.01    0.31   1
   6  -1   1    2.46    0.36   1
  -6  -1  -1    2.57    0.46   1
   6  -1   1    2.87    0.49   1
   6  -1   1    2.98    0.53   1
  -6  -1  -1    2.76    0.60   1
  -6  -1  -1    2.40    0.15   1
  -6   1  -2  197.80    9.76   1
  -6   1  -2  186.01    9.85   1
   6   1   2  191.46    9.86   1
   6   1   2  190.72    9.66   1
   6   1   2  196.32    9.79   1
  -6   1  -2  196.96    9.78   1
  -6  -1  -2  193.86    9.89   1
   6  -1   2  198.73    9.78   1
  -6  -1  -2  197.01    9.83   1
   6  -1   2  195.83    9.72   1
   6  -1   2  199.97    9.89   1
  -6  -1  -2  190.40    9.70   1
   6   1   3  119.57    5.97   1
   6   1   3  118.05    6.06   1
   6   1   3  111.63    6.11   1
  -6   1  -3  115.92    6.12   1
  -6   1  -3  114.54    6.03   1
  -6   1  -3  121.63    6.05   1
  -6  -1  -3  116.92    6.09   1
  -6  -1  -3  118.17    5.98   1
  -6  -1  -3  122.46    6.10   1
   6  -1   3  116.50    6.03   1
   6  -1   3  116.47    5.99   1
   6  -1   3  110.65    6.12   1
  -6   1  -4   21.06    1.50   1
   6   1   4   24.07    1.49   1
   6   1   4   21.62    1.53   1
  -6   1  -4   23.37    1.60   1
   6   1   4   24.12    1.54   1
   6  -1   4   23.64    1.50   1
  -6  -1  -4   20.09    1.41   1
  -6  -1  -4   21.10    1.51   1
  -6  -1  -4   19.74    1.39   1
   6  -1   4   21.70    1.45   1
   6  -1   4   20.64    1.56   1
  -6   1  -5   17.02    1.40   1
   6   1   5   21.66    1.49   1
   6   1   5   17.53    1.49   1
  -6   1  -5   20.67    1.56   1
   6   1   5   16.20    1.32   1
   6  -1   5   15.85    1.45   1
   6  -1   5   16.41    1.39   1
  -6  -1  -5   18.34    1.42   1
  -6  -1  -5   16.67    1.27   1
   6   1   6    0.35    0.57   1
  -6   1  -6    0.37    0.60   1
   6   1   6   -0.54    0.51   1
   6   1   6    0.48    0.58   1
  -6   1  -6   -0.09    0.51   1
  -6  -1  -6   -0.49    0.45   1
   6  -1   6    0.52    0.62   1
  -6  -1  -6   -0.12    0.34   1
   6  -1   6    0.40    0.64   1
  -6   1  -7   34.81    2.15   1
   6   1   7   28.93    2.19   1
   6   1   7   34.13    2.18   1
  -6   1  -7   21.97    2.14   1
   6   1   7   21.20    2.18   1
  -6  -1  -7   27.48    2.19   1
   6  -1   7   32.85    2.26   1
   6  -1   7   31.58    2.39   1
  -6  -1  -7   31.53    2.02   1
  -6   1  -8   30.29    2.20   1
   6   1   8   33.25    2.19   1
   6   1   8   23.49    2.32   1
  -6   1  -8   32.69    2.43   1
   6  -1   8   26.13    2.40   1
  -6  -1  -8   27.50    2.27   1
  -6  -1  -8   30.26    2.07   1
   6  -1   8   32.90    2.29   1
   6   1   9   10.31    1.32   1
  -6   1  -9   12.26    1.63   1
   6   1   9   11.17    1.62   1
  -6   1  -9   13.41    1.49   1
   6  -1   9   12.54    1.71   1
  -6  -1  -9   12.16    1.37   1
   6  -1   9    9.27    1.32   1
  -6   1 -10   14.74    1.65   1
   6   1  10   15.47    1.88   1
   6   1  10   10.87    1.46   1
  -6   1 -10   16.84    1.88   1
   6  -1  10   13.40    1.60   1
   6  -1  10   14.67    1.88   1
  -6  -1 -10   16.07    1.69   1
  -6   2  13    1.19    0.81   1
  -6   2  13    2.07    0.93   1
   6   2 -13    1.91    0.91   1
   6   2 -13    0.57    0.75   1
  -6  -2  13    1.55    0.85   1
  -6  -2  13    1.68    0.75   1
  -6  -2  13   -0.01    0.75   1
   6   2 -12   10.74    1.58   1
  -6   2  12   10.46    1.45   1
   6   2 -12   11.59    1.40   1
   6   2 -12    8.89    1.38   1
  -6   2  12   14.01    1.70   1
  -6  -2  12   10.89    1.48   1
  -6  -2  12   10.09    1.41   1
  -6  -2  12    9.95    1.28   1
   6  -2 -12    9.91    1.38   1
   6   2 -11    1.37    0.65   1
  -6   2  11    1.20    0.82   1
   6   2 -11    1.35    0.83   1
   6   2 -11    1.30    0.79   1
  -6   2  11    1.59    0.90   1
   6  -2 -11    1.54    0.81   1
   6  -2 -11    0.40    0.67   1
  -6  -2  11    2.32    0.84   1
  -6  -2  11    1.18    0.71   1
  -6  -2  11    3.22    0.90   1
   6   2 -10    8.99    1.17   1
   6   2 -10    5.91    1.24   1
   6   2 -10   10.55    1.40   1
  -6   2  10    7.58    1.22   1
  -6  -2  10    9.92    1.25   1
   6  -2 -10    3.50    1.00   1
  -6  -2  10    9.11    1.24   1
  -6  -2  10    9.35    1.11   1
   6  -2 -10    9.71    1.35   1
  -6   2   9    1.35    0.64   1
   6   2  -9    1.04    0.74   1
   6   2  -9    2.62    0.69   1
  -6   2   9    2.25    0.67   1
  -6  -2   9    0.70    0.55   1
   6  -2  -9    2.62    0.79   1
  -6  -2   9    0.53    0.65   1
  -6  -2   9    2.13    0.65   1
   6  -2  -9    1.56    0.74   1
  -6  -2   9    1.80    0.74   1
  -6   2   8    1.66    0.55   1
  -6   2   8    1.37    0.54   1
   6   2  -8    1.32    0.58   1
   6   2  -8    2.87    0.72   1
  -6   2   8    2.26    0.65   1
   6   2  -8    2.24    0.62   1
  -6  -2   8    1.42    0.74   1
  -6  -2   8    2.07    0.66   1
   6  -2  -8    0.96    0.52   1
  -6  -2   8    1.46    0.67   1
   6  -2  -8    1.43    0.38   1
   6  -2  -8    2.24    0.76   1
   6   2  -7   43.18    2.64   1
  -6   2   7   39.14    2.27   1
  -6   2   7   36.49    2.32   1
  -6   2   7   35.22    2.33   1
   6   2  -7   36.63    2.24   1
   6   2  -7   37.62    2.31   1
   6   2  -7   34.80    2.32   1
  -6  -2   7   39.55    2.45   1
   6  -2  -7   36.09    2.31   1
  -6  -2   7   37.94    2.52   1
   6  -2  -7   38.43    2.53   1
  -6  -2   7   40.62    2.41   1
   6  -2  -7   39.18    2.13   1
  -6   2   6    5.75    0.69   1
   6   2  -6    5.96    0.68   1
   6   2  -6    6.35    0.99   1
  -6   2   6    5.19    0.74   1
  -6   2   6    6.61    0.83   1
   6   2  -6    5.61    0.66   1
   6   2  -6    5.97    0.78   1
   6  -2  -6    5.70    0.59   1
  -6  -2   6    4.63    0.80   1
   6  -2  -6    5.56    0.83   1
  -6  -2   6    6.69    0.94   1
   6  -2  -6    5.85    0.75   1
  -6  -2   6    6.23    0.77   1
   6   2  -5   70.54    4.20   1
  -6   2   5   70.76    4.02   1
  -6   2   5   75.11    3.96   1
   6   2  -5   78.07    3.89   1
   6   2  -5   71.20    4.02   1
   6   2  -5   80.26    3.97   1
  -6  -2   5   74.21    4.01   1
  -6  -2   5   76.51    4.20   1
   6  -2  -5   74.69    4.16   1
   6  -2  -5   77.10    3.89   1
  -6  -2   5   73.14    3.80   1
   6  -2  -5   74.42    4.02   1
  -6  -2   5   74.43    4.10   1
   6   2  -4    2.32    0.21   1
   6   2  -4    1.43    0.42   1
   6   2  -4    2.17    0.41   1
   6   2  -4    2.66    0.63   1
  -6   2   4    1.77    0.39   1
  -6   2   4    2.13    0.43   1
   6  -2  -4    1.95    0.37   1
   6  -2  -4    1.88    0.33   1
  -6  -2   4    1.96    0.60   1
   6  -2  -4    2.22    0.55   1
   6  -2  -4    1.84    0.43   1
  -6  -2   4    1.75    0.21   1
  -6  -2   4    1.54    0.40   1
  -6  -2   4    1.67    0.51   1
  -6   2   3    3.99    0.49   1
   6   2  -3    4.72    0.59   1
   6   2  -3    4.49    0.35   1
   6   2  -3    4.30    0.52   1
  -6   2   3    4.22    0.58   1
   6   2  -3    3.08    0.60   1
  -6  -2   3    3.59    0.51   1
   6  -2  -3    3.31    0.58   1
  -6  -2   3    3.05    0.67   1
   6  -2  -3    3.82    0.48   1
   6  -2  -3    4.69    0.49   1
   6  -2  -3    3.98    0.56   1
  -6  -2   3    4.30    0.59   1
   6  -2  -3    3.91    0.45   1
   6   2  -2   56.68    3.09   1
   6   2  -2   60.31    3.18   1
  -6   2   2   60.53    3.12   1
  -6   2   2   55.32    3.16   1
   6   2  -2   58.69    3.17   1
   6  -2  -2   57.88    3.03   1
   6  -2  -2   56.75    3.06   1
   6  -2  -2   58.42    3.10   1
  -6  -2   2   60.46    3.11   1
  -6  -2   2   57.02    3.33   1
   6  -2  -2   59.07    3.17   1
  -6  -2   2   60.58    3.14   1
   6   2  -1    0.14    0.25   1
   6   2  -1   -0.26    0.26   1
  -6   2   1    0.56    0.33   1
  -6   2   1    0.33    0.29   1
   6   2  -1    0.28    0.28   1
  -6  -2   1    0.43    0.26   1
   6  -2  -1    0.40    0.30   1
   6  -2  -1    0.52    0.21   1
   6  -2  -1    0.53    0.31   1
  -6  -2   1    0.39    0.20   1
  -6  -2   1    0.11    0.41   1
   6  -2  -1    0.11    0.20   1
   6   2   0   99.64    5.08   1
   6   2   0   95.73    5.13   1
  -6   2   0  100.02    5.09   1
   6   2   0   99.17    5.01   1
  -6   2   0  100.19    5.17   1
  -6   2   0   99.05    5.06   1
   6  -2   0   99.11    5.02   1
  -6  -2   0   98.78    5.09   1
  -6  -2   0  100.44    5.28   1
  -6  -2   0   98.25    4.91   1
   6  -2   0  101.63    5.16   1
   6  -2   0   96.67    5.11   1
   6  -2   0   95.74    5.05   1
  -6   2  -1    0.79    0.32   1
   6   2   1    0.45    0.31   1
   6   2   1    1.27    0.20   1
   6   2   1    0.48    0.34   1
  -6   2  -1    0.74    0.34   1
  -6   2  -1    1.19    0.42   1
   6  -2   1    0.43    0.26   1
   6  -2   1    0.83    0.31   1
  -6  -2  -1    0.94    0.15   1
  -6  -2  -1    0.12    0.40   1
   6  -2   1    1.17    0.41   1
  -6  -2  -1    0.81    0.31   1
   6  -2   1    0.89    0.37   1
  -6   2  -2   12.64    0.93   1
   6   2   2   12.22    0.95   1
   6   2   2   11.09    0.96   1
  -6   2  -2   12.84    1.03   1
  -6   2  -2   13.00    0.95   1
   6   2   2   12.56    0.81   1
   6  -2   2   11.89    1.01   1
   6  -2   2   12.31    1.01   1
   6  -2   2   11.88    0.89   1
  -6  -2  -2   12.13    0.92   1
  -6  -2  -2   11.80    0.77   1
  -6  -2  -2   10.58    1.02   1
   6  -2   2   12.99    0.89   1
   6   2   3    7.68    0.73   1
   6   2   3    6.91    0.80   1
  -6   2  -3    5.88    0.80   1
  -6   2  -3    7.17    0.79   1
   6   2   3    6.47    0.74   1
  -6   2  -3    7.49    0.79   1
   6  -2   3    6.84    0.85   1
  -6  -2  -3    7.33    0.78   1
  -6  -2  -3    6.76    0.61   1
   6  -2   3    6.60    0.60   1
   6  -2   3    8.43    0.83   1
   6  -2   3    6.15    0.70   1
  -6  -2  -3    6.39    0.73   1
   6  -2   3    8.52    0.88   1
  -6   2  -4   -0.55    0.36   1
  -6   2  -4   -0.10    0.40   1
   6   2   4   -0.26    0.35   1
   6   2   4   -0.02    0.37   1
  -6   2  -4    0.00    0.30   1
   6  -2   4   -0.17    0.46   1
   6  -2   4    0.20    0.40   1
  -6  -2  -4   -0.03    0.25   1
  -6  -2  -4   -0.01    0.32   1
   6  -2   4    0.29    0.38   1
  -6  -2  -4    0.08    0.26   1
  -6   2  -5   36.84    2.15   1
   6   2   5   38.90    2.39   1
  -6   2  -5   36.54    2.48   1
   6   2   5   34.28    2.39   1
   6   2   5   36.88    2.26   1
  -6   2  -5   35.92    2.35   1
  -6  -2  -5   39.50    2.33   1
   6  -2   5   37.28    2.34   1
   6  -2   5   37.72    2.43   1
  -6  -2  -5   35.95    2.18   1
   6   2   6    0.05    0.59   1
  -6   2  -6    0.29    0.55   1
   6   2   6    0.03    0.57   1
  -6   2  -6   -0.20    0.59   1
   6   2   6    0.48    0.49   1
  -6  -2  -6    0.50    0.35   1
  -6  -2  -6   -0.22    0.39   1
   6  -2   6    0.21    0.56   1
   6  -2   6   -0.22    0.56   1
   6   2   7   18.67    1.50   1
   6   2   7   12.28    1.65   1
   6   2   7   19.12    1.77   1
  -6   2  -7   20.56    1.63   1
  -6   2  -7    9.55    1.59   1
   6  -2   7   17.05    1.82   1
   6  -2   7   18.90    1.74   1
  -6  -2  -7   16.75    1.35   1
  -6   2  -8   -0.65    0.62   1
  -6   2  -8    0.40    0.73   1
   6   2   8    1.00    0.74   1
   6   2   8    0.55    0.69   1
   6   2   8   -0.18    0.54   1
  -6  -2  -8    0.29    0.43   1
   6  -2   8   -1.60    0.70   1
   6  -2   8   -0.44    0.64   1
   6  -2   8   -0.33    0.70   1
   6   2   9    0.69    0.69   1
  -6   2  -9    2.05    0.93   1
  -6   2  -9    1.09    0.76   1
   6   2   9    2.22    0.92   1
   6  -2   9    0.52    0.76   1
   6  -2   9    2.07    1.01   1
   6  -2   9    2.12    0.94   1
  -6   2 -10    4.23    0.98   1
   6   2  10    5.44    1.04   1
   6   2  10    6.48    1.28   1
  -6   2 -10    7.35    1.34   1
   6  -2  10    6.04    1.17   1
   6  -2  10    5.61    1.25   1
   6  -2  10    2.10    0.96   1
   6   3 -13    3.03    1.04   1
  -6   3  13    2.21    0.89   1
   6   3 -13    2.06    1.06   1
  -6   3  13    1.20    0.97   1
   6   3 -13    3.21    0.82   1
  -6  -3  13    3.51    1.06   1
   6   3 -12    1.57    0.83   1
   6   3 -12    0.82    0.57   1
   6   3 -12    0.31    0.73   1
  -6   3  12   -0.11    0.69   1
  -6   3  12   -0.04    0.94   1
  -6  -3  12    1.08    0.70   1
  -6  -3  12    1.40    0.92   1
   6  -3 -12    1.08    0.63   1
   6   3 -11    4.81    1.18   1
   6   3 -11    5.94    1.14   1
  -6   3  11    3.82    1.07   1
   6   3 -11    7.12    1.06   1
  -6  -3  11    6.23    0.97   1
  -6  -3  11    6.73    1.16   1
  -6  -3  11    7.14    1.15   1
   6  -3 -11    6.95    1.13   1
   6   3 -10    0.07    0.53   1
   6   3 -10   -0.72    0.53   1
  -6   3  10   -0.59    0.53   1
  -6   3  10   -0.49    0.55   1
   6   3 -10    1.27    0.81   1
   6  -3 -10    0.20    0.61   1
  -6  -3  10   -0.19    0.55   1
  -6  -3  10    0.64    0.68   1
  -6  -3  10    0.93    0.64   1
  -6  -3  10   -0.97    0.61   1
   6   3  -9   -0.05    0.61   1
  -6   3   9    0.12    0.51   1
  -6   3   9    0.52    0.54   1
   6   3  -9    0.65    0.52   1
   6   3  -9   -0.08    0.43   1
  -6  -3   9    1.04    0.64   1
   6  -3  -9    0.05    0.50   1
  -6  -3   9    0.54    0.71   1
   6  -3  -9    0.01    0.62   1
  -6  -3   9   -0.25    0.48   1
  -6  -3   9   -0.33    0.56   1
  -6   3   8    2.18    0.62   1
   6   3  -8    2.78    0.70   1
  -6   3   8    4.02    0.68   1
  -6   3   8    2.69    0.60   1
   6   3  -8    4.47    0.95   1
   6   3  -8    2.42    0.65   1
  -6  -3   8    2.38    0.81   1
   6  -3  -8    2.50    0.50   1
   6  -3  -8    1.60    0.70   1
  -6  -3   8    2.58    0.56   1
  -6  -3   8    2.02    0.67   1
  -6  -3   8    3.36    0.78   1
   6  -3  -8    3.02    0.65   1
  -6   3   7    4.20    0.64   1
   6   3  -7    3.17    0.59   1
   6   3  -7    2.68    0.60   1
  -6   3   7    2.41    0.60   1
   6   3  -7    4.11    0.90   1
  -6   3   7    4.11    0.71   1
   6   3  -7    3.71    0.69   1
  -6  -3   7    2.56    0.81   1
   6  -3  -7    3.48    0.79   1
  -6  -3   7    3.72    0.52   1
   6  -3  -7    3.01    0.60   1
   6  -3  -7    2.53    0.50   1
  -6  -3   7    4.04    0.76   1
  -6  -3   7    4.49    0.81   1
   6   3  -6   23.18    1.57   1
   6   3  -6   25.67    1.62   1
  -6   3   6   25.09    1.68   1
  -6   3   6   26.11    1.62   1
   6   3  -6   24.67    1.92   1
   6   3  -6   23.25    1.65   1
  -6  -3   6   25.70    1.80   1
  -6  -3   6   25.75    1.45   1
   6  -3  -6   29.03    1.88   1
  -6  -3   6   21.83    1.85   1
  -6  -3   6   24.87    1.68   1
   6  -3  -6   25.55    1.63   1
   6  -3  -6   23.60    1.51   1
  -6   3   5    0.13    0.35   1
   6   3  -5    0.11    0.32   1
   6   3  -5    0.54    0.32   1
   6   3  -5    0.06    0.26   1
   6   3  -5   -0.25    0.50   1
  -6   3   5    0.29    0.34   1
  -6  -3   5    0.18    0.28   1
  -6  -3   5    0.54    0.19   1
   6  -3  -5    0.09    0.33   1
  -6  -3   5    0.40    0.47   1
   6  -3  -5    0.22    0.44   1
   6  -3  -5    0.37    0.33   1
  -6  -3   5    0.04    0.50   1
  -6   3   4    6.22    0.73   1
   6   3  -4    7.83    0.99   1
   6   3  -4    6.02    0.70   1
   6   3  -4    6.74    0.50   1
  -6   3   4    6.12    0.66   1
   6   3  -4    5.95    0.65   1
   6  -3  -4    5.21    0.74   1
   6  -3  -4    6.51    0.66   1
   6  -3  -4    6.30    0.69   1
  -6  -3   4    6.12    0.92   1
  -6  -3   4    6.00    0.40   1
  -6  -3   4    6.22    0.66   1
  -6  -3   4    7.56    0.81   1
   6   3  -3    0.39    0.31   1
   6   3  -3    0.08    0.15   1
  -6   3   3    0.66    0.33   1
   6   3  -3    0.75    0.47   1
   6   3  -3    0.01    0.27   1
  -6   3   3    0.59    0.34   1
  -6  -3   3    0.07    0.49   1
   6  -3  -3   -0.34    0.25   1
  -6  -3   3    0.05    0.24   1
  -6  -3   3    0.80    0.34   1
   6  -3  -3    0.14    0.28   1
   6  -3  -3    0.03    0.25   1
  -6   3   2    0.79    0.35   1
   6   3  -2    0.97    0.34   1
   6   3  -2    1.35    0.44   1
  -6   3   2    0.83    0.33   1
   6   3  -2    0.79    0.30   1
   6  -3  -2    0.68    0.29   1
  -6  -3   2    0.44    0.53   1
  -6  -3   2    0.88    0.28   1
  -6  -3   2    0.73    0.29   1
   6  -3  -2    1.14    0.35   1
   6  -3  -2    0.45    0.32   1
   6   3  -1   30.35    1.77   1
  -6   3   1   29.39    1.83   1
   6   3  -1   31.82    1.81   1
  -6   3   1   32.02    1.79   1
   6   3  -1   30.69    1.75   1
   6  -3  -1   29.90    1.73   1
  -6  -3   1   32.89    2.07   1
   6  -3  -1   28.39    1.79   1
   6  -3  -1   31.10    1.82   1
  -6  -3   1   31.16    1.67   1
  -6  -3   1   29.04    1.73   1
  -6   3   0    1.08    0.41   1
  -6   3   0    1.56    0.41   1
   6   3   0    0.88    0.35   1
   6   3   0    1.17    0.34   1
   6   3   0    1.14    0.30   1
  -6   3   0    0.96    0.36   1
   6  -3   0    1.70    0.41   1
  -6  -3   0    1.15    0.31   1
   6  -3   0    1.41    0.41   1
  -6  -3   0    1.00    0.18   1
   6  -3   0    1.00    0.34   1
  -6  -3   0    1.13    0.57   1
  -6   3  -1   27.46    1.61   1
   6   3   1   27.08    1.42   1
  -6   3  -1   24.87    1.62   1
  -6   3  -1   26.70    1.70   1
   6   3   1   25.47    1.58   1
   6   3   1   26.62    1.64   1
   6  -3   1   26.11    1.67   1
   6  -3   1   24.27    1.64   1
  -6  -3  -1   27.19    1.57   1
  -6  -3  -1   27.09    1.80   1
   6  -3   1   27.67    1.61   1
  -6   3  -2    1.53    0.40   1
  -6   3  -2    1.86    0.47   1
   6   3   2    0.71    0.36   1
  -6   3  -2    0.66    0.41   1
   6   3   2    0.67    0.35   1
   6  -3   2    1.49    0.40   1
  -6  -3  -2    1.09    0.31   1
   6  -3   2    1.03    0.42   1
   6  -3   2    1.04    0.47   1
  -6  -3  -2    0.64    0.46   1
   6  -3   2    0.80    0.30   1
   6   3   3    0.38    0.37   1
  -6   3  -3    0.36    0.37   1
  -6   3  -3    0.90    0.45   1
  -6   3  -3   -0.54    0.32   1
   6   3   3   -0.37    0.31   1
   6  -3   3    0.51    0.45   1
   6  -3   3    0.82    0.40   1
   6  -3   3    0.60    0.30   1
  -6  -3  -3    1.54    0.42   1
  -6  -3  -3   -0.21    0.25   1
   6  -3   3    0.21    0.36   1
   6   3   4   10.93    1.04   1
  -6   3  -4    8.88    0.97   1
  -6   3  -4    8.11    0.97   1
   6   3   4    6.74    0.90   1
  -6   3  -4   10.12    1.11   1
  -6  -3  -4    9.49    0.91   1
  -6  -3  -4    9.08    0.72   1
   6  -3   4    7.65    0.98   1
   6  -3   4    8.71    0.83   1
   6  -3   4    9.81    1.03   1
   6  -3   4    7.71    0.90   1
   6   3   5    0.43    0.48   1
  -6   3  -5    0.41    0.55   1
  -6   3  -5    0.94    0.59   1
  -6   3  -5    0.26    0.43   1
   6   3   5    0.15    0.48   1
   6  -3   5   -0.26    0.54   1
  -6  -3  -5    0.32    0.29   1
   6  -3   5    0.19    0.49   1
   6  -3   5   -0.12    0.45   1
  -6   3  -6   12.95    1.55   1
  -6   3  -6   14.03    1.43   1
   6   3   6   12.72    1.44   1
   6   3   6    6.73    1.13   1
  -6  -3  -6   11.13    0.97   1
   6  -3   6   14.59    1.42   1
   6  -3   6   12.52    1.36   1
   6  -3   6   10.44    1.34   1
  -6   3  -7    0.65    0.67   1
   6   3   7    0.86    0.68   1
  -6   3  -7    0.57    0.76   1
   6   3   7    0.96    0.66   1
  -6  -3  -7    1.08    0.44   1
   6  -3   7    0.72    0.81   1
   6  -3   7    0.01    0.71   1
   6  -3   7    0.80    0.69   1
   6   3   8   -0.36    0.53   1
   6   3   8   -0.23    0.62   1
  -6   3  -8   -0.07    0.77   1
  -6   3  -8    0.62    0.72   1
   6   3   8   -0.09    0.69   1
   6  -3   8    1.68    0.87   1
   6  -3   8    0.15    0.80   1
   6  -3   8    0.68    0.85   1
   6   3   9    0.33    0.72   1
  -6   3  -9   -1.39    0.62   1
  -6   3  -9    0.86    0.82   1
   6   3   9   -0.78    0.61   1
   6  -3   9    1.29    0.80   1
   6  -3   9    1.78    0.89   1
   6  -3   9    1.69    0.86   1
  -6   3 -10   -0.14    0.79   1
   6   3  10    0.11    0.75   1
  -6   3 -10    0.17    0.78   1
   6   3  10   -0.78    0.65   1
   6  -3  10   -1.45    0.75   1
   6  -3  10   -0.20    0.72   1
   6  -3  10    0.29    0.72   1
  -6   4  13    3.47    1.12   1
  -6   4  13    1.80    1.20   1
   6   4 -13    3.04    1.09   1
  -6  -4  13    3.96    1.20   1
  -6   4  12    3.24    0.98   1
   6   4 -12    4.12    0.91   1
   6   4 -12    3.95    1.11   1
   6   4 -12    4.61    1.22   1
  -6  -4  12    6.06    1.13   1
  -6   4  11    0.90    0.75   1
   6   4 -11    1.32    0.87   1
   6   4 -11   -0.20    0.71   1
  -6   4  11    1.44    0.78   1
   6   4 -11    0.32    0.53   1
  -6  -4  11    1.02    0.81   1
  -6  -4  11    1.45    0.72   1
   6  -4 -11    1.41    0.71   1
  -6   4  10    0.37    0.57   1
  -6   4  10    0.24    0.63   1
   6   4 -10    1.64    0.84   1
   6   4 -10    0.43    0.56   1
   6   4 -10    1.21    0.82   1
   6   4 -10    1.58    1.04   1
   6  -4 -10    0.87    0.66   1
  -6  -4  10    1.97    0.79   1
  -6  -4  10    0.90    0.62   1
  -6  -4  10    1.63    0.79   1
   6   4  -9   14.35    1.26   1
   6   4  -9   12.78    1.59   1
  -6   4   9   12.88    1.31   1
  -6   4   9   12.87    1.41   1
   6   4  -9   13.36    1.35   1
  -6  -4   9   12.73    1.20   1
  -6  -4   9   11.95    1.43   1
   6  -4  -9   14.64    1.59   1
   6  -4  -9   12.94    1.21   1
  -6  -4   9   13.98    1.66   1
   6   4  -8   24.24    2.00   1
   6   4  -8   23.54    1.82   1
  -6   4   8   23.86    1.79   1
  -6   4   8   27.62    1.76   1
   6   4  -8   28.71    1.81   1
  -6  -4   8   25.17    1.63   1
  -6  -4   8   23.94    1.85   1
   6  -4  -8   24.53    1.97   1
  -6  -4   8   20.93    2.00   1
   6  -4  -8   25.39    1.67   1
  -6  -4   8   24.48    1.86   1
   6   4  -7    5.68    0.73   1
   6   4  -7    5.76    0.82   1
  -6   4   7    5.82    0.77   1
  -6   4   7    4.80    0.78   1
   6   4  -7    5.27    1.02   1
   6   4  -7    5.73    0.79   1
   6  -4  -7    5.04    0.89   1
  -6  -4   7    3.73    0.76   1
  -6  -4   7    5.10    0.60   1
   6  -4  -7    5.48    0.68   1
  -6  -4   7    6.66    0.96   1
  -6  -4   7    3.35    0.93   1
   6  -4  -7    5.82    0.76   1
   6   4  -6    4.16    0.71   1
  -6   4   6    4.03    0.63   1
  -6   4   6    3.60    0.63   1
   6   4  -6    2.59    0.55   1
   6   4  -6    4.68    0.63   1
   6   4  -6    4.04    0.90   1
   6  -4  -6    4.23    0.83   1
  -6  -4   6    4.44    0.95   1
   6  -4  -6    4.58    0.63   1
  -6  -4   6    5.05    0.81   1
   6  -4  -6    4.60    0.63   1
  -6  -4   6    4.16    0.64   1
  -6  -4   6    4.28    0.47   1
   6   4  -5   24.27    1.66   1
   6   4  -5   26.67    1.97   1
  -6   4   5   25.05    1.68   1
   6   4  -5   25.58    1.62   1
  -6   4   5   27.45    1.64   1
   6   4  -5   27.05    1.56   1
  -6  -4   5   21.80    1.94   1
   6  -4  -5   27.70    1.62   1
  -6  -4   5   26.66    1.64   1
   6  -4  -5   26.31    1.62   1
  -6  -4   5   26.35    1.77   1
  -6  -4   5   24.64    1.42   1
  -6   4   4   43.99    2.48   1
  -6   4   4   45.11    2.42   1
   6   4  -4   36.29    2.63   1
   6   4  -4   40.36    2.38   1
   6   4  -4   43.12    2.24   1
   6   4  -4   42.26    2.44   1
   6  -4  -4   41.86    2.40   1
  -6  -4   4   40.82    2.78   1
   6  -4  -4   42.16    2.41   1
   6  -4  -4   43.38    2.43   1
  -6  -4   4   43.74    2.38   1
  -6  -4   4   45.85    2.50   1
  -6   4   3   20.79    1.31   1
   6   4  -3   18.84    1.32   1
  -6   4   3   20.54    1.36   1
   6   4  -3   20.62    1.53   1
   6   4  -3   19.82    1.27   1
  -6  -4   3   19.21    1.66   1
   6  -4  -3   20.69    1.33   1
   6  -4  -3   19.81    1.28   1
  -6  -4   3   18.63    1.30   1
   6  -4  -3   20.02    1.32   1
  -6  -4   3   20.20    1.24   1
   6   4  -2   -0.07    0.35   1
  -6   4   2   -0.30    0.29   1
   6   4  -2    0.14    0.26   1
  -6   4   2   -0.27    0.26   1
   6   4  -2   -0.03    0.26   1
   6  -4  -2   -0.08    0.22   1
   6  -4  -2    0.14    0.32   1
  -6  -4   2   -0.34    0.54   1
  -6  -4   2    0.01    0.17   1
   6  -4  -2   -0.01    0.28   1
  -6  -4   2    0.29    0.28   1
   6   4  -1   21.37    1.34   1
  -6   4   1   19.26    1.38   1
   6   4  -1   21.56    1.37   1
   6   4  -1   22.03    1.31   1
  -6   4   1   19.66    1.33   1
  -6  -4   1   19.04    1.66   1
   6  -4  -1   20.05    1.33   1
   6  -4  -1   24.47    1.44   1
  -6  -4   1   21.84    1.25   1
   6  -4  -1   22.21    1.36   1
   6   4   0   59.72    3.24   1
   6   4   0   62.07    3.29   1
  -6   4   0   59.73    3.32   1
  -6   4   0   64.08    3.41   1
   6   4   0   61.26    3.34   1
  -6   4   0   62.82    3.43   1
  -6  -4   0   63.91    3.17   1
   6  -4   0   63.59    3.34   1
  -6  -4   0   60.53    3.24   1
  -6  -4   0   64.00    3.64   1
   6  -4   0   61.40    3.38   1
   6  -4   0   61.64    3.35   1
  -6   4  -1   34.38    2.05   1
  -6   4  -1   33.60    2.06   1
   6   4   1   34.52    1.99   1
  -6   4  -1   34.19    1.98   1
   6   4   1   32.17    1.92   1
   6  -4   1   34.36    2.02   1
  -6  -4  -1   36.54    2.23   1
   6  -4   1   33.48    1.98   1
   6  -4   1   32.59    1.98   1
   6  -4   1   31.14    2.02   1
  -6   4  -2    0.87    0.43   1
   6   4   2    1.74    0.39   1
   6   4   2    1.11    0.38   1
  -6   4  -2    1.40    0.46   1
  -6   4  -2    1.50    0.47   1
   6  -4   2    1.38    0.39   1
   6  -4   2    1.00    0.44   1
   6  -4   2    0.44    0.42   1
   6  -4   2    1.29    0.45   1
  -6  -4  -2    1.70    0.55   1
  -6   4  -3    8.94    0.99   1
  -6   4  -3    8.49    0.96   1
   6   4   3    8.61    0.88   1
  -6   4  -3    9.12    0.97   1
   6   4   3    8.25    0.88   1
  -6  -4  -3    9.25    0.95   1
   6  -4   3    7.11    0.80   1
   6  -4   3    8.65    0.94   1
   6  -4   3    7.77    0.90   1
   6  -4   3    7.48    0.92   1
  -6   4  -4   35.33    2.35   1
   6   4   4   34.94    2.33   1
  -6   4  -4   39.80    2.47   1
  -6   4  -4   38.63    2.40   1
   6   4   4   38.92    2.36   1
   6  -4   4   39.96    2.44   1
   6  -4   4   38.05    2.39   1
   6  -4   4   38.49    2.37   1
   6  -4   4   38.99    2.28   1
  -6   4  -5   18.75    1.78   1
   6   4   5   28.08    1.93   1
  -6   4  -5   25.90    1.85   1
   6   4   5   23.20    1.85   1
  -6   4  -5   31.68    2.09   1
   6  -4   5   25.12    1.87   1
   6  -4   5   25.64    1.85   1
   6  -4   5   24.83    1.95   1
   6  -4   5   27.48    1.76   1
   6   4   6   -0.47    0.51   1
   6   4   6    0.35    0.59   1
  -6   4  -6    0.69    0.70   1
  -6   4  -6    0.88    0.63   1
  -6   4  -6    0.76    0.41   1
   6  -4   6    0.27    0.66   1
   6  -4   6    0.63    0.61   1
   6  -4   6    1.05    0.68   1
  -6   4  -7   -0.23    0.71   1
  -6   4  -7    2.25    0.82   1
   6   4   7    2.73    0.86   1
   6   4   7    3.48    0.88   1
   6  -4   7    0.83    0.77   1
   6  -4   7    1.69    0.77   1
   6  -4   7    3.68    0.94   1
  -6   4  -8    5.58    1.15   1
   6   4   8    5.32    1.02   1
   6   4   8    4.25    1.06   1
  -6   4  -8    4.50    1.17   1
   6  -4   8    3.56    1.04   1
   6  -4   8    6.43    1.12   1
   6  -4   8    8.43    1.31   1
   6   4   9    4.28    0.99   1
  -6   4  -9    7.86    1.45   1
   6   4   9    5.09    1.01   1
  -6   4  -9    6.51    1.28   1
   6   4   9    7.29    1.34   1
   6  -4   9    6.58    1.31   1
   6  -4   9    4.78    1.07   1
   6   4  10    0.95    0.94   1
  -6   4 -10    0.43    0.77   1
   6  -4  10    0.54    1.18   1
   6  -4  10    2.84    0.91   1
   6   5 -12    0.80    0.79   1
   6   5 -12   -0.50    0.65   1
  -6   5  12    0.89    0.84   1
  -6  -5  12    1.52    0.84   1
  -6   5  11    1.94    0.83   1
   6   5 -11    3.78    1.09   1
  -6   5  11    3.08    0.98   1
   6   5 -11    2.30    0.96   1
  -6  -5  11    2.53    0.93   1
   6   5 -10   23.54    1.75   1
   6   5 -10   23.03    1.86   1
   6   5 -10   12.59    1.90   1
   6   5 -10   20.45    2.17   1
  -6   5  10   19.06    2.00   1
  -6   5  10   22.28    1.85   1
  -6  -5  10   27.10    2.06   1
  -6  -5  10   24.68    2.10   1
   6   5  -9    8.87    1.08   1
   6   5  -9   10.30    1.18   1
  -6   5   9    7.49    1.14   1
  -6   5   9    7.36    0.98   1
   6   5  -9    8.80    1.32   1
   6   5  -9    7.79    1.35   1
  -6  -5   9    6.21    1.17   1
  -6  -5   9    9.03    1.38   1
   6  -5  -9    8.01    0.99   1
   6   5  -8   12.89    1.38   1
  -6   5   8   10.42    1.15   1
  -6   5   8   13.49    1.37   1
   6   5  -8   13.27    1.20   1
   6   5  -8   13.06    1.59   1
   6  -5  -8   13.73    1.27   1
  -6  -5   8   13.49    1.50   1
  -6  -5   8   16.51    1.25   1
  -6  -5   8   13.45    1.66   1
   6   5  -7   27.97    1.81   1
  -6   5   7   28.42    1.84   1
   6   5  -7   27.31    1.93   1
  -6   5   7   26.32    1.84   1
   6   5  -7   26.23    2.11   1
   6   5  -7   28.44    1.80   1
   6  -5  -7   28.69    1.82   1
  -6  -5   7   26.53    2.23   1
  -6  -5   7   25.69    1.93   1
  -6  -5   7   26.13    2.02   1
  -6   5   6   16.28    1.25   1
   6   5  -6   15.81    1.16   1
   6   5  -6   13.36    1.54   1
  -6   5   6   15.46    1.20   1
   6   5  -6   15.05    1.13   1
   6   5  -6   13.11    1.20   1
  -6  -5   6   14.34    1.40   1
   6  -5  -6   13.59    1.17   1
  -6  -5   6   11.51    1.58   1
   6   5  -5   28.75    1.82   1
  -6   5   5   30.35    1.85   1
  -6   5   5   28.91    1.77   1
   6   5  -5   27.82    1.72   1
   6   5  -5   28.64    2.12   1
  -6  -5   5   22.04    2.13   1
  -6  -5   5   29.47    1.90   1
   6  -5  -5   27.12    1.76   1
   6   5  -4    0.82    0.35   1
   6   5  -4    1.13    0.67   1
  -6   5   4    0.96    0.44   1
  -6   5   4    0.92    0.39   1
   6   5  -4    0.67    0.34   1
   6  -5  -4    0.52    0.39   1
  -6  -5   4    0.57    0.41   1
  -6  -5   4    0.86    0.70   1
   6  -5  -4    0.74    0.41   1
  -6   5   3   84.07    4.47   1
   6   5  -3   81.16    4.42   1
   6   5  -3   83.05    4.67   1
   6   5  -3   82.74    4.37   1
  -6   5   3   84.78    4.40   1
   6  -5  -3   86.22    4.38   1
   6  -5  -3   87.29    4.47   1
  -6  -5   3   78.97    4.84   1
   6  -5  -3   82.59    4.46   1
  -6  -5   3   85.16    4.44   1
  -6   5   2   92.27    4.88   1
  -6   5   2   92.40    4.83   1
   6   5  -2   99.02    4.85   1
   6   5  -2   98.35    5.02   1
   6   5  -2   90.53    4.76   1
  -6  -5   2   82.86    5.25   1
  -6  -5   2   94.74    4.81   1
   6  -5  -2   87.77    4.87   1
   6  -5  -2   93.71    4.88   1
   6  -5  -2   92.03    4.81   1
  -6   5   1   10.57    0.89   1
   6   5  -1   10.55    0.91   1
  -6   5   1   10.35    0.87   1
   6   5  -1    9.55    0.77   1
   6   5  -1   10.54    0.85   1
   6  -5  -1    9.31    0.93   1
   6  -5  -1   10.12    0.80   1
  -6  -5   1    8.50    1.25   1
  -6  -5   1    9.90    0.75   1
   6  -5  -1    9.18    0.90   1
   6   5   0    0.24    0.27   1
  -6   5   0    0.47    0.34   1
  -6   5   0    0.56    0.41   1
   6   5   0    0.80    0.33   1
  -6   5   0    0.55    0.38   1
   6   5   0    0.47    0.34   1
   6  -5   0    0.40    0.29   1
  -6  -5   0    0.38    0.20   1
  -6  -5   0    1.25    0.66   1
   6  -5   0    0.05    0.35   1
   6  -5   0    0.66    0.41   1
   6  -5   0    1.72    0.47   1
  -6   5  -1    7.96    0.96   1
  -6   5  -1    8.78    0.93   1
  -6   5  -1    8.64    0.84   1
   6   5   1    9.89    0.85   1
   6   5   1    8.45    0.77   1
   6  -5   1    8.86    0.92   1
   6  -5   1    8.02    0.89   1
   6  -5   1    9.31    0.93   1
  -6  -5  -1    9.67    1.17   1
   6  -5   1   10.98    0.86   1
   6   5   2   95.34    4.99   1
  -6   5  -2   95.60    5.11   1
  -6   5  -2   91.24    5.07   1
   6   5   2   91.30    4.92   1
  -6   5  -2   97.01    5.03   1
   6  -5   2   96.42    5.03   1
   6  -5   2   98.26    5.06   1
  -6  -5  -2   91.06    5.19   1
   6  -5   2   97.08    5.05   1
   6  -5   2   95.33    5.08   1
   6   5   3   60.71    3.30   1
  -6   5  -3   64.37    3.39   1
  -6   5  -3   60.37    3.40   1
   6   5   3   59.87    3.26   1
  -6   5  -3   55.43    3.36   1
   6  -5   3   59.18    3.37   1
  -6  -5  -3   49.63    3.29   1
   6  -5   3   59.50    3.35   1
   6  -5   3   60.46    3.33   1
   6  -5   3   60.59    3.34   1
  -6   5  -4    1.11    0.54   1
   6   5   4    0.73    0.44   1
  -6   5  -4    1.06    0.61   1
   6   5   4    0.26    0.44   1
  -6   5  -4    0.32    0.50   1
   6  -5   4    0.42    0.47   1
   6  -5   4    1.27    0.55   1
   6  -5   4    0.18    0.57   1
   6  -5   4   -0.02    0.37   1
  -6   5  -5   11.57    1.30   1
  -6   5  -5    8.04    1.20   1
  -6   5  -5   12.32    1.44   1
   6   5   5   11.49    1.24   1
   6   5   5   12.48    1.30   1
   6  -5   5   12.12    1.27   1
   6  -5   5   11.07    1.23   1
   6  -5   5   12.19    1.28   1
   6  -5   5   11.52    1.30   1
  -6   5  -6    8.85    1.27   1
  -6   5  -6   11.30    1.50   1
   6   5   6    9.92    1.26   1
  -6   5  -6    8.90    1.14   1
  -6   5  -6    9.05    1.24   1
   6  -5   6   11.94    1.36   1
   6  -5   6    9.31    1.22   1
  -6   5  -7   23.08    1.95   1
   6   5   7   19.66    1.85   1
  -6   5  -7   14.81    1.99   1
   6   5   7   23.13    1.87   1
   6  -5   7   23.72    1.97   1
   6  -5   7   23.56    1.97   1
  -6   5  -8    7.65    1.33   1
   6   5   8    8.25    1.19   1
   6   5   8    6.90    1.27   1
  -6   5  -8    8.71    1.56   1
   6  -5   8    5.24    1.12   1
   6  -5   8    6.66    1.27   1
   6   5   9    6.12    1.06   1
  -6   5  -9    2.15    0.96   1
   6   5   9    2.81    1.04   1
  -6   5  -9    3.48    1.13   1
   6  -5   9    3.19    0.94   1
   6  -5   9    3.13    1.08   1
   6   6 -12   15.88    1.90   1
  -6   6  12   13.50    1.64   1
  -6   6  12   15.47    1.89   1
  -6  -6  12   13.88    1.78   1
   6   6 -11   -0.62    0.66   1
   6   6 -11    0.57    0.88   1
  -6   6  11    1.27    0.83   1
  -6   6  11    1.14    0.77   1
  -6  -6  11    0.39    0.85   1
   6   6 -10   13.07    1.78   1
   6   6 -10   14.38    1.82   1
  -6   6  10   15.01    1.56   1
   6   6 -10   13.21    1.55   1
  -6   6  10   13.14    1.65   1
  -6  -6  10   13.39    1.77   1
  -6  -6  10   14.71    1.71   1
   6   6  -9   -0.81    0.76   1
   6   6  -9    0.53    0.69   1
  -6   6   9   -0.76    0.42   1
   6   6  -9   -0.05    0.53   1
  -6   6   9   -0.38    0.55   1
   6  -6  -9    1.31    0.62   1
  -6  -6   9    0.42    0.76   1
  -6  -6   9   -0.14    0.72   1
  -6   6   8    7.09    1.00   1
  -6   6   8    6.33    0.88   1
   6   6  -8    6.30    1.20   1
  -6  -6   8    6.82    1.15   1
   6  -6  -8    5.79    0.89   1
  -6  -6   8    7.76    1.31   1
  -6   6   7   42.02    2.54   1
   6   6  -7   40.34    2.51   1
   6   6  -7   44.42    2.94   1
  -6   6   7   40.08    2.55   1
   6   6  -7   39.38    2.60   1
  -6  -6   7   40.94    2.76   1
   6  -6  -7   43.01    2.55   1
  -6  -6   7   44.46    3.11   1
   6   6  -6    0.55    0.50   1
   6   6  -6    0.92    0.77   1
  -6   6   6    2.37    0.58   1
  -6   6   6    2.55    0.58   1
   6   6  -6    1.82    0.52   1
   6  -6  -6    2.29    0.59   1
  -6  -6   6    2.41    0.89   1
  -6  -6   6    1.47    0.64   1
   6   6  -5   91.37    4.57   1
   6   6  -5   93.12    4.99   1
   6   6  -5   78.75    4.45   1
  -6   6   5   85.85    4.55   1
  -6   6   5   81.22    4.48   1
   6  -6  -5   84.80    4.56   1
  -6  -6   5   70.47    4.95   1
  -6  -6   5   87.21    4.65   1
   6   6  -4   15.22    1.12   1
   6   6  -4   13.15    1.03   1
  -6   6   4   14.74    1.13   1
  -6   6   4   14.27    1.08   1
   6   6  -4   15.26    1.63   1
   6  -6  -4   14.41    1.17   1
   6  -6  -4   12.98    1.13   1
  -6  -6   4   13.50    1.16   1
  -6  -6   4   12.55    1.67   1
   6   6  -3    3.05    0.46   1
   6   6  -3    2.55    0.86   1
  -6   6   3    3.36    0.60   1
  -6   6   3    2.58    0.53   1
   6   6  -3    2.77    0.50   1
  -6  -6   3    3.05    0.57   1
  -6  -6   3    2.22    0.94   1
   6  -6  -3    1.98    0.54   1
   6  -6  -3    3.60    0.63   1
  -6   6   2   22.21    1.51   1
  -6   6   2   24.46    1.47   1
   6   6  -2   24.73    1.75   1
   6   6  -2   23.27    1.44   1
   6   6  -2   21.59    1.37   1
   6  -6  -2   23.27    1.54   1
   6  -6  -2   21.31    1.53   1
  -6  -6   2   14.38    1.91   1
  -6  -6   2   23.33    1.47   1
   6   6  -1   20.64    1.41   1
  -6   6   1   17.85    1.34   1
   6   6  -1   19.47    1.20   1
  -6   6   1   18.36    1.28   1
   6   6  -1   19.74    1.24   1
  -6  -6   1   13.74    1.76   1
   6  -6  -1   19.00    1.37   1
  -6  -6   1   18.52    1.21   1
   6  -6  -1   17.96    1.34   1
   6   6   0  138.99    6.85   1
  -6   6   0  137.99    7.09   1
  -6   6   0  133.04    6.92   1
   6   6   0  131.37    6.88   1
   6   6   0  137.49    6.89   1
  -6   6   0  139.01    7.01   1
   6  -6   0  138.03    7.01   1
  -6  -6   0  136.34    6.81   1
   6  -6   0  138.96    7.07   1
   6  -6   0  137.22    7.03   1
  -6  -6   0  113.92    7.28   1
  -6   6  -1    7.61    0.83   1
  -6   6  -1    8.23    0.91   1
   6   6   1    6.49    0.73   1
  -6   6  -1    8.18    1.00   1
   6   6   1    7.63    0.73   1
   6  -6   1    8.11    0.93   1
   6  -6   1    8.71    0.96   1
  -6  -6  -1    7.40    1.11   1
   6  -6   1    8.04    0.90   1
  -6   6  -2    9.35    1.06   1
  -6   6  -2    7.24    0.90   1
   6   6   2    8.15    0.82   1
   6   6   2    6.85    0.74   1
  -6   6  -2    8.60    0.91   1
  -6  -6  -2    5.23    0.93   1
   6  -6   2    8.39    0.97   1
   6  -6   2    6.72    0.90   1
   6  -6   2   10.32    1.03   1
  -6   6  -3    0.62    0.46   1
  -6   6  -3   -0.49    0.45   1
  -6   6  -3   -0.01    0.48   1
   6   6   3    0.01    0.35   1
   6   6   3   -0.24    0.36   1
   6  -6   3   -0.31    0.49   1
   6  -6   3    0.24    0.54   1
   6  -6   3   -0.08    0.42   1
  -6   6  -4    7.84    1.06   1
  -6   6  -4    5.62    0.96   1
   6   6   4    5.08    0.80   1
  -6   6  -4    6.36    0.96   1
   6   6   4    4.94    0.78   1
   6  -6   4    4.80    0.89   1
   6  -6   4    6.65    0.94   1
   6  -6   4    4.95    0.88   1
  -6   6  -5   46.52    3.15   1
   6   6   5   41.61    2.93   1
  -6   6  -5   52.57    3.13   1
   6   6   5   51.70    2.96   1
   6  -6   5   49.38    3.06   1
   6  -6   5   50.87    3.08   1
   6  -6   5   49.71    3.10   1
  -6   6  -6    1.15    0.74   1
  -6   6  -6    2.97    0.77   1
  -6   6  -6    2.21    0.86   1
  -6   6  -6    2.44    0.86   1
   6   6   6    1.58    0.71   1
   6   6   6    0.36    0.64   1
   6  -6   6    2.78    0.94   1
   6  -6   6    2.60    0.87   1
  -6   6  -7   18.56    1.88   1
   6   6   7   15.71    1.61   1
  -6   6  -7    9.85    1.62   1
  -6   6  -7   14.10    1.63   1
   6   6   7   13.93    1.61   1
   6  -6   7   14.59    1.75   1
   6  -6   7   13.56    1.56   1
   6   6   8    1.86    0.77   1
  -6   6  -8    1.02    0.84   1
   6   6   8   -0.09    0.80   1
  -6   6  -8    3.79    1.15   1
   6  -6   8    2.02    1.01   1
   6  -6   8    2.93    0.90   1
   6   6   9   -0.01    0.66   1
  -6   6  -9   -0.20    0.88   1
   6   6   9    0.03    0.89   1
   6  -6   9   -0.56    1.01   1
   6   7 -11    4.37    1.11   1
  -6   7  11    5.31    1.12   1
  -6   7  11    4.14    0.99   1
   6   7 -11    4.14    1.35   1
   6   7 -11    3.49    1.04   1
  -6  -7  11    3.21    1.08   1
  -6  -7  11    2.72    1.59   1
  -6   7  10   10.68    1.34   1
  -6   7  10   10.98    1.52   1
   6   7 -10   11.60    1.46   1
   6   7 -10   11.90    1.71   1
   6   7 -10   11.68    1.64   1
  -6  -7  10   10.56    1.54   1
  -6  -7  10   14.15    1.76   1
   6   7  -9    4.97    1.10   1
   6   7  -9    4.99    1.16   1
  -6   7   9    5.01    1.02   1
   6   7  -9    6.48    1.03   1
  -6   7   9    6.61    0.98   1
   6  -7  -9    5.32    0.95   1
  -6  -7   9    4.93    1.18   1
  -6  -7   9    7.26    1.33   1
  -6   7   8   21.86    1.70   1
  -6   7   8   18.08    1.55   1
   6   7  -8   20.29    2.13   1
   6   7  -8   17.83    1.98   1
  -6  -7   8   17.73    1.90   1
  -6  -7   8   23.08    2.10   1
   6  -7  -8   21.23    1.70   1
  -6   7   7    0.54    0.51   1
  -6   7   7    2.12    0.56   1
   6   7  -7    0.81    0.81   1
   6   7  -7    1.55    0.55   1
   6  -7  -7    1.26    0.61   1
  -6  -7   7    2.03    0.76   1
  -6  -7   7    2.53    1.03   1
  -6   7   6    9.49    1.02   1
   6   7  -6   11.35    1.52   1
  -6   7   6    9.32    1.05   1
   6   7  -6    8.71    1.05   1
   6   7  -6   11.20    1.05   1
  -6  -7   6   12.59    1.30   1
   6  -7  -6   12.52    1.25   1
  -6  -7   6    9.42    1.53   1
   6   7  -5   11.64    1.49   1
  -6   7   5    8.56    0.93   1
  -6   7   5    9.53    0.94   1
   6   7  -5    6.31    0.80   1
   6   7  -5    8.40    0.96   1
   6  -7  -5    9.59    1.10   1
   6  -7  -5    8.86    1.03   1
  -6  -7   5    8.29    1.43   1
  -6  -7   5   10.16    1.12   1
   6   7  -4   14.34    1.07   1
  -6   7   4   12.55    1.06   1
   6   7  -4   13.48    1.62   1
   6   7  -4   13.19    1.01   1
  -6   7   4   11.95    1.04   1
  -6  -7   4   13.53    1.77   1
   6  -7  -4   14.50    1.22   1
  -6  -7   4   11.27    1.20   1
   6  -7  -4   12.39    1.23   1
  -6   7   3   38.44    2.38   1
   6   7  -3   42.18    2.34   1
  -6   7   3   44.93    2.48   1
   6   7  -3   41.91    2.39   1
  -6  -7   3   37.17    3.02   1
  -6  -7   3   44.26    2.50   1
   6  -7  -3   39.16    2.51   1
   6  -7  -3   42.67    2.54   1
   6   7  -2   21.13    1.40   1
  -6   7   2   22.96    1.55   1
  -6   7   2   23.16    1.51   1
   6   7  -2   25.02    1.87   1
   6   7  -2   23.92    1.47   1
  -6  -7   2   24.34    1.57   1
  -6  -7   2   16.92    2.11   1
   6  -7  -2   25.16    1.66   1
   6  -7  -2   24.38    1.64   1
  -6   7   1   19.53    1.32   1
  -6   7   1   18.46    1.32   1
   6   7  -1   21.19    1.50   1
   6   7  -1   17.91    1.19   1
   6   7  -1   18.26    1.22   1
   6  -7  -1   18.43    1.41   1
   6  -7  -1   15.71    1.38   1
  -6  -7   1   19.22    1.88   1
  -6  -7   1   18.37    1.26   1
  -6   7   0    0.04    0.42   1
  -6   7   0    0.01    0.46   1
  -6   7   0    0.26    0.35   1
   6   7   0    0.00    0.30   1
   6   7   0   -0.09    0.25   1
   6  -7   0    0.28    0.43   1
  -6  -7   0   -0.07    0.61   1
   6  -7   0    0.00    0.49   1
   6  -7   0   -0.10    0.42   1
   6   7   1   11.79    0.92   1
  -6   7  -1   12.63    1.29   1
  -6   7  -1   10.40    1.10   1
  -6   7  -1   11.27    1.05   1
   6   7   1   10.03    0.86   1
   6  -7   1   12.05    1.21   1
   6  -7   1   11.73    1.17   1
   6  -7   1   10.78    1.17   1
  -6  -7  -1   12.34    1.44   1
  -6   7  -2   32.18    1.98   1
  -6   7  -2   30.47    2.11   1
  -6   7  -2   29.35    2.00   1
   6   7   2   29.34    1.80   1
   6   7   2   29.88    1.85   1
   6  -7   2   29.40    2.02   1
  -6  -7  -2   31.37    2.14   1
   6  -7   2   29.71    2.05   1
   6  -7   2   29.62    2.04   1
  -6   7  -3   24.57    1.85   1
   6   7   3   25.55    1.74   1
  -6   7  -3   28.12    2.02   1
   6   7   3   26.59    1.73   1
  -6   7  -3   31.77    1.98   1
   6  -7   3   29.71    1.98   1
   6  -7   3   26.91    1.93   1
   6  -7   3   26.32    1.95   1
  -6   7  -4   13.62    1.49   1
   6   7   4   13.67    1.14   1
  -6   7  -4   14.63    1.47   1
  -6   7  -4   13.82    1.42   1
   6   7   4   11.24    1.16   1
   6  -7   4   13.30    1.45   1
   6  -7   4   10.72    1.27   1
   6  -7   4   12.85    1.40   1
  -6   7  -5    3.00    0.87   1
  -6   7  -5    2.34    0.81   1
   6   7   5    3.85    0.76   1
  -6   7  -5    2.71    0.89   1
   6   7   5    2.92    0.68   1
   6  -7   5    2.60    0.80   1
   6  -7   5    4.04    0.89   1
   6  -7   5    3.32    0.85   1
  -6   7  -6    4.36    0.94   1
   6   7   6    3.85    0.82   1
  -6   7  -6    4.39    1.05   1
  -6   7  -6    4.10    1.01   1
   6   7   6    2.89    0.81   1
  -6   7  -6    4.38    1.06   1
   6  -7   6    2.79    0.91   1
   6  -7   6    4.52    1.00   1
   6  -7   6    3.11    0.93   1
  -6   7  -7    6.71    1.23   1
  -6   7  -7    4.43    1.00   1
   6   7   7    6.16    1.06   1
  -6   7  -7    5.62    1.25   1
   6   7   7    6.59    1.09   1
  -6   7  -7    5.43    1.19   1
   6  -7   7    5.34    1.24   1
   6  -7   7    5.07    1.06   1
  -6   7  -8    9.92    1.62   1
   6   7   8   12.02    1.39   1
   6   7   8    7.62    1.30   1
  -6   7  -8    6.94    1.42   1
   6  -7   8   10.23    1.36   1
   6  -7   8   11.16    1.66   1
   6   8 -11    3.59    0.99   1
  -6   8  11    4.08    1.22   1
  -6   8  11    3.78    0.96   1
   6   8 -11    4.07    1.23   1
  -6  -8  11    5.01    1.45   1
  -6  -8  11    3.21    1.26   1
   6   8 -10    5.39    1.24   1
  -6   8  10    2.58    0.98   1
   6   8 -10    2.92    0.97   1
   6   8 -10    3.56    0.99   1
  -6   8  10    4.53    0.95   1
  -6  -8  10    4.18    1.17   1
  -6  -8  10    5.04    1.18   1
  -6   8   9   12.97    1.37   1
   6   8  -9   13.85    1.65   1
  -6   8   9   14.08    1.58   1
   6   8  -9   11.73    1.74   1
   6   8  -9   14.52    1.54   1
  -6  -8   9   15.69    1.80   1
   6  -8  -9   13.38    1.52   1
  -6  -8   9   13.84    1.87   1
   6   8  -8    1.93    0.88   1
   6   8  -8    1.87    0.91   1
  -6   8   8    2.38    0.67   1
  -6   8   8    2.09    0.71   1
   6   8  -8    2.53    0.72   1
  -6  -8   8    2.47    0.93   1
  -6  -8   8    1.81    0.99   1
   6  -8  -8    2.91    0.85   1
   6   8  -7   19.49    2.07   1
   6   8  -7   15.64    1.35   1
  -6   8   7   14.04    1.35   1
   6   8  -7   15.74    1.67   1
  -6   8   7   15.35    1.36   1
  -6  -8   7   17.50    1.75   1
   6  -8  -7   15.96    1.57   1
  -6  -8   7   17.93    2.07   1
   6   8  -6    1.23    0.52   1
   6   8  -6    2.88    1.00   1
  -6   8   6    1.76    0.56   1
  -6   8   6    1.99    0.58   1
  -6  -8   6    1.93    1.01   1
   6  -8  -6    2.22    0.71   1
  -6  -8   6    1.14    0.68   1
   6   8  -5   16.15    1.86   1
  -6   8   5   15.91    1.22   1
   6   8  -5   14.48    1.13   1
   6   8  -5   13.48    1.17   1
  -6   8   5   13.72    1.17   1
   6  -8  -5   11.32    1.30   1
  -6  -8   5   13.52    1.85   1
  -6  -8   5   13.90    1.42   1
   6  -8  -5   16.37    1.53   1
  -6   8   4   26.38    1.79   1
   6   8  -4   30.93    2.38   1
  -6   8   4   26.93    1.77   1
   6   8  -4   28.57    1.79   1
   6   8  -4   27.80    1.72   1
  -6  -8   4   28.68    1.94   1
   6  -8  -4   27.03    1.93   1
  -6  -8   4   28.49    2.53   1
   6  -8  -4   26.97    1.97   1
  -6   8   3   16.98    1.18   1
  -6   8   3   15.76    1.20   1
   6   8  -3   10.42    1.54   1
   6   8  -3   14.64    1.11   1
   6   8  -3   15.20    1.08   1
   6  -8  -3   13.61    1.35   1
  -6  -8   3   13.96    1.25   1
   6  -8  -3   16.31    1.36   1
  -6  -8   3   15.40    1.96   1
  -6   8   2   35.04    2.10   1
  -6   8   2   35.48    2.13   1
   6   8  -2   34.83    2.01   1
   6   8  -2   33.43    2.43   1
   6   8  -2   32.36    1.97   1
  -6  -8   2   33.53    2.77   1
  -6  -8   2   36.16    2.17   1
   6  -8  -2   34.80    2.25   1
   6  -8  -2   35.12    2.26   1
   6   8  -1    5.14    0.57   1
  -6   8   1    5.85    0.72   1
   6   8  -1    4.11    0.55   1
  -6   8   1    4.68    0.71   1
   6  -8  -1    5.64    0.86   1
  -6  -8   1    4.72    0.68   1
   6  -8  -1    4.44    0.80   1
  -6  -8   1    5.66    1.20   1
   6   8   0   12.55    0.92   1
  -6   8   0   12.73    1.34   1
   6   8   0   11.05    0.89   1
  -6   8   0   13.04    1.10   1
  -6   8   0    9.83    1.02   1
   6  -8   0   12.59    1.27   1
   6  -8   0    9.80    1.22   1
   6  -8   0   12.41    1.27   1
  -6  -8   0   12.93    1.58   1
  -6   8  -1    7.97    1.09   1
   6   8   1    8.58    0.76   1
  -6   8  -1    9.72    0.95   1
   6   8   1    7.17    0.73   1
  -6   8  -1    6.37    0.91   1
   6  -8   1    6.50    0.98   1
   6  -8   1    8.35    1.08   1
   6  -8   1    7.62    1.01   1
  -6  -8  -1    9.20    1.27   1
  -6   8  -2   12.32    1.23   1
  -6   8  -2   13.92    1.26   1
   6   8   2   13.24    1.03   1
  -6   8  -2   11.31    1.39   1
   6   8   2   14.61    1.07   1
   6  -8   2   16.16    1.53   1
  -6  -8  -2   14.41    1.37   1
   6  -8   2   14.47    1.38   1
   6  -8   2   13.38    1.43   1
   6   8   3   18.76    1.41   1
   6   8   3   21.67    1.43   1
  -6   8  -3   23.56    1.82   1
  -6   8  -3   21.96    1.68   1
  -6   8  -3   18.76    1.56   1
   6  -8   3   19.65    1.72   1
   6  -8   3   21.93    1.70   1
   6  -8   3   23.05    1.82   1
  -6   8  -4    9.24    1.30   1
   6   8   4   10.78    1.10   1
  -6   8  -4    8.69    1.20   1
   6   8   4   10.68    1.03   1
  -6   8  -4   12.03    1.30   1
   6  -8   4    9.41    1.20   1
   6  -8   4   10.76    1.34   1
   6  -8   4    8.70    1.24   1
  -6   8  -5    7.93    1.25   1
  -6   8  -5    5.04    1.12   1
   6   8   5    8.17    0.95   1
  -6   8  -5    8.00    1.21   1
   6   8   5    7.60    1.01   1
   6  -8   5    7.56    1.23   1
   6  -8   5    6.54    1.19   1
   6  -8   5    8.06    1.16   1
  -6   8  -6    1.19    0.80   1
  -6   8  -6    0.98    0.78   1
   6   8   6    0.74    0.56   1
  -6   8  -6   -0.09    0.59   1
  -6   8  -6    0.32    0.73   1
   6   8   6    0.06    0.58   1
   6  -8   6    0.41    0.77   1
   6  -8   6   -0.39    0.66   1
   6  -8   6   -0.55    0.78   1
   6   8   7    7.42    1.11   1
   6   8   7    7.30    1.13   1
  -6   8  -7   10.45    1.53   1
  -6   8  -7    6.39    1.19   1
  -6   8  -7    8.54    1.46   1
  -6   8  -7    8.56    1.34   1
   6  -8   7    8.05    1.21   1
   6  -8   7    8.30    1.38   1
   6   8   8    2.99    1.00   1
   6   8   8    4.85    0.99   1
  -6   8  -8    5.53    1.40   1
   6  -8   8    7.12    1.66   1
   6   9 -10    1.88    0.87   1
  -6   9  10    0.77    0.88   1
  -6   9  10   -0.17    0.61   1
   6   9 -10   -1.04    0.78   1
  -6  -9  10   -0.60    1.00   1
  -6  -9  10   -0.41    1.06   1
   6   9  -9   -0.36    0.75   1
  -6   9   9    0.00    0.53   1
  -6   9   9    0.09    0.70   1
   6   9  -9   -0.03    0.64   1
   6   9  -9    0.57    0.69   1
   6  -9  -9   -0.71    0.71   1
  -6  -9   9   -1.68    0.83   1
  -6  -9   9    0.86    0.96   1
   6   9  -8    7.14    1.04   1
  -6   9   8    4.75    0.94   1
   6   9  -8    4.73    0.98   1
  -6   9   8    4.04    0.81   1
   6   9  -8    5.84    1.27   1
  -6  -9   8    6.21    1.28   1
  -6  -9   8    5.74    1.37   1
   6  -9  -8    7.60    1.15   1
   6   9  -7    7.83    1.21   1
   6   9  -7   11.30    1.68   1
  -6   9   7    9.15    1.07   1
  -6   9   7   10.48    1.21   1
   6  -9  -7    9.86    1.27   1
  -6  -9   7   10.29    1.40   1
  -6  -9   7    9.38    1.61   1
  -6   9   6   59.99    3.34   1
   6   9  -6   53.80    3.25   1
   6   9  -6   66.75    4.03   1
  -6   9   6   58.55    3.29   1
   6   9  -6   45.69    3.37   1
   6  -9  -6   60.18    3.49   1
  -6  -9   6   56.94    4.00   1
  -6  -9   6   57.28    3.57   1
   6   9  -5    0.75    0.45   1
  -6   9   5   -0.36    0.42   1
   6   9  -5    1.07    0.89   1
  -6   9   5    0.00    0.41   1
  -6  -9   5   -0.80    0.77   1
  -6  -9   5    0.18    0.59   1
   6  -9  -5   -0.73    0.55   1
   6   9  -4   10.80    0.99   1
  -6   9   4   11.25    1.08   1
   6   9  -4   12.17    1.04   1
   6   9  -4   13.02    1.77   1
  -6   9   4   13.10    1.08   1
  -6  -9   4   15.47    2.01   1
  -6  -9   4   12.55    1.32   1
   6  -9  -4   11.73    1.34   1
   6  -9  -4   12.76    1.40   1
  -6   9   3    0.19    0.38   1
   6   9  -3    0.36    0.34   1
   6   9  -3    0.38    0.33   1
  -6   9   3   -0.12    0.37   1
   6   9  -3   -0.08    0.76   1
   6  -9  -3    0.11    0.52   1
  -6  -9   3    0.67    0.52   1
   6  -9  -3    0.13    0.55   1
  -6  -9   3    0.76    0.95   1
   6   9  -2   10.23    1.43   1
  -6   9   2    8.70    0.93   1
   6   9  -2    7.91    0.79   1
  -6   9   2    9.92    0.99   1
   6  -9  -2    9.40    1.17   1
  -6  -9   2    9.55    1.57   1
  -6  -9   2   11.89    1.12   1
   6  -9  -2   11.21    1.23   1
  -6   9   1   66.95    3.62   1
  -6   9   1   64.41    3.63   1
  -6   9   1   61.71    3.85   1
   6   9  -1   64.03    3.46   1
  -6  -9   1   61.10    4.17   1
  -6  -9   1   73.26    4.22   1
   6  -9  -1   68.40    3.81   1
   6  -9  -1   62.19    3.80   1
   6   9   0    0.07    0.29   1
  -6   9   0    0.26    0.46   1
  -6   9   0   -0.33    0.52   1
  -6   9   0    0.01    0.43   1
   6  -9   0    0.55    0.61   1
  -6  -9   0    0.87    0.80   1
   6  -9   0   -0.98    0.48   1
  -6   9  -1   37.48    2.37   1
  -6   9  -1   40.11    2.45   1
  -6   9  -1   40.94    2.67   1
   6   9   1   37.69    2.21   1
   6  -9   1   42.18    2.69   1
   6  -9   1   35.23    2.56   1
  -6  -9  -1   44.60    2.81   1
   6  -9   1   35.79    2.55   1
  -6   9  -2    1.26    0.57   1
   6   9   2    1.17    0.40   1
  -6   9  -2    1.73    0.74   1
  -6   9  -2    0.43    0.54   1
   6  -9   2    2.06    0.75   1
   6  -9   2    1.40    0.68   1
   6  -9   2    1.80    0.76   1
   6   9   3    0.33    0.38   1
  -6   9  -3    0.30    0.56   1
  -6   9  -3    0.70    0.53   1
  -6   9  -3    0.80    0.66   1
   6  -9   3   -0.20    0.63   1
   6  -9   3    0.74    0.72   1
   6  -9   3   -0.12    0.65   1
  -6   9  -4   15.36    1.75   1
  -6   9  -4   21.75    1.71   1
  -6   9  -4   14.92    1.55   1
   6   9   4   14.71    1.29   1
   6  -9   4   17.08    1.82   1
   6  -9   4   16.06    1.72   1
   6  -9   4   17.57    1.71   1
  -6   9  -5    0.15    0.70   1
  -6   9  -5    0.62    0.73   1
   6   9   5    1.07    0.56   1
  -6   9  -5    0.85    0.71   1
  -6   9  -5    0.23    0.59   1
   6  -9   5    0.86    0.79   1
   6  -9   5   -0.51    0.65   1
   6  -9   5    2.05    0.87   1
  -6   9  -6   36.47    2.61   1
  -6   9  -6   34.19    2.47   1
   6   9   6   23.56    2.05   1
  -6   9  -6   24.80    2.30   1
   6  -9   6   26.91    2.23   1
   6  -9   6   33.26    2.51   1
   6  -9   6   26.78    2.44   1
  -6   9  -7    2.19    0.91   1
  -6   9  -7    2.83    1.22   1
   6   9   7    1.57    0.80   1
   6  -9   7    4.74    1.40   1
   6  10  -9   22.27    1.97   1
  -6  10   9   19.13    1.75   1
   6  10  -9   20.04    2.01   1
  -6 -10   9   24.51    2.69   1
  -6 -10   9   19.71    2.24   1
   6 -10  -9   19.62    2.13   1
   6  10  -8   10.24    1.81   1
   6  10  -8   11.33    1.36   1
   6  10  -8   12.70    1.45   1
  -6  10   8   10.79    1.21   1
  -6 -10   8   11.64    1.85   1
  -6 -10   8    9.58    1.53   1
   6 -10  -8   11.68    1.52   1
   6  10  -7   -0.01    0.53   1
   6  10  -7   -0.75    0.86   1
  -6  10   7    0.37    0.48   1
   6  10  -7    0.11    0.55   1
  -6 -10   7   -0.04    1.00   1
   6 -10  -7    0.21    0.79   1
  -6 -10   7    0.13    0.76   1
   6  10  -6   -0.39    0.43   1
   6  10  -6   -0.49    0.82   1
  -6  10   6   -0.30    0.45   1
  -6  10   6   -0.73    0.40   1
   6  10  -6   -0.25    0.54   1
  -6 -10   6   -0.04    0.63   1
  -6 -10   6   -0.15    0.86   1
   6 -10  -6    0.86    0.74   1
  -6  10   5    1.32    0.53   1
  -6  10   5    1.96    0.55   1
   6  10  -5    1.79    0.98   1
   6  10  -5    0.96    0.49   1
   6 -10  -5    2.22    0.80   1
  -6 -10   5    2.37    0.82   1
  -6 -10   5    1.38    1.14   1
   6  10  -4   38.65    2.33   1
   6  10  -4   45.62    3.14   1
  -6  10   4   38.47    2.38   1
   6 -10  -4   36.48    2.65   1
   6 -10  -4   39.61    2.68   1
  -6 -10   4   41.59    2.68   1
  -6 -10   4   38.14    3.22   1
  -6  10   3   17.27    1.29   1
  -6  10   3   16.19    1.27   1
   6  10  -3   16.68    1.19   1
   6  10  -3   11.45    1.79   1
   6 -10  -3   17.76    1.68   1
  -6 -10   3   19.38    2.29   1
  -6 -10   3   15.07    1.51   1
   6 -10  -3   18.25    1.75   1
  -6  10   2    8.84    0.94   1
  -6  10   2    9.67    0.98   1
   6  10  -2    7.90    0.79   1
   6 -10  -2    9.91    1.22   1
   6 -10  -2    7.55    1.17   1
  -6 -10   2    9.84    1.12   1
  -6 -10   2    9.97    1.65   1
  -6  10   1   10.24    1.05   1
   6  10  -1   11.53    0.90   1
  -6  10   1   13.04    1.09   1
  -6  10   1   11.06    1.40   1
   6 -10  -1   11.13    1.35   1
   6 -10  -1    7.69    1.25   1
  -6 -10   1   12.23    1.74   1
   6  10   0    4.11    0.54   1
  -6  10   0    4.04    0.70   1
  -6  10   0    3.84    0.90   1
  -6  10   0    4.07    0.72   1
   6 -10   0    5.15    0.95   1
   6 -10   0    3.46    0.91   1
  -6 -10   0    4.12    1.07   1
  -6  10  -1   25.97    2.06   1
  -6  10  -1   23.91    1.81   1
   6  10   1   25.47    1.59   1
  -6  10  -1   24.08    1.76   1
  -6 -10  -1   28.42    2.20   1
   6 -10   1   25.52    2.09   1
   6 -10   1   25.77    2.13   1
   6 -10   1   30.01    2.05   1
  -6  10  -2    7.06    0.99   1
  -6  10  -2    9.35    1.32   1
  -6  10  -2    8.32    1.02   1
   6  10   2    8.49    0.83   1
   6 -10   2    6.94    1.20   1
   6 -10   2   10.18    1.27   1
   6 -10   2   10.40    1.40   1
  -6  10  -3   23.29    1.95   1
  -6  10  -3   23.04    1.77   1
   6  10   3   20.30    1.47   1
  -6  10  -3   20.66    1.69   1
   6 -10   3   23.35    2.10   1
   6 -10   3   22.62    2.03   1
  -6  10  -4   25.39    2.24   1
  -6  10  -4   26.63    2.05   1
   6  10   4   27.09    1.85   1
  -6  10  -4   29.34    2.18   1
   6 -10   4   30.97    2.26   1
   6 -10   4   26.63    2.26   1
   6 -10   4   32.88    2.54   1
  -6  10  -5    1.93    0.83   1
  -6  10  -5    0.74    0.76   1
  -6  10  -5    0.42    0.65   1
  -6  10  -5    1.50    0.95   1
   6  10   5    0.78    0.56   1
   6 -10   5    1.31    0.79   1
   6 -10   5    0.16    0.92   1
   6 -10   5    0.45    0.90   1
  -6  10  -6    0.54    0.93   1
  -6  10  -6    0.15    0.76   1
   6  10   6    1.29    0.78   1
   6 -10   6    1.18    1.18   1
   6 -10   6    0.84    1.17   1
  -6  11   7    5.80    0.88   1
   6  11  -7    6.99    1.05   1
  -6 -11   7    7.94    1.75   1
  -6 -11   7    6.06    1.21   1
   6 -11  -7    7.58    1.34   1
   6  11  -6   15.34    1.39   1
   6  11  -6   17.20    2.14   1
  -6  11   6   14.31    1.33   1
  -6 -11   6   18.52    1.89   1
  -6 -11   6   19.14    2.41   1
   6 -11  -6   18.81    1.84   1
   6  11  -5    0.86    0.50   1
  -6  11   5    0.97    0.51   1
   6  11  -5    0.56    0.88   1
   6 -11  -5    0.11    0.65   1
  -6 -11   5    1.30    0.71   1
  -6 -11   5   -0.22    0.92   1
  -6  11   4    1.14    0.50   1
   6  11  -4    0.90    0.94   1
   6  11  -4    1.27    0.48   1
  -6 -11   4    0.56    0.69   1
   6 -11  -4    1.90    0.86   1
   6 -11  -4    0.41    0.77   1
  -6 -11   4    0.11    0.99   1
   6  11  -3    2.37    0.49   1
  -6  11   3    1.46    0.52   1
  -6 -11   3    3.81    1.34   1
   6 -11  -3    2.43    0.88   1
   6 -11  -3    2.40    0.87   1
  -6 -11   3    1.59    0.72   1
  -6  11   2   13.35    1.56   1
   6  11  -2   10.56    0.92   1
  -6  11   2   11.57    1.11   1
   6 -11  -2    8.96    1.33   1
  -6 -11   2   11.56    1.82   1
   6 -11  -2   12.11    1.50   1
  -6  11   1   15.52    1.29   1
  -6  11   1   15.72    1.71   1
   6  11  -1   15.74    1.11   1
   6 -11  -1   15.88    1.73   1
   6 -11  -1   13.25    1.53   1
  -6 -11   1   17.95    2.12   1
  -6  11   0    0.59    0.66   1
   6  11   0    0.45    0.33   1
  -6  11   0    0.09    0.44   1
  -6 -11   0    0.22    0.77   1
   6 -11   0   -0.25    0.63   1
   6 -11   0   -0.58    0.73   1
  -6  11  -1    9.44    1.12   1
  -6  11  -1   11.42    1.17   1
   6  11   1   12.59    0.93   1
  -6  11  -1   10.95    1.45   1
   6 -11   1   10.23    1.45   1
   6 -11   1    9.60    1.30   1
   6  11   2    7.44    0.76   1
  -6  11  -2    7.88    1.01   1
  -6  11  -2    8.56    1.29   1
  -6  11  -2    6.19    0.95   1
   6 -11   2    7.28    1.31   1
   6 -11   2    6.98    1.33   1
   6 -11   2    7.61    1.15   1
  -6  11  -3    4.51    1.19   1
   6  11   3    4.17    0.61   1
  -6  11  -3    3.26    0.79   1
  -6  11  -3    2.24    0.69   1
   6 -11   3    4.42    1.14   1
   6 -11   3    0.88    0.99   1
   6 -11   3    2.80    0.89   1
  -6  11  -4    3.36    0.86   1
  -6  11  -4    2.39    0.85   1
   6  11   4    2.39    0.62   1
   6 -11   4    1.34    1.06   1
   6 -11   4    1.34    0.77   1
   6 -11   4    2.46    1.14   1
  -6  12   5    1.19    0.64   1
  -6 -12   5    2.70    1.36   1
   6 -12  -5    2.02    1.01   1
  -6 -12   5    1.33    0.76   1
  -6  12   4    1.95    0.62   1
   6  12  -4    2.37    0.59   1
   6 -12  -4    1.77    0.86   1
  -6 -12   4    1.03    0.66   1
   6 -12  -4    0.66    0.95   1
  -6 -12   4    2.75    1.27   1
   6  12  -3    1.16    0.46   1
  -6  12   3    0.69    0.51   1
  -6 -12   3    1.17    1.08   1
   6 -12  -3    0.77    0.84   1
   6 -12  -3    0.33    0.77   1
   6  12  -2    0.26    0.34   1
  -6  12   2    0.44    0.75   1
  -6  12   2   -0.14    0.44   1
   6 -12  -2   -0.45    0.83   1
  -6 -12   2   -0.04    0.94   1
   6 -12  -2    0.06    0.72   1
  -6  12   1    1.72    0.58   1
   6  12  -1    1.11    0.39   1
  -6 -12   1    1.61    0.96   1
   6 -12  -1    1.71    0.78   1
   6 -12  -1    1.63    0.93   1
   6  12   0    1.45    0.40   1
  -6  12   0    1.09    0.58   1
   6 -12   0    1.40    0.95   1
  -6 -12   0    1.85    0.92   1
   6 -12   0    1.99    0.80   1
   6  12   1    0.36    0.37   1
  -6  12  -1    0.60    0.55   1
   6 -12   1    1.56    0.80   1
   6 -12   1    1.25    1.02   1
   6  12   2    0.07    0.43   1
  -6  12  -2   -0.01    0.59   1
   6 -12   2   -0.49    1.06   1
   6 -12   2   -0.16    0.72   1
  -7   0  13   -0.23    0.70   1
   7   0 -13   -0.12    0.66   1
   7   0 -13   -0.08    0.72   1
  -7   0  13    0.81    0.84   1
   7   0 -12   -1.34    0.62   1
  -7   0  12   -0.80    0.67   1
  -7   0  12    0.55    0.82   1
   7   0 -12   -0.93    0.70   1
  -7   0  11    0.71    0.78   1
   7   0 -11    0.34    0.68   1
  -7   0  11    0.09    0.70   1
   7   0 -11    0.22    0.75   1
  -7   0  10   -0.49    0.59   1
   7   0 -10   -0.58    0.59   1
  -7   0  10   -0.39    0.66   1
   7   0  -9   -0.71    0.58   1
  -7   0   9    0.07    0.61   1
  -7   0   9    0.27    0.56   1
  -7   0   9    0.65    0.59   1
   7   0  -9    0.10    0.49   1
   7   0  -8   -0.39    0.41   1
  -7   0   8   -0.11    0.43   1
  -7   0   8   -0.44    0.53   1
   7   0  -8    0.73    0.66   1
  -7   0   7    0.12    0.51   1
  -7   0   7   -0.43    0.38   1
   7   0  -7    0.33    0.43   1
   7   0  -7    0.07    0.55   1
  -7   0   6   -0.07    0.38   1
   7   0  -6    0.13    0.54   1
   7   0  -6    0.05    0.38   1
  -7   0   6   -0.15    0.26   1
  -7   0   6    0.18    0.50   1
   7   0  -6    0.49    0.30   1
  -7   0   5    0.14    0.24   1
  -7   0   5    0.12    0.50   1
   7   0  -5    0.01    0.45   1
   7   0  -5    0.19    0.26   1
   7   0  -5    0.11    0.19   1
   7   0  -5   -0.27    0.32   1
  -7   0   5   -0.13    0.34   1
   7   0  -4    0.43    0.22   1
  -7   0   4    0.17    0.47   1
  -7   0   4   -0.26    0.32   1
   7   0  -4   -0.48    0.30   1
  -7   0   4   -0.25    0.24   1
   7   0  -4   -0.24    0.23   1
   7   0  -4   -0.23    0.27   1
  -7   0   3    0.05    0.23   1
   7   0  -3   -0.16    0.20   1
   7   0  -3    0.00    0.33   1
   7   0  -3    0.07    0.26   1
  -7   0   3   -0.11    0.31   1
   7   0  -3   -0.22    0.34   1
  -7   0   3    0.21    0.46   1
   7   0  -2   -0.49    0.21   1
   7   0  -2    0.02    0.25   1
   7   0  -2    0.18    0.31   1
  -7   0   2    0.09    0.22   1
  -7   0   2   -0.34    0.29   1
   7   0  -2   -0.31    0.29   1
   7   0  -1   -0.48    0.29   1
  -7   0   1    0.05    0.22   1
  -7   0   1    0.50    0.35   1
   7   0  -1    0.03    0.28   1
  -7   0   1    0.02    0.15   1
   7   0  -1   -0.21    0.11   1
   7   0  -1   -0.05    0.31   1
   7   0  -1   -0.08    0.25   1
  -7   0   0   -0.21    0.15   1
  -7   0   0    0.19    0.23   1
   7   0   0    0.05    0.35   1
  -7   0   0    0.42    0.36   1
   7   0   0   -0.11    0.14   1
   7   0   0    0.26    0.35   1
   7   0   0   -0.44    0.23   1
  -7   0  -1   -0.04    0.35   1
   7   0   1    0.15    0.20   1
  -7   0  -1   -0.33    0.20   1
   7   0   1   -0.43    0.31   1
   7   0   1    0.02    0.27   1
  -7   0  -1   -0.07    0.19   1
   7   0   2    0.18    0.23   1
  -7   0  -2    0.20    0.37   1
   7   0   2   -0.16    0.28   1
  -7   0  -2    0.24    0.26   1
   7   0   2   -0.65    0.30   1
   7   0   3   -0.05    0.27   1
  -7   0  -3   -0.14    0.28   1
   7   0   3    0.13    0.39   1
   7   0   3    0.17    0.34   1
  -7   0  -3    0.27    0.40   1
   7   0   4   -0.16    0.43   1
  -7   0  -4    0.18    0.37   1
   7   0   4    0.40    0.38   1
  -7   0  -4    0.94    0.51   1
   7   0   4   -0.46    0.31   1
  -7   0  -5    0.00    0.32   1
   7   0   5   -0.49    0.46   1
   7   0   5   -0.34    0.36   1
  -7   0  -5   -0.15    0.47   1
   7   0   5    0.12    0.45   1
   7   0   6   -0.78    0.52   1
  -7   0  -6    0.70    0.48   1
  -7   0  -6   -0.75    0.55   1
   7   0   6    0.02    0.60   1
   7   0   7    0.59    0.67   1
  -7   0  -7   -0.57    0.55   1
  -7   0  -7    0.27    0.46   1
   7   0   7   -1.49    0.58   1
   7   0   8    0.26    0.81   1
  -7   0  -8   -1.07    0.41   1
   7   0   8    0.49    0.74   1
  -7   0  -8   -0.55    0.56   1
   7   0   9    0.54    0.75   1
   7   0   9   -0.12    0.66   1
   7   0  10   -1.89    0.75   1
   7   0  10    0.99    0.95   1
  -7   1  13    0.40    0.84   1
   7   1 -13    1.08    0.88   1
  -7   1  13   -1.11    0.73   1
   7   1 -13   -0.95    0.66   1
  -7  -1  13    0.63    0.71   1
   7  -1 -13    0.67    0.76   1
  -7  -1  13    0.33    0.78   1
  -7   1  12    0.85    0.85   1
   7   1 -12   -0.32    0.64   1
   7   1 -12    0.43    0.79   1
  -7   1  12   -0.16    0.76   1
  -7  -1  12    0.29    0.74   1
  -7  -1  12    0.63    0.71   1
   7  -1 -12   -0.50    0.60   1
   7  -1 -12    0.11    0.67   1
  -7  -1  12   -0.68    0.63   1
   7   1 -11    5.12    1.26   1
  -7   1  11    6.47    1.36   1
  -7   1  11    9.53    1.36   1
   7   1 -11    8.40    1.35   1
  -7  -1  11    6.96    1.21   1
  -7  -1  11    8.50    1.38   1
   7  -1 -11    3.38    1.06   1
   7  -1 -11    8.95    1.36   1
   7   1 -10    9.49    1.40   1
  -7   1  10    7.20    1.18   1
  -7   1  10    8.63    1.28   1
   7  -1 -10    9.85    1.43   1
  -7  -1  10    5.18    1.11   1
  -7  -1  10    8.17    1.20   1
   7  -1 -10    7.00    1.23   1
   7   1  -9    3.77    0.81   1
   7   1  -9    5.70    1.12   1
  -7   1   9    3.89    0.85   1
  -7   1   9    3.57    0.80   1
   7  -1  -9    3.71    0.79   1
   7  -1  -9    5.69    1.11   1
  -7  -1   9    3.74    0.89   1
  -7  -1   9    3.95    0.85   1
  -7  -1   9    4.38    0.93   1
  -7   1   8   10.03    1.23   1
   7   1  -8   12.13    1.53   1
  -7   1   8   13.78    1.26   1
   7   1  -8   11.76    1.29   1
  -7   1   8   13.26    1.28   1
   7  -1  -8   14.10    1.58   1
  -7  -1   8   11.26    1.30   1
  -7  -1   8   14.92    1.48   1
   7  -1  -8   13.66    1.23   1
  -7  -1   8   14.45    1.41   1
   7   1  -7    2.60    0.81   1
   7   1  -7    3.35    0.66   1
  -7   1   7    2.27    0.65   1
   7   1  -7    3.18    0.55   1
  -7   1   7    3.36    0.57   1
  -7   1   7    2.28    0.62   1
  -7  -1   7    3.12    0.66   1
   7  -1  -7    3.55    0.68   1
  -7  -1   7    3.52    0.78   1
  -7  -1   7    3.24    0.81   1
   7  -1  -7    2.79    0.81   1
  -7   1   6   15.88    1.43   1
  -7   1   6   16.16    1.25   1
   7   1  -6   16.52    1.42   1
   7   1  -6   15.47    1.28   1
   7   1  -6   16.92    1.18   1
  -7   1   6   16.95    1.20   1
   7  -1  -6   16.35    1.45   1
  -7  -1   6   15.20    1.27   1
  -7  -1   6   17.25    1.45   1
   7  -1  -6   18.34    1.05   1
   7  -1  -6   15.14    1.26   1
   7   1  -5    7.42    0.99   1
  -7   1   5    4.00    0.66   1
   7   1  -5    4.89    0.70   1
   7   1  -5    5.07    0.64   1
  -7   1   5    5.22    0.83   1
  -7   1   5    4.44    0.60   1
   7  -1  -5    5.62    0.54   1
   7  -1  -5    4.88    0.58   1
   7  -1  -5    4.74    0.69   1
   7  -1  -5    3.65    0.74   1
  -7  -1   5    4.85    0.81   1
  -7  -1   5    5.02    0.69   1
   7   1  -4   37.40    2.33   1
   7   1  -4   34.84    2.24   1
   7   1  -4   41.45    2.19   1
  -7   1   4   36.95    2.14   1
  -7   1   4   36.17    2.22   1
   7   1  -4   40.63    2.00   1
  -7  -1   4   36.17    2.21   1
  -7  -1   4   40.80    2.43   1
   7  -1  -4   34.31    2.29   1
   7  -1  -4   36.12    2.11   1
  -7  -1   4   37.53    2.12   1
   7  -1  -4   40.11    2.28   1
   7  -1  -4   37.73    2.07   1
  -7   1   3   38.41    2.14   1
   7   1  -3   37.10    2.24   1
   7   1  -3   36.83    2.14   1
   7   1  -3   37.18    2.02   1
  -7   1   3   37.24    2.22   1
   7   1  -3   36.10    2.24   1
   7  -1  -3   35.35    2.25   1
   7  -1  -3   42.05    2.27   1
   7  -1  -3   38.96    2.13   1
  -7  -1   3   38.56    2.21   1
   7  -1  -3   38.76    2.10   1
  -7  -1   3   38.06    2.10   1
  -7  -1   3   37.77    2.39   1
   7   1  -2    4.00    0.59   1
   7   1  -2    3.34    0.57   1
   7   1  -2    3.24    0.42   1
  -7   1   2    2.92    0.53   1
  -7   1   2    3.11    0.46   1
   7   1  -2    3.04    0.46   1
   7  -1  -2    2.84    0.53   1
   7  -1  -2    2.89    0.45   1
  -7  -1   2    4.22    0.75   1
  -7  -1   2    3.95    0.56   1
  -7  -1   2    3.53    0.26   1
   7  -1  -2    3.85    0.48   1
   7  -1  -2    3.49    0.36   1
  -7  -1   2    3.17    0.42   1
   7  -1  -2    3.49    0.57   1
  -7   1   1    9.88    0.68   1
   7   1  -1    9.26    0.77   1
  -7   1   1    9.33    0.78   1
   7   1  -1    9.43    0.77   1
   7   1  -1    8.56    0.78   1
  -7   1   1    9.66    0.87   1
   7  -1  -1    9.04    0.63   1
  -7  -1   1    9.48    0.53   1
   7  -1  -1    9.15    0.91   1
   7  -1  -1    9.10    0.79   1
   7  -1  -1   10.25    0.76   1
  -7  -1   1   10.25    1.11   1
  -7  -1   1    8.98    0.81   1
   7   1   0    0.43    0.31   1
  -7   1   0    0.72    0.25   1
   7   1   0   -0.13    0.31   1
  -7   1   0   -0.06    0.24   1
  -7   1   0    0.66    0.38   1
  -7  -1   0    0.32    0.15   1
  -7  -1   0    0.19    0.18   1
   7  -1   0    0.08    0.24   1
   7  -1   0    0.05    0.37   1
   7  -1   0    0.58    0.31   1
  -7  -1   0    0.63    0.51   1
  -7  -1   0    0.27    0.32   1
   7  -1   0    0.36    0.22   1
  -7   1  -1   42.77    2.38   1
   7   1   1   43.70    2.57   1
  -7   1  -1   42.05    2.54   1
   7   1   1   47.47    2.49   1
   7   1   1   42.97    2.27   1
  -7   1  -1   42.72    2.43   1
   7  -1   1   44.66    2.36   1
  -7  -1  -1   42.53    2.30   1
  -7  -1  -1   42.78    2.65   1
  -7  -1  -1   45.54    2.53   1
   7  -1   1   43.72    2.46   1
   7  -1   1   43.95    2.58   1
   7  -1   1   44.95    2.53   1
   7   1   2   50.95    3.01   1
  -7   1  -2   52.35    3.01   1
  -7   1  -2   56.08    2.87   1
   7   1   2   51.29    2.75   1
  -7   1  -2   51.86    2.89   1
   7   1   2   52.80    2.92   1
   7  -1   2   53.17    2.91   1
   7  -1   2   50.36    2.81   1
   7  -1   2   54.77    3.05   1
  -7  -1  -2   55.33    2.99   1
  -7  -1  -2   52.74    2.79   1
  -7  -1  -2   48.73    3.04   1
   7   1   3    0.37    0.28   1
  -7   1  -3    0.36    0.31   1
   7   1   3    0.00    0.40   1
   7   1   3   -0.31    0.33   1
  -7   1  -3    0.60    0.45   1
  -7  -1  -3    0.17    0.27   1
  -7  -1  -3    0.43    0.40   1
  -7  -1  -3    0.04    0.41   1
   7  -1   3    0.50    0.33   1
   7  -1   3   -0.46    0.38   1
   7  -1   3    0.20    0.29   1
   7   1   4    5.99    0.87   1
   7   1   4    5.82    0.72   1
  -7   1  -4    3.66    0.69   1
   7   1   4    5.80    0.83   1
  -7   1  -4    3.19    0.73   1
   7  -1   4    6.23    0.72   1
   7  -1   4    5.08    0.79   1
  -7  -1  -4    6.10    0.74   1
  -7  -1  -4    5.13    0.78   1
  -7  -1  -4    5.64    0.66   1
  -7   1  -5    1.58    0.66   1
   7   1   5    2.12    0.58   1
   7   1   5    1.77    0.66   1
  -7   1  -5    0.90    0.54   1
   7   1   5    1.05    0.62   1
   7  -1   5    1.71    0.59   1
  -7  -1  -5    1.49    0.43   1
   7  -1   5    0.13    0.57   1
  -7  -1  -5    1.48    0.58   1
   7   1   6    8.95    1.13   1
   7   1   6    8.68    1.24   1
   7   1   6   11.38    1.44   1
  -7   1  -6   11.18    1.41   1
  -7   1  -6    9.62    1.18   1
   7  -1   6   10.89    1.25   1
  -7  -1  -6   10.16    1.05   1
  -7  -1  -6   10.96    1.33   1
   7  -1   6   10.39    1.40   1
   7   1   7    9.96    1.19   1
   7   1   7    8.37    1.38   1
  -7   1  -7    6.27    1.24   1
  -7   1  -7    9.78    1.23   1
   7  -1   7    8.61    1.22   1
   7  -1   7   10.67    1.50   1
  -7  -1  -7    9.71    1.06   1
  -7  -1  -7    7.07    1.16   1
  -7   1  -8    0.93    0.64   1
   7   1   8    0.82    0.96   1
   7   1   8    1.68    0.76   1
  -7   1  -8    1.56    0.81   1
   7  -1   8    1.90    0.83   1
   7  -1   8    1.29    0.87   1
   7   1   9    4.73    1.03   1
  -7   1  -9    7.16    1.32   1
   7   1   9    7.50    1.41   1
  -7   1  -9    4.01    0.93   1
   7  -1   9    6.03    1.33   1
   7  -1   9    4.17    1.09   1
   7   1  10    0.71    0.89   1
   7   1  10   -0.87    0.70   1
   7  -1  10    0.54    0.96   1
   7  -1  10   -0.77    0.66   1
   7  -1  10    0.39    0.84   1
  -7   2  13   26.03    2.23   1
  -7   2  13   23.30    2.38   1
   7   2 -13   22.19    2.54   1
   7   2 -13   22.31    2.36   1
  -7  -2  13   23.74    2.19   1
  -7  -2  13   22.99    2.23   1
   7  -2 -13   22.89    2.03   1
   7   2 -12    0.11    0.73   1
   7   2 -12    0.96    0.87   1
  -7   2  12    0.69    0.81   1
  -7   2  12   -0.35    0.83   1
  -7  -2  12   -0.11    0.74   1
   7  -2 -12    0.90    0.70   1
  -7  -2  12    0.23    0.74   1
   7   2 -11    4.24    1.18   1
  -7   2  11    4.28    1.12   1
   7   2 -11    7.12    1.28   1
  -7   2  11    2.98    1.01   1
  -7  -2  11    6.70    1.01   1
  -7  -2  11    5.65    1.10   1
  -7  -2  11    7.90    1.25   1
   7  -2 -11    5.93    1.12   1
   7  -2 -11    6.77    1.21   1
   7   2 -10    0.21    0.69   1
  -7   2  10    0.18    0.61   1
   7  -2 -10   -0.21    0.61   1
   7  -2 -10    0.01    0.67   1
  -7  -2  10    0.10    0.71   1
  -7  -2  10    0.38    0.72   1
  -7  -2  10   -0.42    0.51   1
  -7  -2  10    1.19    0.76   1
  -7   2   9    9.41    1.22   1
  -7   2   9   13.31    1.28   1
   7   2  -9   12.10    1.53   1
   7   2  -9   10.69    1.28   1
  -7  -2   9   10.95    1.10   1
   7  -2  -9   13.34    1.37   1
   7  -2  -9    9.70    1.37   1
  -7  -2   9    8.52    1.21   1
  -7  -2   9    8.76    1.26   1
  -7  -2   9   11.88    1.46   1
  -7   2   8   61.38    3.57   1
   7   2  -8   58.70    3.38   1
  -7   2   8   59.95    3.49   1
   7   2  -8   61.03    3.77   1
  -7   2   8   61.00    3.44   1
   7   2  -8   57.76    3.51   1
  -7  -2   8   59.59    3.29   1
  -7  -2   8   59.53    3.59   1
  -7  -2   8   60.92    3.71   1
   7  -2  -8   55.21    3.45   1
  -7  -2   8   63.93    3.59   1
   7  -2  -8   60.77    3.75   1
   7   2  -7    0.00    0.40   1
   7   2  -7   -0.04    0.37   1
  -7   2   7    0.28    0.51   1
  -7   2   7   -0.13    0.35   1
   7   2  -7   -0.40    0.55   1
  -7   2   7    0.19    0.43   1
   7  -2  -7    0.39    0.46   1
  -7  -2   7   -0.22    0.26   1
   7  -2  -7    0.66    0.30   1
   7  -2  -7   -0.41    0.49   1
  -7  -2   7    0.14    0.59   1
  -7  -2   7    0.69    0.58   1
  -7  -2   7    0.30    0.46   1
  -7   2   6   79.43    4.13   1
  -7   2   6   77.83    4.21   1
   7   2  -6   79.60    4.12   1
  -7   2   6   78.28    4.28   1
   7   2  -6   68.42    4.35   1
   7   2  -6   71.96    4.19   1
  -7  -2   6   79.29    4.22   1
   7  -2  -6   77.07    4.18   1
  -7  -2   6   76.89    4.28   1
   7  -2  -6   76.52    4.37   1
  -7  -2   6   72.86    3.92   1
  -7  -2   6   75.41    4.37   1
   7  -2  -6   79.46    4.00   1
   7   2  -5   25.81    1.60   1
  -7   2   5   23.37    1.67   1
   7   2  -5   22.52    1.64   1
   7   2  -5   28.44    1.91   1
  -7   2   5   23.74    1.58   1
   7  -2  -5   26.00    1.52   1
  -7  -2   5   28.02    1.90   1
   7  -2  -5   25.64    1.76   1
  -7  -2   5   25.29    1.65   1
   7  -2  -5   22.61    1.63   1
  -7  -2   5   28.13    1.78   1
   7   2  -4    7.67    0.94   1
  -7   2   4    5.84    0.68   1
  -7   2   4    5.03    0.72   1
   7   2  -4    7.01    0.72   1
   7   2  -4    6.40    0.77   1
   7  -2  -4    7.36    0.69   1
   7  -2  -4    7.32    0.81   1
  -7  -2   4    6.11    0.78   1
  -7  -2   4    7.37    0.99   1
   7  -2  -4    6.10    0.83   1
  -7  -2   4    6.73    0.74   1
   7   2  -3   40.49    2.30   1
   7   2  -3   37.37    2.16   1
   7   2  -3   39.35    2.27   1
  -7   2   3   37.32    2.16   1
   7   2  -3   37.27    2.01   1
  -7   2   3   36.51    2.25   1
  -7  -2   3   40.46    2.43   1
  -7  -2   3   39.58    2.24   1
  -7  -2   3   37.81    2.21   1
   7  -2  -3   35.94    2.06   1
   7  -2  -3   40.30    2.15   1
   7  -2  -3   36.16    2.29   1
   7  -2  -3   36.80    2.16   1
   7  -2  -3   39.69    2.26   1
   7   2  -2    8.20    0.76   1
  -7   2   2    7.45    0.74   1
   7   2  -2    9.46    0.80   1
   7   2  -2    8.19    0.71   1
  -7   2   2    6.96    0.80   1
   7  -2  -2    8.46    0.85   1
   7  -2  -2    7.54    0.74   1
  -7  -2   2    8.48    0.70   1
  -7  -2   2    7.83    0.79   1
   7  -2  -2    6.86    0.61   1
  -7  -2   2    6.81    0.96   1
   7  -2  -2    8.08    0.66   1
   7   2  -1  231.58   11.44   1
   7   2  -1  230.16   11.43   1
  -7   2   1  231.22   11.45   1
  -7   2   1  224.56   11.53   1
   7   2  -1  219.51   11.50   1
   7  -2  -1  234.19   11.42   1
  -7  -2   1  228.23   11.32   1
   7  -2  -1  227.51   11.35   1
  -7  -2   1  233.23   11.47   1
  -7  -2   1  224.46   11.69   1
   7  -2  -1  223.86   11.51   1
   7  -2  -1  234.54   11.46   1
  -7   2   0   39.81    2.40   1
  -7   2   0   40.68    2.26   1
   7   2   0   43.36    2.33   1
  -7   2   0   40.44    2.30   1
   7   2   0   40.97    2.22   1
   7   2   0   39.21    2.37   1
   7  -2   0   40.16    2.34   1
  -7  -2   0   39.17    2.52   1
   7  -2   0   41.25    2.22   1
  -7  -2   0   40.17    2.08   1
   7  -2   0   39.75    2.27   1
  -7  -2   0   41.22    2.32   1
   7  -2   0   42.24    2.40   1
  -7   2  -1    6.88    0.73   1
  -7   2  -1    8.28    0.86   1
   7   2   1    7.07    0.83   1
   7   2   1    6.92    0.74   1
  -7   2  -1    8.06    0.76   1
  -7  -2  -1    6.27    0.88   1
   7  -2   1    6.26    0.68   1
   7  -2   1    6.67    0.83   1
   7  -2   1    7.11    0.67   1
  -7  -2  -1    6.75    0.74   1
   7  -2   1    5.66    0.74   1
   7   2   2    0.88    0.38   1
  -7   2  -2    0.24    0.32   1
  -7   2  -2    0.61    0.32   1
  -7   2  -2    0.45    0.43   1
   7   2   2    0.16    0.23   1
   7   2   2   -0.11    0.35   1
   7  -2   2    0.36    0.43   1
  -7  -2  -2    0.64    0.46   1
   7  -2   2   -0.28    0.39   1
  -7  -2  -2    0.27    0.34   1
  -7  -2  -2    0.26    0.19   1
   7  -2   2    0.35    0.32   1
  -7   2  -3   19.22    1.39   1
   7   2   3   21.29    1.26   1
   7   2   3   18.03    1.42   1
   7   2   3   20.60    1.42   1
  -7   2  -3   20.09    1.37   1
  -7   2  -3   18.83    1.47   1
  -7  -2  -3   18.52    1.36   1
   7  -2   3   19.24    1.49   1
  -7  -2  -3   20.06    1.42   1
   7  -2   3   19.63    1.48   1
   7  -2   3   20.35    1.34   1
  -7  -2  -3   18.79    1.20   1
   7   2   4  129.22    6.31   1
   7   2   4  104.60    6.27   1
   7   2   4  118.96    6.13   1
  -7   2  -4  124.19    6.26   1
  -7   2  -4  120.21    6.37   1
  -7  -2  -4  113.27    6.07   1
   7  -2   4  120.00    6.34   1
   7  -2   4  119.65    6.36   1
  -7  -2  -4  115.52    6.23   1
   7  -2   4  117.98    6.17   1
  -7   2  -5    7.70    1.13   1
  -7   2  -5   10.13    1.18   1
   7   2   5    7.95    1.07   1
   7   2   5    6.88    0.94   1
   7   2   5    8.91    1.17   1
  -7  -2  -5    9.01    0.96   1
   7  -2   5    7.93    1.14   1
   7  -2   5    8.66    1.16   1
  -7  -2  -5    7.68    0.99   1
   7  -2   5    9.19    1.03   1
  -7   2  -6   17.63    1.74   1
  -7   2  -6   19.64    1.80   1
   7   2   6   17.15    1.73   1
   7   2   6   20.81    1.80   1
   7   2   6   20.71    1.56   1
   7  -2   6   19.56    1.66   1
   7  -2   6   16.36    1.72   1
   7  -2   6   18.90    1.74   1
  -7   2  -7    6.16    1.04   1
   7   2   7    4.19    1.00   1
   7   2   7    3.69    1.09   1
   7   2   7    4.89    0.89   1
  -7   2  -7    4.13    1.10   1
   7  -2   7    7.48    1.14   1
   7  -2   7    6.28    1.16   1
   7  -2   7    5.63    1.16   1
  -7   2  -8    2.26    0.97   1
   7   2   8    2.32    0.98   1
   7   2   8    4.64    0.88   1
  -7   2  -8    1.57    0.77   1
   7  -2   8    2.92    0.91   1
   7  -2   8    4.63    1.06   1
   7  -2   8    3.06    1.02   1
   7   2   9   17.28    2.02   1
  -7   2  -9   13.07    1.58   1
  -7   2  -9   18.30    2.04   1
   7  -2   9   14.35    1.70   1
   7  -2   9   15.30    1.72   1
   7  -2   9   14.17    1.92   1
   7   2  10    1.56    0.98   1
  -7   2 -10   -0.08    0.68   1
   7  -2  10    2.05    1.14   1
   7  -2  10    0.13    0.78   1
   7  -2  10    1.06    0.91   1
  -7   3  13    0.00    0.74   1
  -7   3  13   -1.23    1.08   1
   7   3 -13    0.91    0.83   1
  -7  -3  13    1.81    1.03   1
  -7   3  12   -1.36    0.92   1
   7   3 -12    0.33    0.81   1
   7   3 -12    0.20    0.69   1
  -7   3  12   -0.77    0.71   1
  -7  -3  12    0.99    0.81   1
   7  -3 -12    1.21    0.72   1
   7   3 -11   26.97    2.03   1
   7   3 -11   26.22    2.26   1
  -7   3  11   24.29    2.22   1
  -7  -3  11   26.03    2.15   1
   7  -3 -11   27.46    2.27   1
  -7   3  10   26.50    2.03   1
   7   3 -10   22.05    2.03   1
   7   3 -10   24.40    2.17   1
   7   3 -10   24.77    1.84   1
  -7   3  10   24.05    2.44   1
  -7  -3  10   22.08    1.93   1
   7  -3 -10   22.33    2.01   1
  -7  -3  10   19.47    2.01   1
  -7  -3  10   23.20    1.95   1
   7   3  -9   29.58    2.23   1
   7   3  -9   26.70    2.00   1
  -7   3   9   25.20    1.97   1
  -7   3   9   26.65    1.91   1
   7   3  -9   26.50    1.90   1
   7   3  -9   28.50    1.89   1
  -7  -3   9   23.08    2.20   1
   7  -3  -9   25.77    2.14   1
  -7  -3   9   27.74    2.07   1
  -7  -3   9   21.87    1.98   1
   7   3  -8   26.79    2.15   1
  -7   3   8   28.92    1.85   1
   7   3  -8   25.96    1.82   1
   7   3  -8   23.89    1.78   1
   7   3  -8   27.40    1.93   1
  -7   3   8   27.01    1.89   1
  -7   3   8   26.45    1.95   1
  -7  -3   8   26.60    2.01   1
   7  -3  -8   27.56    1.69   1
   7  -3  -8   23.84    1.81   1
  -7  -3   8   27.02    1.98   1
  -7  -3   8   26.37    2.16   1
   7  -3  -8   27.81    2.14   1
  -7   3   7    0.22    0.55   1
   7   3  -7   -0.07    0.40   1
  -7   3   7    0.14    0.40   1
   7   3  -7    0.04    0.38   1
   7   3  -7   -0.32    0.29   1
  -7   3   7   -0.22    0.42   1
   7   3  -7   -0.53    0.57   1
   7  -3  -7   -0.27    0.52   1
   7  -3  -7   -0.52    0.29   1
  -7  -3   7    0.15    0.65   1
  -7  -3   7    0.17    0.44   1
   7  -3  -7   -0.15    0.37   1
  -7  -3   7    0.02    0.43   1
  -7   3   6   58.00    3.29   1
   7   3  -6   53.19    3.24   1
  -7   3   6   57.60    3.20   1
   7   3  -6   60.24    3.21   1
   7   3  -6   50.94    3.46   1
  -7  -3   6   58.31    3.35   1
   7  -3  -6   55.00    3.09   1
  -7  -3   6   59.21    3.53   1
   7  -3  -6   57.13    3.22   1
   7  -3  -6   58.94    3.45   1
  -7  -3   6   56.84    3.23   1
   7   3  -5   48.95    2.88   1
   7   3  -5   50.77    2.81   1
  -7   3   5   48.50    2.79   1
  -7   3   5   51.55    2.91   1
   7   3  -5   49.35    3.09   1
  -7  -3   5   51.69    3.15   1
   7  -3  -5   50.92    3.02   1
  -7  -3   5   47.34    2.81   1
  -7  -3   5   47.63    2.93   1
   7  -3  -5   50.38    2.85   1
   7  -3  -5   50.86    2.75   1
  -7   3   4  124.07    6.31   1
   7   3  -4  124.07    6.31   1
   7   3  -4  114.00    6.36   1
  -7   3   4  122.96    6.41   1
   7   3  -4  131.04    6.55   1
   7  -3  -4  123.94    6.28   1
   7  -3  -4  121.33    6.35   1
  -7  -3   4  121.73    6.62   1
   7  -3  -4  116.69    6.46   1
  -7  -3   4  120.17    6.36   1
  -7  -3   4  126.09    6.33   1
  -7   3   3  194.28    9.61   1
  -7   3   3  186.64    9.68   1
   7   3  -3  191.92    9.73   1
   7   3  -3  183.51    9.66   1
   7   3  -3  190.07    9.59   1
   7   3  -3  187.94    9.41   1
  -7  -3   3  185.33    9.91   1
  -7  -3   3  194.03    9.61   1
   7  -3  -3  191.31    9.54   1
  -7  -3   3  198.16    9.61   1
   7  -3  -3  192.86    9.60   1
   7  -3  -3  188.28    9.66   1
  -7   3   2    2.08    0.46   1
   7   3  -2    2.43    0.43   1
   7   3  -2    1.53    0.46   1
   7   3  -2    1.54    0.43   1
  -7   3   2    1.55    0.47   1
   7  -3  -2    1.38    0.43   1
   7  -3  -2    0.72    0.36   1
  -7  -3   2    0.92    0.61   1
  -7  -3   2    1.83    0.35   1
  -7  -3   2    1.53    0.37   1
   7  -3  -2    1.74    0.36   1
   7   3  -1    5.07    0.64   1
   7   3  -1    4.27    0.58   1
  -7   3   1    5.14    0.63   1
   7   3  -1    4.07    0.57   1
  -7   3   1    4.00    0.64   1
   7  -3  -1    4.40    0.62   1
  -7  -3   1    4.85    0.43   1
  -7  -3   1    4.22    0.55   1
   7  -3  -1    5.23    0.57   1
   7  -3  -1    5.16    0.64   1
  -7  -3   1    5.47    0.91   1
   7   3   0    8.32    0.67   1
   7   3   0    8.42    0.88   1
   7   3   0    8.91    0.82   1
  -7   3   0    7.45    0.87   1
  -7   3   0    9.75    0.86   1
  -7   3   0    9.37    0.87   1
   7  -3   0    8.87    0.90   1
   7  -3   0    7.50    0.83   1
  -7  -3   0    7.41    1.02   1
   7  -3   0    7.65    0.74   1
  -7  -3   0    7.38    0.75   1
   7   3   1  116.25    5.98   1
  -7   3  -1  116.99    6.01   1
  -7   3  -1  114.83    5.99   1
   7   3   1  115.15    6.07   1
  -7   3  -1  111.56    6.09   1
   7  -3   1  113.68    6.05   1
   7  -3   1  116.59    6.09   1
   7  -3   1  118.34    5.96   1
  -7  -3  -1  115.54    5.97   1
  -7  -3  -1  118.77    6.22   1
  -7   3  -2  150.08    7.95   1
  -7   3  -2  152.99    7.86   1
   7   3   2  149.17    7.91   1
  -7   3  -2  155.21    7.87   1
   7   3   2  146.88    7.83   1
  -7  -3  -2  155.97    7.84   1
   7  -3   2  145.95    7.91   1
   7  -3   2  157.82    7.83   1
  -7  -3  -2  164.79    8.02   1
   7  -3   2  154.23    7.96   1
  -7   3  -3    2.48    0.61   1
   7   3   3    1.26    0.49   1
  -7   3  -3    2.67    0.57   1
  -7   3  -3    2.41    0.58   1
   7   3   3    2.67    0.56   1
  -7  -3  -3    2.34    0.53   1
   7  -3   3    1.78    0.56   1
   7  -3   3    1.74    0.60   1
   7  -3   3    1.72    0.48   1
  -7  -3  -3    2.36    0.46   1
   7   3   4   12.26    1.20   1
   7   3   4    9.14    1.11   1
  -7   3  -4   10.82    1.24   1
  -7   3  -4   11.27    1.17   1
  -7   3  -4   13.05    1.25   1
   7  -3   4   11.68    1.26   1
   7  -3   4   11.90    1.11   1
   7  -3   4   11.44    1.23   1
  -7   3  -5    0.53    0.59   1
   7   3   5    0.32    0.54   1
  -7   3  -5    0.74    0.61   1
   7   3   5   -0.60    0.45   1
   7   3   5    0.59    0.54   1
   7  -3   5    0.33    0.50   1
   7  -3   5    1.76    0.80   1
   7  -3   5    0.84    0.56   1
  -7   3  -6   21.37    1.88   1
   7   3   6   21.05    1.90   1
   7   3   6   29.36    2.11   1
   7   3   6   25.16    1.91   1
  -7   3  -6   26.35    2.16   1
   7  -3   6   25.97    2.05   1
   7  -3   6   24.67    2.01   1
   7  -3   6   27.23    2.00   1
  -7   3  -7   31.06    2.91   1
   7   3   7   37.64    2.95   1
  -7   3  -7   46.02    2.97   1
   7   3   7   40.34    2.89   1
   7  -3   7   49.84    2.99   1
   7  -3   7   43.34    3.03   1
   7  -3   7   50.18    3.06   1
   7   3   8    5.33    1.09   1
  -7   3  -8    3.67    1.10   1
   7   3   8    1.76    0.93   1
  -7   3  -8    5.05    1.05   1
   7  -3   8    3.47    1.10   1
   7  -3   8    6.42    1.24   1
   7  -3   8    4.37    1.07   1
  -7   3  -9   19.11    1.89   1
   7   3   9   17.71    2.05   1
  -7   3  -9   17.08    2.09   1
   7  -3   9   15.68    2.05   1
   7  -3   9   17.33    1.82   1
   7  -3   9   17.74    1.92   1
  -7   4  13   22.40    2.42   1
  -7   4  13   18.11    2.17   1
   7   4 -13   23.41    2.40   1
  -7  -4  13   20.79    2.22   1
   7   4 -12    0.25    0.79   1
   7   4 -12   -0.03    0.77   1
  -7   4  12    1.16    0.90   1
  -7  -4  12    0.32    0.76   1
   7   4 -11    7.05    1.41   1
   7   4 -11   11.40    1.60   1
  -7   4  11    9.49    1.49   1
   7  -4 -11   11.61    1.52   1
  -7  -4  11   10.87    1.45   1
  -7   4  10    2.29    0.76   1
   7   4 -10    1.75    0.90   1
  -7   4  10    3.24    0.91   1
   7   4 -10    2.83    0.95   1
   7  -4 -10    4.52    1.01   1
  -7  -4  10    3.81    0.95   1
  -7  -4  10    2.49    0.98   1
   7   4  -9    0.14    0.50   1
   7   4  -9   -0.52    0.47   1
   7   4  -9   -0.01    0.67   1
  -7   4   9    0.18    0.55   1
  -7   4   9   -0.14    0.46   1
   7  -4  -9    0.60    0.46   1
   7  -4  -9   -0.10    0.65   1
  -7  -4   9    0.91    0.72   1
  -7  -4   9   -0.30    0.72   1
  -7   4   8   61.23    3.71   1
   7   4  -8   66.47    4.01   1
  -7   4   8   64.02    3.69   1
  -7   4   8   67.35    3.66   1
   7   4  -8   68.15    3.66   1
   7   4  -8   60.94    3.73   1
   7  -4  -8   67.66    3.56   1
  -7  -4   8   66.48    3.86   1
   7  -4  -8   63.77    3.94   1
  -7  -4   8   49.70    3.90   1
   7   4  -7    0.30    0.42   1
  -7   4   7    0.04    0.42   1
   7   4  -7   -0.60    0.36   1
  -7   4   7    0.57    0.45   1
   7   4  -7   -1.05    0.53   1
  -7  -4   7    0.19    0.57   1
   7  -4  -7    0.35    0.55   1
  -7  -4   7    0.13    0.72   1
  -7  -4   7    0.00    0.38   1
   7  -4  -7    0.21    0.37   1
   7  -4  -7   -0.17    0.36   1
  -7   4   6   88.99    4.62   1
   7   4  -6   80.88    4.94   1
   7   4  -6   87.74    4.60   1
  -7   4   6   85.75    4.69   1
   7   4  -6   81.79    4.66   1
   7  -4  -6   89.03    4.56   1
  -7  -4   6   80.66    4.73   1
  -7  -4   6   89.69    4.66   1
  -7  -4   6   84.03    5.00   1
   7  -4  -6   85.40    4.60   1
  -7   4   5    0.48    0.42   1
   7   4  -5   -0.06    0.57   1
   7   4  -5   -0.13    0.32   1
  -7   4   5   -0.44    0.37   1
   7   4  -5    0.57    0.37   1
   7  -4  -5   -0.41    0.30   1
   7  -4  -5    0.25    0.31   1
  -7  -4   5   -0.04    0.27   1
  -7  -4   5   -0.56    0.61   1
  -7  -4   5    0.30    0.45   1
  -7   4   4    5.45    0.75   1
  -7   4   4    4.58    0.65   1
   7   4  -4    5.47    0.65   1
   7   4  -4    7.13    1.00   1
   7   4  -4    4.27    0.65   1
  -7  -4   4    4.85    0.61   1
  -7  -4   4    4.97    0.99   1
   7  -4  -4    4.83    0.66   1
  -7  -4   4    5.10    0.70   1
   7  -4  -4    5.06    0.66   1
   7  -4  -4    5.48    0.67   1
   7   4  -3   59.82    3.29   1
  -7   4   3   58.00    3.38   1
   7   4  -3   61.73    3.38   1
   7   4  -3   65.38    3.50   1
  -7   4   3   60.44    3.31   1
  -7  -4   3   58.99    3.71   1
   7  -4  -3   61.50    3.29   1
   7  -4  -3   62.30    3.34   1
  -7  -4   3   58.97    3.26   1
   7  -4  -3   58.92    3.32   1
  -7  -4   3   63.52    3.32   1
  -7   4   2   -0.15    0.33   1
   7   4  -2    0.56    0.43   1
   7   4  -2    0.41    0.31   1
  -7   4   2   -0.47    0.32   1
   7   4  -2   -0.16    0.35   1
   7  -4  -2   -0.05    0.29   1
  -7  -4   2    0.07    0.23   1
   7  -4  -2    0.03    0.39   1
  -7  -4   2    0.24    0.25   1
  -7  -4   2   -0.31    0.41   1
   7  -4  -2   -0.50    0.25   1
   7   4  -1  170.46    8.74   1
   7   4  -1  168.52    8.68   1
  -7   4   1  178.73    8.74   1
   7   4  -1  172.73    8.69   1
  -7   4   1  166.57    8.79   1
   7  -4  -1  178.52    8.71   1
  -7  -4   1  161.18    9.03   1
  -7  -4   1  172.43    8.57   1
   7  -4  -1  176.40    8.76   1
   7  -4  -1  171.60    8.76   1
   7   4   0    7.77    0.78   1
   7   4   0    6.70    0.78   1
   7   4   0    8.10    0.66   1
  -7   4   0    8.57    0.85   1
  -7   4   0    8.40    0.88   1
  -7   4   0    6.68    0.85   1
   7  -4   0    7.60    0.83   1
  -7  -4   0    7.45    1.07   1
   7  -4   0    6.94    0.78   1
   7  -4   0    7.18    0.84   1
  -7   4  -1   29.60    1.93   1
  -7   4  -1   34.12    2.02   1
   7   4   1   32.89    2.01   1
  -7   4  -1   30.94    2.07   1
   7   4   1   31.97    1.93   1
   7  -4   1   33.01    2.05   1
  -7  -4  -1   32.77    2.20   1
   7  -4   1   32.92    1.97   1
   7  -4   1   32.14    2.02   1
  -7   4  -2    2.87    0.58   1
  -7   4  -2    3.98    0.70   1
   7   4   2    2.14    0.54   1
   7   4   2    3.66    0.58   1
  -7   4  -2    3.25    0.65   1
   7  -4   2    3.56    0.69   1
  -7  -4  -2    4.02    0.73   1
   7  -4   2    4.15    0.67   1
   7  -4   2    3.41    0.61   1
   7  -4   2    2.75    0.54   1
  -7   4  -3    0.08    0.43   1
  -7   4  -3    0.39    0.45   1
   7   4   3   -0.01    0.44   1
   7   4   3    0.25    0.39   1
  -7   4  -3    0.24    0.48   1
   7  -4   3    0.47    0.42   1
   7  -4   3   -0.28    0.34   1
   7  -4   3    0.16    0.42   1
   7  -4   3   -0.31    0.49   1
  -7  -4  -3   -0.14    0.37   1
  -7   4  -4   82.02    4.80   1
  -7   4  -4   86.62    4.73   1
  -7   4  -4   94.30    4.82   1
   7   4   4   86.08    4.74   1
   7   4   4   86.24    4.72   1
   7  -4   4   85.87    4.78   1
   7  -4   4   83.39    4.66   1
   7  -4   4   80.41    4.72   1
  -7   4  -5    7.56    1.22   1
   7   4   5    9.59    1.18   1
   7   4   5    9.64    1.20   1
  -7   4  -5    9.77    1.20   1
  -7   4  -5    9.55    1.37   1
   7  -4   5    7.78    1.16   1
   7  -4   5    7.42    1.09   1
   7  -4   5   10.16    1.14   1
   7   4   6   33.84    2.32   1
  -7   4  -6   30.46    2.21   1
  -7   4  -6   30.39    2.40   1
   7   4   6   21.49    2.06   1
   7  -4   6   28.88    2.34   1
   7  -4   6   32.36    2.26   1
   7  -4   6   30.93    2.24   1
  -7   4  -7    0.72    0.70   1
  -7   4  -7    0.04    0.79   1
   7   4   7    2.08    0.77   1
   7   4   7    1.82    0.83   1
   7  -4   7    1.38    0.84   1
   7  -4   7    1.37    0.75   1
   7  -4   7    1.36    0.97   1
   7   4   8   -0.23    0.67   1
  -7   4  -8   -1.20    0.73   1
   7   4   8    1.03    0.80   1
  -7   4  -8   -0.09    0.76   1
   7  -4   8    0.57    0.91   1
   7  -4   8    0.47    0.82   1
   7  -4   8    1.14    0.97   1
  -7   4  -9   14.42    1.91   1
   7   4   9   12.78    1.77   1
  -7   4  -9   14.95    1.76   1
   7  -4   9   11.92    1.63   1
   7  -4   9   13.03    1.60   1
   7   5 -12    9.05    1.51   1
  -7   5  12    5.17    1.22   1
  -7  -5  12    7.53    1.36   1
   7   5 -11    4.64    1.16   1
  -7   5  11    4.82    1.02   1
  -7   5  11    4.32    1.08   1
   7   5 -11    4.87    1.28   1
  -7  -5  11    5.70    1.16   1
  -7   5  10    3.38    0.91   1
   7   5 -10    6.65    1.06   1
  -7   5  10    4.76    0.96   1
   7   5 -10    5.33    1.18   1
   7   5 -10    6.24    1.30   1
  -7  -5  10    5.45    1.10   1
  -7  -5  10    7.70    1.37   1
  -7   5   9   19.20    1.59   1
  -7   5   9   19.57    1.73   1
   7   5  -9   20.98    1.65   1
   7   5  -9   18.88    2.06   1
  -7  -5   9   19.53    2.11   1
  -7  -5   9   19.26    1.89   1
   7  -5  -9   17.94    1.50   1
   7   5  -8    1.99    0.69   1
  -7   5   8    2.72    0.73   1
  -7   5   8    2.08    0.64   1
   7   5  -8    2.62    0.63   1
   7   5  -8    1.65    0.84   1
   7  -5  -8    1.74    0.56   1
  -7  -5   8    3.02    1.07   1
  -7  -5   8    0.89    0.74   1
   7   5  -7   23.74    2.00   1
   7   5  -7   19.07    1.61   1
  -7   5   7   22.84    1.60   1
   7   5  -7   22.86    1.57   1
  -7   5   7   23.20    1.67   1
   7  -5  -7   24.41    1.59   1
  -7  -5   7   22.35    1.80   1
  -7  -5   7   15.13    1.97   1
   7   5  -6    1.98    0.52   1
   7   5  -6    2.15    0.57   1
   7   5  -6    2.57    0.86   1
  -7   5   6    1.14    0.51   1
  -7   5   6    2.47    0.60   1
   7  -5  -6    1.70    0.53   1
  -7  -5   6    2.12    0.66   1
  -7  -5   6    2.22    0.88   1
   7   5  -5   26.33    1.60   1
   7   5  -5   23.88    1.98   1
   7   5  -5   24.65    1.63   1
  -7   5   5   24.87    1.61   1
  -7   5   5   22.07    1.66   1
   7  -5  -5   20.30    1.55   1
  -7  -5   5   23.49    1.67   1
  -7  -5   5   21.77    2.04   1
   7   5  -4   23.09    1.88   1
   7   5  -4   26.18    1.59   1
   7   5  -4   22.77    1.62   1
  -7   5   4   25.68    1.70   1
  -7   5   4   26.10    1.60   1
   7  -5  -4   22.50    1.58   1
  -7  -5   4   25.17    2.11   1
  -7  -5   4   22.37    1.62   1
   7  -5  -4   25.14    1.66   1
  -7   5   3   16.94    1.30   1
   7   5  -3   21.02    1.53   1
  -7   5   3   17.70    1.34   1
   7   5  -3   19.62    1.27   1
   7   5  -3   17.58    1.29   1
   7  -5  -3   19.35    1.29   1
   7  -5  -3   18.12    1.35   1
  -7  -5   3   20.86    1.85   1
   7  -5  -3   18.09    1.31   1
  -7  -5   3   18.36    1.29   1
  -7   5   2   43.32    2.38   1
  -7   5   2   38.24    2.40   1
   7   5  -2   37.79    2.28   1
   7   5  -2   41.16    2.43   1
   7   5  -2   41.80    2.38   1
  -7  -5   2   40.75    2.85   1
   7  -5  -2   42.65    2.36   1
   7  -5  -2   40.94    2.42   1
  -7  -5   2   41.98    2.29   1
   7  -5  -2   38.19    2.35   1
   7   5  -1    0.17    0.35   1
   7   5  -1    0.06    0.34   1
  -7   5   1   -0.30    0.34   1
  -7   5   1    0.02    0.36   1
   7   5  -1   -0.57    0.27   1
  -7  -5   1    0.20    0.64   1
   7  -5  -1   -0.16    0.28   1
   7  -5  -1   -0.23    0.36   1
  -7  -5   1   -0.02    0.19   1
   7  -5  -1   -0.34    0.33   1
   7   5   0   63.55    3.40   1
   7   5   0   59.68    3.33   1
  -7   5   0   60.71    3.46   1
  -7   5   0   61.99    3.50   1
  -7   5   0   63.68    3.41   1
   7  -5   0   61.19    3.40   1
  -7  -5   0   62.60    3.78   1
   7  -5   0   60.38    3.39   1
   7  -5   0   60.02    3.44   1
  -7   5  -1    9.42    0.93   1
   7   5   1    7.75    0.85   1
  -7   5  -1    6.46    0.88   1
  -7   5  -1    7.79    0.95   1
   7   5   1    8.10    0.82   1
   7  -5   1    9.10    0.90   1
   7  -5   1    8.52    0.95   1
  -7  -5  -1    6.79    1.05   1
   7  -5   1    7.41    0.86   1
   7   5   2   37.78    2.20   1
   7   5   2   34.81    2.09   1
  -7   5  -2   35.32    2.24   1
  -7   5  -2   35.51    2.20   1
  -7   5  -2   31.53    2.20   1
   7  -5   2   33.80    2.22   1
   7  -5   2   37.98    2.21   1
  -7  -5  -2   31.47    2.30   1
   7  -5   2   35.88    2.20   1
   7  -5   2   35.88    2.17   1
  -7   5  -3   15.15    1.31   1
  -7   5  -3   15.65    1.36   1
  -7   5  -3   14.62    1.33   1
   7   5   3   17.25    1.28   1
   7   5   3   16.23    1.27   1
   7  -5   3   15.78    1.35   1
   7  -5   3   14.19    1.24   1
   7  -5   3   16.68    1.49   1
   7  -5   3   17.24    1.32   1
   7   5   4    5.55    0.85   1
  -7   5  -4    3.97    0.80   1
  -7   5  -4    4.36    0.87   1
   7   5   4    4.39    0.75   1
  -7   5  -4    4.57    0.86   1
   7  -5   4    4.45    0.78   1
   7  -5   4    4.39    0.80   1
   7  -5   4    3.68    0.88   1
   7  -5   4    3.84    0.73   1
  -7   5  -5   20.61    1.81   1
  -7   5  -5   19.44    1.66   1
   7   5   5   20.66    1.66   1
   7   5   5   20.95    1.66   1
  -7   5  -5   18.46    1.82   1
   7  -5   5   19.10    1.66   1
   7  -5   5   22.44    1.79   1
   7   5   6    0.31    0.60   1
  -7   5  -6   -0.64    0.51   1
  -7   5  -6   -0.10    0.66   1
   7   5   6   -0.02    0.64   1
   7  -5   6   -0.48    0.66   1
   7  -5   6    0.57    0.68   1
  -7   5  -7    8.58    1.52   1
   7   5   7    9.93    1.43   1
  -7   5  -7   11.02    1.49   1
   7   5   7    7.66    1.30   1
   7  -5   7   10.20    1.40   1
   7  -5   7   12.20    1.50   1
  -7   5  -8    1.67    0.95   1
   7   5   8    2.56    0.90   1
   7   5   8    0.30    0.82   1
  -7   5  -8    2.04    1.03   1
   7  -5   8    2.67    1.06   1
   7  -5   8    2.39    0.96   1
  -7   5  -9    4.01    1.24   1
   7   5   9    2.82    0.93   1
   7   5   9    4.06    1.21   1
   7  -5   9    3.19    1.34   1
   7  -5   9    6.05    1.15   1
   7   6 -12    2.28    1.03   1
  -7   6  12    1.93    1.04   1
  -7  -6  12    3.59    1.18   1
  -7   6  11    0.96    0.80   1
   7   6 -11    2.40    0.94   1
   7   6 -11    2.47    1.00   1
  -7   6  11    2.85    0.91   1
  -7  -6  11    2.31    0.93   1
  -7  -6  11    3.19    1.06   1
  -7   6  10   16.39    1.58   1
   7   6 -10   15.47    1.58   1
   7   6 -10    6.66    1.53   1
   7   6 -10   15.30    1.87   1
  -7   6  10   12.56    1.58   1
  -7  -6  10   17.72    2.00   1
  -7  -6  10   13.79    1.70   1
   7  -6 -10   15.22    1.49   1
   7   6  -9   13.32    1.39   1
   7   6  -9   13.70    1.71   1
   7   6  -9   13.19    1.69   1
  -7   6   9   12.12    1.44   1
  -7   6   9   11.86    1.32   1
  -7  -6   9   14.23    1.81   1
  -7  -6   9   15.11    1.68   1
   7  -6  -9    9.52    1.21   1
  -7   6   8    3.64    0.73   1
  -7   6   8    3.79    0.84   1
   7   6  -8    4.89    1.12   1
   7   6  -8    3.46    0.84   1
   7   6  -8    3.64    0.73   1
  -7  -6   8    4.15    1.17   1
   7  -6  -8    4.07    0.79   1
  -7  -6   8    1.68    0.81   1
   7   6  -7    0.22    0.53   1
   7   6  -7    0.67    0.77   1
   7   6  -7    0.48    0.44   1
  -7   6   7    0.14    0.44   1
  -7   6   7   -0.25    0.45   1
  -7  -6   7   -0.37    0.75   1
  -7  -6   7   -0.05    0.59   1
   7  -6  -7   -0.16    0.44   1
  -7   6   6    2.55    0.62   1
  -7   6   6    1.91    0.55   1
   7   6  -6    2.98    0.61   1
   7   6  -6    2.20    0.97   1
   7   6  -6    2.71    0.65   1
   7  -6  -6    2.50    0.65   1
  -7  -6   6    1.81    0.95   1
  -7  -6   6    1.52    0.67   1
   7   6  -5   41.80    2.48   1
   7   6  -5   39.48    2.38   1
  -7   6   5   40.28    2.42   1
   7   6  -5   37.83    2.82   1
  -7   6   5   45.42    2.54   1
  -7  -6   5   39.85    2.51   1
   7  -6  -5   44.16    2.51   1
  -7  -6   5   31.18    2.87   1
   7   6  -4   42.85    2.48   1
  -7   6   4   41.92    2.46   1
   7   6  -4   42.83    2.43   1
  -7   6   4   46.40    2.58   1
   7   6  -4   36.93    2.76   1
   7  -6  -4   43.88    2.53   1
  -7  -6   4   31.10    2.92   1
  -7  -6   4   44.50    2.52   1
   7  -6  -4   41.02    2.51   1
  -7   6   3    9.42    0.96   1
   7   6  -3   11.33    0.94   1
  -7   6   3   10.52    1.07   1
   7   6  -3   12.15    1.35   1
   7   6  -3   11.22    0.90   1
  -7  -6   3    9.48    0.97   1
  -7  -6   3    7.70    1.45   1
   7  -6  -3    9.17    1.02   1
   7  -6  -3   12.24    1.11   1
  -7   6   2   11.27    1.12   1
   7   6  -2   10.84    0.93   1
   7   6  -2   12.12    1.16   1
  -7   6   2   14.64    1.08   1
   7   6  -2   14.03    1.03   1
   7  -6  -2   12.36    1.07   1
   7  -6  -2   10.53    1.11   1
  -7  -6   2    7.86    1.45   1
  -7  -6   2   11.36    0.94   1
   7   6  -1   -0.13    0.33   1
   7   6  -1    0.10    0.31   1
  -7   6   1    0.13    0.44   1
  -7   6   1    0.25    0.39   1
   7   6  -1   -0.14    0.37   1
  -7  -6   1    0.53    0.27   1
   7  -6  -1    0.85    0.50   1
  -7  -6   1    0.08    0.72   1
   7  -6  -1   -0.06    0.40   1
  -7   6   0   20.83    1.43   1
  -7   6   0   20.69    1.53   1
   7   6   0   20.36    1.34   1
  -7   6   0   19.31    1.48   1
   7   6   0   20.32    1.38   1
   7  -6   0   18.18    1.47   1
  -7  -6   0   18.82    1.82   1
   7  -6   0   19.76    1.44   1
  -7   6  -1   31.99    1.97   1
   7   6   1   31.31    1.92   1
  -7   6  -1   30.04    2.02   1
  -7   6  -1   32.20    2.08   1
   7   6   1   28.98    1.84   1
   7  -6   1   29.90    2.00   1
   7  -6   1   33.13    2.03   1
  -7  -6  -1   27.62    2.22   1
   7  -6   1   30.77    2.03   1
  -7   6  -2   10.55    1.10   1
   7   6   2    8.36    0.93   1
  -7   6  -2   13.54    1.29   1
  -7   6  -2    9.49    1.17   1
   7   6   2   12.71    1.04   1
   7  -6   2   11.74    1.18   1
   7  -6   2   10.78    1.13   1
   7  -6   2   10.02    1.12   1
  -7  -6  -2   12.18    1.36   1
   7   6   3   25.57    1.84   1
   7   6   3   28.40    1.90   1
  -7   6  -3   28.63    2.04   1
  -7   6  -3   32.48    2.07   1
  -7   6  -3   26.74    1.98   1
   7  -6   3   30.76    2.06   1
   7  -6   3   31.11    2.02   1
   7  -6   3   28.74    1.99   1
  -7   6  -4   -0.08    0.57   1
  -7   6  -4    0.22    0.55   1
  -7   6  -4    0.77    0.59   1
   7   6   4   -0.01    0.49   1
   7   6   4   -0.09    0.48   1
   7  -6   4    0.31    0.58   1
   7  -6   4    0.36    0.55   1
   7  -6   4    0.09    0.60   1
  -7   6  -5    0.36    0.61   1
  -7   6  -5    1.74    0.74   1
  -7   6  -5    0.94    0.69   1
   7   6   5   -0.25    0.47   1
   7   6   5    0.42    0.60   1
   7  -6   5    0.29    0.60   1
   7  -6   5   -0.01    0.66   1
  -7   6  -6    5.38    0.97   1
  -7   6  -6    5.68    1.10   1
   7   6   6    6.05    1.06   1
  -7   6  -6    6.58    1.30   1
   7   6   6    4.07    0.97   1
   7  -6   6    7.77    1.17   1
   7  -6   6    6.71    1.18   1
  -7   6  -7    2.60    1.01   1
   7   6   7    5.15    1.04   1
   7   6   7    4.83    1.08   1
  -7   6  -7    4.27    1.04   1
   7  -6   7    4.73    1.14   1
   7  -6   7    3.98    1.04   1
  -7   6  -8   15.83    2.04   1
   7   6   8   16.05    1.72   1
   7   6   8    9.10    1.49   1
  -7   6  -8   13.17    1.94   1
   7  -6   8   15.69    1.72   1
   7  -6   8   12.42    1.73   1
   7   7 -11    2.60    1.10   1
  -7   7  11    1.81    0.96   1
  -7   7  11    3.75    0.97   1
  -7  -7  11    3.04    1.09   1
  -7  -7  11    3.95    1.12   1
  -7   7  10    1.78    0.80   1
   7   7 -10    4.87    0.98   1
  -7   7  10    2.96    0.82   1
   7   7 -10    1.17    0.84   1
   7   7 -10    0.21    0.77   1
  -7  -7  10    2.83    1.07   1
  -7  -7  10    1.37    0.99   1
   7  -7 -10    2.23    0.82   1
   7   7  -9    0.61    0.90   1
   7   7  -9    1.19    0.87   1
  -7   7   9    1.41    0.68   1
  -7   7   9    1.34    0.71   1
   7   7  -9    0.54    0.60   1
  -7  -7   9    2.05    1.01   1
   7  -7  -9    1.33    0.67   1
  -7  -7   9    1.84    0.91   1
  -7   7   8    9.27    1.11   1
  -7   7   8    8.40    1.14   1
   7   7  -8    8.59    1.09   1
   7   7  -8    9.07    1.46   1
  -7  -7   8    8.18    1.30   1
   7  -7  -8    9.92    1.19   1
  -7  -7   8    8.94    1.55   1
  -7   7   7   42.70    2.59   1
  -7   7   7   40.26    2.58   1
   7   7  -7   39.53    3.00   1
   7   7  -7   40.91    2.67   1
   7   7  -7   40.08    2.52   1
  -7  -7   7   40.12    2.77   1
  -7  -7   7   37.70    3.08   1
   7  -7  -7   43.78    2.62   1
  -7   7   6    8.32    0.98   1
   7   7  -6   10.06    1.52   1
   7   7  -6    7.39    0.91   1
  -7   7   6    9.34    1.02   1
   7   7  -6    6.31    0.94   1
  -7  -7   6    9.61    1.16   1
  -7  -7   6    7.24    1.41   1
   7  -7  -6    7.43    1.02   1
   7   7  -5    1.08    0.44   1
   7   7  -5    1.68    0.56   1
   7   7  -5    2.16    0.93   1
  -7   7   5    1.39    0.56   1
  -7   7   5    1.96    0.56   1
   7  -7  -5    1.59    0.57   1
  -7  -7   5    2.84    1.04   1
  -7  -7   5    2.14    0.61   1
   7  -7  -5    1.51    0.62   1
  -7   7   4    4.18    0.71   1
  -7   7   4    3.75    0.63   1
   7   7  -4    2.86    0.55   1
   7   7  -4    3.56    0.62   1
   7   7  -4    1.36    0.88   1
  -7  -7   4    3.04    1.11   1
   7  -7  -4    2.76    0.66   1
   7  -7  -4    2.93    0.71   1
  -7  -7   4    2.74    0.64   1
   7   7  -3   19.46    1.72   1
  -7   7   3   21.28    1.45   1
  -7   7   3   20.06    1.49   1
   7   7  -3   18.87    1.34   1
   7   7  -3   19.77    1.41   1
   7  -7  -3   22.06    1.55   1
   7  -7  -3   20.59    1.54   1
  -7  -7   3   19.04    1.42   1
  -7  -7   3   18.20    2.22   1
  -7   7   2   50.34    2.89   1
   7   7  -2   51.10    2.79   1
   7   7  -2   52.63    3.04   1
  -7   7   2   50.40    2.84   1
   7   7  -2   44.97    2.70   1
   7  -7  -2   50.90    2.92   1
   7  -7  -2   50.71    2.95   1
  -7  -7   2   49.62    2.80   1
  -7  -7   2   39.42    3.36   1
  -7   7   1    2.75    0.65   1
  -7   7   1    3.25    0.61   1
   7   7  -1    2.61    0.50   1
   7   7  -1    4.60    0.62   1
   7  -7  -1    3.32    0.70   1
  -7  -7   1    2.08    0.97   1
   7  -7  -1    1.93    0.62   1
  -7   7   0   17.37    1.37   1
   7   7   0   19.88    1.33   1
   7   7   0   17.89    1.27   1
  -7   7   0   17.54    1.49   1
  -7   7   0   20.15    1.46   1
  -7  -7   0   17.95    1.99   1
   7  -7   0   17.09    1.46   1
   7  -7   0   19.01    1.47   1
   7   7   1   21.09    1.39   1
  -7   7  -1   22.10    1.53   1
  -7   7  -1   19.72    1.55   1
   7   7   1   20.76    1.43   1
  -7   7  -1   22.53    1.68   1
   7  -7   1   19.73    1.59   1
   7  -7   1   19.09    1.59   1
  -7  -7  -1   20.86    1.87   1
   7  -7   1   19.08    1.58   1
   7   7   2   16.77    1.24   1
  -7   7  -2   17.92    1.38   1
  -7   7  -2   17.19    1.50   1
  -7   7  -2   17.34    1.41   1
   7   7   2   16.76    1.28   1
   7  -7   2   15.49    1.51   1
   7  -7   2   18.42    1.49   1
  -7  -7  -2   17.06    1.56   1
   7  -7   2   13.79    1.44   1
   7   7   3   12.05    1.12   1
  -7   7  -3   14.85    1.44   1
   7   7   3   14.20    1.21   1
  -7   7  -3   13.39    1.39   1
  -7   7  -3   12.31    1.42   1
   7  -7   3   13.44    1.40   1
   7  -7   3   16.06    1.55   1
   7  -7   3   14.12    1.43   1
  -7   7  -4    1.30    0.69   1
   7   7   4    1.09    0.57   1
  -7   7  -4    0.48    0.64   1
  -7   7  -4    0.03    0.53   1
   7   7   4    1.26    0.55   1
   7  -7   4    0.50    0.66   1
   7  -7   4    1.22    0.71   1
   7  -7   4    1.27    0.72   1
   7   7   5   29.98    2.09   1
   7   7   5   32.00    2.18   1
  -7   7  -5   25.06    2.25   1
  -7   7  -5   28.57    2.24   1
  -7   7  -5   26.03    2.23   1
   7  -7   5   30.44    2.25   1
   7  -7   5   36.75    3.43   1
   7  -7   5   33.99    2.33   1
  -7   7  -6   13.76    1.65   1
  -7   7  -6   10.97    1.59   1
   7   7   6    9.87    1.39   1
   7   7   6   13.74    1.46   1
  -7   7  -6   14.80    1.67   1
  -7   7  -6   12.61    1.48   1
   7  -7   6   15.94    1.69   1
   7  -7   6   10.40    1.47   1
  -7   7  -7    0.75    0.83   1
  -7   7  -7    0.82    0.74   1
   7   7   7    0.47    0.70   1
   7   7   7   -0.23    0.65   1
   7  -7   7    0.83    0.89   1
   7  -7   7    0.20    0.85   1
   7   7   8   -0.23    0.92   1
   7   7   8    0.71    0.76   1
  -7   7  -8   -0.22    0.91   1
   7  -7   8   -0.34    0.69   1
   7  -7   8   -0.70    1.27   1
   7   8 -10    3.98    0.99   1
  -7   8  10    7.06    1.09   1
  -7   8  10    4.37    1.12   1
   7   8 -10    7.80    1.37   1
   7  -8 -10    4.83    1.03   1
  -7  -8  10    6.32    1.27   1
  -7  -8  10    5.10    1.29   1
   7   8  -9    7.42    1.11   1
  -7   8   9    7.46    1.08   1
  -7   8   9    8.79    1.24   1
   7   8  -9    7.24    1.34   1
   7   8  -9    6.38    1.35   1
  -7  -8   9    8.48    1.54   1
   7  -8  -9    8.73    1.23   1
  -7  -8   9    8.23    1.37   1
   7   8  -8    6.17    1.20   1
   7   8  -8    9.00    1.51   1
  -7   8   8    6.56    1.00   1
  -7   8   8    5.90    0.93   1
   7  -8  -8    6.02    1.03   1
  -7  -8   8    4.06    1.24   1
  -7  -8   8    7.01    1.24   1
  -7   8   7   -0.39    0.51   1
  -7   8   7    0.24    0.52   1
   7   8  -7   -0.14    0.46   1
   7   8  -7   -0.21    0.78   1
  -7  -8   7   -0.08    0.86   1
   7  -8  -7    0.71    0.60   1
  -7  -8   7   -0.62    0.59   1
   7   8  -6   14.44    1.80   1
   7   8  -6   11.27    1.17   1
  -7   8   6   13.84    1.25   1
   7   8  -6   11.17    1.26   1
  -7   8   6   11.85    1.22   1
  -7  -8   6   11.65    1.84   1
  -7  -8   6   15.13    1.49   1
   7  -8  -6   12.94    1.35   1
   7   8  -5   23.41    2.19   1
   7   8  -5   22.23    1.59   1
   7   8  -5   23.82    1.68   1
  -7   8   5   24.22    1.67   1
  -7  -8   5   22.71    1.78   1
  -7  -8   5   26.06    2.44   1
   7  -8  -5   22.42    1.77   1
   7  -8  -5   23.96    1.83   1
   7   8  -4   14.07    1.09   1
   7   8  -4   12.27    1.11   1
   7   8  -4    8.88    1.52   1
  -7   8   4   14.32    1.22   1
  -7   8   4   13.14    1.15   1
  -7  -8   4   14.38    1.35   1
   7  -8  -4   13.94    1.37   1
   7  -8  -4   16.29    1.48   1
  -7  -8   4   15.44    2.04   1
   7   8  -3    1.57    0.42   1
   7   8  -3    0.91    0.75   1
   7   8  -3    1.36    0.46   1
  -7   8   3    1.39    0.52   1
  -7   8   3    1.32    0.56   1
   7  -8  -3    2.61    0.67   1
  -7  -8   3    0.92    0.93   1
   7  -8  -3    0.78    0.57   1
  -7  -8   3    0.93    0.52   1
   7   8  -2    8.58    0.86   1
   7   8  -2    7.15    0.77   1
  -7   8   2    8.01    0.90   1
  -7   8   2    7.94    0.94   1
  -7  -8   2    5.58    1.38   1
  -7  -8   2    7.53    0.88   1
   7  -8  -2    8.88    1.08   1
   7  -8  -2    8.16    1.05   1
  -7   8   1   31.63    2.29   1
   7   8  -1   33.51    2.02   1
  -7   8   1   35.61    2.20   1
  -7   8   1   36.04    2.16   1
   7   8  -1   31.71    1.99   1
   7  -8  -1   36.64    2.29   1
   7  -8  -1   31.87    2.25   1
  -7  -8   1   34.56    2.75   1
  -7   8   0   29.71    1.91   1
  -7   8   0   27.64    1.99   1
   7   8   0   23.93    1.64   1
   7   8   0   26.05    1.68   1
  -7   8   0   25.84    1.79   1
   7  -8   0   25.69    1.92   1
   7  -8   0   28.05    2.00   1
  -7  -8   0   28.27    2.34   1
  -7   8  -1    3.05    0.67   1
  -7   8  -1    2.79    0.80   1
   7   8   1    2.62    0.53   1
   7   8   1    2.95    0.56   1
  -7   8  -1    3.79    0.74   1
   7  -8   1    3.61    0.86   1
  -7  -8  -1    2.99    0.85   1
   7  -8   1    2.22    0.79   1
  -7   8  -2    4.56    0.81   1
   7   8   2    3.52    0.61   1
  -7   8  -2    3.54    0.80   1
  -7   8  -2    3.11    0.83   1
   7   8   2    3.43    0.62   1
   7  -8   2    3.67    0.86   1
   7  -8   2    3.54    0.84   1
   7  -8   2    5.38    0.93   1
   7   8   3   15.45    1.29   1
  -7   8  -3   16.79    1.59   1
  -7   8  -3   14.36    1.53   1
  -7   8  -3   19.35    1.65   1
   7   8   3   17.60    1.32   1
   7  -8   3   16.93    1.62   1
   7  -8   3   16.93    1.65   1
   7  -8   3   18.32    1.79   1
  -7   8  -4   19.76    1.96   1
   7   8   4   18.42    1.49   1
  -7   8  -4   17.19    1.76   1
  -7   8  -4   23.95    1.89   1
   7   8   4   19.35    1.49   1
   7  -8   4   16.92    1.77   1
   7  -8   4   20.13    1.97   1
   7  -8   4   20.47    1.88   1
  -7   8  -5    3.25    0.93   1
  -7   8  -5    3.75    0.94   1
   7   8   5    4.67    0.87   1
   7   8   5    4.11    0.81   1
  -7   8  -5    3.40    0.96   1
   7  -8   5    3.18    0.94   1
   7  -8   5    5.12    1.14   1
   7  -8   5    7.67    1.21   1
   7   8   6    1.16    0.74   1
   7   8   6    1.01    0.65   1
  -7   8  -6    0.62    0.64   1
  -7   8  -6    0.22    0.74   1
  -7   8  -6    0.81    0.83   1
  -7   8  -6    0.16    0.78   1
   7  -8   6    0.11    0.79   1
   7  -8   6    0.49    0.78   1
   7   8   7    6.97    1.16   1
  -7   8  -7    3.92    1.23   1
   7   8   7    4.52    1.04   1
   7  -8   7    5.31    1.11   1
   7  -8   7    4.95    1.43   1
  -7   9   9    1.13    0.68   1
   7   9  -9    3.72    0.90   1
   7   9  -9    3.00    0.96   1
  -7   9   9    2.96    0.91   1
  -7  -9   9    2.16    1.18   1
  -7  -9   9    2.79    1.10   1
   7  -9  -9    1.48    0.84   1
   7   9  -8    4.75    0.89   1
  -7   9   8    4.63    0.92   1
   7   9  -8    3.03    1.15   1
   7   9  -8    2.78    0.94   1
  -7   9   8    4.02    0.81   1
  -7  -9   8    3.69    1.05   1
   7  -9  -8    4.84    1.04   1
  -7  -9   8    3.43    1.29   1
   7   9  -7    0.98    0.76   1
  -7   9   7    0.78    0.56   1
   7   9  -7    0.88    0.56   1
   7   9  -7    1.33    0.93   1
  -7   9   7    0.33    0.53   1
   7  -9  -7    0.07    0.59   1
  -7  -9   7    0.95    0.75   1
  -7  -9   7    0.73    1.00   1
   7   9  -6    5.02    0.79   1
  -7   9   6    5.34    0.85   1
   7   9  -6    6.90    1.41   1
  -7   9   6    5.20    0.85   1
  -7  -9   6    5.48    1.00   1
  -7  -9   6    5.59    1.38   1
   7  -9  -6    5.64    1.02   1
   7   9  -5    3.09    1.15   1
  -7   9   5    3.28    0.69   1
   7   9  -5    3.94    0.67   1
   7   9  -5    3.94    0.73   1
  -7   9   5    4.89    0.78   1
   7  -9  -5    5.02    0.94   1
  -7  -9   5    1.66    0.75   1
  -7  -9   5    2.88    1.17   1
  -7   9   4    9.75    1.03   1
  -7   9   4    7.96    0.95   1
   7   9  -4    3.40    1.14   1
   7   9  -4    9.91    1.00   1
   7   9  -4    9.76    0.95   1
   7  -9  -4    8.98    1.19   1
  -7  -9   4   11.32    1.20   1
   7  -9  -4   11.84    1.31   1
  -7  -9   4    9.40    1.71   1
  -7   9   3   25.35    1.69   1
  -7   9   3   24.37    1.70   1
   7   9  -3   24.00    1.58   1
   7   9  -3   23.19    2.11   1
   7   9  -3   20.41    1.53   1
  -7  -9   3   24.00    2.64   1
   7  -9  -3   24.68    1.88   1
  -7  -9   3   23.11    1.74   1
   7  -9  -3   26.41    1.90   1
   7   9  -2    1.36    0.43   1
  -7   9   2    1.54    0.55   1
  -7   9   2    1.27    0.53   1
   7  -9  -2    2.59    0.75   1
   7  -9  -2    1.28    0.68   1
  -7  -9   2    1.48    1.08   1
   7   9  -1    0.14    0.34   1
  -7   9   1    0.53    0.58   1
  -7   9   1    0.80    0.52   1
  -7   9   1    0.44    0.48   1
   7  -9  -1   -0.02    0.55   1
  -7  -9   1   -0.50    0.82   1
   7  -9  -1    0.11    0.60   1
  -7   9   0    0.16    0.52   1
  -7   9   0   -0.10    0.57   1
  -7   9   0   -0.21    0.43   1
   7   9   0   -0.02    0.33   1
  -7  -9   0    1.07    0.75   1
   7  -9   0    0.30    0.63   1
   7  -9   0    0.89    0.64   1
  -7   9  -1   14.34    1.31   1
   7   9   1   11.02    1.02   1
  -7   9  -1   13.18    1.34   1
  -7   9  -1   12.96    1.50   1
  -7  -9  -1   13.93    1.63   1
   7  -9   1   11.60    1.43   1
   7  -9   1   16.57    1.56   1
   7   9   2   14.70    1.19   1
  -7   9  -2   17.77    1.80   1
  -7   9  -2   16.12    1.43   1
  -7   9  -2   17.46    1.48   1
   7  -9   2   14.95    1.68   1
   7  -9   2   16.09    1.65   1
   7  -9   2   14.46    1.54   1
  -7   9  -3   -0.13    0.57   1
  -7   9  -3    0.62    0.68   1
  -7   9  -3    0.27    0.53   1
   7   9   3    0.25    0.45   1
   7  -9   3    0.66    0.73   1
   7  -9   3    0.24    0.73   1
   7  -9   3    0.36    0.72   1
  -7   9  -4    0.76    0.68   1
   7   9   4    0.78    0.53   1
  -7   9  -4    0.32    0.67   1
  -7   9  -4    1.44    0.77   1
   7  -9   4    1.84    0.89   1
   7  -9   4    1.31    0.81   1
   7  -9   4    1.44    0.91   1
  -7   9  -5   -0.11    0.69   1
  -7   9  -5    0.47    0.64   1
  -7   9  -5    0.35    0.76   1
  -7   9  -5    0.61    0.81   1
   7   9   5   -0.27    0.54   1
   7  -9   5    1.09    0.86   1
   7  -9   5   -0.65    0.88   1
   7  -9   5   -1.10    0.74   1
   7   9   6    2.44    0.85   1
  -7   9  -6    4.52    1.16   1
  -7   9  -6    4.03    1.10   1
   7  -9   6    4.07    1.01   1
   7  -9   6    5.39    1.42   1
  -7  10   8    5.45    1.02   1
   7  10  -8    5.39    1.05   1
   7  10  -8    6.68    1.07   1
  -7  10   8    5.40    0.92   1
   7 -10  -8    4.90    1.17   1
  -7 -10   8    6.27    1.24   1
  -7 -10   8    4.59    1.47   1
   7  10  -7    0.61    0.88   1
   7  10  -7    0.41    0.62   1
  -7  10   7    1.12    0.64   1
  -7  10   7   -0.68    0.42   1
  -7 -10   7    0.24    0.73   1
  -7 -10   7   -0.45    0.88   1
   7 -10  -7   -1.85    0.56   1
  -7  10   6    4.52    0.80   1
   7  10  -6    3.56    1.28   1
   7  10  -6    6.19    1.41   1
   7  10  -6    6.30    0.89   1
  -7  10   6    5.83    0.87   1
   7 -10  -6    5.32    1.06   1
  -7 -10   6    5.05    1.00   1
  -7 -10   6    6.35    1.51   1
  -7  10   5    1.10    0.57   1
   7  10  -5    1.31    0.51   1
  -7  10   5    1.21    0.56   1
   7  10  -5    1.95    1.10   1
  -7 -10   5    2.61    1.19   1
  -7 -10   5    2.06    0.79   1
   7 -10  -5    1.53    0.76   1
   7  10  -4    0.47    0.94   1
   7  10  -4    2.36    0.55   1
  -7  10   4    3.63    0.69   1
  -7  10   4    3.91    0.71   1
  -7 -10   4    5.02    1.42   1
  -7 -10   4    3.30    0.78   1
   7 -10  -4    2.53    0.90   1
   7 -10  -4    3.99    0.92   1
  -7  10   3    4.15    0.74   1
   7  10  -3    5.21    0.67   1
  -7  10   3    4.18    0.73   1
   7 -10  -3    6.30    1.07   1
   7 -10  -3    4.40    0.93   1
  -7 -10   3    4.90    1.44   1
  -7  10   2    0.11    0.45   1
   7  10  -2    0.63    0.38   1
  -7  10   2    0.67    0.66   1
  -7  10   2    0.24    0.47   1
  -7 -10   2   -0.17    0.93   1
   7 -10  -2   -0.96    0.59   1
   7 -10  -2   -1.02    0.62   1
  -7  10   1    9.05    1.02   1
  -7  10   1    8.39    0.99   1
   7  10  -1    8.04    0.83   1
  -7  10   1    7.06    1.16   1
   7 -10  -1    9.49    1.33   1
  -7 -10   1    9.38    1.57   1
   7 -10  -1    8.41    1.23   1
  -7  10   0    0.31    0.51   1
   7  10   0    0.19    0.37   1
  -7  10   0    0.28    0.50   1
  -7  10   0    0.44    0.60   1
   7 -10   0    0.03    0.63   1
   7 -10   0    0.67    0.70   1
  -7 -10   0    0.27    0.75   1
   7  10   1    7.13    0.79   1
  -7  10  -1    7.23    1.17   1
  -7  10  -1    7.80    1.01   1
  -7  10  -1    6.22    0.92   1
   7 -10   1    6.98    1.14   1
   7 -10   1    4.81    1.10   1
   7  10   2    1.64    0.49   1
  -7  10  -2    1.03    0.62   1
  -7  10  -2    2.66    0.84   1
  -7  10  -2    2.36    0.71   1
   7 -10   2    2.97    0.88   1
   7 -10   2    0.68    0.77   1
  -7  10  -3    0.98    0.65   1
  -7  10  -3    1.54    0.77   1
  -7  10  -3    1.11    0.68   1
   7  10   3    1.04    0.49   1
   7 -10   3    1.96    0.93   1
   7 -10   3    1.36    0.94   1
   7 -10   3    1.82    0.80   1
  -7  10  -4    5.79    1.03   1
   7  10   4    5.07    0.80   1
  -7  10  -4    5.50    1.09   1
  -7  10  -4    7.42    1.87   1
   7 -10   4    6.49    1.21   1
   7 -10   4    6.64    1.21   1
   7 -10   4    4.38    1.21   1
  -7  10  -5   -1.71    0.65   1
   7  10   5   -0.60    0.63   1
  -7  10  -5    0.88    0.90   1
   7 -10   5    0.15    1.21   1
   7 -10   5   -0.77    1.11   1
   7 -10   5    0.55    0.78   1
  -7 -11   7   14.52    2.33   1
  -7  11   6    0.58    0.56   1
  -7 -11   6    1.11    0.79   1
   7 -11  -6   -0.03    0.74   1
  -7 -11   6    1.06    1.17   1
  -7  11   5    3.32    0.73   1
   7  11  -5    3.60    0.72   1
   7 -11  -5    3.68    1.02   1
  -7 -11   5    4.22    1.40   1
  -7 -11   5    4.63    0.98   1
  -7  11   4    1.20    0.53   1
   7  11  -4    1.32    0.48   1
   7 -11  -4    0.26    0.72   1
   7 -11  -4   -0.47    0.72   1
  -7 -11   4    1.30    1.22   1
  -7  11   3    0.30    0.62   1
   7  11  -3   -0.07    0.36   1
  -7  11   3   -0.30    0.43   1
   7 -11  -3    0.39    0.69   1
   7 -11  -3   -0.61    0.71   1
  -7 -11   3   -0.57    1.04   1
  -7  11   2   19.34    1.60   1
  -7  11   2   22.97    1.97   1
   7  11  -2   22.27    1.48   1
   7 -11  -2   22.55    2.11   1
   7 -11  -2   21.39    2.01   1
  -7 -11   2   24.13    2.59   1
  -7  11   1    0.85    0.67   1
  -7  11   1    0.44    0.51   1
   7  11  -1    0.28    0.37   1
  -7 -11   1    0.09    0.85   1
   7 -11  -1   -0.36    0.77   1
   7 -11  -1    1.17    0.75   1
  -7  11   0   19.62    1.52   1
  -7  11   0   16.28    1.82   1
  -7  11   0   17.79    1.48   1
   7  11   0   18.23    1.29   1
   7 -11   0   13.95    1.64   1
   7 -11   0   22.08    2.00   1
  -7 -11   0   18.09    2.04   1
  -7  11  -1    1.15    0.59   1
   7  11   1    0.19    0.37   1
  -7  11  -1   -0.01    0.52   1
  -7  11  -1    2.56    0.84   1
   7 -11   1   -0.53    0.73   1
   7 -11   1    0.00    0.70   1
  -7  11  -2    0.96    0.60   1
   7  11   2    0.21    0.42   1
  -7  11  -2    0.18    0.56   1
   7 -11   2    0.15    0.81   1
   7 -11   2   -0.45    0.73   1
   7  11   3    8.23    0.93   1
  -7  11  -3    7.26    1.14   1
  -7  11  -3    7.07    1.09   1
   7 -11   3    6.66    1.18   1
   7 -11   3    6.16    1.42   1
  -7  12   4   21.88    1.73   1
   7  12  -4   21.83    1.66   1
   7 -12  -4   22.47    2.18   1
  -7 -12   4   21.22    2.65   1
   7 -12  -4   21.83    2.26   1
   7  12  -3    3.65    0.68   1
  -7  12   3    2.93    0.73   1
   7 -12  -3    2.48    1.21   1
  -7 -12   3    3.51    1.33   1
   7 -12  -3    1.91    0.97   1
  -7  12   2    6.15    0.92   1
   7  12  -2    6.93    0.82   1
   7 -12  -2    8.76    1.33   1
   7 -12  -2    8.36    1.46   1
  -7 -12   2    6.93    1.58   1
  -7  12   1    0.15    0.57   1
   7  12  -1    0.42    0.46   1
  -7 -12   1    0.54    0.81   1
   7 -12  -1   -0.13    1.05   1
   7 -12  -1    0.66    0.76   1
  -7  12   0   12.56    1.32   1
   7  12   0   13.03    1.12   1
   7 -12   0   11.14    1.46   1
   7 -12   0   13.13    1.80   1
  -8   0  13    0.82    0.93   1
   8   0 -13    1.09    0.84   1
  -8   0  13    1.42    0.90   1
   8   0 -12   12.06    1.66   1
  -8   0  12   10.91    1.64   1
  -8   0  12   10.77    1.48   1
   8   0 -12    7.59    1.44   1
  -8   0  11   -0.20    0.69   1
  -8   0  11   -0.73    0.68   1
   8   0 -11   -0.55    0.82   1
   8   0 -11   -0.27    0.74   1
  -8   0  10   -0.38    0.59   1
   8   0 -10    0.83    0.79   1
  -8   0  10   -0.17    0.70   1
   8   0 -10    0.84    0.60   1
  -8   0   9   64.28    3.82   1
   8   0  -9   68.20    4.09   1
  -8   0   9   64.11    3.83   1
   8   0  -9   58.63    3.74   1
  -8   0   9   60.60    3.82   1
  -8   0   8    3.96    0.78   1
  -8   0   8    4.32    0.88   1
   8   0  -8    4.80    0.86   1
   8   0  -8    3.89    0.98   1
  -8   0   7   91.21    4.97   1
   8   0  -7   90.36    4.97   1
   8   0  -7   86.22    5.16   1
  -8   0   7   91.54    5.06   1
   8   0  -6   33.25    2.35   1
   8   0  -6   34.90    2.07   1
  -8   0   6   34.32    2.33   1
   8   0  -6   33.24    2.19   1
  -8   0   6   34.78    2.20   1
   8   0  -5    1.60    0.61   1
  -8   0   5    1.72    0.53   1
   8   0  -5    1.47    0.46   1
   8   0  -5    1.87    0.32   1
  -8   0   5    1.05    0.62   1
   8   0  -5    1.48    0.38   1
  -8   0   4   68.41    3.80   1
   8   0  -4   71.76    3.97   1
   8   0  -4   71.39    3.70   1
   8   0  -4   74.98    3.83   1
   8   0  -4   74.00    4.01   1
  -8   0   4   69.07    3.91   1
  -8   0   4   70.14    4.10   1
  -8   0   3    2.44    0.70   1
   8   0  -3    0.25    0.41   1
  -8   0   3    1.20    0.34   1
  -8   0   3    1.37    0.47   1
   8   0  -3    1.23    0.32   1
   8   0  -3    1.36    0.48   1
   8   0  -3    0.90    0.35   1
   8   0  -2  316.14   15.16   1
  -8   0   2  305.09   15.28   1
  -8   0   2  309.43   15.03   1
   8   0  -2  308.86   15.28   1
   8   0  -2  287.02   15.28   1
  -8   0   2  299.07   15.17   1
   8   0  -2  309.58   15.21   1
   8   0  -1  111.18    5.52   1
  -8   0   1  109.07    5.53   1
  -8   0   1  106.10    5.61   1
   8   0  -1  109.41    5.54   1
   8   0  -1   98.52    5.61   1
  -8   0   1  104.93    5.34   1
   8   0   0   10.51    1.05   1
  -8   0   0    9.00    0.96   1
   8   0   0   11.16    0.91   1
  -8   0   0    8.44    0.63   1
   8   0   0    9.16    0.81   1
  -8   0  -1    4.40    0.47   1
   8   0   1    3.79    0.60   1
  -8   0  -1    3.45    0.65   1
   8   0   1    4.08    0.71   1
  -8   0  -2    0.42    0.30   1
   8   0   2    0.66    0.47   1
   8   0   2    0.84    0.38   1
  -8   0  -2    0.61    0.44   1
   8   0   2    0.74    0.28   1
  -8   0  -3  143.58    7.47   1
   8   0   3  146.11    7.39   1
   8   0   3  136.69    7.49   1
   8   0   3  142.32    7.22   1
  -8   0  -4   41.24    2.53   1
   8   0   4   48.54    2.70   1
   8   0   4   45.05    2.54   1
  -8   0  -4   41.78    2.73   1
   8   0   4   43.67    2.80   1
   8   0   5   12.67    1.21   1
   8   0   5   13.29    1.49   1
  -8   0  -5   12.40    1.10   1
  -8   0  -5   13.63    1.45   1
  -8   0  -6    4.58    1.00   1
   8   0   6    4.90    0.89   1
   8   0   6    6.08    1.18   1
   8   0   7    2.11    0.76   1
   8   0   7    0.36    0.89   1
  -8   0  -7    0.84    0.76   1
   8   0   8   15.63    2.04   1
   8   0   8   22.40    2.17   1
   8   0   9    7.73    1.49   1
   8   1 -13    2.48    1.00   1
  -8   1  13    4.20    1.26   1
  -8   1  13    1.78    1.03   1
  -8  -1  13    0.68    0.91   1
  -8  -1  13    1.09    0.82   1
   8   1 -12   12.87    1.73   1
  -8   1  12   11.52    1.58   1
   8   1 -12    9.25    1.60   1
  -8   1  12   12.48    1.73   1
  -8  -1  12   14.61    1.66   1
   8  -1 -12   10.93    1.61   1
  -8  -1  12   12.66    1.71   1
   8  -1 -12   14.47    1.79   1
  -8   1  11   27.53    2.41   1
   8   1 -11   32.92    2.55   1
   8   1 -11   36.18    2.70   1
  -8   1  11   33.58    2.65   1
   8  -1 -11   34.03    2.57   1
  -8  -1  11   30.68    2.39   1
  -8  -1  11   23.66    2.37   1
   8  -1 -11   29.78    2.60   1
  -8   1  10    6.89    1.19   1
   8   1 -10    6.31    1.26   1
  -8   1  10    7.17    1.22   1
   8   1 -10    8.65    1.21   1
  -8  -1  10    7.53    1.23   1
   8  -1 -10    5.38    1.00   1
  -8  -1  10    7.69    1.25   1
   8  -1 -10    7.16    1.33   1
  -8  -1  10    5.34    1.05   1
  -8   1   9   15.89    1.63   1
  -8   1   9   20.28    1.74   1
   8   1  -9   20.33    1.90   1
   8   1  -9   15.85    1.67   1
  -8  -1   9   17.59    1.73   1
  -8  -1   9   20.20    1.67   1
   8  -1  -9   18.44    2.01   1
   8  -1  -9   20.58    1.61   1
  -8  -1   9   14.86    1.66   1
   8   1  -8    0.75    0.53   1
   8   1  -8    0.83    0.73   1
  -8   1   8   -0.01    0.48   1
  -8   1   8    0.10    0.59   1
  -8  -1   8    0.13    0.61   1
   8  -1  -8    0.59    0.56   1
  -8  -1   8    0.60    0.61   1
   8  -1  -8    0.90    0.51   1
  -8  -1   8   -0.20    0.46   1
  -8   1   7   29.48    1.95   1
  -8   1   7   28.15    2.00   1
   8   1  -7   26.50    1.89   1
   8   1  -7   29.58    2.19   1
  -8   1   7   24.61    1.88   1
   8   1  -7   25.92    1.75   1
   8  -1  -7   27.51    1.90   1
  -8  -1   7   29.16    2.07   1
  -8  -1   7   26.74    1.99   1
   8  -1  -7   23.70    2.04   1
  -8  -1   7   26.83    1.89   1
   8   1  -6   71.81    4.28   1
  -8   1   6   75.98    4.22   1
  -8   1   6   71.77    3.95   1
   8   1  -6   70.84    4.09   1
  -8   1   6   73.80    4.10   1
   8   1  -6   73.25    3.97   1
   8  -1  -6   73.51    4.09   1
   8  -1  -6   72.23    4.24   1
  -8  -1   6   72.00    4.07   1
  -8  -1   6   75.81    4.26   1
  -8  -1   6   71.34    4.13   1
   8  -1  -6   74.47    3.81   1
  -8   1   5   31.83    2.29   1
  -8   1   5   32.88    2.03   1
  -8   1   5   32.37    2.16   1
   8   1  -5   36.64    2.08   1
   8   1  -5   35.81    2.31   1
   8   1  -5   35.54    2.20   1
   8  -1  -5   34.50    2.28   1
  -8  -1   5   32.67    2.32   1
  -8  -1   5   35.57    2.16   1
   8  -1  -5   31.91    2.15   1
   8  -1  -5   37.74    1.96   1
  -8   1   4  114.58    6.16   1
  -8   1   4  114.89    6.05   1
   8   1  -4  123.58    5.90   1
   8   1  -4  113.69    6.21   1
   8   1  -4  115.10    6.19   1
   8   1  -4  121.02    6.08   1
   8  -1  -4  118.57    6.04   1
  -8  -1   4  113.47    6.33   1
  -8  -1   4  121.39    6.15   1
   8  -1  -4  118.28    6.19   1
   8  -1  -4  114.89    5.97   1
   8  -1  -4  115.22    6.23   1
  -8   1   3   -0.09    0.36   1
   8   1  -3    0.72    0.41   1
  -8   1   3   -0.21    0.24   1
   8   1  -3    0.21    0.31   1
   8   1  -3    0.20    0.38   1
   8   1  -3    0.07    0.24   1
   8  -1  -3    0.01    0.21   1
   8  -1  -3    0.26    0.41   1
  -8  -1   3    0.27    0.55   1
   8  -1  -3   -0.13    0.25   1
   8  -1  -3    0.51    0.40   1
  -8  -1   3   -0.37    0.32   1
  -8   1   2    1.22    0.47   1
   8   1  -2    0.95    0.43   1
  -8   1   2    1.46    0.39   1
   8   1  -2    1.51    0.37   1
   8   1  -2    1.21    0.42   1
   8   1  -2    0.87    0.36   1
  -8  -1   2    1.41    0.43   1
   8  -1  -2    1.93    0.43   1
   8  -1  -2    2.09    0.51   1
  -8  -1   2    1.01    0.63   1
   8  -1  -2    1.62    0.48   1
   8  -1  -2    1.78    0.38   1
   8  -1  -2    1.78    0.28   1
   8   1  -1   26.76    1.81   1
  -8   1   1   28.33    1.83   1
  -8   1   1   28.36    1.61   1
   8   1  -1   26.57    1.72   1
  -8   1   1   30.59    1.74   1
   8   1  -1   27.94    1.70   1
   8   1  -1   29.08    1.75   1
  -8  -1   1   28.23    1.79   1
   8  -1  -1   29.46    1.73   1
   8  -1  -1   28.97    1.75   1
   8  -1  -1   30.91    1.86   1
   8  -1  -1   26.62    1.55   1
  -8  -1   1   28.82    2.03   1
  -8   1   0   44.00    2.60   1
  -8   1   0   43.09    2.37   1
  -8   1   0   42.89    2.47   1
   8   1   0   44.01    2.53   1
   8   1   0   44.13    2.61   1
   8  -1   0   45.58    2.63   1
   8  -1   0   43.32    2.48   1
   8  -1   0   47.41    2.56   1
   8  -1   0   43.11    2.33   1
  -8  -1   0   42.70    2.55   1
  -8  -1   0   42.30    2.78   1
  -8   1  -1  146.35    7.80   1
   8   1   1  151.67    7.96   1
  -8   1  -1  154.80    7.95   1
  -8   1  -1  156.56    7.74   1
   8   1   1  152.68    7.84   1
   8  -1   1  148.50    7.82   1
   8  -1   1  160.67    7.98   1
  -8  -1  -1  147.77    8.04   1
   8  -1   1  160.42    7.70   1
   8  -1   1  151.82    7.88   1
  -8  -1  -1  150.86    7.89   1
  -8   1  -2    0.02    0.28   1
  -8   1  -2   -0.09    0.41   1
   8   1   2    0.59    0.46   1
   8   1   2   -0.15    0.37   1
   8  -1   2    0.31    0.29   1
   8  -1   2    0.06    0.44   1
  -8  -1  -2   -0.18    0.45   1
   8  -1   2   -0.30    0.26   1
   8  -1   2   -0.09    0.45   1
  -8  -1  -2   -0.23    0.36   1
   8   1   3   19.50    1.50   1
   8   1   3   18.96    1.42   1
  -8   1  -3   17.76    1.30   1
  -8   1  -3   19.98    1.50   1
  -8  -1  -3   19.76    1.52   1
   8  -1   3   17.02    1.50   1
   8  -1   3   20.96    1.54   1
   8  -1   3   18.77    1.26   1
  -8  -1  -3   15.72    1.37   1
  -8   1  -4    0.68    0.54   1
   8   1   4    0.53    0.51   1
   8   1   4    1.01    0.54   1
  -8   1  -4    0.95    0.46   1
  -8  -1  -4    0.84    0.51   1
   8  -1   4    1.00    0.44   1
  -8  -1  -4    1.10    0.53   1
   8  -1   4    0.81    0.57   1
  -8   1  -5   12.54    1.32   1
  -8   1  -5   17.46    1.53   1
   8   1   5   13.03    1.52   1
   8   1   5   16.34    1.56   1
  -8  -1  -5   14.71    1.51   1
   8  -1   5   15.42    1.30   1
   8  -1   5   12.16    1.49   1
  -8   1  -6   51.60    3.52   1
  -8   1  -6   55.49    3.26   1
   8   1   6   50.78    3.53   1
   8  -1   6   57.26    3.61   1
  -8  -1  -6   61.36    3.54   1
   8  -1   6   50.28    3.25   1
  -8   1  -7   -0.15    0.77   1
   8   1   7    0.84    0.86   1
  -8   1  -7    0.48    0.58   1
   8  -1   7    1.60    0.89   1
   8  -1   7    0.46    0.68   1
   8   1   8   14.97    2.01   1
  -8   1  -8   15.45    1.95   1
   8  -1   8   18.78    1.81   1
   8  -1   8   13.40    1.96   1
   8  -1   8   23.98    2.09   1
   8   1   9   -0.37    0.76   1
  -8   1  -9    0.08    1.27   1
   8  -1   9    0.38    0.81   1
   8  -1   9   -0.16    0.88   1
   8  -1   9   -0.47    0.71   1
  -8   2  13   -1.73    0.94   1
  -8   2  13    1.17    0.92   1
   8   2 -13   -0.75    0.77   1
  -8  -2  13    0.58    0.97   1
   8   2 -12    6.00    1.26   1
  -8   2  12    3.39    1.16   1
  -8   2  12    4.05    1.16   1
   8   2 -12    3.99    1.20   1
  -8  -2  12    4.23    1.04   1
   8  -2 -12    4.48    1.13   1
  -8  -2  12    4.49    1.08   1
  -8   2  11    0.46    0.90   1
  -8   2  11    0.76    0.83   1
   8   2 -11    1.06    0.90   1
   8   2 -11    0.95    0.77   1
  -8  -2  11    1.22    0.80   1
  -8  -2  11    1.52    0.86   1
   8  -2 -11    1.73    0.85   1
   8  -2 -11    0.56    0.74   1
   8   2 -10   -0.22    0.56   1
  -8   2  10    1.41    0.74   1
   8   2 -10    0.69    0.78   1
   8  -2 -10    0.26    0.75   1
  -8  -2  10    0.33    0.68   1
  -8  -2  10   -0.06    0.63   1
  -8  -2  10   -0.02    0.66   1
  -8   2   9   22.01    1.81   1
  -8   2   9   22.90    1.78   1
   8   2  -9   22.28    1.80   1
   8   2  -9   21.10    1.99   1
   8  -2  -9   20.14    1.69   1
  -8  -2   9   21.42    1.81   1
   8  -2  -9   22.99    2.02   1
  -8  -2   9   20.18    1.83   1
  -8  -2   9   21.17    1.93   1
   8   2  -8    0.10    0.49   1
  -8   2   8   -0.34    0.46   1
  -8   2   8   -0.59    0.49   1
   8   2  -8    0.27    0.57   1
   8   2  -8    0.44    0.44   1
  -8   2   8    0.76    0.45   1
  -8  -2   8    0.43    0.75   1
   8  -2  -8    0.52    0.65   1
  -8  -2   8    0.03    0.61   1
  -8  -2   8    0.17    0.49   1
   8  -2  -8    0.41    0.48   1
  -8   2   7   39.05    2.54   1
   8   2  -7   42.46    2.46   1
   8   2  -7   41.40    2.55   1
  -8   2   7   40.69    2.60   1
  -8   2   7   39.95    2.41   1
   8   2  -7   36.72    2.75   1
   8  -2  -7   41.33    2.75   1
  -8  -2   7   39.13    2.60   1
   8  -2  -7   39.70    2.50   1
   8  -2  -7   38.54    2.24   1
  -8  -2   7   41.49    2.53   1
  -8  -2   7   38.07    2.74   1
  -8   2   6    0.15    0.59   1
   8   2  -6    0.57    0.47   1
  -8   2   6    0.74    0.42   1
  -8   2   6    0.88    0.50   1
   8   2  -6    0.52    0.61   1
   8   2  -6    0.41    0.39   1
  -8  -2   6    0.60    0.57   1
  -8  -2   6    0.18    0.42   1
   8  -2  -6    0.72    0.47   1
   8  -2  -6    0.06    0.51   1
   8  -2  -6    0.39    0.32   1
  -8  -2   6    0.17    0.62   1
   8   2  -5    6.35    0.86   1
   8   2  -5    6.83    0.79   1
  -8   2   5    7.41    0.80   1
   8   2  -5    7.97    1.09   1
  -8   2   5    5.24    0.83   1
  -8  -2   5    6.70    0.83   1
   8  -2  -5    6.75    0.93   1
  -8  -2   5    9.03    1.00   1
   8  -2  -5    7.11    0.72   1
  -8  -2   5    5.27    0.97   1
   8  -2  -5    7.94    0.90   1
   8   2  -4   22.82    1.66   1
  -8   2   4   22.76    1.49   1
  -8   2   4   22.66    1.60   1
   8   2  -4   24.96    1.53   1
   8   2  -4   20.21    1.56   1
  -8  -2   4   21.29    1.52   1
  -8  -2   4   23.48    1.81   1
   8  -2  -4   24.92    1.61   1
   8  -2  -4   22.43    1.43   1
  -8  -2   4   21.74    1.56   1
   8  -2  -4   23.46    1.67   1
  -8   2   3    2.88    0.51   1
   8   2  -3    2.37    0.48   1
   8   2  -3    2.66    0.56   1
  -8   2   3    2.54    0.57   1
   8   2  -3    2.37    0.55   1
   8   2  -3    2.47    0.37   1
  -8  -2   3    2.48    0.53   1
   8  -2  -3    2.62    0.48   1
  -8  -2   3    2.86    0.76   1
   8  -2  -3    3.03    0.42   1
   8  -2  -3    1.62    0.50   1
  -8  -2   3    3.29    0.55   1
   8   2  -2   61.78    3.63   1
  -8   2   2   62.80    3.65   1
   8   2  -2   66.80    3.61   1
  -8   2   2   66.65    3.58   1
   8   2  -2   66.51    3.57   1
   8   2  -2   67.73    3.47   1
   8  -2  -2   65.58    3.65   1
  -8  -2   2   65.79    3.60   1
   8  -2  -2   68.55    3.58   1
  -8  -2   2   66.30    3.49   1
   8  -2  -2   66.66    3.43   1
  -8  -2   2   66.05    3.88   1
   8   2  -1    8.04    0.92   1
  -8   2   1    8.92    0.72   1
   8   2  -1    8.78    0.89   1
  -8   2   1   11.09    0.94   1
   8   2  -1    8.63    0.79   1
  -8   2   1    9.75    1.01   1
  -8  -2   1    8.63    0.88   1
   8  -2  -1    9.65    0.94   1
  -8  -2   1    9.28    1.17   1
   8  -2  -1    9.48    0.97   1
   8  -2  -1    8.80    0.70   1
  -8  -2   1    9.17    0.64   1
  -8   2   0    8.57    0.75   1
   8   2   0   10.69    1.04   1
  -8   2   0    9.01    0.80   1
   8   2   0    8.43    0.73   1
   8   2   0    9.53    0.91   1
  -8   2   0    9.40    1.02   1
  -8  -2   0    9.00    0.92   1
   8  -2   0    8.32    0.73   1
  -8  -2   0    9.74    1.21   1
   8  -2   0    9.06    0.92   1
   8  -2   0    8.27    0.96   1
   8   2   1    4.86    0.77   1
  -8   2  -1    5.84    0.78   1
  -8   2  -1    5.62    0.65   1
   8   2   1    4.26    0.64   1
  -8   2  -1    4.89    0.64   1
  -8  -2  -1    5.20    0.69   1
  -8  -2  -1    6.27    0.96   1
   8  -2   1    6.22    0.85   1
   8  -2   1    5.00    0.74   1
   8  -2   1    5.73    0.62   1
   8   2   2    2.84    0.54   1
  -8   2  -2    3.11    0.66   1
  -8   2  -2    1.72    0.45   1
  -8   2  -2    2.35    0.49   1
   8   2   2    3.08    0.68   1
  -8  -2  -2    3.26    0.72   1
  -8  -2  -2    3.05    0.56   1
   8  -2   2    2.80    0.66   1
   8  -2   2    2.25    0.63   1
   8  -2   2    2.22    0.46   1
   8   2   3   38.99    2.58   1
  -8   2  -3   43.16    2.65   1
   8   2   3   44.35    2.54   1
  -8   2  -3   41.37    2.48   1
   8  -2   3   40.02    2.39   1
  -8  -2  -3   42.25    2.57   1
   8  -2   3   43.84    2.65   1
  -8  -2  -3   41.29    2.51   1
   8  -2   3   41.58    2.63   1
   8   2   4   11.35    1.26   1
  -8   2  -4    9.37    1.08   1
   8   2   4   10.33    1.16   1
  -8   2  -4   11.31    1.30   1
   8  -2   4   10.40    1.23   1
  -8  -2  -4    8.90    1.06   1
   8  -2   4   11.51    1.29   1
   8  -2   4   11.03    1.06   1
  -8   2  -5   12.84    1.38   1
   8   2   5   13.76    1.44   1
   8   2   5   14.08    1.53   1
  -8   2  -5   13.55    1.53   1
   8  -2   5   13.03    1.50   1
   8  -2   5   12.78    1.27   1
   8  -2   5   11.90    1.45   1
   8   2   6   -0.09    0.62   1
  -8   2  -6    0.74    0.75   1
   8   2   6   -0.28    0.59   1
  -8   2  -6    0.35    0.57   1
   8  -2   6    0.13    0.65   1
   8  -2   6   -1.17    0.72   1
   8  -2   6   -0.09    0.61   1
  -8   2  -7    1.65    1.02   1
  -8   2  -7    1.83    0.76   1
   8   2   7    2.19    0.97   1
   8  -2   7    2.69    0.97   1
   8  -2   7    1.98    1.00   1
   8  -2   7    3.94    0.94   1
  -8   2  -8    3.59    0.94   1
  -8   2  -8    3.80    1.23   1
   8   2   8    2.67    1.06   1
   8  -2   8    3.68    1.15   1
   8  -2   8    3.58    0.96   1
   8  -2   8    4.93    1.17   1
   8   2   9    1.47    1.02   1
  -8   2  -9    2.40    0.98   1
   8  -2   9    3.16    1.13   1
   8  -2   9    2.16    1.03   1
   8  -2   9    3.40    1.05   1
  -8   3  13    1.23    0.97   1
  -8   3  13    2.43    1.41   1
   8   3 -13    2.62    1.07   1
  -8  -3  13    1.39    1.08   1
   8   3 -12   -0.26    0.77   1
   8   3 -12    0.08    0.90   1
  -8   3  12   -0.74    0.88   1
  -8   3  12   -0.47    0.73   1
  -8  -3  12    0.54    0.79   1
   8  -3 -12    0.70    0.69   1
  -8   3  11   -0.26    0.77   1
   8   3 -11   -0.44    0.77   1
   8   3 -11    2.03    0.90   1
  -8  -3  11   -0.16    0.74   1
   8  -3 -11    0.64    0.70   1
   8   3 -10    0.93    0.83   1
  -8   3  10    3.50    0.97   1
   8   3 -10    3.94    0.89   1
  -8  -3  10    3.40    1.06   1
  -8  -3  10    1.42    0.80   1
   8  -3 -10    3.64    0.99   1
  -8  -3  10    2.89    0.91   1
  -8   3   9    0.30    0.57   1
   8   3  -9    0.28    0.53   1
   8   3  -9    0.26    0.73   1
  -8   3   9   -0.31    0.44   1
  -8  -3   9   -0.74    0.49   1
  -8  -3   9   -0.36    0.62   1
   8  -3  -9    0.26    0.67   1
  -8  -3   9    0.41    0.79   1
   8  -3  -9   -0.21    0.48   1
   8   3  -8    9.97    1.27   1
   8   3  -8    9.54    1.45   1
  -8   3   8   13.21    1.26   1
  -8   3   8   10.64    1.27   1
   8   3  -8   10.64    1.16   1
  -8   3   8   12.04    1.31   1
  -8  -3   8   12.08    1.36   1
   8  -3  -8   12.85    1.28   1
  -8  -3   8   12.10    1.56   1
  -8  -3   8   11.63    1.34   1
   8  -3  -8   12.12    1.54   1
   8   3  -7    0.98    0.51   1
   8   3  -7    0.75    0.71   1
  -8   3   7    0.97    0.48   1
   8   3  -7    0.78    0.46   1
  -8   3   7    1.39    0.68   1
  -8   3   7    1.17    0.56   1
  -8  -3   7    1.71    0.61   1
  -8  -3   7    1.50    0.85   1
   8  -3  -7    0.89    0.66   1
  -8  -3   7    1.25    0.67   1
   8  -3  -7    2.31    0.50   1
   8  -3  -7    1.11    0.50   1
   8   3  -6    2.80    0.85   1
  -8   3   6    1.92    0.61   1
   8   3  -6    4.57    0.71   1
  -8   3   6    1.92    0.58   1
   8   3  -6    2.55    0.63   1
  -8  -3   6    2.46    0.60   1
  -8  -3   6    2.48    0.80   1
  -8  -3   6    3.96    0.79   1
   8  -3  -6    2.96    0.65   1
   8  -3  -6    3.10    0.55   1
   8  -3  -6    3.66    0.82   1
   8   3  -5    0.13    0.44   1
  -8   3   5    0.54    0.48   1
   8   3  -5    0.80    0.45   1
  -8   3   5    0.37    0.40   1
   8   3  -5   -0.17    0.52   1
  -8  -3   5    0.90    0.66   1
  -8  -3   5    0.18    0.46   1
   8  -3  -5    0.46    0.38   1
   8  -3  -5   -0.01    0.46   1
  -8  -3   5    1.24    0.44   1
   8  -3  -5    0.62    0.46   1
   8   3  -4    0.05    0.49   1
   8   3  -4    0.02    0.38   1
  -8   3   4    0.35    0.41   1
   8   3  -4    0.03    0.32   1
  -8   3   4   -0.01    0.37   1
  -8  -3   4    0.05    0.36   1
   8  -3  -4    0.20    0.37   1
   8  -3  -4   -0.29    0.29   1
  -8  -3   4    0.35    0.62   1
  -8  -3   4   -0.28    0.29   1
   8   3  -3   30.58    1.96   1
  -8   3   3   27.86    1.91   1
   8   3  -3   27.67    1.88   1
  -8   3   3   31.25    1.86   1
   8   3  -3   29.99    1.82   1
   8  -3  -3   29.63    1.92   1
   8  -3  -3   29.55    1.74   1
  -8  -3   3   28.94    1.80   1
  -8  -3   3   29.60    1.82   1
  -8  -3   3   30.40    2.20   1
   8  -3  -3   33.49    1.88   1
  -8   3   2    3.58    0.65   1
  -8   3   2    4.24    0.63   1
   8   3  -2    3.80    0.58   1
   8   3  -2    4.22    0.69   1
   8   3  -2    3.59    0.59   1
  -8  -3   2    4.30    0.89   1
  -8  -3   2    3.80    0.55   1
   8  -3  -2    4.10    0.63   1
  -8  -3   2    3.67    0.47   1
   8  -3  -2    4.28    0.53   1
   8  -3  -2    4.44    0.64   1
   8   3  -1   20.43    1.37   1
  -8   3   1   18.15    1.44   1
   8   3  -1   18.61    1.29   1
   8   3  -1   19.88    1.41   1
  -8   3   1   21.56    1.41   1
  -8   3   1   22.15    1.37   1
   8  -3  -1   20.68    1.41   1
  -8  -3   1   19.85    1.31   1
   8  -3  -1   20.33    1.43   1
  -8  -3   1   18.52    1.65   1
   8  -3  -1   19.86    1.27   1
  -8  -3   1   17.43    1.29   1
   8   3   0    0.53    0.37   1
  -8   3   0    0.62    0.43   1
   8   3   0    1.00    0.46   1
  -8   3   0    0.27    0.44   1
  -8   3   0    1.23    0.41   1
  -8  -3   0    1.03    0.36   1
   8  -3   0   -0.08    0.42   1
  -8  -3   0    0.71    0.57   1
   8  -3   0    0.43    0.43   1
   8  -3   0    0.94    0.36   1
  -8   3  -1    0.12    0.39   1
  -8   3  -1   -0.09    0.32   1
   8   3   1    0.29    0.36   1
  -8   3  -1   -0.48    0.40   1
   8   3   1    0.42    0.43   1
  -8  -3  -1   -0.45    0.21   1
   8  -3   1    0.24    0.45   1
   8  -3   1    0.46    0.45   1
  -8  -3  -1    0.37    0.52   1
   8  -3   1    0.02    0.32   1
   8   3   2   13.10    1.31   1
  -8   3  -2   15.95    1.20   1
  -8   3  -2   13.01    1.34   1
   8   3   2   12.53    1.11   1
  -8   3  -2   16.03    1.21   1
   8  -3   2   15.51    1.29   1
   8  -3   2   13.27    1.09   1
   8  -3   2   14.79    1.26   1
  -8  -3  -2   15.80    1.32   1
  -8   3  -3    1.86    0.64   1
  -8   3  -3    1.28    0.53   1
   8   3   3    1.46    0.55   1
  -8   3  -3    1.84    0.55   1
   8   3   3    1.42    0.50   1
   8  -3   3    1.18    0.49   1
   8  -3   3    1.17    0.64   1
  -8  -3  -3    1.19    0.52   1
   8  -3   3    1.21    0.57   1
  -8   3  -4   11.40    1.35   1
   8   3   4    9.52    1.21   1
   8   3   4    9.82    1.15   1
  -8   3  -4   12.42    1.28   1
   8  -3   4   10.20    1.25   1
   8  -3   4   11.82    1.14   1
   8  -3   4   11.73    1.36   1
  -8   3  -5    3.22    0.88   1
   8   3   5    2.68    0.81   1
   8   3   5    2.55    0.79   1
  -8   3  -5    2.23    0.69   1
   8  -3   5    2.44    0.76   1
   8  -3   5    2.87    0.72   1
   8  -3   5    2.42    0.86   1
  -8   3  -6   -0.52    0.80   1
  -8   3  -6    0.96    0.68   1
   8   3   6   -0.41    0.66   1
   8   3   6   -0.76    0.54   1
   8  -3   6    0.40    0.66   1
   8  -3   6    0.74    0.62   1
   8  -3   6    0.36    0.87   1
   8   3   7    0.36    0.73   1
  -8   3  -7   -0.01    0.78   1
  -8   3  -7    1.92    0.84   1
   8   3   7   -0.40    0.85   1
   8  -3   7    0.18    0.73   1
   8  -3   7    0.83    0.87   1
   8  -3   7    0.29    0.70   1
   8   3   8    0.78    0.86   1
  -8   3  -8    0.90    0.90   1
  -8   3  -8    0.28    0.70   1
   8  -3   8   -0.38    0.71   1
   8  -3   8    0.21    0.76   1
   8  -3   8   -0.32    0.84   1
  -8   3  -9    1.89    0.98   1
   8   3   9    1.49    1.10   1
   8  -3   9    0.70    0.86   1
   8  -3   9    1.79    0.99   1
   8  -3   9    2.96    1.18   1
  -8   4  12   -0.02    0.72   1
   8   4 -12   -0.59    0.71   1
   8   4 -12   -0.68    0.70   1
  -8  -4  12    0.54    0.81   1
  -8   4  11    3.31    1.03   1
   8   4 -11    0.92    0.89   1
   8   4 -11    3.14    1.02   1
  -8  -4  11    1.83    0.88   1
  -8   4  10    9.03    1.30   1
  -8   4  10   10.00    1.26   1
   8   4 -10    7.87    1.39   1
   8  -4 -10    9.64    1.49   1
  -8  -4  10    8.83    1.34   1
  -8  -4  10    8.44    1.43   1
   8   4  -9    6.67    1.07   1
  -8   4   9    7.10    1.02   1
  -8   4   9    6.13    1.04   1
   8   4  -9    8.26    1.38   1
  -8  -4   9    7.43    1.19   1
  -8  -4   9    5.81    1.28   1
   8  -4  -9    6.90    1.27   1
  -8   4   8    1.78    0.61   1
   8   4  -8    1.31    0.60   1
   8   4  -8    1.75    0.74   1
  -8   4   8    1.09    0.67   1
  -8   4   8    1.13    0.60   1
   8   4  -8    1.65    0.62   1
   8  -4  -8    1.89    0.53   1
  -8  -4   8    0.98    0.87   1
  -8  -4   8    1.69    0.76   1
   8  -4  -8    1.01    0.70   1
   8   4  -7    6.77    1.24   1
   8   4  -7    4.04    0.79   1
  -8   4   7    5.09    0.87   1
  -8   4   7    7.14    0.91   1
   8   4  -7    5.72    0.85   1
   8  -4  -7    5.03    0.72   1
  -8  -4   7    6.19    1.22   1
  -8  -4   7    4.55    0.90   1
  -8   4   6   29.36    2.04   1
  -8   4   6   29.99    1.97   1
   8   4  -6   27.00    2.28   1
   8   4  -6   31.43    1.95   1
   8   4  -6   28.99    2.03   1
  -8  -4   6   26.42    2.30   1
   8  -4  -6   34.08    1.94   1
   8  -4  -6   29.96    1.93   1
  -8  -4   6   30.18    2.07   1
  -8   4   5   19.82    1.52   1
   8   4  -5   19.00    1.45   1
   8   4  -5   20.85    1.43   1
   8   4  -5   17.37    1.69   1
  -8   4   5   21.93    1.45   1
  -8  -4   5   21.83    1.89   1
   8  -4  -5   20.79    1.43   1
  -8  -4   5   17.98    1.51   1
   8  -4  -5   18.60    1.37   1
   8   4  -4    2.99    0.62   1
   8   4  -4    2.75    0.70   1
   8   4  -4    1.85    0.50   1
  -8   4   4    2.03    0.49   1
  -8   4   4    2.33    0.58   1
  -8  -4   4    1.44    0.79   1
   8  -4  -4    1.72    0.52   1
   8  -4  -4    3.40    0.60   1
  -8  -4   4    2.93    0.59   1
   8  -4  -4    2.10    0.48   1
   8   4  -3    1.53    0.45   1
   8   4  -3    1.04    0.45   1
  -8   4   3    1.16    0.49   1
  -8   4   3    1.08    0.44   1
   8   4  -3    1.81    0.55   1
   8  -4  -3    1.02    0.44   1
   8  -4  -3    1.55    0.42   1
   8  -4  -3    1.16    0.43   1
  -8  -4   3    2.28    0.81   1
  -8  -4   3    1.94    0.44   1
  -8   4   2   24.78    1.73   1
  -8   4   2   26.48    1.69   1
   8   4  -2   25.12    1.67   1
   8   4  -2   26.90    1.62   1
   8   4  -2   23.08    1.65   1
  -8  -4   2   26.30    2.07   1
   8  -4  -2   26.91    1.61   1
   8  -4  -2   25.87    1.69   1
   8  -4  -2   24.59    1.68   1
  -8  -4   2   25.03    1.51   1
  -8   4   1   43.24    2.39   1
   8   4  -1   39.52    2.28   1
  -8   4   1   37.36    2.34   1
  -8   4   1   36.59    2.42   1
   8   4  -1   38.97    2.32   1
   8   4  -1   39.28    2.39   1
   8  -4  -1   41.35    2.32   1
  -8  -4   1   40.27    2.73   1
   8  -4  -1   40.54    2.40   1
   8  -4  -1   40.85    2.41   1
  -8   4   0   14.82    1.18   1
   8   4   0   14.21    1.14   1
  -8   4   0   15.11    1.16   1
  -8   4   0   11.65    1.27   1
   8   4   0   15.87    1.23   1
  -8  -4   0   18.67    1.61   1
   8  -4   0   12.48    1.23   1
   8  -4   0   14.55    1.09   1
   8  -4   0   14.19    1.19   1
   8   4   1    0.09    0.36   1
  -8   4  -1   -0.03    0.50   1
  -8   4  -1   -0.02    0.36   1
   8   4   1    0.48    0.42   1
  -8   4  -1    0.43    0.40   1
   8  -4   1    0.52    0.49   1
   8  -4   1    1.12    0.44   1
  -8  -4  -1    0.52    0.61   1
   8  -4   1    0.35    0.43   1
  -8   4  -2   20.77    1.53   1
   8   4   2   21.24    1.60   1
  -8   4  -2   22.22    1.56   1
  -8   4  -2   19.72    1.61   1
   8   4   2   19.17    1.49   1
   8  -4   2   21.80    1.52   1
   8  -4   2   23.55    1.65   1
  -8  -4  -2   23.83    1.75   1
   8  -4   2   23.93    1.69   1
   8   4   3   26.67    1.93   1
  -8   4  -3   27.51    2.00   1
   8   4   3   26.81    1.87   1
  -8   4  -3   31.83    2.01   1
  -8   4  -3   25.17    1.89   1
   8  -4   3   27.94    2.00   1
   8  -4   3   29.45    1.88   1
   8  -4   3   28.16    1.99   1
   8   4   4    9.36    1.15   1
   8   4   4    8.48    1.07   1
  -8   4  -4   10.67    1.29   1
  -8   4  -4   10.47    1.19   1
   8  -4   4    7.28    1.09   1
   8  -4   4    8.85    1.04   1
   8  -4   4    9.15    1.25   1
  -8   4  -5    0.06    0.55   1
   8   4   5    0.70    0.63   1
  -8   4  -5   -0.60    0.54   1
   8   4   5    0.30    0.56   1
   8  -4   5    0.86    0.81   1
   8  -4   5   -0.19    0.57   1
   8  -4   5   -0.44    0.50   1
   8   4   6    4.93    1.09   1
  -8   4  -6    5.12    1.05   1
   8   4   6    8.03    1.26   1
  -8   4  -6    7.37    1.39   1
   8  -4   6    4.95    1.02   1
   8  -4   6    6.67    1.20   1
   8  -4   6    5.56    1.18   1
   8   4   7    9.00    1.40   1
  -8   4  -7    8.00    1.31   1
  -8   4  -7    6.94    1.43   1
   8   4   7    7.91    1.42   1
   8  -4   7   11.90    1.56   1
   8  -4   7   10.96    1.44   1
   8  -4   7    9.42    1.47   1
   8   4   8    2.95    1.06   1
   8   4   8    2.36    1.08   1
  -8   4  -8    2.09    0.94   1
  -8   4  -8    4.12    1.20   1
   8  -4   8    3.72    1.04   1
   8  -4   8    1.53    0.98   1
  -8   5  12    6.97    1.39   1
   8   5 -12    8.55    1.61   1
  -8  -5  12    7.49    1.37   1
   8   5 -11    9.20    1.61   1
   8   5 -11   11.58    1.64   1
  -8   5  11   11.46    1.62   1
  -8  -5  11   12.61    1.71   1
  -8  -5  11   14.79    1.68   1
   8   5 -10    0.41    0.88   1
  -8   5  10    0.47    0.59   1
   8   5 -10    0.44    0.79   1
   8   5 -10    0.14    0.77   1
  -8   5  10   -0.28    0.64   1
  -8  -5  10    2.34    0.90   1
  -8  -5  10    0.08    0.82   1
   8   5  -9    8.74    1.23   1
  -8   5   9    8.92    1.17   1
  -8   5   9    7.73    1.16   1
   8   5  -9    8.24    1.43   1
   8  -5  -9    9.70    1.10   1
  -8  -5   9    8.87    1.62   1
  -8  -5   9    8.72    1.32   1
   8   5  -8    7.21    1.06   1
   8   5  -8    7.44    1.36   1
  -8   5   8    5.71    1.03   1
  -8   5   8    7.45    1.01   1
   8   5  -8    6.65    0.94   1
  -8   5   8    7.06    1.03   1
  -8  -5   8    6.03    1.09   1
  -8  -5   8    7.58    1.47   1
   8  -5  -8    6.32    0.89   1
   8   5  -7   22.84    1.69   1
   8   5  -7   26.34    2.18   1
  -8   5   7   21.28    1.73   1
  -8   5   7   25.17    1.75   1
   8   5  -7   19.11    1.67   1
  -8  -5   7   24.95    1.90   1
  -8  -5   7   20.15    2.26   1
   8  -5  -7   25.96    1.68   1
   8   5  -6   19.12    1.39   1
   8   5  -6   16.45    1.37   1
   8   5  -6   13.85    1.76   1
  -8   5   6   17.65    1.39   1
  -8   5   6   16.48    1.46   1
   8  -5  -6   17.21    1.32   1
  -8  -5   6   14.62    1.87   1
  -8  -5   6   16.89    1.47   1
   8   5  -5   14.12    1.19   1
   8   5  -5   13.78    1.16   1
  -8   5   5   14.30    1.29   1
   8   5  -5   10.31    1.45   1
  -8   5   5   12.70    1.13   1
   8  -5  -5   16.15    1.19   1
  -8  -5   5   14.00    1.74   1
  -8  -5   5   12.81    1.19   1
  -8   5   4   59.10    3.54   1
   8   5  -4   63.28    3.73   1
   8   5  -4   62.83    3.46   1
   8   5  -4   61.98    3.53   1
  -8   5   4   62.46    3.49   1
   8  -5  -4   62.39    3.50   1
   8  -5  -4   65.25    3.47   1
  -8  -5   4   62.79    3.49   1
  -8  -5   4   60.49    4.00   1
   8   5  -3   21.48    1.62   1
  -8   5   3   19.91    1.51   1
   8   5  -3   20.96    1.48   1
   8   5  -3   20.44    1.41   1
  -8   5   3   21.53    1.50   1
   8  -5  -3   21.20    1.46   1
   8  -5  -3   23.20    1.53   1
  -8  -5   3   18.77    1.37   1
  -8  -5   3   20.19    2.11   1
  -8   5   2    5.45    0.81   1
  -8   5   2    5.63    0.77   1
   8   5  -2    5.42    0.77   1
   8   5  -2    5.82    0.80   1
   8   5  -2    6.26    0.74   1
   8  -5  -2    5.83    0.72   1
   8  -5  -2    7.06    0.82   1
  -8  -5   2    8.06    1.28   1
  -8  -5   2    7.65    0.64   1
   8  -5  -2    5.90    0.82   1
  -8   5   1    0.26    0.43   1
   8   5  -1    1.37    0.44   1
   8   5  -1    0.48    0.45   1
  -8   5   1    0.04    0.42   1
  -8   5   1    1.30    0.51   1
  -8  -5   1    0.94    0.82   1
   8  -5  -1    0.65    0.53   1
   8  -5  -1    0.46    0.43   1
   8  -5  -1    1.12    0.38   1
  -8   5   0   35.55    2.43   1
  -8   5   0   36.46    2.34   1
  -8   5   0   41.80    2.43   1
   8   5   0   39.07    2.32   1
   8   5   0   42.75    2.43   1
   8  -5   0   40.64    2.37   1
   8  -5   0   38.93    2.42   1
  -8  -5   0   38.16    2.72   1
   8  -5   0   38.91    2.38   1
   8   5   1   80.50    4.31   1
   8   5   1   84.89    4.42   1
  -8   5  -1   78.61    4.47   1
  -8   5  -1   78.56    4.41   1
  -8   5  -1   80.16    4.37   1
   8  -5   1   79.57    4.40   1
  -8  -5  -1   84.58    4.72   1
   8  -5   1   76.96    4.42   1
   8  -5   1   76.23    4.34   1
   8   5   2    5.19    0.79   1
  -8   5  -2    6.12    0.90   1
   8   5   2    4.93    0.73   1
  -8   5  -2    4.87    0.90   1
  -8   5  -2    6.94    0.93   1
   8  -5   2    4.70    0.77   1
  -8  -5  -2    6.27    0.99   1
   8  -5   2    6.41    0.87   1
   8  -5   2    7.20    0.96   1
   8   5   3    2.05    0.62   1
   8   5   3    3.36    0.69   1
  -8   5  -3    2.75    0.73   1
  -8   5  -3    3.76    0.76   1
  -8   5  -3    1.75    0.67   1
   8  -5   3    3.23    0.71   1
   8  -5   3    2.59    0.78   1
   8  -5   3    3.07    0.69   1
  -8   5  -4    4.07    0.89   1
  -8   5  -4    4.71    0.95   1
  -8   5  -4    4.96    0.88   1
   8   5   4    3.87    0.83   1
   8   5   4    2.99    0.77   1
   8  -5   4    4.35    0.81   1
   8  -5   4    5.04    1.03   1
  -8   5  -5   21.57    2.00   1
   8   5   5   22.75    1.90   1
   8   5   5   24.71    1.92   1
  -8   5  -5   23.59    1.89   1
   8  -5   5   22.03    2.09   1
   8  -5   5   25.62    1.94   1
   8   5   6   23.49    1.99   1
   8   5   6   16.70    1.88   1
  -8   5  -6   20.34    2.21   1
  -8   5  -6   25.06    1.94   1
   8  -5   6   20.26    2.03   1
   8  -5   6   19.00    1.90   1
   8   5   7    0.25    0.64   1
  -8   5  -7    0.16    0.80   1
   8   5   7   -0.44    0.74   1
  -8   5  -7   -0.35    0.69   1
   8  -5   7    0.31    0.86   1
   8  -5   7   -0.16    0.81   1
   8   5   8    4.83    1.31   1
  -8   5  -8    5.31    1.37   1
   8   5   8    8.54    1.33   1
   8  -5   8    9.35    1.45   1
   8  -5   8    6.04    1.22   1
  -8   6  11   -0.75    0.68   1
   8   6 -11    0.08    0.90   1
   8   6 -11    0.44    0.88   1
  -8   6  11    0.02    0.69   1
  -8  -6  11    0.49    0.86   1
  -8  -6  11    0.41    0.81   1
  -8   6  10    0.30    0.59   1
   8   6 -10    0.77    0.63   1
   8   6 -10   -0.71    0.70   1
  -8   6  10   -0.01    0.72   1
   8   6 -10    1.33    0.90   1
  -8  -6  10    1.73    1.04   1
  -8  -6  10    1.72    0.90   1
   8   6  -9   28.43    2.39   1
  -8   6   9   25.78    1.99   1
  -8   6   9   23.64    1.98   1
  -8  -6   9   25.40    2.43   1
  -8  -6   9   24.39    2.24   1
   8  -6  -9   26.71    1.94   1
   8   6  -8    0.21    0.52   1
   8   6  -8    1.39    0.60   1
  -8   6   8    1.37    0.59   1
   8   6  -8    1.21    0.92   1
  -8   6   8    1.53    0.63   1
   8  -6  -8    2.23    0.63   1
  -8  -6   8   -0.26    0.96   1
  -8  -6   8    2.00    0.84   1
  -8   6   7   33.20    2.26   1
   8   6  -7   37.45    2.28   1
  -8   6   7   30.44    2.26   1
   8   6  -7   36.28    2.78   1
   8   6  -7   33.76    2.33   1
   8  -6  -7   34.45    2.23   1
  -8  -6   7   37.77    2.53   1
  -8  -6   7   30.10    2.74   1
   8   6  -6    9.52    1.09   1
  -8   6   6    7.15    1.04   1
   8   6  -6    9.71    1.48   1
   8   6  -6    9.34    1.01   1
  -8   6   6    8.76    1.00   1
   8  -6  -6   11.22    1.11   1
  -8  -6   6    9.24    1.13   1
  -8  -6   6    7.18    1.44   1
   8   6  -5    1.29    0.51   1
   8   6  -5    0.97    0.54   1
  -8   6   5    0.80    0.56   1
  -8   6   5    2.33    0.60   1
   8   6  -5    1.50    0.84   1
  -8  -6   5   -0.34    0.78   1
  -8  -6   5    1.57    0.56   1
   8  -6  -5    2.14    0.61   1
   8   6  -4   32.04    1.99   1
  -8   6   4   30.02    2.09   1
   8   6  -4   33.41    2.06   1
  -8   6   4   31.03    2.03   1
   8   6  -4   32.73    2.32   1
  -8  -6   4   28.57    2.60   1
   8  -6  -4   31.99    2.04   1
   8  -6  -4   33.87    2.12   1
  -8  -6   4   29.77    1.99   1
   8   6  -3    0.16    0.42   1
   8   6  -3    0.27    0.57   1
  -8   6   3    0.10    0.42   1
  -8   6   3   -0.12    0.45   1
   8   6  -3   -0.07    0.36   1
   8  -6  -3    0.53    0.47   1
  -8  -6   3    0.14    0.87   1
   8  -6  -3   -0.61    0.43   1
  -8  -6   3    0.07    0.35   1
  -8   6   2  114.40    5.37   1
   8   6  -2  100.57    5.33   1
  -8   6   2  100.05    5.38   1
   8   6  -2  102.92    5.31   1
   8   6  -2   97.79    5.22   1
   8  -6  -2   99.67    5.31   1
   8  -6  -2   98.08    5.37   1
  -8  -6   2   78.07    5.74   1
  -8   6   1   30.95    2.14   1
   8   6  -1   32.77    2.08   1
  -8   6   1   33.55    2.19   1
   8   6  -1   33.27    2.03   1
  -8   6   1   38.23    2.17   1
   8  -6  -1   34.04    2.12   1
  -8  -6   1   29.20    2.56   1
   8  -6  -1   32.23    2.15   1
   8   6   0    2.28    0.52   1
   8   6   0    1.26    0.49   1
  -8   6   0    0.99    0.55   1
  -8   6   0    0.44    0.46   1
  -8   6   0    0.10    0.46   1
   8  -6   0    1.82    0.60   1
   8  -6   0    0.94    0.49   1
  -8  -6   0    1.25    0.81   1
   8   6   1    0.81    0.43   1
   8   6   1   -0.59    0.42   1
  -8   6  -1    0.38    0.50   1
  -8   6  -1    1.71    0.56   1
  -8   6  -1    0.58    0.49   1
  -8  -6  -1    1.47    0.73   1
   8  -6   1    0.89    0.62   1
   8  -6   1    1.47    0.57   1
   8   6   2    0.88    0.46   1
  -8   6  -2    0.29    0.49   1
  -8   6  -2    0.24    0.51   1
   8   6   2    0.85    0.52   1
  -8   6  -2    1.12    0.58   1
  -8  -6  -2    1.20    0.64   1
   8  -6   2    0.26    0.50   1
   8  -6   2   -0.14    0.60   1
   8   6   3   50.26    3.13   1
  -8   6  -3   59.91    3.36   1
  -8   6  -3   53.92    3.30   1
  -8   6  -3   51.12    3.29   1
   8   6   3   57.23    3.24   1
   8  -6   3   54.87    3.33   1
   8  -6   3   52.36    3.22   1
  -8   6  -4   20.05    1.73   1
  -8   6  -4   16.85    1.80   1
   8   6   4   19.95    1.62   1
   8   6   4   20.74    1.61   1
  -8   6  -4   18.71    1.83   1
   8  -6   4   16.33    1.66   1
   8  -6   4   21.03    1.88   1
   8   6   5    6.37    1.04   1
  -8   6  -5    6.30    1.21   1
   8   6   5    4.80    0.96   1
  -8   6  -5    5.20    1.04   1
   8  -6   5    6.72    1.06   1
   8  -6   5    4.81    1.13   1
   8   6   6    2.22    0.89   1
  -8   6  -6    2.20    1.01   1
  -8   6  -6    1.62    0.82   1
   8   6   6    0.76    0.76   1
   8  -6   6    1.46    0.81   1
   8  -6   6    1.46    0.92   1
  -8   6  -7   -0.92    0.67   1
   8   6   7    1.13    0.83   1
  -8   6  -7   -0.75    0.74   1
   8   6   7    0.61    0.76   1
   8  -6   7    0.73    0.87   1
   8  -6   7   -0.48    0.74   1
  -8   7  11   10.96    1.47   1
   8   7 -11    7.14    1.61   1
  -8   7  11    5.47    1.43   1
  -8  -7  11   11.57    1.61   1
  -8  -7  11   10.37    1.73   1
   8   7 -10    4.07    1.18   1
  -8   7  10    5.24    1.08   1
  -8   7  10    3.80    0.95   1
   8   7 -10    4.64    1.00   1
   8   7 -10    3.42    1.17   1
  -8  -7  10    6.41    1.39   1
  -8  -7  10    6.90    1.26   1
   8  -7 -10    4.41    0.97   1
  -8   7   9    3.92    0.87   1
   8   7  -9    2.13    0.94   1
  -8   7   9    3.58    0.82   1
   8   7  -9    3.96    1.16   1
  -8  -7   9    3.76    1.08   1
   8  -7  -9    2.95    0.87   1
  -8  -7   9    3.60    1.21   1
   8   7  -8    5.68    1.29   1
  -8   7   8    5.80    0.96   1
   8   7  -8    5.40    0.89   1
  -8   7   8    5.37    0.93   1
   8   7  -8    4.96    1.01   1
  -8  -7   8    5.82    1.49   1
   8  -7  -8    5.09    0.94   1
  -8  -7   8    2.78    0.99   1
   8   7  -7    3.67    0.75   1
  -8   7   7    3.29    0.76   1
  -8   7   7    3.01    0.80   1
   8   7  -7    3.99    0.87   1
   8   7  -7    3.46    1.14   1
  -8  -7   7    3.24    1.16   1
   8  -7  -7    3.48    0.82   1
  -8  -7   7    4.58    0.95   1
  -8   7   6   23.00    1.79   1
   8   7  -6   26.14    2.32   1
   8   7  -6   24.22    1.74   1
  -8   7   6   26.69    1.83   1
   8   7  -6   24.57    1.83   1
  -8  -7   6   27.13    1.92   1
   8  -7  -6   23.85    1.80   1
  -8  -7   6   19.94    2.42   1
  -8   7   5    9.15    1.10   1
   8   7  -5    9.60    1.51   1
  -8   7   5    9.83    1.06   1
   8   7  -5    9.69    1.02   1
   8   7  -5    9.48    1.10   1
  -8  -7   5   11.28    1.81   1
   8  -7  -5   11.51    1.19   1
  -8  -7   5    9.32    1.09   1
   8   7  -4   27.74    1.81   1
  -8   7   4   26.23    1.78   1
   8   7  -4   25.74    1.72   1
   8   7  -4   28.03    2.23   1
  -8   7   4   27.31    1.85   1
  -8  -7   4   24.64    2.70   1
  -8  -7   4   26.22    1.78   1
   8  -7  -4   23.79    1.84   1
   8  -7  -4   26.02    1.84   1
  -8   7   3    8.71    0.95   1
   8   7  -3    9.43    0.99   1
  -8   7   3    8.84    1.02   1
   8   7  -3    8.52    1.17   1
   8   7  -3    8.52    0.90   1
   8  -7  -3    8.09    1.04   1
  -8  -7   3    5.92    1.40   1
  -8  -7   3    7.58    0.89   1
   8  -7  -3    8.22    1.02   1
  -8   7   2   -0.08    0.46   1
   8   7  -2   -0.14    0.34   1
   8   7  -2   -0.35    0.37   1
  -8   7   2    0.39    0.49   1
  -8  -7   2   -0.67    0.79   1
   8  -7  -2   -0.67    0.45   1
   8  -7  -2   -0.39    0.46   1
   8   7  -1   24.35    1.60   1
   8   7  -1   20.43    1.50   1
  -8   7   1   24.62    1.77   1
  -8   7   1   22.42    1.66   1
  -8   7   1   25.48    1.68   1
  -8  -7   1   17.79    2.18   1
   8  -7  -1   21.04    1.69   1
   8  -7  -1   22.95    1.68   1
  -8   7   0    9.12    1.14   1
  -8   7   0    7.87    0.98   1
  -8   7   0    7.84    1.02   1
   8   7   0    7.97    0.87   1
   8   7   0    8.68    0.93   1
  -8  -7   0    7.15    1.36   1
   8  -7   0    6.84    0.97   1
   8  -7   0    6.38    0.99   1
  -8   7  -1   33.95    2.26   1
  -8   7  -1   36.07    2.39   1
   8   7   1   39.34    2.25   1
  -8   7  -1   35.50    2.37   1
   8   7   1   34.78    2.14   1
   8  -7   1   33.74    2.33   1
  -8  -7  -1   30.49    2.55   1
   8  -7   1   35.52    2.32   1
  -8   7  -2    4.79    0.83   1
  -8   7  -2    4.35    0.85   1
  -8   7  -2    5.48    0.95   1
   8   7   2    4.91    0.79   1
   8   7   2    5.07    0.72   1
   8  -7   2    6.74    1.01   1
   8  -7   2    4.96    0.93   1
  -8   7  -3    6.33    1.05   1
   8   7   3    5.75    0.86   1
  -8   7  -3    6.41    1.06   1
  -8   7  -3    5.80    0.98   1
   8   7   3    6.31    0.87   1
   8  -7   3    6.66    1.03   1
   8  -7   3    5.94    1.03   1
  -8   7  -4    6.14    1.10   1
  -8   7  -4    7.27    1.17   1
   8   7   4    5.81    0.93   1
  -8   7  -4    7.41    1.17   1
   8   7   4    5.26    0.91   1
   8  -7   4    4.94    1.08   1
   8  -7   4    7.03    1.14   1
  -8   7  -5    0.22    0.75   1
  -8   7  -5    1.25    0.83   1
  -8   7  -5    1.24    0.80   1
   8   7   5    0.75    0.70   1
   8   7   5    1.52    0.71   1
   8  -7   5    2.65    0.86   1
   8  -7   5    1.02    0.87   1
  -8   7  -6   15.71    1.88   1
   8   7   6   14.38    1.66   1
  -8   7  -6   15.29    1.80   1
   8   7   6   14.01    1.58   1
   8  -7   6   18.70    1.89   1
   8  -7   6   17.72    1.82   1
  -8   7  -7    0.17    1.03   1
   8   7   7    0.22    0.87   1
   8   7   7    0.96    0.75   1
   8  -7   7    0.88    1.08   1
   8  -7   7    0.27    0.78   1
   8   8 -10    5.23    1.07   1
  -8   8  10    9.24    1.43   1
  -8   8  10    5.73    1.09   1
   8   8 -10    6.16    1.44   1
   8  -8 -10    6.22    1.15   1
  -8  -8  10    7.29    1.61   1
  -8  -8  10    9.90    1.53   1
  -8   8   9    5.53    1.01   1
   8   8  -9    6.16    1.41   1
  -8   8   9    4.24    0.98   1
   8   8  -9    5.07    1.21   1
   8   8  -9    5.71    1.00   1
   8  -8  -9    6.14    1.09   1
  -8  -8   9    6.85    1.43   1
  -8  -8   9    6.56    1.24   1
  -8   8   8    0.77    0.64   1
   8   8  -8   -0.17    0.53   1
  -8   8   8   -0.11    0.54   1
   8   8  -8   -0.51    0.79   1
  -8  -8   8   -0.07    0.67   1
  -8  -8   8   -0.09    0.89   1
   8  -8  -8   -0.16    0.65   1
  -8   8   7   13.70    1.44   1
  -8   8   7   14.13    1.43   1
   8   8  -7   18.48    2.12   1
   8   8  -7   13.90    1.50   1
   8   8  -7   13.14    1.37   1
  -8  -8   7   17.79    2.24   1
  -8  -8   7   15.43    1.63   1
   8  -8  -7   15.30    1.55   1
  -8   8   6    5.02    0.91   1
   8   8  -6    5.28    0.88   1
   8   8  -6    5.81    0.84   1
  -8   8   6    5.97    0.92   1
   8   8  -6    6.41    1.38   1
   8  -8  -6    7.20    1.07   1
  -8  -8   6    5.39    1.00   1
  -8  -8   6    5.93    1.47   1
   8   8  -5   25.60    1.78   1
  -8   8   5   25.72    1.88   1
  -8   8   5   25.99    1.85   1
   8   8  -5   26.24    1.85   1
   8  -8  -5   25.33    1.94   1
  -8  -8   5   27.60    2.63   1
  -8  -8   5   27.26    1.93   1
   8   8  -4    5.71    1.19   1
  -8   8   4    4.10    0.74   1
   8   8  -4    4.78    0.72   1
   8   8  -4    5.13    0.78   1
  -8   8   4    4.98    0.83   1
   8  -8  -4    4.68    0.86   1
  -8  -8   4    5.15    1.44   1
   8  -8  -4    5.06    0.94   1
  -8  -8   4    5.34    0.84   1
   8   8  -3    5.60    0.78   1
  -8   8   3    8.11    0.94   1
   8   8  -3    5.77    0.75   1
  -8   8   3    4.37    0.80   1
   8  -8  -3    5.20    0.92   1
  -8  -8   3    4.88    1.34   1
   8  -8  -3    6.56    0.99   1
  -8   8   2    9.42    1.08   1
   8   8  -2   11.35    0.99   1
   8   8  -2   10.57    1.00   1
  -8   8   2    9.63    1.11   1
   8  -8  -2   11.05    1.24   1
  -8  -8   2   10.07    1.71   1
   8  -8  -2   11.08    1.26   1
  -8   8   1    1.26    0.69   1
   8   8  -1    1.22    0.45   1
   8   8  -1    0.89    0.46   1
  -8   8   1    0.33    0.50   1
  -8   8   1    1.01    0.55   1
   8  -8  -1    0.59    0.64   1
  -8  -8   1    0.78    0.86   1
   8  -8  -1    1.55    0.61   1
  -8   8   0   24.10    1.76   1
  -8   8   0   23.62    1.86   1
   8   8   0   23.36    1.63   1
  -8   8   0   23.73    1.82   1
   8   8   0   24.88    1.63   1
   8  -8   0   20.29    1.82   1
  -8  -8   0   24.72    2.25   1
   8  -8   0   26.23    1.89   1
  -8   8  -1    4.23    0.84   1
   8   8   1    5.33    0.75   1
  -8   8  -1    5.85    0.86   1
   8   8   1    6.22    0.80   1
  -8   8  -1    4.86    0.93   1
   8  -8   1    5.35    0.99   1
  -8  -8  -1    6.64    1.20   1
   8  -8   1    6.71    1.00   1
   8   8   2   16.30    1.30   1
  -8   8  -2   17.18    1.51   1
  -8   8  -2   17.49    1.72   1
   8   8   2   15.26    1.28   1
  -8   8  -2   13.80    1.52   1
   8  -8   2   17.43    1.68   1
   8  -8   2   18.09    1.67   1
   8   8   3    6.35    0.87   1
  -8   8  -3    4.55    0.96   1
  -8   8  -3    7.35    1.13   1
   8   8   3    5.82    0.84   1
  -8   8  -3    3.61    0.92   1
   8  -8   3    3.98    0.97   1
   8  -8   3    7.03    1.13   1
  -8   8  -4    0.50    0.76   1
   8   8   4    0.38    0.51   1
   8   8   4    1.50    0.61   1
  -8   8  -4    1.62    0.75   1
  -8   8  -4   -0.69    0.55   1
   8  -8   4    0.53    0.77   1
   8  -8   4    0.33    0.79   1
   8   8   5   11.82    1.29   1
   8   8   5   11.54    1.33   1
  -8   8  -5   12.63    1.57   1
  -8   8  -5    9.96    1.46   1
  -8   8  -5    9.42    1.53   1
   8  -8   5    9.93    1.44   1
   8  -8   5   11.28    1.46   1
  -8   8  -6    1.11    1.01   1
   8   8   6    0.94    0.76   1
   8   8   6    0.72    0.72   1
   8  -8   6    2.03    1.17   1
   8  -8   6    2.17    0.89   1
  -8   9   9   -0.26    0.73   1
  -8   9   9   -0.75    0.56   1
   8   9  -9    2.42    1.06   1
   8   9  -9    0.27    0.61   1
  -8  -9   9    1.07    0.86   1
  -8  -9   9    1.04    1.25   1
   8  -9  -9   -0.39    0.76   1
  -8   9   8   32.64    2.20   1
  -8   9   8   29.08    2.21   1
   8   9  -8   27.08    2.81   1
  -8  -9   8   33.28    2.89   1
   8  -9  -8   29.53    2.27   1
  -8  -9   8   28.04    2.39   1
  -8   9   7    6.11    0.97   1
   8   9  -7    5.50    0.90   1
  -8   9   7    4.89    0.89   1
   8   9  -7    3.02    1.18   1
  -8  -9   7    6.43    1.12   1
  -8  -9   7    4.85    1.42   1
   8  -9  -7    6.84    1.13   1
  -8   9   6    4.86    0.84   1
   8   9  -6    6.12    0.96   1
   8   9  -6    5.63    1.36   1
  -8   9   6    5.51    0.91   1
   8   9  -6    4.60    0.80   1
  -8  -9   6    6.07    1.05   1
  -8  -9   6    4.97    1.42   1
   8  -9  -6    3.78    0.92   1
   8   9  -5    0.32    0.93   1
   8   9  -5    0.86    0.53   1
  -8   9   5    0.32    0.52   1
  -8   9   5   -0.07    0.49   1
   8   9  -5    0.21    0.43   1
  -8  -9   5    0.15    1.05   1
   8  -9  -5    0.36    0.61   1
  -8  -9   5    0.18    0.53   1
   8   9  -4    1.17    0.49   1
   8   9  -4    1.40    0.53   1
   8   9  -4    1.20    0.98   1
  -8   9   4    1.77    0.60   1
  -8   9   4    0.31    0.52   1
  -8  -9   4    1.60    0.62   1
   8  -9  -4    0.60    0.66   1
  -8  -9   4    1.87    1.12   1
   8  -9  -4    1.10    0.69   1
   8   9  -3   45.86    2.77   1
  -8   9   3   49.06    2.93   1
   8   9  -3   46.07    2.76   1
  -8   9   3   48.58    2.89   1
   8  -9  -3   47.06    3.05   1
  -8  -9   3   49.32    3.71   1
   8  -9  -3   50.80    3.11   1
   8   9  -2    7.15    0.84   1
  -8   9   2    7.92    1.17   1
  -8   9   2    7.55    0.99   1
  -8   9   2    7.96    1.01   1
   8   9  -2    6.40    0.90   1
  -8  -9   2    7.27    1.59   1
   8  -9  -2    8.86    1.19   1
   8  -9  -2    6.95    1.10   1
  -8   9   1   20.24    1.67   1
  -8   9   1   19.92    1.63   1
  -8   9   1   22.16    1.83   1
   8   9  -1   21.01    1.49   1
   8  -9  -1   20.83    1.80   1
  -8  -9   1   25.78    2.40   1
   8  -9  -1   23.47    1.83   1
  -8   9   0    4.96    1.00   1
  -8   9   0    6.33    0.94   1
  -8   9   0    6.17    0.91   1
   8   9   0    4.98    0.73   1
  -8  -9   0    5.17    1.18   1
   8  -9   0    7.51    1.10   1
   8  -9   0    6.08    1.05   1
  -8   9  -1    0.93    0.64   1
   8   9   1   -0.33    0.38   1
  -8   9  -1    0.21    0.53   1
  -8   9  -1    0.99    0.65   1
   8  -9   1    0.39    0.70   1
   8  -9   1   -0.64    0.62   1
  -8   9  -2   18.26    1.90   1
  -8   9  -2   20.99    1.70   1
  -8   9  -2   19.53    1.64   1
   8   9   2   16.96    1.41   1
   8  -9   2   20.73    1.93   1
   8  -9   2   21.06    1.80   1
   8   9   3    3.11    0.67   1
  -8   9  -3    4.04    0.93   1
  -8   9  -3    5.08    0.92   1
  -8   9  -3    3.26    0.92   1
   8  -9   3    3.62    1.04   1
   8  -9   3    3.82    0.97   1
  -8   9  -4   22.30    1.99   1
   8   9   4   20.61    1.68   1
  -8   9  -4   22.24    1.87   1
   8  -9   4   25.16    2.12   1
   8  -9   4   20.20    1.97   1
  -8   9  -5    9.95    1.54   1
  -8   9  -5    7.05    1.37   1
   8   9   5    8.34    1.16   1
   8  -9   5   13.38    1.76   1
   8  10  -8    0.42    0.63   1
  -8  10   8    0.55    0.84   1
  -8  10   8    0.49    0.62   1
   8  10  -8   -0.75    0.85   1
  -8 -10   8   -0.42    1.16   1
   8 -10  -8   -1.10    0.91   1
  -8 -10   8   -0.44    0.75   1
   8  10  -7   -0.03    0.68   1
  -8  10   7   -0.16    0.60   1
   8  10  -7   -0.73    0.93   1
  -8  10   7   -0.39    0.50   1
   8  10  -7    0.39    0.56   1
   8 -10  -7   -0.31    0.75   1
  -8 -10   7    0.51    0.74   1
  -8 -10   7    0.48    1.09   1
   8  10  -6   16.10    2.21   1
  -8  10   6   17.38    1.50   1
  -8  10   6   16.62    1.49   1
   8  10  -6   18.53    1.49   1
  -8 -10   6   14.37    1.63   1
   8 -10  -6   20.67    1.92   1
  -8 -10   6   19.50    2.47   1
  -8  10   5   28.32    1.98   1
  -8  10   5   28.60    2.02   1
   8  10  -5   29.08    1.93   1
   8 -10  -5   25.64    2.15   1
  -8 -10   5   27.15    2.11   1
  -8 -10   5   29.09    2.85   1
   8  10  -4    0.54    0.45   1
  -8  10   4    0.22    0.53   1
  -8  10   4   -0.70    0.47   1
  -8 -10   4   -0.79    0.96   1
   8 -10  -4    0.27    0.71   1
   8 -10  -4    0.08    0.72   1
   8  10  -3    5.09    0.73   1
  -8  10   3    6.41    0.94   1
  -8  10   3    5.52    0.89   1
   8 -10  -3    6.11    1.10   1
  -8 -10   3    5.72    1.52   1
   8 -10  -3    5.27    1.04   1
  -8  10   2    0.66    0.66   1
  -8  10   2    0.44    0.57   1
   8  10  -2    0.83    0.44   1
  -8  10   2    0.45    0.56   1
  -8 -10   2    1.44    1.09   1
   8 -10  -2    1.29    0.72   1
   8 -10  -2    1.04    0.79   1
   8  10  -1   14.31    1.18   1
  -8  10   1   14.39    1.44   1
  -8  10   1   14.76    1.64   1
  -8  10   1   13.19    1.35   1
   8 -10  -1   15.43    1.66   1
  -8 -10   1   15.23    2.00   1
   8 -10  -1   14.66    1.60   1
  -8  10   0   24.30    1.81   1
   8  10   0   21.79    1.60   1
  -8  10   0   25.41    2.04   1
  -8  10   0   23.58    1.81   1
   8 -10   0   23.53    2.00   1
   8 -10   0   22.01    2.07   1
  -8 -10   0   24.75    2.22   1
  -8  10  -1    1.73    0.68   1
  -8  10  -1    2.30    0.67   1
   8  10   1    1.22    0.52   1
  -8  10  -1    1.92    0.82   1
   8 -10   1    1.23    0.81   1
   8 -10   1    1.70    0.79   1
  -8  10  -2   22.37    1.87   1
  -8  10  -2   27.03    1.93   1
   8  10   2   21.51    1.66   1
  -8  10  -2   25.91    2.10   1
   8 -10   2   23.76    2.20   1
   8 -10   2   28.19    2.12   1
  -8  10  -3    3.56    0.96   1
  -8  10  -3    3.65    0.91   1
   8  10   3    4.32    0.75   1
   8 -10   3    4.22    1.12   1
   8 -10   3    4.77    1.07   1
  -8  10  -4    2.04    0.94   1
   8  10   4    1.86    0.71   1
  -8  10  -4    1.86    0.90   1
   8 -10   4    0.50    1.08   1
   8 -10   4    2.41    0.96   1
  -8  11   6   -0.56    0.56   1
   8  11  -6    0.46    0.62   1
   8 -11  -6   -0.04    0.92   1
  -8 -11   6    0.06    1.23   1
  -8 -11   6   -0.21    0.68   1
   8  11  -5   -0.37    0.52   1
  -8  11   5    0.50    0.57   1
   8 -11  -5    1.54    0.98   1
  -8 -11   5    0.46    1.11   1
  -8  11   4    4.82    0.82   1
   8  11  -4    2.99    0.67   1
   8 -11  -4    4.58    1.12   1
  -8 -11   4    5.91    1.59   1
   8 -11  -4    5.15    1.19   1
   8  11  -3   14.90    1.25   1
  -8  11   3   15.33    1.94   1
  -8  11   3   12.96    1.36   1
   8 -11  -3   16.40    1.81   1
  -8 -11   3   17.53    2.33   1
   8 -11  -3   15.04    1.69   1
   8  11  -2    3.26    0.62   1
  -8  11   2    4.32    1.18   1
  -8  11   2    2.81    0.73   1
   8 -11  -2    5.48    1.06   1
   8 -11  -2    3.72    1.02   1
  -8 -11   2    6.36    1.49   1
  -8  11   1    3.16    0.76   1
  -8  11   1    3.33    0.75   1
  -8  11   1    3.65    1.09   1
   8  11  -1    2.80    0.62   1
  -8 -11   1    3.39    1.12   1
   8 -11  -1    4.28    0.98   1
   8 -11  -1    2.91    1.00   1
   8  11   0    5.44    0.76   1
  -8  11   0    6.96    0.98   1
  -8  11   0    5.69    0.96   1
   8 -11   0    6.64    1.17   1
   8 -11   0    6.13    1.19   1
   8  11   1    3.88    0.70   1
  -8  11  -1    3.31    0.79   1
  -8  11  -1    4.62    0.93   1
   8 -11   1    3.36    1.21   1
   8 -11   1    3.52    1.02   1
   8  11   2    5.54    0.84   1
  -8  11  -2    4.97    0.96   1
  -8  11  -2    5.36    1.07   1
   8 -11   2    5.21    1.17   1
   8 -11   2    5.34    1.35   1
  -9   0  13   -0.56    0.97   1
  -9   0  13   -0.65    0.79   1
   9   0 -13    0.17    0.81   1
   9   0 -12    0.08    0.73   1
   9   0 -12    0.33    0.95   1
  -9   0  12   -0.59    0.75   1
  -9   0  12   -1.10    0.62   1
   9   0 -11   -0.73    0.68   1
  -9   0  11   -0.03    0.81   1
  -9   0  11   -0.73    0.66   1
  -9   0  10    0.79    0.81   1
  -9   0  10    0.09    0.59   1
   9   0 -10   -0.71    0.69   1
  -9   0  10    1.51    0.76   1
   9   0 -10    0.52    0.62   1
   9   0  -9   -0.14    0.52   1
  -9   0   9   -0.24    0.67   1
   9   0  -9    0.03    0.72   1
  -9   0   9   -0.09    0.56   1
  -9   0   9    0.61    0.75   1
   9   0  -8   -1.04    0.56   1
   9   0  -8   -0.23    0.47   1
  -9   0   8   -0.27    0.50   1
  -9   0   8    0.15    0.70   1
  -9   0   7    0.09    0.62   1
  -9   0   7    0.07    0.48   1
   9   0  -7    0.05    0.48   1
   9   0  -7    0.67    0.68   1
  -9   0   6    0.12    0.46   1
  -9   0   6   -0.73    0.51   1
   9   0  -6    0.15    0.58   1
   9   0  -6    0.47    0.49   1
   9   0  -5    0.04    0.32   1
   9   0  -5   -0.71    0.36   1
   9   0  -5   -0.04    0.36   1
  -9   0   5    0.63    0.64   1
  -9   0   5    0.06    0.45   1
   9   0  -4   -0.02    0.42   1
   9   0  -4   -0.34    0.44   1
  -9   0   4   -0.37    0.54   1
   9   0  -4   -0.48    0.23   1
   9   0  -4   -0.01    0.27   1
  -9   0   4    0.46    0.43   1
  -9   0   3    0.36    0.59   1
   9   0  -3   -0.07    0.39   1
   9   0  -3    0.03    0.28   1
   9   0  -3   -0.17    0.26   1
   9   0  -3    0.11    0.44   1
  -9   0   3   -0.28    0.37   1
  -9   0   2    0.26    0.40   1
   9   0  -2    0.14    0.37   1
   9   0  -2    0.15    0.31   1
   9   0  -2   -0.15    0.38   1
  -9   0   2   -0.54    0.54   1
   9   0  -2    0.11    0.30   1
  -9   0   1    0.16    0.42   1
   9   0  -1    0.05    0.43   1
   9   0  -1   -0.34    0.27   1
   9   0  -1   -0.12    0.35   1
  -9   0   1   -0.04    0.57   1
  -9   0   0    0.59    0.47   1
   9   0   0   -0.30    0.38   1
   9   0   0    0.19    0.33   1
   9   0   0    0.44    0.38   1
   9   0   1    0.06    0.46   1
   9   0   1   -0.34    0.42   1
  -9   0  -1   -0.14    0.38   1
   9   0   1   -0.47    0.31   1
   9   0   2   -0.33    0.45   1
   9   0   2    0.03    0.37   1
  -9   0  -2    0.15    0.44   1
  -9   0  -3   -0.64    0.53   1
  -9   0  -3    0.14    0.45   1
   9   0   3    0.35    0.52   1
  -9   0  -4   -0.77    0.41   1
   9   0   4   -0.43    0.52   1
  -9   0  -4   -0.38    0.50   1
  -9   0  -5    0.11    0.59   1
   9   0   5    0.71    0.73   1
   9   0   6   -0.14    0.68   1
  -9   0  -6   -0.34    0.62   1
   9   0   7    0.27    0.79   1
   9   0   8    0.54    0.83   1
   9   0   8    0.79    1.02   1
   9   1 -13    4.22    1.26   1
  -9   1  13    1.75    1.18   1
  -9   1  13    1.26    1.00   1
  -9  -1  13    1.98    1.13   1
  -9  -1  13    1.06    0.91   1
  -9   1  12    7.42    1.51   1
   9   1 -12    6.05    1.41   1
   9   1 -12    8.86    1.52   1
  -9   1  12    5.69    1.28   1
   9  -1 -12    6.98    1.34   1
  -9  -1  12    7.13    1.28   1
   9  -1 -12    7.77    1.44   1
  -9  -1  12    8.97    1.51   1
  -9   1  11   -0.27    0.71   1
   9   1 -11   -1.04    0.66   1
  -9   1  11   -0.19    0.83   1
  -9  -1  11    1.22    0.80   1
   9  -1 -11   -0.98    0.66   1
  -9  -1  11    1.10    0.86   1
   9   1 -10    5.05    1.03   1
  -9   1  10    3.10    0.93   1
  -9   1  10    2.03    0.95   1
   9   1 -10    6.87    1.29   1
  -9  -1  10    6.36    1.22   1
  -9  -1  10    4.71    1.05   1
   9  -1 -10    2.92    1.05   1
   9  -1 -10    4.74    0.97   1
  -9  -1  10    4.26    1.03   1
   9   1  -9    0.31    0.57   1
  -9   1   9    0.60    0.61   1
  -9   1   9    0.32    0.69   1
   9   1  -9    1.39    0.80   1
   9  -1  -9   -0.27    0.64   1
  -9  -1   9    1.51    0.78   1
   9  -1  -9    0.42    0.59   1
  -9  -1   9    0.79    0.61   1
  -9  -1   9    0.62    0.77   1
   9   1  -8    4.50    1.10   1
  -9   1   8    6.78    1.06   1
  -9   1   8    4.68    0.96   1
   9   1  -8    4.85    0.92   1
  -9  -1   8    6.57    1.08   1
  -9  -1   8    4.53    1.01   1
  -9  -1   8    5.25    0.92   1
   9  -1  -8    8.87    1.36   1
   9  -1  -8    5.47    0.93   1
   9   1  -7   16.19    1.77   1
  -9   1   7   13.62    1.45   1
  -9   1   7   16.10    1.53   1
   9   1  -7   15.64    1.42   1
  -9  -1   7   13.32    1.56   1
   9  -1  -7   16.88    1.42   1
  -9  -1   7   15.76    1.38   1
  -9  -1   7   15.20    1.56   1
   9  -1  -7   17.48    1.82   1
   9   1  -6    3.00    0.69   1
  -9   1   6    4.46    0.80   1
  -9   1   6    3.96    0.88   1
   9   1  -6    4.77    0.92   1
   9   1  -6    4.96    0.69   1
   9  -1  -6    3.64    0.75   1
  -9  -1   6    3.93    0.76   1
   9  -1  -6    4.54    0.93   1
  -9  -1   6    3.50    0.83   1
  -9  -1   6    4.15    0.94   1
  -9   1   5   31.68    2.30   1
  -9   1   5   33.88    2.14   1
   9   1  -5   35.21    2.03   1
   9   1  -5   34.62    2.17   1
   9   1  -5   35.19    2.25   1
  -9  -1   5   33.17    2.09   1
   9  -1  -5   29.84    2.13   1
   9  -1  -5   29.80    1.85   1
  -9  -1   5   28.79    2.26   1
   9  -1  -5   29.01    2.09   1
  -9   1   4    4.70    0.76   1
   9   1  -4    3.44    0.72   1
  -9   1   4    4.83    0.65   1
   9   1  -4    5.20    0.80   1
   9   1  -4    3.52    0.59   1
   9   1  -4    4.94    0.55   1
  -9   1   4    3.25    0.82   1
  -9  -1   4    3.78    0.68   1
   9  -1  -4    4.17    0.56   1
   9  -1  -4    3.41    0.72   1
  -9  -1   4    5.59    0.90   1
   9  -1  -4    4.73    0.77   1
  -9   1   3    1.98    0.47   1
  -9   1   3    1.55    0.54   1
   9   1  -3    1.25    0.45   1
   9   1  -3    1.03    0.35   1
   9   1  -3    2.16    0.56   1
   9   1  -3    0.82    0.52   1
   9  -1  -3    1.53    0.42   1
   9  -1  -3    2.42    0.58   1
   9  -1  -3    1.42    0.55   1
  -9  -1   3    0.61    0.45   1
  -9  -1   3    0.97    0.67   1
   9   1  -2    7.50    0.73   1
   9   1  -2    6.04    0.75   1
   9   1  -2    5.42    0.81   1
  -9   1   2    6.56    0.56   1
  -9   1   2    5.44    0.69   1
   9   1  -2    6.35    0.82   1
  -9   1   2    5.98    0.83   1
   9  -1  -2    5.76    0.83   1
  -9  -1   2    5.83    1.03   1
   9  -1  -2    7.54    0.79   1
  -9  -1   2    7.08    0.84   1
   9   1  -1    5.83    0.71   1
  -9   1   1    4.51    0.50   1
   9   1  -1    3.33    0.68   1
   9   1  -1    4.80    0.66   1
  -9   1   1    5.85    0.81   1
   9  -1  -1    4.77    0.68   1
   9  -1  -1    4.94    0.79   1
  -9  -1   1    5.21    0.75   1
  -9  -1   1    2.99    0.86   1
   9   1   0   56.85    3.46   1
  -9   1   0   60.54    3.18   1
   9   1   0   62.70    3.36   1
  -9   1   0   59.09    3.46   1
   9   1   0   61.13    3.37   1
  -9  -1   0   58.70    3.40   1
  -9  -1   0   60.27    3.67   1
   9  -1   0   60.16    3.39   1
   9  -1   0   60.06    3.48   1
   9   1   1   11.29    1.23   1
   9   1   1   11.87    1.13   1
  -9   1  -1    9.10    1.12   1
  -9   1  -1   12.66    0.89   1
  -9  -1  -1   12.77    1.43   1
   9  -1   1   14.40    1.16   1
  -9  -1  -1   11.77    1.18   1
   9  -1   1   11.02    1.22   1
  -9   1  -2    1.97    0.43   1
   9   1   2    1.73    0.60   1
   9   1   2    2.54    0.60   1
  -9   1  -2    2.48    0.66   1
  -9  -1  -2    1.36    0.55   1
  -9  -1  -2    2.67    0.77   1
   9  -1   2    1.91    0.66   1
   9  -1   2    1.58    0.64   1
  -9   1  -3    0.03    0.48   1
  -9   1  -3    0.55    0.43   1
   9   1   3    0.47    0.43   1
   9   1   3   -0.21    0.45   1
   9  -1   3    0.53    0.54   1
  -9  -1  -3    0.23    0.46   1
  -9  -1  -3    0.69    0.57   1
   9  -1   3    0.13    0.62   1
   9   1   4    5.73    1.01   1
   9   1   4    7.02    0.97   1
  -9   1  -4    6.00    1.03   1
   9  -1   4    6.08    1.07   1
   9  -1   4    6.03    1.03   1
  -9  -1  -4    6.00    0.94   1
  -9   1  -5   21.19    2.05   1
   9   1   5   20.10    1.87   1
   9  -1   5   23.82    1.96   1
  -9  -1  -5   22.89    1.81   1
   9  -1   5   18.30    1.94   1
   9   1   6   -0.11    0.74   1
  -9   1  -6    1.34    0.80   1
   9  -1   6    0.08    0.83   1
   9  -1   6    1.62    0.93   1
   9   1   7    3.87    1.14   1
  -9   1  -7    3.79    1.08   1
   9  -1   7    4.70    1.25   1
   9  -1   7    4.73    1.14   1
  -9   1  -8   -0.45    0.71   1
   9   1   8   -0.29    0.82   1
   9  -1   8    0.80    0.93   1
   9  -1   8   -0.08    0.94   1
  -9   2  12   -0.10    0.79   1
   9   2 -12    0.08    0.72   1
  -9   2  12   -1.91    0.76   1
   9   2 -12   -0.62    0.78   1
   9  -2 -12    0.05    0.77   1
  -9  -2  12    0.32    0.77   1
  -9  -2  12    0.15    0.88   1
  -9   2  11   -1.05    0.79   1
   9   2 -11    1.14    0.84   1
  -9   2  11    0.52    0.84   1
  -9  -2  11    0.06    0.68   1
  -9  -2  11    0.71    0.77   1
   9  -2 -11    0.81    0.80   1
   9   2 -10   36.58    2.62   1
   9   2 -10   35.23    2.80   1
  -9   2  10   37.94    2.68   1
  -9  -2  10   37.58    2.72   1
   9  -2 -10   34.49    2.81   1
   9  -2 -10   34.13    2.50   1
  -9  -2  10   34.29    2.74   1
  -9  -2  10   38.79    2.77   1
  -9   2   9   13.18    1.51   1
  -9   2   9   12.91    1.45   1
   9   2  -9   12.90    1.71   1
   9   2  -9   11.48    1.40   1
  -9  -2   9   12.32    1.46   1
   9  -2  -9   11.54    1.69   1
  -9  -2   9   13.84    1.54   1
  -9  -2   9   11.38    1.61   1
   9  -2  -9   14.62    1.52   1
   9   2  -8   22.99    2.19   1
  -9   2   8   25.19    1.98   1
  -9   2   8   26.12    2.07   1
   9   2  -8   26.67    1.99   1
   9  -2  -8   28.38    1.96   1
   9  -2  -8   26.13    2.22   1
  -9  -2   8   27.90    2.09   1
  -9  -2   8   24.72    1.92   1
  -9  -2   8   26.38    2.20   1
   9   2  -7   26.07    2.13   1
  -9   2   7   27.14    2.06   1
  -9   2   7   22.31    1.83   1
   9   2  -7   25.14    1.72   1
  -9   2   7   27.26    2.60   1
   9   2  -7   20.57    1.79   1
  -9  -2   7   23.93    1.80   1
   9  -2  -7   27.23    2.08   1
  -9  -2   7   25.32    2.10   1
  -9  -2   7   25.92    1.93   1
   9  -2  -7   23.08    1.78   1
   9   2  -6    1.96    0.51   1
   9   2  -6    1.70    0.73   1
  -9   2   6    1.98    0.53   1
  -9   2   6    1.32    0.76   1
   9   2  -6    2.23    0.62   1
  -9   2   6    0.92    0.55   1
  -9  -2   6    2.32    0.75   1
  -9  -2   6    2.46    0.83   1
   9  -2  -6    1.99    0.66   1
   9  -2  -6    2.50    0.75   1
   9  -2  -6    1.40    0.43   1
  -9  -2   6    2.24    0.59   1
   9   2  -5   42.21    2.71   1
   9   2  -5   39.39    2.59   1
   9   2  -5   42.31    2.51   1
  -9   2   5   38.50    2.58   1
  -9   2   5   38.84    2.45   1
  -9  -2   5   39.59    2.58   1
   9  -2  -5   46.27    2.64   1
  -9  -2   5   44.80    2.57   1
   9  -2  -5   44.29    2.73   1
  -9  -2   5   40.93    2.82   1
   9  -2  -5   43.87    2.40   1
   9   2  -4   13.59    1.21   1
   9   2  -4   14.49    1.10   1
  -9   2   4   13.86    1.22   1
  -9   2   4   13.31    1.08   1
   9   2  -4   13.22    1.22   1
   9  -2  -4   13.00    1.25   1
  -9  -2   4   14.10    1.53   1
   9  -2  -4   12.09    0.99   1
  -9  -2   4   13.69    1.15   1
  -9  -2   4   12.87    1.13   1
   9  -2  -4   14.09    1.20   1
   9   2  -3  101.58    5.13   1
   9   2  -3  102.20    5.38   1
  -9   2   3   96.63    5.39   1
  -9   2   3  104.15    5.31   1
   9   2  -3  102.88    5.30   1
   9   2  -3   95.87    5.38   1
  -9  -2   3  101.69    5.65   1
  -9  -2   3   98.32    5.33   1
   9  -2  -3   99.07    5.24   1
   9  -2  -3   98.45    5.38   1
  -9  -2   3  100.92    5.26   1
   9   2  -2   82.61    4.34   1
  -9   2   2   78.31    4.29   1
   9   2  -2   80.66    4.31   1
  -9   2   2   83.93    4.22   1
   9   2  -2   79.70    4.20   1
   9   2  -2   74.61    4.37   1
  -9   2   2   80.32    4.43   1
  -9  -2   2   78.01    4.64   1
   9  -2  -2   85.53    4.32   1
   9  -2  -2   76.56    4.39   1
  -9  -2   2   78.81    4.34   1
   9   2  -1    0.18    0.39   1
  -9   2   1    0.09    0.25   1
  -9   2   1    0.55    0.47   1
   9   2  -1    0.03    0.31   1
   9   2  -1    0.25    0.32   1
   9   2  -1   -0.16    0.38   1
  -9   2   1    0.16    0.31   1
  -9  -2   1    0.50    0.39   1
   9  -2  -1   -0.23    0.39   1
  -9  -2   1   -0.25    0.59   1
   9  -2  -1    0.14    0.41   1
   9  -2  -1    0.35    0.45   1
  -9   2   0    4.01    0.62   1
  -9   2   0    2.18    0.63   1
   9   2   0    3.64    0.65   1
   9   2   0    2.50    0.63   1
  -9   2   0    3.55    0.50   1
   9  -2   0    2.82    0.45   1
  -9  -2   0    4.07    0.92   1
   9  -2   0    2.50    0.60   1
  -9  -2   0    3.29    0.65   1
   9  -2   0    3.53    0.71   1
   9   2   1    0.15    0.44   1
   9   2   1    0.28    0.39   1
  -9   2  -1    0.11    0.46   1
  -9   2  -1    0.09    0.27   1
   9  -2   1   -0.34    0.47   1
   9  -2   1    0.22    0.31   1
  -9  -2  -1   -0.06    0.35   1
  -9  -2  -1    0.16    0.54   1
   9  -2   1    0.49    0.47   1
  -9   2  -2   72.06    4.29   1
  -9   2  -2   80.54    4.12   1
   9   2   2   75.48    4.19   1
   9   2   2   72.29    4.28   1
  -9  -2  -2   81.66    4.40   1
   9  -2   2   76.62    4.33   1
   9  -2   2   73.32    4.03   1
  -9  -2  -2   75.30    4.21   1
   9  -2   2   76.49    4.31   1
  -9   2  -3   46.71    2.78   1
   9   2   3   47.83    2.87   1
  -9   2  -3   49.20    3.00   1
   9   2   3   44.65    2.93   1
  -9  -2  -3   48.88    2.92   1
   9  -2   3   48.01    2.98   1
   9  -2   3   47.92    3.02   1
  -9  -2  -3   47.13    2.85   1
   9  -2   3   46.15    2.70   1
   9   2   4    3.01    0.80   1
  -9   2  -4    2.05    0.75   1
  -9   2  -4    2.68    0.66   1
   9   2   4    4.50    0.82   1
   9  -2   4    2.90    0.63   1
   9  -2   4    2.16    0.76   1
   9  -2   4    2.93    0.87   1
   9   2   5    7.41    1.13   1
  -9   2  -5    7.08    1.05   1
  -9   2  -5    7.74    1.24   1
   9   2   5   13.07    1.51   1
   9  -2   5    5.43    1.17   1
   9  -2   5    7.90    1.23   1
   9  -2   5    7.53    1.00   1
   9   2   6    1.15    0.85   1
  -9   2  -6    0.38    0.78   1
   9  -2   6    0.50    0.60   1
   9  -2   6    0.14    0.74   1
   9  -2   6    1.36    0.89   1
  -9   2  -7    9.24    1.59   1
   9   2   7   13.49    1.79   1
   9  -2   7   12.69    1.67   1
   9  -2   7   12.50    1.73   1
  -9   2  -8    7.14    1.39   1
   9   2   8    4.06    1.26   1
   9  -2   8    5.99    1.39   1
   9  -2   8   12.43    1.61   1
   9   3 -12   13.19    2.10   1
  -9   3  12   19.45    2.20   1
   9   3 -12   22.33    2.59   1
  -9   3  12   26.29    2.34   1
  -9  -3  12   27.70    2.16   1
   9  -3 -12   25.81    2.29   1
   9   3 -11    2.79    1.01   1
  -9   3  11    2.14    0.93   1
   9  -3 -11    2.09    0.93   1
  -9  -3  11    1.10    0.82   1
  -9   3  10   10.27    1.46   1
   9   3 -10   13.55    1.76   1
   9   3 -10   11.67    1.48   1
   9  -3 -10   12.77    1.75   1
  -9  -3  10   10.52    1.46   1
  -9  -3  10   13.20    1.81   1
   9   3  -9    0.80    0.83   1
  -9   3   9    0.11    0.65   1
   9   3  -9    1.07    0.65   1
  -9   3   9    0.51    0.70   1
   9  -3  -9    1.93    0.87   1
  -9  -3   9    0.78    0.88   1
  -9  -3   9    1.87    0.72   1
   9  -3  -9    0.02    0.57   1
  -9  -3   9   -0.16    0.69   1
  -9   3   8   12.60    1.25   1
   9   3  -8    9.96    1.18   1
  -9   3   8   11.21    1.34   1
   9   3  -8   12.23    1.66   1
  -9   3   8    9.93    1.34   1
   9   3  -8   12.57    1.38   1
  -9  -3   8   13.24    1.46   1
   9  -3  -8   11.12    1.56   1
  -9  -3   8   11.86    1.33   1
   9  -3  -8   11.14    1.28   1
  -9  -3   8   12.17    1.63   1
  -9   3   7   58.10    3.47   1
   9   3  -7   58.26    3.87   1
   9   3  -7   57.29    3.58   1
  -9   3   7   59.65    3.63   1
  -9   3   7   61.46    3.76   1
   9   3  -7   62.99    3.53   1
  -9  -3   7   60.31    3.55   1
   9  -3  -7   62.37    3.36   1
  -9  -3   7   58.64    3.64   1
   9  -3  -7   67.84    3.91   1
  -9  -3   7   62.23    3.91   1
   9  -3  -7   59.84    3.55   1
   9   3  -6   10.06    1.34   1
  -9   3   6    9.65    1.01   1
   9   3  -6    7.96    1.06   1
   9   3  -6    8.22    0.97   1
  -9   3   6    6.73    1.01   1
  -9  -3   6   10.33    1.09   1
   9  -3  -6    9.35    0.93   1
  -9  -3   6    9.62    1.36   1
   9  -3  -6    9.38    1.25   1
  -9  -3   6    7.98    1.07   1
   9  -3  -6    8.13    1.02   1
  -9   3   5  107.90    5.71   1
   9   3  -5  109.46    5.71   1
   9   3  -5  106.51    5.81   1
  -9   3   5  108.58    5.84   1
   9   3  -5  106.04    5.93   1
  -9  -3   5  109.84    5.74   1
  -9  -3   5  108.06    5.78   1
   9  -3  -5  107.38    5.63   1
  -9  -3   5  105.65    6.09   1
   9  -3  -5  106.32    5.78   1
  -9   3   4    7.28    0.85   1
   9   3  -4    7.40    0.95   1
   9   3  -4    5.48    0.77   1
  -9   3   4    5.56    0.86   1
   9   3  -4    7.19    0.96   1
  -9  -3   4    6.24    1.13   1
  -9  -3   4    6.51    0.80   1
   9  -3  -4    6.77    0.78   1
  -9  -3   4    8.36    0.91   1
   9  -3  -4    8.62    1.01   1
   9   3  -3    1.37    0.44   1
  -9   3   3    1.77    0.58   1
   9   3  -3    1.86    0.54   1
   9   3  -3    1.34    0.55   1
  -9   3   3    1.82    0.52   1
   9  -3  -3    1.67    0.52   1
  -9  -3   3    2.02    0.49   1
   9  -3  -3    1.52    0.52   1
  -9  -3   3    1.60    0.42   1
   9  -3  -3    1.74    0.41   1
  -9  -3   3    1.95    0.81   1
  -9   3   2   27.06    1.72   1
   9   3  -2   23.36    1.55   1
   9   3  -2   29.03    1.75   1
   9   3  -2   26.26    1.77   1
  -9   3   2   22.77    1.77   1
   9   3  -2   26.36    1.71   1
  -9  -3   2   28.18    2.11   1
  -9  -3   2   27.11    1.70   1
   9  -3  -2   26.71    1.78   1
  -9  -3   2   23.14    1.59   1
   9  -3  -2   26.18    1.57   1
   9  -3  -2   26.40    1.75   1
  -9   3   1   29.85    1.88   1
  -9   3   1   27.59    1.78   1
   9   3  -1   28.56    1.94   1
  -9   3   1   30.51    2.02   1
   9   3  -1   30.83    1.89   1
   9   3  -1   29.82    1.81   1
  -9  -3   1   29.75    1.87   1
   9  -3  -1   26.94    1.88   1
   9  -3  -1   29.37    1.76   1
  -9  -3   1   29.65    2.23   1
   9  -3  -1   30.39    1.98   1
  -9   3   0  173.57    9.11   1
  -9   3   0  180.34    9.27   1
   9   3   0  185.55    9.15   1
   9   3   0  170.54    9.20   1
  -9   3   0  179.84    9.07   1
   9  -3   0  183.89    9.25   1
  -9  -3   0  177.53    9.11   1
   9  -3   0  179.76    9.17   1
  -9  -3   0  169.95    9.40   1
   9  -3   0  179.42    9.01   1
  -9   3  -1    5.34    0.78   1
  -9   3  -1    6.65    0.78   1
  -9   3  -1    6.81    0.97   1
   9   3   1    5.94    0.81   1
   9   3   1    5.59    0.87   1
   9  -3   1    4.63    0.84   1
   9  -3   1    6.27    0.89   1
  -9  -3  -1    6.67    1.06   1
   9  -3   1    5.71    0.71   1
  -9   3  -2   11.08    1.10   1
   9   3   2   11.11    1.13   1
   9   3   2    9.21    1.15   1
  -9   3  -2   10.78    1.27   1
   9  -3   2   10.16    1.20   1
  -9  -3  -2   12.98    1.37   1
   9  -3   2   10.78    1.03   1
   9  -3   2   11.44    1.23   1
  -9   3  -3    1.13    0.50   1
   9   3   3    2.55    0.65   1
   9   3   3    1.39    0.59   1
  -9   3  -3    1.69    0.69   1
   9  -3   3    1.29    0.71   1
   9  -3   3    1.21    0.61   1
   9  -3   3    1.70    0.51   1
  -9   3  -4   10.34    1.23   1
   9   3   4   11.40    1.26   1
   9   3   4    9.71    1.30   1
  -9   3  -4   13.09    1.48   1
   9  -3   4   10.37    1.11   1
   9  -3   4   12.37    1.43   1
   9  -3   4   10.04    1.30   1
  -9   3  -5   76.69    4.56   1
   9   3   5   69.90    4.40   1
  -9   3  -5   73.68    4.29   1
   9   3   5   73.55    4.38   1
   9  -3   5   76.79    4.23   1
   9  -3   5   72.56    4.43   1
   9  -3   5   72.13    4.47   1
   9   3   6    2.41    0.96   1
   9   3   6    0.76    0.80   1
  -9   3  -6    2.64    0.83   1
  -9   3  -6   -0.12    0.81   1
   9  -3   6    0.51    0.91   1
   9  -3   6    1.60    0.77   1
   9  -3   6    0.94    0.77   1
   9   3   7   15.71    2.01   1
  -9   3  -7   12.06    1.83   1
   9  -3   7   16.58    1.96   1
   9  -3   7   17.31    1.92   1
   9  -3   7   14.32    1.66   1
  -9   3  -8    2.02    1.01   1
   9   3   8    0.71    1.03   1
   9  -3   8   -0.03    0.81   1
   9  -3   8    0.24    0.99   1
   9   4 -12   -0.17    0.91   1
  -9   4  12   -0.39    0.90   1
  -9  -4  12   -0.02    0.84   1
   9   4 -11    0.79    0.85   1
   9   4 -11   -0.89    0.81   1
  -9   4  11    1.06    0.76   1
  -9  -4  11   -0.41    0.79   1
  -9  -4  11    0.41    0.91   1
   9   4 -10   30.45    2.54   1
  -9   4  10   29.65    2.40   1
   9   4 -10   29.55    2.32   1
  -9  -4  10   30.18    2.38   1
  -9  -4  10   30.09    2.64   1
   9   4  -9    7.75    1.07   1
   9   4  -9    7.29    1.17   1
   9   4  -9    9.02    1.50   1
  -9   4   9    8.35    1.22   1
  -9   4   9    5.63    0.96   1
  -9  -4   9    7.74    1.24   1
  -9  -4   9    6.73    1.41   1
   9   4  -8   30.98    2.61   1
   9   4  -8   34.69    2.21   1
  -9   4   8   33.91    2.21   1
   9   4  -8   26.85    2.23   1
  -9   4   8   34.52    2.43   1
  -9   4   8   31.56    2.30   1
  -9  -4   8   31.50    2.67   1
  -9  -4   8   29.78    2.33   1
   9  -4  -8   32.29    2.17   1
  -9   4   7    3.83    0.83   1
   9   4  -7    3.97    1.10   1
   9   4  -7    3.62    0.73   1
   9   4  -7    3.97    0.82   1
  -9   4   7    4.55    0.81   1
   9  -4  -7    4.80    0.75   1
  -9  -4   7    3.80    0.85   1
  -9  -4   7    4.52    1.14   1
  -9   4   6    2.32    0.72   1
   9   4  -6    0.99    0.52   1
  -9   4   6    1.50    0.54   1
   9   4  -6    1.44    0.81   1
   9   4  -6    2.12    0.59   1
  -9  -4   6    3.06    0.98   1
   9  -4  -6    1.17    0.51   1
  -9  -4   6    1.92    0.66   1
   9  -4  -6    1.96    0.56   1
  -9   4   5   42.26    2.48   1
   9   4  -5   39.99    2.45   1
   9   4  -5   38.63    2.53   1
   9   4  -5   43.41    2.75   1
  -9   4   5   38.97    2.55   1
   9  -4  -5   41.26    2.50   1
  -9  -4   5   38.92    2.46   1
  -9  -4   5   36.66    2.85   1
   9  -4  -5   39.63    2.41   1
  -9   4   4   14.45    1.14   1
   9   4  -4   11.26    1.27   1
   9   4  -4   13.31    1.17   1
  -9   4   4   10.08    1.17   1
   9   4  -4   12.88    1.07   1
   9  -4  -4   14.59    1.12   1
   9  -4  -4   12.27    1.21   1
  -9  -4   4   10.34    1.50   1
  -9  -4   4   11.68    1.07   1
   9  -4  -4   12.30    1.02   1
   9   4  -3   74.79    4.08   1
  -9   4   3   75.07    4.03   1
   9   4  -3   70.99    4.06   1
   9   4  -3   71.66    3.98   1
  -9   4   3   70.06    4.09   1
   9  -4  -3   74.70    4.07   1
  -9  -4   3   70.67    3.88   1
  -9  -4   3   75.05    4.48   1
   9  -4  -3   73.42    4.01   1
   9  -4  -3   73.08    3.91   1
   9   4  -2   24.99    1.71   1
   9   4  -2   26.74    1.81   1
   9   4  -2   25.96    1.73   1
  -9   4   2   24.87    1.84   1
  -9   4   2   32.35    1.87   1
   9  -4  -2   25.36    1.66   1
   9  -4  -2   27.05    1.83   1
   9  -4  -2   27.06    1.84   1
  -9  -4   2   26.45    2.20   1
  -9   4   1    9.67    1.03   1
   9   4  -1    9.71    0.97   1
  -9   4   1   12.17    1.01   1
   9   4  -1    7.50    0.97   1
  -9   4   1    8.11    1.04   1
   9  -4  -1   10.49    1.10   1
   9  -4  -1    9.51    1.05   1
  -9  -4   1    7.49    1.26   1
   9  -4  -1    9.58    0.93   1
   9   4   0    3.43    0.69   1
   9   4   0    4.89    0.70   1
  -9   4   0    3.25    0.67   1
  -9   4   0    5.85    0.88   1
  -9   4   0    2.80    0.60   1
   9  -4   0    4.35    0.75   1
   9  -4   0    2.87    0.67   1
  -9  -4   0    4.25    0.95   1
   9  -4   0    4.65    0.66   1
   9   4   1    7.77    1.00   1
   9   4   1    7.74    0.93   1
  -9   4  -1    8.90    0.97   1
  -9   4  -1    9.84    1.00   1
  -9   4  -1    8.87    1.11   1
   9  -4   1    9.72    0.96   1
  -9  -4  -1    7.49    1.17   1
   9  -4   1    6.94    0.98   1
   9  -4   1    6.29    0.95   1
   9   4   2   48.62    2.85   1
  -9   4  -2   44.42    2.96   1
  -9   4  -2   50.24    2.89   1
  -9   4  -2   49.73    2.89   1
   9   4   2   43.77    2.91   1
   9  -4   2   47.17    2.94   1
   9  -4   2   48.72    2.97   1
  -9  -4  -2   51.39    3.08   1
   9  -4   2   45.87    2.78   1
  -9   4  -3   28.77    2.07   1
   9   4   3   29.41    1.94   1
  -9   4  -3   31.10    1.96   1
   9   4   3   26.02    1.94   1
   9  -4   3   25.47    1.95   1
   9  -4   3   23.16    1.79   1
   9  -4   3   26.49    2.04   1
  -9   4  -4   15.93    1.56   1
  -9   4  -4   15.54    1.66   1
   9   4   4   13.96    1.51   1
   9   4   4   14.80    1.49   1
   9  -4   4   13.01    1.34   1
   9  -4   4   16.13    1.64   1
   9  -4   4   14.50    1.52   1
   9   4   5    3.76    0.92   1
  -9   4  -5    2.37    0.79   1
  -9   4  -5    4.14    1.06   1
   9   4   5    4.23    0.98   1
   9  -4   5    3.31    0.99   1
   9  -4   5    2.49    0.80   1
   9  -4   5    2.93    0.81   1
   9   4   6    3.33    0.98   1
  -9   4  -6    2.55    0.87   1
   9   4   6    2.77    0.93   1
  -9   4  -6    2.26    0.99   1
   9  -4   6    3.42    1.08   1
   9  -4   6    1.38    0.82   1
   9  -4   6    1.36    0.77   1
   9   4   7    7.90    1.40   1
  -9   4  -7    9.14    1.45   1
   9   4   7    5.36    1.22   1
  -9   4  -7    8.86    1.58   1
   9  -4   7   10.68    1.44   1
   9  -4   7   12.83    1.66   1
  -9   4  -8    8.04    1.54   1
   9   4   8    6.41    1.53   1
   9  -4   8    8.15    1.46   1
   9  -4   8    6.94    1.47   1
  -9   5  12    4.70    1.34   1
   9   5 -12    3.03    1.32   1
  -9  -5  12    5.44    1.24   1
   9   5 -11    2.87    1.10   1
   9   5 -11    2.02    1.00   1
  -9   5  11    3.98    1.03   1
  -9  -5  11    4.44    1.11   1
  -9  -5  11    3.40    1.17   1
  -9   5  10    3.21    0.92   1
   9   5 -10    1.93    1.02   1
  -9  -5  10    3.40    1.22   1
  -9  -5  10    3.22    0.97   1
  -9   5   9   10.56    1.38   1
   9   5  -9    9.36    1.31   1
  -9   5   9    8.12    1.12   1
   9   5  -9    8.96    1.52   1
   9   5  -9    8.99    1.20   1
  -9  -5   9    7.83    1.59   1
  -9  -5   9    9.33    1.35   1
  -9   5   8    0.04    0.50   1
   9   5  -8    0.24    0.48   1
  -9   5   8   -0.03    0.55   1
   9   5  -8   -0.44    0.80   1
  -9   5   8   -0.25    0.73   1
   9   5  -8   -0.34    0.49   1
   9  -5  -8    0.07    0.46   1
  -9  -5   8    0.85    0.74   1
  -9  -5   8   -0.69    0.85   1
   9   5  -7   12.18    1.79   1
  -9   5   7   13.67    1.44   1
   9   5  -7   15.03    1.49   1
   9   5  -7   13.33    1.33   1
  -9   5   7   13.41    1.35   1
  -9  -5   7   10.96    1.77   1
   9  -5  -7   13.04    1.27   1
  -9  -5   7   13.69    1.50   1
   9   5  -6    5.19    1.17   1
  -9   5   6    5.85    0.84   1
   9   5  -6    5.03    0.88   1
   9   5  -6    5.24    0.83   1
  -9   5   6    5.78    0.91   1
  -9  -5   6    4.48    0.84   1
  -9  -5   6    2.81    1.11   1
   9  -5  -6    5.89    0.86   1
   9   5  -5   18.15    1.51   1
  -9   5   5   19.06    1.49   1
   9   5  -5   19.58    1.43   1
  -9   5   5   18.69    1.53   1
   9   5  -5   16.52    1.82   1
   9  -5  -5   18.25    1.42   1
  -9  -5   5   20.95    2.19   1
  -9  -5   5   19.72    1.51   1
  -9   5   4   16.81    1.45   1
  -9   5   4   16.91    1.37   1
   9   5  -4   20.21    1.59   1
   9   5  -4   18.84    1.44   1
   9   5  -4   18.69    1.38   1
  -9  -5   4   17.10    2.04   1
   9  -5  -4   18.71    1.41   1
   9  -5  -4   14.16    1.29   1
  -9  -5   4   20.34    1.38   1
   9   5  -3    5.47    0.82   1
  -9   5   3    6.75    0.92   1
   9   5  -3    7.97    0.87   1
  -9   5   3    6.05    0.83   1
   9   5  -3    6.17    0.90   1
  -9  -5   3    7.00    1.31   1
   9  -5  -3    6.43    0.87   1
  -9  -5   3    5.49    0.67   1
   9  -5  -3    5.96    0.80   1
   9   5  -2   28.80    1.97   1
  -9   5   2   30.83    1.98   1
  -9   5   2   25.16    1.96   1
   9   5  -2   31.06    1.89   1
  -9  -5   2   31.73    2.48   1
   9  -5  -2   30.11    1.98   1
   9  -5  -2   28.94    1.88   1
  -9   5   1    0.85    0.47   1
   9   5  -1    0.84    0.46   1
  -9   5   1    0.17    0.49   1
   9   5  -1    0.34    0.42   1
  -9   5   1    1.29    0.54   1
   9  -5  -1    0.82    0.43   1
   9  -5  -1    0.67    0.55   1
  -9  -5   1    0.35    0.83   1
   9   5   0   31.25    1.95   1
  -9   5   0   30.03    1.97   1
   9   5   0   32.92    2.06   1
  -9   5   0   28.58    2.07   1
  -9   5   0   29.28    1.98   1
  -9  -5   0   29.44    2.34   1
   9  -5   0   28.74    2.02   1
   9  -5   0   28.13    1.89   1
   9  -5   0   27.89    2.10   1
  -9   5  -1    4.62    0.86   1
   9   5   1    4.45    0.82   1
  -9   5  -1    3.19    0.73   1
  -9   5  -1    4.85    0.79   1
   9   5   1    3.76    0.67   1
  -9  -5  -1    4.46    1.00   1
   9  -5   1    3.82    0.70   1
   9  -5   1    3.79    0.80   1
   9  -5   1    3.25    0.75   1
  -9   5  -2    8.19    1.04   1
  -9   5  -2    7.32    1.07   1
   9   5   2    7.29    1.00   1
  -9   5  -2    8.41    1.06   1
   9   5   2    8.39    0.98   1
  -9  -5  -2    8.36    1.20   1
   9  -5   2    8.89    1.12   1
   9  -5   2    8.01    0.98   1
  -9   5  -3   10.70    1.36   1
   9   5   3    9.73    1.14   1
   9   5   3    9.45    1.20   1
  -9   5  -3   10.32    1.21   1
  -9   5  -3   11.42    1.31   1
   9  -5   3   10.13    1.15   1
   9  -5   3   10.52    1.31   1
   9   5   4    0.85    0.57   1
  -9   5  -4    0.33    0.62   1
   9   5   4    0.78    0.59   1
  -9   5  -4    1.54    0.73   1
   9  -5   4   -0.31    0.69   1
   9  -5   4    0.60    0.54   1
   9   5   5   12.16    1.51   1
  -9   5  -5   13.94    1.74   1
  -9   5  -5   13.93    1.56   1
   9   5   5   15.22    1.66   1
   9  -5   5   14.36    1.52   1
   9  -5   5   15.80    1.73   1
   9   5   6   -0.15    0.65   1
   9   5   6    1.17    0.79   1
  -9   5  -6   -0.93    0.61   1
  -9   5  -6    0.58    0.83   1
   9  -5   6    0.65    0.94   1
   9  -5   6    0.15    0.76   1
   9   5   7    7.40    1.40   1
  -9   5  -7    5.05    1.22   1
   9   5   7    2.56    0.99   1
  -9   5  -7    5.49    1.37   1
   9  -5   7    8.15    1.35   1
   9  -5   7    6.15    1.27   1
   9   6 -11    5.30    1.43   1
  -9   6  11    4.42    1.18   1
  -9  -6  11    7.19    1.30   1
  -9  -6  11    6.53    1.50   1
  -9   6  10    0.25    0.68   1
   9   6 -10    1.26    0.97   1
  -9   6  10    0.08    0.65   1
   9   6 -10   -0.02    0.61   1
  -9  -6  10   -0.40    0.72   1
  -9  -6  10   -0.69    0.81   1
  -9   6   9   -0.75    0.61   1
   9   6  -9   -0.36    0.55   1
   9   6  -9   -0.76    0.78   1
  -9   6   9   -0.21    0.51   1
   9   6  -9   -0.77    0.59   1
  -9  -6   9    0.87    0.85   1
  -9  -6   9    1.01    1.01   1
   9  -6  -9    0.60    0.62   1
  -9   6   8    5.73    0.94   1
   9   6  -8    4.01    0.82   1
   9   6  -8    3.87    1.20   1
  -9   6   8    2.60    0.79   1
   9   6  -8    4.63    0.91   1
  -9  -6   8    3.02    1.24   1
   9  -6  -8    3.07    0.75   1
  -9  -6   8    3.85    0.97   1
  -9   6   7    5.91    0.96   1
   9   6  -7    5.62    1.00   1
   9   6  -7    5.93    1.35   1
   9   6  -7    7.23    0.98   1
  -9   6   7    5.65    0.97   1
  -9  -6   7    7.48    1.11   1
   9  -6  -7    7.70    1.02   1
  -9  -6   7    6.69    1.46   1
   9   6  -6   25.66    2.37   1
   9   6  -6   27.42    2.01   1
  -9   6   6   30.70    1.99   1
   9   6  -6   30.68    2.00   1
  -9   6   6   29.54    2.11   1
  -9  -6   6   27.18    2.03   1
   9  -6  -6   29.62    2.02   1
  -9  -6   6   26.06    2.59   1
   9   6  -5   -0.33    0.41   1
  -9   6   5    0.17    0.48   1
  -9   6   5    0.55    0.53   1
   9   6  -5   -0.36    0.75   1
   9   6  -5   -0.07    0.44   1
   9  -6  -5   -0.07    0.47   1
  -9  -6   5    0.26    0.87   1
  -9  -6   5    0.54    0.52   1
   9   6  -4    6.82    1.07   1
   9   6  -4    6.48    0.85   1
  -9   6   4    5.19    0.87   1
   9   6  -4    6.88    0.93   1
  -9   6   4    6.55    0.89   1
   9  -6  -4    7.12    0.96   1
   9  -6  -4    6.72    0.89   1
  -9  -6   4    6.57    0.83   1
  -9  -6   4    5.08    1.35   1
   9   6  -3   -0.08    0.39   1
  -9   6   3   -0.02    0.43   1
   9   6  -3   -0.30    0.38   1
  -9   6   3   -0.70    0.39   1
   9   6  -3    0.43    0.52   1
   9  -6  -3   -0.08    0.49   1
   9  -6  -3    0.42    0.46   1
  -9  -6   3    0.14    0.86   1
  -9   6   2    5.81    0.92   1
   9   6  -2    6.55    0.81   1
  -9   6   2    7.79    0.97   1
   9   6  -2    6.58    0.89   1
   9  -6  -2    7.65    1.00   1
   9  -6  -2    6.62    0.87   1
  -9  -6   2    6.07    1.37   1
   9   6  -1   34.38    2.21   1
  -9   6   1   37.07    2.33   1
  -9   6   1   38.18    2.44   1
  -9   6   1   39.45    2.38   1
   9   6  -1   35.52    2.29   1
   9  -6  -1   31.97    2.32   1
   9  -6  -1   37.39    2.31   1
  -9  -6   1   32.31    2.77   1
   9   6   0    0.54    0.50   1
  -9   6   0    0.15    0.49   1
   9   6   0   -0.22    0.41   1
  -9   6   0    0.14    0.47   1
  -9   6   0    0.96    0.57   1
  -9  -6   0    0.32    0.74   1
   9  -6   0    0.35    0.47   1
   9  -6   0    0.20    0.58   1
  -9   6  -1   26.24    1.85   1
   9   6   1   22.28    1.70   1
  -9   6  -1   28.03    1.96   1
   9   6   1   25.57    1.83   1
  -9   6  -1   24.91    1.84   1
   9  -6   1   23.98    1.79   1
   9  -6   1   26.05    1.91   1
  -9  -6  -1   24.24    2.15   1
  -9   6  -2    0.67    0.59   1
  -9   6  -2    0.66    0.58   1
   9   6   2    0.76    0.58   1
  -9   6  -2    0.32    0.55   1
   9   6   2   -0.54    0.40   1
   9  -6   2    1.03    0.68   1
   9  -6   2    1.19    0.60   1
  -9   6  -3    0.64    0.62   1
  -9   6  -3    1.27    0.71   1
   9   6   3    0.38    0.51   1
  -9   6  -3    0.90    0.61   1
   9   6   3    0.11    0.49   1
   9  -6   3    0.49    0.54   1
   9  -6   3    0.84    0.74   1
  -9   6  -4   12.95    1.46   1
   9   6   4   12.47    1.36   1
  -9   6  -4    9.71    1.38   1
   9   6   4   11.93    1.34   1
   9  -6   4    9.64    1.27   1
   9  -6   4   10.25    1.41   1
   9   6   5    0.79    0.75   1
  -9   6  -5    1.40    0.78   1
  -9   6  -5    0.84    0.84   1
   9   6   5    0.90    0.70   1
   9  -6   5    0.26    0.68   1
   9  -6   5    0.58    0.95   1
  -9   6  -6   14.58    1.83   1
   9   6   6   19.03    1.98   1
  -9   6  -6   20.55    2.21   1
   9   6   6   18.82    1.95   1
   9  -6   6   18.43    1.95   1
   9  -6   6   21.29    1.99   1
   9   6   7    0.97    1.15   1
  -9   6  -7    1.23    1.07   1
   9   6   7   -1.21    0.70   1
   9  -6   7    0.81    1.19   1
   9  -6   7   -0.54    0.92   1
   9   7 -10    1.78    0.76   1
   9   7 -10    0.21    0.95   1
  -9   7  10    0.72    0.80   1
  -9   7  10    0.71    0.67   1
  -9  -7  10    0.49    1.05   1
  -9  -7  10    1.30    0.89   1
  -9   7   9   16.03    1.73   1
  -9   7   9   21.39    1.76   1
   9   7  -9   16.16    2.07   1
  -9  -7   9   19.83    2.04   1
   9  -7  -9   20.26    1.84   1
  -9  -7   9   17.57    2.31   1
  -9   7   8   12.98    1.49   1
   9   7  -8   12.54    1.50   1
  -9   7   8   15.04    1.48   1
   9   7  -8   15.72    2.04   1
   9   7  -8   12.14    1.38   1
  -9  -7   8   12.48    1.95   1
   9  -7  -8   13.74    1.44   1
  -9  -7   8   13.14    1.57   1
   9   7  -7    0.19    0.60   1
   9   7  -7   -0.09    0.84   1
  -9   7   7    0.32    0.61   1
  -9   7   7    0.16    0.50   1
   9   7  -7   -0.07    0.48   1
   9  -7  -7   -0.24    0.57   1
  -9  -7   7    1.61    0.76   1
  -9  -7   7    1.43    1.13   1
   9   7  -6   -0.12    0.82   1
   9   7  -6    0.44    0.49   1
  -9   7   6    0.50    0.56   1
  -9   7   6    0.09    0.55   1
   9   7  -6    0.01    0.53   1
  -9  -7   6    0.27    0.60   1
   9  -7  -6    1.09    0.60   1
  -9  -7   6    0.57    1.01   1
  -9   7   5    5.16    0.82   1
   9   7  -5    4.83    1.17   1
  -9   7   5    4.08    0.79   1
   9   7  -5    5.15    0.86   1
   9   7  -5    3.67    0.72   1
   9  -7  -5    4.48    0.85   1
  -9  -7   5    3.86    0.75   1
  -9  -7   5    2.62    1.25   1
  -9   7   4   33.44    2.33   1
  -9   7   4   33.85    2.27   1
   9   7  -4   35.35    2.20   1
   9   7  -4   37.27    2.31   1
   9   7  -4   35.06    2.54   1
   9  -7  -4   32.54    2.30   1
  -9  -7   4   29.42    2.91   1
   9  -7  -4   36.96    2.30   1
  -9  -7   4   36.12    2.22   1
   9   7  -3   15.54    1.28   1
   9   7  -3   16.61    1.36   1
  -9   7   3   17.18    1.48   1
  -9   7   3   16.13    1.41   1
  -9  -7   3   13.48    2.09   1
   9  -7  -3   17.82    1.46   1
   9  -7  -3   14.93    1.51   1
  -9   7   2    0.54    0.61   1
  -9   7   2    2.34    0.72   1
   9   7  -2    2.04    0.62   1
  -9   7   2    2.30    0.62   1
   9   7  -2    0.79    0.48   1
   9  -7  -2    1.39    0.62   1
  -9  -7   2    2.22    1.08   1
   9  -7  -2    2.20    0.72   1
  -9   7   1    9.90    1.13   1
   9   7  -1    9.21    1.01   1
  -9   7   1    9.53    1.17   1
  -9   7   1   10.15    1.21   1
   9   7  -1   11.57    1.14   1
   9  -7  -1    9.84    1.16   1
   9  -7  -1    9.64    1.20   1
  -9  -7   1    8.58    1.54   1
  -9   7   0    9.55    1.24   1
   9   7   0   10.80    1.10   1
   9   7   0   12.17    1.19   1
  -9   7   0   13.10    1.27   1
  -9   7   0   12.68    1.36   1
   9  -7   0    8.75    1.20   1
   9  -7   0   13.81    1.34   1
  -9  -7   0    6.55    1.33   1
  -9   7  -1   20.76    1.69   1
  -9   7  -1   22.80    1.82   1
  -9   7  -1   20.11    1.72   1
   9   7   1   20.30    1.56   1
   9   7   1   21.50    1.67   1
   9  -7   1   21.35    1.78   1
  -9  -7  -1   21.63    2.06   1
   9  -7   1   24.70    1.80   1
  -9   7  -2    2.29    0.79   1
   9   7   2    3.87    0.71   1
   9   7   2    2.71    0.71   1
  -9   7  -2    3.42    0.85   1
  -9   7  -2    4.13    0.87   1
   9  -7   2    3.47    0.80   1
   9  -7   2    4.59    0.99   1
  -9   7  -3   11.26    1.41   1
  -9   7  -3   10.50    1.36   1
   9   7   3   10.45    1.20   1
  -9   7  -3   12.13    1.44   1
   9  -7   3   15.46    1.51   1
   9  -7   3   10.81    1.43   1
   9   7   4   17.86    1.65   1
  -9   7  -4   22.54    2.20   1
  -9   7  -4   19.41    1.77   1
  -9   7  -4   19.46    1.98   1
   9   7   4   21.25    1.71   1
   9  -7   4   21.88    2.05   1
   9  -7   4   19.02    1.85   1
  -9   7  -5    2.86    0.90   1
   9   7   5    2.81    0.87   1
   9   7   5    1.34    0.73   1
  -9   7  -5    1.99    0.89   1
   9  -7   5    0.45    0.86   1
   9  -7   5    3.91    0.97   1
  -9   7  -6    1.42    1.01   1
   9   7   6    0.53    0.74   1
   9   7   6    1.54    0.94   1
   9  -7   6   -0.66    1.00   1
   9  -7   6   -0.18    0.81   1
   9   8  -9    2.28    1.05   1
  -9   8   9    0.81    0.69   1
  -9   8   9    1.01    0.80   1
  -9  -8   9    1.59    1.20   1
   9  -8  -9    1.67    0.80   1
  -9  -8   9    3.14    1.02   1
   9   8  -8    1.01    0.62   1
   9   8  -8    1.76    0.76   1
  -9   8   8    0.44    0.63   1
  -9   8   8    0.40    0.68   1
   9   8  -8    0.83    1.03   1
  -9  -8   8    1.83    1.18   1
   9  -8  -8    1.47    0.73   1
  -9  -8   8    1.52    0.83   1
  -9   8   7    9.06    1.22   1
  -9   8   7    7.97    1.09   1
   9   8  -7    6.63    1.09   1
   9   8  -7    8.92    1.64   1
   9   8  -7    9.57    1.16   1
  -9  -8   7   13.12    2.00   1
   9  -8  -7    8.47    1.21   1
  -9  -8   7    9.23    1.25   1
  -9   8   6   16.93    1.47   1
   9   8  -6   13.11    1.33   1
   9   8  -6    6.98    1.64   1
   9   8  -6   14.95    1.47   1
  -9   8   6   15.01    1.45   1
  -9  -8   6   13.40    2.10   1
   9  -8  -6   17.41    1.61   1
  -9  -8   6   14.64    1.49   1
   9   8  -5    6.79    0.90   1
   9   8  -5    6.62    0.98   1
  -9   8   5    6.25    0.95   1
  -9   8   5    6.69    0.99   1
   9   8  -5    6.33    1.33   1
  -9  -8   5    7.36    0.99   1
   9  -8  -5    5.40    0.98   1
  -9  -8   5    6.57    1.56   1
   9   8  -4    0.63    0.51   1
  -9   8   4    0.40    0.54   1
   9   8  -4    0.22    0.44   1
  -9   8   4    0.62    0.54   1
  -9  -8   4    2.20    1.22   1
   9  -8  -4   -0.10    0.54   1
   9  -8  -4    0.19    0.59   1
   9   8  -3   10.54    1.15   1
   9   8  -3   11.60    1.12   1
  -9   8   3   11.71    1.28   1
  -9   8   3   11.37    1.22   1
  -9  -8   3   11.24    1.87   1
   9  -8  -3    9.91    1.29   1
   9  -8  -3   12.44    1.32   1
  -9   8   2   24.38    1.72   1
   9   8  -2   21.35    1.59   1
  -9   8   2   19.40    1.64   1
   9   8  -2   18.71    1.51   1
  -9   8   2   23.04    1.80   1
   9  -8  -2   21.76    1.82   1
   9  -8  -2   20.41    1.73   1
  -9  -8   2   19.99    2.42   1
  -9   8   1   14.58    1.52   1
   9   8  -1   13.58    1.19   1
   9   8  -1   11.96    1.19   1
  -9   8   1   13.34    1.43   1
  -9   8   1   12.21    1.30   1
   9  -8  -1   12.79    1.41   1
  -9  -8   1   12.09    1.86   1
   9  -8  -1   13.14    1.43   1
  -9   8   0    0.66    0.58   1
   9   8   0   -0.45    0.46   1
  -9   8   0    0.11    0.53   1
  -9   8   0    0.22    0.50   1
   9   8   0    0.12    0.43   1
   9  -8   0    0.44    0.61   1
  -9  -8   0    0.62    0.85   1
   9  -8   0    0.96    0.68   1
  -9   8  -1    7.17    1.03   1
  -9   8  -1    6.07    1.07   1
   9   8   1    6.31    0.90   1
  -9   8  -1    8.98    1.16   1
   9   8   1    7.91    0.95   1
   9  -8   1    9.14    1.21   1
  -9  -8  -1    7.45    1.48   1
   9  -8   1    9.25    1.23   1
  -9   8  -2   17.28    1.71   1
  -9   8  -2   17.98    1.66   1
   9   8   2   18.84    1.49   1
   9   8   2   18.93    1.54   1
  -9   8  -2   17.20    1.62   1
   9  -8   2   20.97    1.76   1
   9  -8   2   19.18    1.85   1
   9   8   3   10.47    1.17   1
  -9   8  -3   11.23    1.42   1
  -9   8  -3    8.21    1.26   1
   9   8   3    9.79    1.16   1
  -9   8  -3   11.89    1.46   1
   9  -8   3   12.17    1.48   1
   9  -8   3    9.46    1.29   1
  -9   8  -4    1.63    0.85   1
  -9   8  -4    0.76    0.76   1
  -9   8  -4    0.08    0.60   1
   9   8   4    0.56    0.59   1
   9   8   4    0.55    0.59   1
   9  -8   4    0.18    0.72   1
   9  -8   4    1.14    0.89   1
   9   8   5    1.69    0.76   1
   9   8   5    0.77    0.74   1
  -9   8  -5    0.82    0.93   1
   9  -8   5    1.86    1.07   1
   9  -8   5    2.52    0.92   1
   9   9  -8    1.52    0.70   1
  -9   9   8    1.96    0.81   1
  -9   9   8    1.83    0.71   1
   9   9  -8    1.25    0.93   1
   9  -9  -8    0.47    0.82   1
  -9  -9   8    2.22    1.29   1
  -9  -9   8    1.51    0.82   1
  -9   9   7    4.14    0.86   1
   9   9  -7    3.53    1.27   1
   9   9  -7    5.97    0.94   1
   9   9  -7    5.13    0.99   1
  -9   9   7    5.47    0.98   1
  -9  -9   7    6.24    1.11   1
   9  -9  -7    6.40    1.10   1
  -9  -9   7    6.08    1.55   1
  -9   9   6    1.51    0.65   1
   9   9  -6   -2.57    0.69   1
   9   9  -6    0.00    0.51   1
   9   9  -6    1.17    0.59   1
  -9   9   6    0.31    0.59   1
   9  -9  -6    2.34    0.85   1
  -9  -9   6    1.46    0.69   1
  -9  -9   6    1.18    1.13   1
  -9   9   5   10.91    1.26   1
   9   9  -5   10.34    1.15   1
  -9   9   5    9.17    1.13   1
   9   9  -5   12.56    1.26   1
   9  -9  -5   10.39    1.33   1
  -9  -9   5   12.13    2.03   1
  -9   9   4    2.22    0.69   1
   9   9  -4    2.05    0.63   1
  -9   9   4    1.80    0.69   1
   9   9  -4    1.48    0.55   1
  -9  -9   4    3.74    1.38   1
   9  -9  -4    2.63    0.82   1
   9  -9  -4    3.52    0.95   1
  -9   9   3    0.64    0.60   1
  -9   9   3    0.85    0.60   1
   9   9  -3    0.98    0.52   1
   9   9  -3    1.94    0.55   1
   9  -9  -3    1.31    0.74   1
   9  -9  -3    1.72    0.77   1
  -9  -9   3    3.83    1.32   1
  -9   9   2    0.93    0.66   1
   9   9  -2    0.14    0.43   1
   9   9  -2    0.95    0.49   1
  -9   9   2    0.39    0.56   1
  -9   9   2    1.51    0.64   1
   9  -9  -2    0.85    0.73   1
  -9  -9   2    1.85    1.07   1
   9  -9  -2    0.37    0.70   1
  -9   9   1    4.42    0.97   1
  -9   9   1    6.62    0.95   1
  -9   9   1    4.36    0.89   1
   9   9  -1    4.30    0.73   1
   9  -9  -1    5.20    1.01   1
   9  -9  -1    5.35    1.03   1
  -9  -9   1    6.36    1.33   1
  -9   9   0   17.88    1.53   1
  -9   9   0   16.23    1.75   1
   9   9   0   16.35    1.37   1
  -9   9   0   17.42    1.60   1
   9  -9   0   17.90    1.75   1
  -9  -9   0   16.35    1.96   1
   9  -9   0   19.55    1.80   1
  -9   9  -1    2.01    0.76   1
   9   9   1    0.97    0.54   1
  -9   9  -1    0.93    0.66   1
  -9   9  -1    0.95    0.64   1
   9  -9   1    1.25    0.87   1
   9  -9   1   -0.26    0.69   1
  -9   9  -2    0.27    0.60   1
  -9   9  -2    0.28    0.59   1
  -9   9  -2    0.55    0.62   1
   9   9   2   -0.04    0.43   1
   9  -9   2   -0.06    0.70   1
   9  -9   2    0.45    0.69   1
   9   9   3   -0.17    0.48   1
  -9   9  -3    0.83    0.72   1
  -9   9  -3    0.04    0.68   1
  -9   9  -3    0.40    0.68   1
   9  -9   3   -1.47    0.73   1
   9  -9   3   -0.02    0.69   1
  -9   9  -4    2.17    0.96   1
   9   9   4    4.07    0.87   1
  -9   9  -4    4.33    1.08   1
   9  -9   4    2.42    1.01   1
   9  -9   4    2.88    1.12   1
  -9  10   7    0.22    0.60   1
   9  10  -7    0.14    0.61   1
  -9  10   7    0.80    0.81   1
   9  10  -7    0.10    1.28   1
  -9 -10   7    0.37    0.73   1
   9 -10  -7    1.12    0.97   1
  -9 -10   7   -1.36    1.20   1
  -9  10   6    2.65    0.74   1
   9  10  -6    3.48    0.76   1
  -9  10   6    2.05    0.79   1
   9 -10  -6    2.43    1.00   1
  -9 -10   6    3.10    1.38   1
   9  10  -5    2.01    0.62   1
  -9  10   5    2.32    0.71   1
  -9  10   5    2.50    0.75   1
  -9 -10   5    1.41    1.23   1
   9 -10  -5    1.87    0.88   1
  -9  10   4    2.48    0.71   1
   9  10  -4    2.25    0.62   1
  -9  10   4    2.67    0.73   1
   9 -10  -4    2.08    0.89   1
  -9 -10   4    3.11    1.39   1
   9 -10  -4    2.19    0.84   1
  -9  10   3    3.43    0.81   1
   9  10  -3    3.07    0.67   1
  -9  10   3    5.05    0.89   1
  -9  10   3    3.44    0.95   1
  -9 -10   3    4.66    1.47   1
   9 -10  -3    5.32    1.07   1
   9 -10  -3    4.38    1.04   1
   9  10  -2    0.48    0.47   1
  -9  10   2    1.27    0.66   1
  -9  10   2    0.57    0.67   1
  -9  10   2    0.23    0.59   1
  -9 -10   2    1.48    1.05   1
   9 -10  -2    0.90    0.78   1
   9 -10  -2    0.36    0.80   1
  -9  10   1    5.09    1.10   1
  -9  10   1    5.87    0.95   1
  -9  10   1    4.99    0.94   1
   9  10  -1    4.96    0.76   1
   9 -10  -1    5.69    1.08   1
  -9 -10   1    4.46    1.28   1
   9 -10  -1    5.15    1.08   1
  -9  10   0   -0.28    0.56   1
   9  10   0    0.35    0.47   1
  -9  10   0    1.24    0.69   1
  -9  10   0    0.23    0.57   1
   9 -10   0    0.24    0.78   1
   9 -10   0   -0.45    0.66   1
  -9  10  -1    3.21    0.83   1
   9  10   1    5.14    0.79   1
   9 -10   1    4.90    1.10   1
   9 -10   1    5.02    1.12   1
  -9  10  -2    1.50    0.75   1
   9  10   2    2.06    0.66   1
  -9  10  -2    2.16    0.84   1
   9 -10   2    3.71    1.17   1
   9 -10   2    3.12    1.03   1
   9  11  -4   15.56    1.48   1
  -9 -11   4   16.60    2.32   1
   9 -11  -4   20.26    2.01   1
   9 -11  -4   14.25    1.83   1
   9  11  -3    9.19    1.03   1
  -9  11   3    7.37    1.07   1
  -9  11   3    6.34    1.02   1
   9 -11  -3    9.16    1.54   1
  -9 -11   3    6.65    1.58   1
   9 -11  -3    8.57    1.35   1
   9  11  -2    6.29    0.90   1
  -9  11   2    5.40    0.97   1
  -9  11   2    6.16    1.04   1
  -9 -11   2    5.23    1.36   1
   9 -11  -2    5.79    1.34   1
   9 -11  -2    8.66    1.32   1
   9  11  -1    0.71    0.61   1
  -9  11   1    0.71    0.77   1
  -9  11   1    1.86    0.72   1
  -9 -11   1    0.49    0.91   1
   9 -11  -1    3.11    1.11   1
   9 -11  -1    0.46    1.05   1
 -10   0  12    0.19    0.87   1
  10   0 -12   -0.31    0.84   1
  10   0 -12    0.86    0.94   1
 -10   0  12    0.24    0.84   1
 -10   0  11   27.45    2.38   1
  10   0 -11   26.64    2.32   1
  10   0 -11   31.51    2.64   1
 -10   0  11   34.13    2.62   1
  10   0 -10   23.13    2.44   1
 -10   0  10   20.44    1.97   1
 -10   0  10   22.21    2.00   1
  10   0 -10   25.85    2.04   1
 -10   0  10   20.91    2.08   1
  10   0  -9   22.03    1.83   1
 -10   0   9   22.61    1.84   1
 -10   0   9   21.82    1.93   1
 -10   0   9   19.02    1.88   1
  10   0  -9   14.11    1.97   1
 -10   0   8   12.70    1.50   1
  10   0  -8   12.74    1.45   1
  10   0  -8   13.53    1.73   1
 -10   0   8   11.93    1.42   1
 -10   0   8   13.22    1.60   1
 -10   0   7    0.55    0.74   1
  10   0  -7    1.02    0.62   1
 -10   0   7    1.68    0.64   1
  10   0  -7    0.98    0.77   1
 -10   0   6   45.00    2.92   1
  10   0  -6   51.17    3.15   1
 -10   0   6   47.73    3.18   1
  10   0  -6   47.48    3.00   1
  10   0  -5   37.61    2.60   1
 -10   0   5   44.51    2.66   1
 -10   0   5   41.99    2.85   1
  10   0  -5   41.28    2.70   1
  10   0  -4  101.23    5.46   1
 -10   0   4   98.70    5.39   1
  10   0  -4  102.63    5.13   1
 -10   0   4   98.49    5.64   1
  10   0  -4   93.14    5.40   1
 -10   0   3  104.44    5.66   1
  10   0  -3  102.42    5.68   1
  10   0  -3  101.32    5.43   1
  10   0  -3  114.52    5.88   1
  10   0  -3  107.59    5.68   1
 -10   0   3  100.63    5.90   1
 -10   0   2    0.44    0.50   1
  10   0  -2    0.69    0.38   1
  10   0  -2    2.09    0.62   1
 -10   0   2    1.09    0.74   1
  10   0  -2    1.75    0.49   1
  10   0  -1    3.40    0.75   1
  10   0  -1    3.40    0.65   1
  10   0  -1    3.15    0.59   1
 -10   0   1    1.66    0.81   1
 -10   0   1    3.33    0.71   1
 -10   0   0    6.92    0.94   1
  10   0   0    5.85    1.11   1
  10   0   0    5.39    0.80   1
  10   0   0    7.29    1.02   1
 -10   0   0    4.95    1.03   1
 -10   0  -1   80.70    4.83   1
  10   0   1   82.31    4.71   1
  10   0   1   87.29    4.62   1
 -10   0  -1   81.16    4.63   1
 -10   0  -2   89.62    5.11   1
  10   0   2   91.81    5.19   1
 -10   0  -2   96.87    5.32   1
  10   0   2   90.61    5.12   1
 -10   0  -3    1.98    0.83   1
  10   0   3    3.04    0.78   1
  10   0   3    1.56    0.85   1
 -10   0  -3    1.60    0.71   1
  10   0   4    7.46    1.18   1
 -10   0  -4    8.33    1.16   1
  10   0   4    6.09    1.17   1
  10   0   5   -0.22    0.85   1
 -10   0  -5   -0.27    0.55   1
  10   0   5   -0.47    0.61   1
  10   0   6   22.65    2.19   1
  10   0   6   18.88    2.16   1
  10   0   7   38.22    2.88   1
  10   0   7   34.94    3.04   1
 -10   1  12    1.26    0.93   1
 -10   1  12    0.00    0.88   1
  10   1 -12   -0.09    0.92   1
 -10  -1  12   -0.87    0.82   1
  10  -1 -12    1.40    1.09   1
 -10  -1  12    1.78    0.94   1
 -10   1  11   10.15    1.54   1
  10   1 -11   11.85    1.73   1
 -10   1  11   10.10    1.52   1
  10   1 -11   10.26    1.45   1
  10  -1 -11   10.57    1.67   1
 -10  -1  11   10.24    1.48   1
 -10  -1  11    8.28    1.47   1
  10   1 -10    1.91    0.78   1
 -10   1  10    1.10    0.80   1
 -10   1  10    0.67    0.91   1
 -10   1  10    0.71    0.73   1
  10   1 -10    1.70    0.91   1
 -10  -1  10    1.77    0.96   1
 -10  -1  10    0.54    0.68   1
  10  -1 -10    1.82    0.97   1
 -10  -1  10    1.17    0.82   1
  10  -1 -10    0.59    0.63   1
 -10   1   9    5.63    1.13   1
 -10   1   9    5.04    1.03   1
  10   1  -9    5.16    1.01   1
  10   1  -9    4.46    1.22   1
 -10  -1   9    4.42    1.10   1
 -10  -1   9    4.59    0.97   1
  10  -1  -9    6.41    1.10   1
 -10  -1   9    4.32    1.03   1
  10  -1  -9    4.91    1.21   1
  10   1  -8   52.48    3.85   1
  10   1  -8   62.76    3.73   1
 -10   1   8   55.14    3.74   1
 -10   1   8   62.63    3.71   1
 -10  -1   8   65.24    3.77   1
 -10  -1   8   61.24    3.87   1
  10  -1  -8   60.91    3.67   1
 -10  -1   8   57.71    3.61   1
  10  -1  -8   61.86    3.95   1
 -10   1   7    0.58    0.58   1
  10   1  -7    1.09    0.79   1
  10   1  -7    0.28    0.59   1
 -10   1   7   -0.19    0.66   1
  10  -1  -7   -0.47    0.48   1
 -10  -1   7    0.27    0.57   1
 -10  -1   7   -0.08    0.66   1
 -10  -1   7    1.11    0.84   1
  10  -1  -7    0.73    0.71   1
 -10   1   6   71.73    4.09   1
  10   1  -6   66.70    4.20   1
  10   1  -6   65.69    4.07   1
 -10   1   6   73.49    4.33   1
 -10  -1   6   70.30    4.11   1
  10  -1  -6   71.07    4.10   1
 -10  -1   6   71.45    4.05   1
 -10  -1   6   71.38    4.31   1
  10  -1  -6   73.55    4.25   1
 -10   1   5    4.43    0.80   1
  10   1  -5    4.22    0.85   1
  10   1  -5    3.04    0.73   1
 -10   1   5    4.09    0.99   1
  10   1  -5    4.02    0.65   1
  10  -1  -5    4.85    0.82   1
  10  -1  -5    4.21    0.57   1
 -10  -1   5    3.92    0.95   1
 -10  -1   5    3.54    0.80   1
 -10  -1   5    4.83    0.81   1
  10  -1  -5    6.03    0.95   1
  10   1  -4    0.66    0.52   1
 -10   1   4    0.40    0.68   1
  10   1  -4    0.91    0.41   1
  10   1  -4    1.46    0.58   1
 -10   1   4    1.19    0.56   1
  10  -1  -4    1.00    0.58   1
 -10  -1   4    0.35    0.47   1
  10  -1  -4    1.16    0.59   1
 -10  -1   4    0.46    0.69   1
  10  -1  -4    1.02    0.40   1
 -10  -1   4   -0.04    0.48   1
  10   1  -3   45.57    2.80   1
 -10   1   3   43.00    3.06   1
  10   1  -3   47.87    2.59   1
 -10   1   3   46.98    2.85   1
  10   1  -3   45.75    2.85   1
  10   1  -3   46.76    2.73   1
 -10  -1   3   48.22    3.13   1
 -10  -1   3   47.50    2.73   1
  10  -1  -3   45.73    2.84   1
 -10  -1   3   51.85    2.86   1
  10  -1  -3   43.27    2.62   1
  10   1  -2    1.24    0.46   1
  10   1  -2    1.03    0.56   1
  10   1  -2    1.49    0.44   1
  10   1  -2    1.43    0.53   1
 -10   1   2    1.50    0.59   1
 -10  -1   2    0.79    0.50   1
  10  -1  -2    0.78    0.53   1
 -10  -1   2    0.82    0.74   1
  10  -1  -2    0.98    0.47   1
  10   1  -1  135.68    7.01   1
 -10   1   1  137.64    7.21   1
  10   1  -1  145.24    7.12   1
  10   1  -1  129.36    7.19   1
 -10  -1   1  132.88    7.14   1
  10  -1  -1  137.56    7.07   1
  10  -1  -1  134.93    7.22   1
 -10  -1   1  130.32    7.41   1
  10   1   0   13.36    1.37   1
  10   1   0   12.34    1.17   1
 -10   1   0   13.59    1.36   1
  10   1   0   13.60    1.28   1
 -10  -1   0   11.48    1.24   1
 -10  -1   0   13.21    1.52   1
  10  -1   0   11.39    1.31   1
  10  -1   0   13.52    1.27   1
  10   1   1    8.47    1.12   1
  10   1   1    9.28    1.04   1
  10   1   1    8.33    0.99   1
 -10   1  -1    7.56    1.06   1
  10  -1   1    7.88    1.10   1
 -10  -1  -1    8.30    1.03   1
  10  -1   1    8.70    1.07   1
 -10  -1  -1    8.44    1.24   1
 -10   1  -2    6.06    0.93   1
  10   1   2    4.00    0.72   1
  10   1   2    2.99    0.78   1
 -10  -1  -2    4.66    0.81   1
 -10  -1  -2    3.24    0.85   1
  10  -1   2    4.79    0.90   1
  10  -1   2    3.98    0.89   1
  10   1   3    0.89    0.59   1
 -10   1  -3    0.02    0.59   1
  10  -1   3    1.01    0.72   1
 -10  -1  -3    1.40    0.64   1
 -10  -1  -3    0.52    0.54   1
  10  -1   3    1.68    0.69   1
 -10   1  -4   59.16    3.82   1
  10   1   4   60.76    3.86   1
  10  -1   4   66.16    3.92   1
  10  -1   4   62.41    3.90   1
 -10  -1  -4   64.40    3.79   1
 -10   1  -5    4.53    1.03   1
  10   1   5    4.11    1.04   1
  10  -1   5    1.91    0.98   1
  10  -1   5    3.83    1.01   1
  10   1   6   13.43    1.86   1
 -10   1  -6   16.95    1.90   1
  10  -1   6   15.21    1.82   1
  10  -1   6   16.09    1.95   1
 -10   1  -7    0.26    0.79   1
  10   1   7    0.15    0.84   1
  10  -1   7    0.85    0.94   1
  10  -1   7   -0.92    0.86   1
  10   2 -12    1.70    1.04   1
 -10   2  12    0.65    1.01   1
 -10   2  12    1.53    1.00   1
 -10  -2  12    3.36    1.00   1
 -10   2  11    9.96    1.53   1
  10   2 -11    6.59    1.25   1
 -10   2  11    8.31    1.50   1
  10   2 -11    7.41    1.47   1
 -10  -2  11    7.00    1.25   1
 -10  -2  11    6.24    1.46   1
  10  -2 -11    7.35    1.44   1
  10   2 -10    6.77    1.34   1
 -10   2  10    5.48    1.17   1
  10   2 -10    6.17    1.16   1
  10  -2 -10    3.53    0.95   1
 -10  -2  10    8.19    1.42   1
 -10  -2  10    6.56    1.22   1
  10  -2 -10    5.83    1.28   1
 -10  -2  10    3.65    1.02   1
  10   2  -9   10.86    1.64   1
  10   2  -9   12.04    1.47   1
 -10   2   9   10.28    1.42   1
 -10   2   9    9.56    1.34   1
  10  -2  -9    9.27    1.58   1
 -10  -2   9    8.48    1.24   1
  10  -2  -9    9.74    1.28   1
 -10  -2   9    7.29    1.25   1
 -10  -2   9   12.68    1.68   1
  10   2  -8    2.07    0.95   1
  10   2  -8    1.91    0.79   1
 -10   2   8    1.31    0.85   1
 -10   2   8    1.73    0.74   1
 -10  -2   8    2.15    0.97   1
 -10  -2   8    2.08    0.84   1
 -10  -2   8    1.64    0.64   1
  10  -2  -8    2.72    0.71   1
  10  -2  -8    2.08    0.91   1
  10   2  -7    3.41    0.83   1
  10   2  -7    3.86    1.03   1
 -10   2   7    4.58    1.04   1
 -10   2   7    4.94    0.94   1
 -10  -2   7    3.55    0.84   1
 -10  -2   7    4.68    1.11   1
 -10  -2   7    3.50    0.75   1
  10  -2  -7    4.30    0.83   1
  10  -2  -7    4.85    1.01   1
  10   2  -6    4.62    0.77   1
 -10   2   6    4.61    1.10   1
  10   2  -6    5.38    0.91   1
 -10   2   6    4.56    0.89   1
  10   2  -6    6.15    1.08   1
 -10  -2   6    4.45    0.87   1
  10  -2  -6    4.68    0.86   1
  10  -2  -6    5.59    1.03   1
 -10  -2   6    4.02    0.77   1
 -10  -2   6    6.76    1.19   1
 -10   2   5    7.76    1.04   1
 -10   2   5    9.25    1.33   1
  10   2  -5    8.85    0.99   1
  10   2  -5    7.72    1.07   1
  10   2  -5   10.30    1.22   1
 -10  -2   5    7.51    1.02   1
  10  -2  -5    9.90    0.92   1
  10  -2  -5    7.12    1.10   1
 -10  -2   5    7.93    1.29   1
 -10  -2   5    8.66    1.03   1
  10  -2  -5    8.40    1.06   1
  10   2  -4   16.11    1.41   1
  10   2  -4   18.99    1.35   1
  10   2  -4   15.68    1.41   1
 -10   2   4   17.65    1.46   1
 -10  -2   4   16.48    1.35   1
 -10  -2   4   18.26    1.39   1
 -10  -2   4   17.63    1.85   1
  10  -2  -4   17.20    1.49   1
  10  -2  -4   16.58    1.22   1
  10   2  -3   12.50    1.26   1
  10   2  -3   12.22    1.26   1
 -10   2   3   12.32    1.28   1
  10   2  -3   11.64    1.13   1
  10  -2  -3   11.44    1.09   1
 -10  -2   3    9.88    1.41   1
 -10  -2   3   12.44    1.00   1
 -10  -2   3   12.77    1.14   1
  10  -2  -3   13.71    1.32   1
 -10   2   2    6.05    0.91   1
  10   2  -2    4.80    0.84   1
  10   2  -2    5.83    0.78   1
  10   2  -2    5.45    0.69   1
 -10   2   2    5.85    0.63   1
  10   2  -2    5.08    0.75   1
  10  -2  -2    4.23    0.78   1
  10  -2  -2    4.55    0.71   1
 -10  -2   2    5.10    1.09   1
 -10  -2   2    6.56    0.89   1
  10   2  -1    0.02    0.40   1
 -10   2   1    1.05    0.31   1
 -10   2   1    0.65    0.54   1
  10   2  -1    0.10    0.37   1
  10   2  -1    0.65    0.52   1
  10  -2  -1    1.06    0.53   1
 -10  -2   1    0.93    0.73   1
 -10  -2   1    1.41    0.55   1
  10  -2  -1    0.85    0.55   1
 -10   2   0    8.11    1.08   1
 -10   2   0    8.79    1.13   1
  10   2   0    9.31    1.14   1
  10   2   0    8.18    0.98   1
  10  -2   0    7.30    0.98   1
 -10  -2   0    8.17    1.26   1
 -10  -2   0    9.17    1.03   1
  10  -2   0    8.65    1.11   1
  10   2   1   16.20    1.48   1
 -10   2  -1   17.11    1.51   1
  10   2   1   15.73    1.35   1
  10  -2   1   18.43    1.54   1
 -10  -2  -1   17.62    1.68   1
 -10  -2  -1   18.54    1.41   1
  10  -2   1   16.99    1.54   1
  10   2   2   21.87    1.70   1
  10   2   2   26.10    1.90   1
 -10   2  -2   24.59    1.88   1
  10  -2   2   22.42    1.83   1
  10  -2   2   23.35    1.86   1
 -10  -2  -2   26.44    1.98   1
  10   2   3    3.30    0.75   1
 -10   2  -3    3.23    0.83   1
  10   2   3    2.82    0.78   1
  10  -2   3    4.49    0.90   1
  10  -2   3    4.28    0.94   1
 -10   2  -4    2.73    0.85   1
  10   2   4    2.42    0.85   1
  10   2   4    2.83    0.79   1
  10  -2   4    2.60    0.81   1
  10  -2   4    2.05    0.91   1
  10   2   5    1.49    0.80   1
 -10   2  -5    0.66    0.77   1
  10  -2   5    1.17    0.75   1
  10  -2   5    2.95    1.03   1
  10   2   6    1.40    0.92   1
 -10   2  -6    2.68    1.05   1
  10  -2   6    2.61    0.99   1
  10  -2   6    4.86    1.21   1
  10   2   7    6.11    1.39   1
 -10   2  -7    4.90    1.28   1
  10  -2   7    5.92    1.38   1
  10  -2   7    8.46    1.44   1
  10   3 -12    1.08    1.07   1
 -10   3  12    0.20    1.12   1
 -10   3  12    0.59    1.01   1
 -10  -3  12    0.56    0.86   1
  10   3 -11    1.64    0.94   1
 -10   3  11    1.01    0.77   1
 -10  -3  11    0.87    0.99   1
  10  -3 -11    0.99    0.83   1
 -10  -3  11    0.69    0.79   1
 -10   3  10    2.69    0.92   1
  10   3 -10    3.58    1.13   1
  10   3 -10    2.08    0.82   1
  10  -3 -10    3.11    1.07   1
 -10  -3  10    3.06    1.16   1
 -10  -3  10    3.11    0.97   1
  10   3  -9    1.12    0.74   1
 -10   3   9    2.17    0.85   1
  10   3  -9    3.44    1.10   1
 -10   3   9    3.71    0.91   1
 -10  -3   9    3.50    0.95   1
 -10  -3   9    4.70    1.32   1
  10  -3  -9    2.58    1.05   1
  10   3  -8    0.95    0.86   1
  10   3  -8    0.72    0.67   1
 -10   3   8   -0.38    0.69   1
 -10   3   8    0.01    0.56   1
 -10  -3   8    1.54    0.93   1
 -10  -3   8   -0.04    0.62   1
  10  -3  -8    0.95    0.74   1
  10  -3  -8   -0.18    0.54   1
  10   3  -7    0.79    0.57   1
  10   3  -7   -0.52    0.69   1
  10   3  -7   -0.49    0.38   1
 -10   3   7    0.33    0.56   1
 -10   3   7   -0.84    0.73   1
 -10  -3   7    0.54    0.67   1
  10  -3  -7    0.65    0.66   1
 -10  -3   7   -0.45    0.78   1
  10  -3  -7    0.42    0.48   1
 -10  -3   7    0.60    0.55   1
  10   3  -6    1.27    0.75   1
  10   3  -6    0.57    0.49   1
 -10   3   6    0.22    0.56   1
  10   3  -6    0.31    0.49   1
 -10   3   6    0.83    0.49   1
 -10   3   6    0.49    0.77   1
 -10  -3   6   -0.02    0.76   1
  10  -3  -6    0.94    0.53   1
  10  -3  -6    0.79    0.44   1
 -10  -3   6    0.88    0.65   1
 -10  -3   6    0.58    0.47   1
  10   3  -5    7.18    1.10   1
 -10   3   5    5.48    0.84   1
  10   3  -5    7.70    0.95   1
 -10   3   5    6.72    1.01   1
  10   3  -5    8.08    1.06   1
 -10  -3   5    9.26    1.37   1
 -10  -3   5    7.84    1.00   1
  10  -3  -5    7.48    1.00   1
  10  -3  -5    9.17    0.92   1
 -10  -3   5    7.89    0.96   1
 -10   3   4    5.76    0.92   1
  10   3  -4    5.72    0.91   1
  10   3  -4    7.22    0.90   1
  10   3  -4    7.53    1.01   1
 -10   3   4    9.64    1.03   1
 -10  -3   4    6.56    0.81   1
 -10  -3   4    8.37    0.96   1
  10  -3  -4    6.65    0.83   1
  10  -3  -4    7.66    1.00   1
 -10  -3   4    6.66    1.25   1
  10   3  -3    2.48    0.65   1
  10   3  -3    3.51    0.70   1
 -10   3   3    2.53    0.70   1
 -10   3   3    3.08    0.62   1
  10   3  -3    2.24    0.57   1
  10  -3  -3    3.03    0.66   1
  10  -3  -3    2.01    0.55   1
 -10  -3   3    2.17    0.54   1
 -10  -3   3    2.62    0.89   1
 -10   3   2    1.49    0.60   1
  10   3  -2    1.55    0.44   1
  10   3  -2    1.45    0.50   1
 -10   3   2    1.00    0.48   1
 -10   3   2    1.85    0.43   1
  10   3  -2    0.96    0.51   1
  10   3  -2    0.51    0.49   1
  10  -3  -2    0.55    0.47   1
 -10  -3   2    1.77    0.86   1
  10  -3  -2    1.60    0.59   1
 -10   3   1   -0.42    0.48   1
  10   3  -1   -0.84    0.42   1
  10   3  -1    0.43    0.44   1
 -10   3   1    0.30    0.30   1
 -10   3   1    0.15    0.35   1
  10  -3  -1   -0.12    0.49   1
 -10  -3   1    0.17    0.73   1
  10  -3  -1   -0.60    0.38   1
 -10   3   0    6.28    0.75   1
  10   3   0    4.78    0.89   1
  10   3   0    4.87    0.78   1
 -10   3   0    6.18    0.98   1
  10  -3   0    5.61    0.90   1
 -10  -3   0    5.44    1.07   1
  10  -3   0    3.76    0.78   1
 -10   3  -1    2.22    0.69   1
  10   3   1    3.50    0.72   1
  10   3   1    2.26    0.69   1
 -10   3  -1    3.10    0.57   1
 -10  -3  -1    1.42    0.77   1
  10  -3   1    4.68    0.83   1
  10  -3   1    2.44    0.71   1
 -10   3  -2    2.20    0.56   1
  10   3   2    2.48    0.69   1
  10   3   2    1.16    0.61   1
 -10   3  -2    2.32    0.74   1
  10  -3   2    3.26    0.80   1
 -10  -3  -2    2.31    0.78   1
  10  -3   2    2.91    0.74   1
 -10   3  -3    4.35    0.94   1
  10   3   3    3.50    0.75   1
  10   3   3    3.83    0.85   1
 -10   3  -3    3.45    0.73   1
  10  -3   3    4.78    0.99   1
  10  -3   3    3.46    0.83   1
  10   3   4    0.81    0.62   1
  10   3   4   -0.10    0.58   1
 -10   3  -4    0.34    0.71   1
  10  -3   4    0.25    0.60   1
  10  -3   4    0.71    0.81   1
  10   3   5    0.64    0.69   1
  10   3   5    0.41    0.71   1
 -10   3  -5    0.60    0.82   1
  10  -3   5    0.23    0.65   1
  10  -3   5   -0.28    0.89   1
 -10   3  -6    0.18    0.89   1
  10   3   6    0.60    0.82   1
  10  -3   6    1.75    0.85   1
  10  -3   6    1.29    1.06   1
  10   3   7    0.99    0.96   1
 -10   3  -7   -0.10    0.82   1
  10  -3   7   -0.18    0.80   1
  10  -3   7    0.89    1.02   1
  10   4 -11    7.31    1.40   1
 -10   4  11    7.64    1.36   1
 -10  -4  11    2.86    1.24   1
 -10  -4  11    6.91    1.27   1
 -10   4  10    3.51    1.01   1
  10   4 -10    2.06    0.84   1
  10   4 -10    4.71    1.25   1
 -10  -4  10    5.01    1.11   1
 -10  -4  10    4.10    1.22   1
  10   4  -9    0.21    0.85   1
  10   4  -9    0.52    0.61   1
 -10   4   9   -0.28    0.62   1
 -10  -4   9   -0.59    0.84   1
 -10  -4   9    0.82    0.80   1
 -10   4   8    6.99    1.13   1
  10   4  -8    7.67    1.06   1
  10   4  -8    6.09    1.36   1
 -10   4   8    8.02    1.25   1
  10   4  -8    6.75    1.09   1
 -10  -4   8    6.07    1.10   1
 -10  -4   8    6.15    1.43   1
  10   4  -7   11.22    1.33   1
 -10   4   7    9.03    1.11   1
 -10   4   7    9.01    1.23   1
  10   4  -7   10.58    1.58   1
 -10   4   7   11.71    1.55   1
  10   4  -7   12.62    1.27   1
 -10  -4   7    9.33    1.23   1
 -10  -4   7   12.59    1.75   1
  10  -4  -7   11.28    1.12   1
  10   4  -6    8.35    1.11   1
 -10   4   6   10.47    1.12   1
  10   4  -6    8.59    1.37   1
 -10   4   6    9.24    1.24   1
  10   4  -6    8.08    1.02   1
  10  -4  -6    8.38    0.96   1
 -10  -4   6    8.38    1.49   1
 -10  -4   6    8.78    1.09   1
 -10   4   5    0.59    0.55   1
  10   4  -5   -0.06    0.41   1
 -10   4   5   -0.12    0.49   1
  10   4  -5   -0.23    0.43   1
  10   4  -5    0.85    0.64   1
  10  -4  -5    0.26    0.42   1
 -10  -4   5   -0.06    0.46   1
  10  -4  -5    0.37    0.45   1
 -10  -4   5    0.52    0.73   1
  10   4  -4   10.02    1.15   1
  10   4  -4    8.94    1.12   1
 -10   4   4    8.43    1.11   1
 -10   4   4   11.40    1.14   1
  10   4  -4    9.26    1.02   1
 -10  -4   4    8.29    1.41   1
 -10  -4   4    9.49    0.97   1
  10  -4  -4    8.49    0.99   1
  10  -4  -4   10.71    1.16   1
  10   4  -3   18.89    1.50   1
 -10   4   3   17.74    1.56   1
  10   4  -3   19.47    1.48   1
 -10   4   3   22.54    1.58   1
  10   4  -3   19.87    1.55   1
  10  -4  -3   18.95    1.51   1
 -10  -4   3   20.53    1.99   1
  10  -4  -3   17.95    1.43   1
  10  -4  -3   19.79    1.48   1
 -10   4   2   15.27    1.22   1
 -10   4   2   14.90    1.30   1
  10   4  -2   14.78    1.31   1
 -10   4   2   12.99    1.43   1
  10   4  -2   15.02    1.24   1
  10  -4  -2   15.53    1.32   1
  10  -4  -2   12.95    1.34   1
 -10  -4   2   15.64    1.82   1
  10  -4  -2   16.11    1.24   1
 -10   4   1    4.52    0.70   1
 -10   4   1    4.77    0.92   1
 -10   4   1    5.45    0.82   1
  10   4  -1    2.95    0.67   1
  10   4  -1    3.59    0.78   1
  10  -4  -1    2.74    0.67   1
 -10  -4   1    3.40    1.02   1
  10  -4  -1    3.32    0.61   1
  10  -4  -1    4.75    0.85   1
 -10   4   0    2.69    0.59   1
 -10   4   0    3.34    0.66   1
 -10   4   0    3.56    0.80   1
  10   4   0    2.23    0.71   1
  10   4   0    0.43    0.48   1
  10  -4   0    3.04    0.58   1
  10  -4   0    3.22    0.75   1
  10  -4   0    2.23    0.67   1
 -10  -4   0    1.68    0.88   1
  10   4   1   21.44    1.60   1
 -10   4  -1   19.09    1.72   1
 -10   4  -1   22.11    1.59   1
  10   4   1   21.03    1.69   1
  10  -4   1   20.49    1.71   1
 -10  -4  -1   22.12    1.94   1
  10  -4   1   21.42    1.51   1
  10  -4   1   23.84    1.75   1
  10   4   2   17.89    1.52   1
 -10   4  -2   17.45    1.64   1
  10   4   2   18.42    1.65   1
 -10   4  -2   20.98    1.54   1
 -10  -4  -2   19.50    1.71   1
  10  -4   2   22.10    1.72   1
  10  -4   2   19.99    1.68   1
  10  -4   2   16.83    1.39   1
  10   4   3    1.98    0.72   1
  10   4   3    2.73    0.78   1
 -10   4  -3    3.31    0.87   1
 -10   4  -3    2.97    0.71   1
  10  -4   3    3.59    0.85   1
  10  -4   3    3.25    0.92   1
  10  -4   3    2.65    0.70   1
 -10   4  -4    1.05    0.64   1
 -10   4  -4    1.91    0.80   1
  10   4   4    1.18    0.67   1
  10   4   4    3.07    0.79   1
  10  -4   4    2.34    0.94   1
  10  -4   4    1.51    0.72   1
  10   4   5    7.86    1.26   1
  10   4   5    9.32    1.44   1
 -10   4  -5    9.80    1.56   1
  10  -4   5    8.26    1.45   1
  10  -4   5    7.03    1.24   1
  10   4   6    6.80    1.41   1
 -10   4  -6    8.79    1.60   1
  10   4   6    6.09    1.26   1
  10  -4   6    4.86    1.30   1
  10   4   7    1.03    1.09   1
 -10   4  -7    0.19    0.98   1
  10  -4   7    1.57    1.04   1
  10   5 -11    2.78    1.15   1
 -10   5  11    2.61    1.02   1
 -10  -5  11    1.88    1.24   1
 -10  -5  11    0.78    0.90   1
  10   5 -10    2.37    0.82   1
  10   5 -10    1.65    0.98   1
 -10   5  10    0.87    0.77   1
 -10  -5  10    1.34    1.07   1
 -10  -5  10    2.71    0.91   1
  10   5  -9   11.43    1.42   1
  10   5  -9   10.91    1.76   1
  10   5  -9    8.50    1.18   1
 -10   5   9   11.27    1.45   1
 -10  -5   9    7.98    1.31   1
 -10  -5   9    7.04    1.55   1
 -10   5   8   17.94    1.82   1
  10   5  -8   19.34    1.61   1
 -10   5   8   18.13    1.89   1
  10   5  -8   18.27    2.20   1
  10   5  -8   17.37    1.79   1
 -10  -5   8   19.10    1.87   1
 -10  -5   8   15.45    2.20   1
  10   5  -7    0.65    0.54   1
 -10   5   7   -0.07    0.63   1
 -10   5   7   -0.04    0.52   1
  10   5  -7   -0.64    0.76   1
  10   5  -7   -0.06    0.48   1
 -10  -5   7    0.60    0.62   1
  10  -5  -7    0.28    0.51   1
 -10  -5   7    0.05    0.88   1
 -10   5   6   23.39    1.84   1
  10   5  -6   24.33    2.25   1
 -10   5   6   22.10    1.87   1
  10   5  -6   26.61    1.85   1
  10   5  -6   24.53    1.92   1
  10  -5  -6   26.77    1.78   1
 -10  -5   6   26.40    2.45   1
 -10  -5   6   25.00    1.84   1
 -10   5   5   12.93    1.52   1
  10   5  -5   18.04    1.52   1
  10   5  -5   19.15    1.71   1
  10   5  -5   19.24    1.50   1
 -10   5   5   20.02    1.55   1
 -10  -5   5   18.99    1.44   1
  10  -5  -5   20.89    1.49   1
 -10  -5   5   18.11    2.15   1
 -10   5   4   11.44    1.17   1
  10   5  -4    8.11    1.08   1
  10   5  -4   11.40    1.15   1
 -10   5   4   10.41    1.21   1
  10   5  -4   11.59    1.29   1
 -10  -5   4   10.42    1.66   1
  10  -5  -4    9.99    1.04   1
  10  -5  -4   10.06    1.11   1
 -10  -5   4    9.87    1.15   1
  10   5  -3   10.99    1.11   1
  10   5  -3    9.34    1.14   1
 -10   5   3    9.95    1.16   1
 -10   5   3   12.22    1.29   1
  10  -5  -3   10.86    1.17   1
 -10  -5   3    9.09    1.58   1
  10  -5  -3   10.90    1.08   1
 -10   5   2    5.54    0.87   1
  10   5  -2    5.42    0.82   1
  10   5  -2    4.93    0.83   1
 -10   5   2    4.29    0.91   1
 -10   5   2    5.78    0.88   1
  10  -5  -2    5.98    0.80   1
  10  -5  -2    5.50    0.89   1
 -10  -5   2    5.37    1.26   1
 -10   5   1   57.94    3.47   1
 -10   5   1   60.72    3.51   1
 -10   5   1   57.52    3.59   1
  10   5  -1   62.12    3.48   1
  10   5  -1   60.17    3.55   1
 -10  -5   1   57.03    3.93   1
  10  -5  -1   61.81    3.55   1
  10  -5  -1   61.39    3.40   1
 -10   5   0   19.75    1.56   1
 -10   5   0   23.29    1.60   1
  10   5   0   16.79    1.55   1
  10   5   0   21.98    1.60   1
 -10   5   0   21.52    1.74   1
  10  -5   0   17.32    1.68   1
  10  -5   0   21.54    1.54   1
 -10  -5   0   20.66    1.96   1
 -10   5  -1    0.21    0.44   1
  10   5   1    0.53    0.46   1
 -10   5  -1   -0.19    0.52   1
 -10   5  -1    1.40    0.61   1
  10   5   1    0.19    0.59   1
 -10  -5  -1    0.15    0.67   1
  10  -5   1    0.85    0.51   1
  10  -5   1   -0.23    0.56   1
  10   5   2    0.78    0.58   1
 -10   5  -2   -0.32    0.43   1
  10   5   2   -0.21    0.47   1
 -10   5  -2   -0.56    0.48   1
  10  -5   2    0.86    0.75   1
  10  -5   2   -0.64    0.44   1
  10   5   3    7.25    1.13   1
 -10   5  -3   11.53    1.29   1
 -10   5  -3   10.62    1.41   1
  10   5   3   10.52    1.22   1
  10  -5   3    9.93    1.37   1
  10  -5   3   10.81    1.17   1
  10   5   4   25.64    2.13   1
  10   5   4   30.48    2.20   1
 -10   5  -4   28.61    2.37   1
 -10   5  -4   28.89    2.13   1
  10  -5   4   32.44    2.42   1
  10  -5   4   27.49    2.05   1
  10   5   5    3.75    0.98   1
  10   5   5    4.91    1.09   1
 -10   5  -5    3.39    0.89   1
 -10   5  -5    4.55    1.18   1
  10  -5   5    3.13    1.16   1
  10  -5   5    5.94    1.03   1
  10   5   6    3.34    1.06   1
  10   5   6    0.89    0.84   1
 -10   5  -6    2.75    1.12   1
  10  -5   6    4.81    1.28   1
 -10   6  10    8.00    1.34   1
 -10  -6  10    7.59    1.37   1
 -10  -6  10    8.76    1.74   1
  10   6  -9    5.57    1.44   1
 -10   6   9    5.83    0.99   1
  10   6  -9    4.78    0.94   1
  10   6  -9    5.13    1.06   1
 -10   6   9    5.23    1.09   1
 -10  -6   9    5.99    1.17   1
 -10  -6   9    4.65    1.42   1
  10   6  -8    4.98    0.88   1
  10   6  -8    2.58    1.16   1
 -10   6   8    4.93    0.98   1
  10   6  -8    3.17    0.90   1
 -10   6   8    3.30    1.09   1
 -10   6   8    4.06    0.86   1
  10  -6  -8    4.68    0.86   1
 -10  -6   8    5.27    1.47   1
 -10  -6   8    3.02    0.92   1
 -10   6   7    0.18    0.57   1
 -10   6   7   -0.41    0.55   1
  10   6  -7    0.15    0.53   1
  10   6  -7    0.23    0.53   1
  10   6  -7   -0.51    0.90   1
  10  -6  -7    0.51    0.54   1
 -10  -6   7   -0.43    0.59   1
 -10  -6   7    1.31    1.08   1
  10   6  -6   14.33    1.41   1
 -10   6   6   15.44    1.47   1
  10   6  -6   13.44    1.77   1
  10   6  -6   15.11    1.54   1
 -10   6   6   14.98    1.57   1
  10  -6  -6   16.34    1.37   1
 -10  -6   6   16.04    1.51   1
 -10  -6   6   12.87    1.97   1
  10   6  -5    7.14    1.05   1
 -10   6   5    7.39    1.02   1
  10   6  -5    6.76    0.96   1
  10   6  -5    7.51    1.25   1
 -10   6   5    7.95    1.12   1
 -10  -6   5    8.91    1.01   1
  10  -6  -5    6.88    1.00   1
 -10  -6   5    7.49    1.56   1
 -10   6   4   25.36    1.89   1
  10   6  -4   27.22    1.92   1
  10   6  -4   25.56    1.79   1
  10   6  -4   23.02    1.93   1
 -10   6   4   22.53    1.81   1
  10  -6  -4   24.57    1.83   1
  10  -6  -4   24.99    1.74   1
 -10  -6   4   26.71    2.58   1
  10   6  -3   35.59    2.39   1
 -10   6   3   33.77    2.43   1
 -10   6   3   38.73    2.43   1
  10   6  -3   38.87    2.34   1
  10  -6  -3   36.05    2.29   1
 -10  -6   3   37.04    3.06   1
  10  -6  -3   33.47    2.37   1
 -10   6   2   -0.31    0.54   1
 -10   6   2    1.03    0.58   1
  10   6  -2    1.78    0.62   1
 -10   6   2    0.27    0.52   1
  10   6  -2    0.63    0.51   1
  10  -6  -2    0.27    0.51   1
  10  -6  -2   -1.10    0.46   1
 -10  -6   2    0.99    0.97   1
  10   6  -1    0.09    0.49   1
 -10   6   1    0.49    0.54   1
 -10   6   1    0.33    0.55   1
 -10   6   1   -0.08    0.49   1
  10   6  -1    0.24    0.49   1
  10  -6  -1   -0.39    0.41   1
 -10  -6   1   -0.13    0.80   1
  10  -6  -1    0.57    0.62   1
  10   6   0    0.10    0.53   1
 -10   6   0    1.70    0.70   1
  10   6   0   -0.08    0.46   1
 -10   6   0    0.35    0.52   1
 -10   6   0    0.63    0.53   1
  10  -6   0    1.17    0.55   1
  10  -6   0    0.18    0.59   1
 -10  -6   0    0.74    0.89   1
 -10   6  -1   28.37    1.97   1
 -10   6  -1   26.26    1.92   1
  10   6   1   23.03    1.80   1
 -10   6  -1   25.07    2.03   1
  10   6   1   28.44    1.94   1
  10  -6   1   22.34    1.77   1
 -10  -6  -1   23.57    2.22   1
  10  -6   1   28.58    2.04   1
  10   6   2   31.38    2.12   1
 -10   6  -2   30.58    2.16   1
 -10   6  -2   31.39    2.28   1
  10   6   2   28.61    2.16   1
 -10   6  -2   32.97    2.25   1
  10  -6   2   29.23    2.27   1
  10  -6   2   28.75    2.10   1
 -10   6  -3    0.54    0.66   1
  10   6   3    0.42    0.58   1
  10   6   3    0.79    0.59   1
 -10   6  -3    1.99    0.75   1
  10  -6   3    1.68    0.69   1
  10  -6   3    1.04    0.80   1
 -10   6  -4    1.73    0.89   1
  10   6   4    2.56    0.80   1
 -10   6  -4    1.58    0.72   1
  10   6   4    1.20    0.72   1
  10  -6   4    1.66    0.73   1
  10  -6   4    3.60    1.08   1
 -10   6  -5    0.46    0.64   1
  10   6   5   -0.15    0.66   1
 -10   6  -5   -0.94    0.64   1
  10   6   5   -0.39    0.67   1
  10  -6   5   -0.52    0.81   1
  10  -6   5    0.69    0.73   1
  10  -6   6   12.59    1.82   1
 -10   7  10    1.08    0.86   1
 -10   7  10    0.85    0.98   1
  10   7 -10    1.59    1.19   1
 -10  -7  10    1.56    1.41   1
 -10  -7  10    1.72    0.91   1
 -10   7   9   -0.30    0.58   1
  10   7  -9    0.12    0.63   1
  10   7  -9    0.52    0.95   1
 -10   7   9    0.06    0.63   1
  10   7  -9   -0.71    0.70   1
 -10  -7   9    0.17    0.73   1
 -10  -7   9    0.53    1.17   1
 -10   7   8   17.08    1.70   1
  10   7  -8   18.90    1.68   1
  10   7  -8   17.38    2.28   1
  10   7  -8   18.62    1.73   1
 -10   7   8   17.62    1.80   1
 -10  -7   8   19.45    2.49   1
  10  -7  -8   16.78    1.61   1
 -10  -7   8   13.36    1.68   1
 -10   7   7    0.47    0.59   1
  10   7  -7    0.41    0.56   1
  10   7  -7    0.67    0.56   1
  10   7  -7   -0.17    0.98   1
 -10   7   7    0.66    0.62   1
  10  -7  -7   -0.85    0.53   1
 -10  -7   7    1.46    1.19   1
 -10  -7   7    0.97    0.67   1
  10   7  -6   25.22    1.84   1
  10   7  -6   24.16    1.75   1
  10   7  -6   23.07    2.44   1
 -10   7   6   19.32    1.76   1
 -10   7   6   25.05    1.83   1
 -10  -7   6   22.85    1.80   1
 -10  -7   6   15.65    2.38   1
  10  -7  -6   22.70    1.83   1
 -10   7   5   -0.48    0.47   1
  10   7  -5   -0.30    0.52   1
 -10   7   5    0.07    0.58   1
  10   7  -5   -0.36    0.46   1
  10   7  -5   -0.22    0.67   1
 -10  -7   5    0.06    0.98   1
  10  -7  -5    1.18    0.67   1
 -10   7   4    0.77    0.62   1
  10   7  -4    1.25    0.60   1
 -10   7   4    0.33    0.61   1
  10   7  -4    0.74    0.53   1
  10  -7  -4    0.53    0.65   1
  10  -7  -4    2.35    0.71   1
 -10  -7   4    1.30    1.18   1
 -10   7   3   14.94    1.46   1
  10   7  -3   14.54    1.32   1
  10   7  -3   16.47    1.43   1
 -10   7   3   17.35    1.49   1
 -10  -7   3   13.38    2.14   1
  10  -7  -3   17.36    1.46   1
  10  -7  -3   14.57    1.53   1
  10   7  -2   -0.85    0.39   1
  10   7  -2   -0.45    0.49   1
 -10   7   2    0.83    0.61   1
 -10   7   2   -0.35    0.45   1
 -10   7   2   -0.10    0.52   1
 -10  -7   2    1.26    1.14   1
  10  -7  -2   -0.19    0.57   1
  10  -7  -2   -0.79    0.45   1
 -10   7   1   29.17    2.08   1
  10   7  -1   28.66    1.95   1
 -10   7   1   29.47    2.05   1
  10   7  -1   28.57    1.99   1
 -10   7   1   27.17    2.13   1
  10  -7  -1   28.39    2.11   1
  10  -7  -1   29.45    2.05   1
 -10  -7   1   21.37    2.57   1
 -10   7   0   -0.35    0.47   1
  10   7   0    0.65    0.56   1
 -10   7   0    0.32    0.64   1
  10   7   0    0.38    0.50   1
 -10   7   0    0.25    0.54   1
  10  -7   0    0.85    0.58   1
 -10  -7   0    0.92    0.95   1
  10  -7   0   -0.18    0.60   1
 -10   7  -1    5.31    0.94   1
 -10   7  -1    4.30    0.93   1
  10   7   1    3.98    0.82   1
 -10   7  -1    3.77    0.85   1
  10   7   1    3.26    0.74   1
 -10  -7  -1    4.31    1.77   1
  10  -7   1    4.47    0.89   1
  10  -7   1    4.49    0.96   1
  10   7   2    4.00    0.83   1
 -10   7  -2    2.53    0.83   1
 -10   7  -2    2.84    0.78   1
  10   7   2    4.55    0.81   1
 -10   7  -2    3.23    0.91   1
  10  -7   2    5.63    1.05   1
  10  -7   2    3.79    0.85   1
 -10   7  -3    0.98    0.65   1
 -10   7  -3    0.75    0.76   1
  10   7   3    0.23    0.53   1
  10   7   3    0.82    0.60   1
  10  -7   3    0.27    0.77   1
  10  -7   3    0.33    0.58   1
  10   7   4   13.71    1.46   1
 -10   7  -4   11.42    1.55   1
  10   7   4   15.97    1.59   1
 -10   7  -4   13.51    1.57   1
  10  -7   4   13.62    1.69   1
  10  -7   4   11.29    1.44   1
  10   7   5    1.03    0.90   1
 -10   7  -5    2.19    1.10   1
  10   7   5    1.24    0.81   1
  10  -7   5    2.01    0.99   1
  10  -7   5    0.00    0.83   1
 -10   8   9    5.82    1.26   1
 -10   8   9    7.76    1.16   1
  10  -8  -9    5.15    1.17   1
 -10  -8   9    7.55    1.28   1
 -10  -8   9    5.99    1.75   1
  10   8  -8   -0.20    0.65   1
 -10   8   8    0.78    0.73   1
 -10   8   8    0.48    0.61   1
  10   8  -8   -0.33    0.95   1
  10   8  -8   -0.02    0.54   1
  10  -8  -8    0.61    0.66   1
 -10  -8   8    0.84    0.77   1
 -10  -8   8   -0.21    1.21   1
 -10   8   7   17.98    1.67   1
  10   8  -7   10.37    1.98   1
  10   8  -7   19.55    1.62   1
 -10   8   7   20.37    1.68   1
  10   8  -7   21.10    1.75   1
  10  -8  -7   22.30    1.74   1
 -10  -8   7   15.82    2.32   1
 -10  -8   7   18.41    1.67   1
 -10   8   6    0.86    0.65   1
 -10   8   6    0.80    0.60   1
  10   8  -6   -0.24    0.55   1
  10   8  -6   -0.27    0.93   1
  10   8  -6   -0.12    0.51   1
 -10  -8   6   -0.33    0.98   1
  10  -8  -6    0.19    0.59   1
  10   8  -5    5.66    0.88   1
  10   8  -5    6.80    1.03   1
 -10   8   5    4.87    0.92   1
 -10   8   5    7.12    1.08   1
 -10  -8   5    8.35    1.73   1
  10  -8  -5    5.97    1.02   1
  10   8  -4    3.78    0.79   1
 -10   8   4    4.13    0.88   1
  10   8  -4    4.11    0.76   1
 -10   8   4    4.33    0.88   1
 -10  -8   4    4.67    1.51   1
  10  -8  -4    4.35    0.92   1
  10  -8  -4    3.89    0.89   1
 -10   8   3   -0.16    0.57   1
 -10   8   3   -0.02    0.60   1
  10   8  -3    0.49    0.53   1
  10   8  -3    0.42    0.48   1
 -10   8   3    0.56    0.64   1
 -10  -8   3   -0.21    0.94   1
  10  -8  -3    0.31    0.63   1
  10  -8  -3    0.15    0.58   1
  10   8  -2   25.88    1.87   1
 -10   8   2   26.83    2.03   1
 -10   8   2   27.27    2.04   1
 -10   8   2   27.01    1.96   1
  10   8  -2   25.00    1.82   1
  10  -8  -2   23.52    1.95   1
  10  -8  -2   22.78    1.98   1
 -10  -8   2   23.71    2.75   1
 -10   8   1    0.45    0.60   1
 -10   8   1   -0.09    0.61   1
 -10   8   1    0.30    0.57   1
  10   8  -1   -0.41    0.48   1
  10   8  -1    0.29    0.49   1
  10  -8  -1    0.64    0.64   1
  10  -8  -1   -0.33    0.62   1
 -10  -8   1    0.82    0.89   1
 -10   8   0   16.52    1.59   1
 -10   8   0   14.21    1.61   1
  10   8   0   16.49    1.40   1
 -10   8   0   17.91    1.76   1
  10   8   0   16.33    1.45   1
  10  -8   0   16.72    1.66   1
 -10  -8   0   18.41    2.09   1
  10  -8   0   14.33    1.65   1
 -10   8  -1    0.67    0.68   1
  10   8   1    1.63    0.60   1
 -10   8  -1    0.94    0.62   1
  10   8   1    0.82    0.58   1
 -10   8  -1    2.56    0.78   1
  10  -8   1   -0.03    0.71   1
  10  -8   1    1.28    0.67   1
  10   8   2    3.55    0.76   1
 -10   8  -2    2.96    0.89   1
 -10   8  -2    2.99    0.86   1
  10   8   2    2.46    0.73   1
 -10   8  -2    3.22    0.85   1
  10  -8   2    3.08    0.96   1
  10  -8   2    3.84    0.91   1
 -10   8  -3   12.84    1.50   1
  10   8   3    8.84    1.15   1
  10   8   3    8.86    1.16   1
 -10   8  -3    9.11    1.35   1
  10  -8   3   10.83    1.36   1
  10  -8   3   10.77    1.49   1
  10   8   4    0.19    0.77   1
 -10   8  -4    1.16    0.97   1
  10   8   4    1.22    0.70   1
  10  -8   4    1.29    1.02   1
  10  -8   4    0.55    0.94   1
 -10   9   7    0.70    0.62   1
  10   9  -7    0.59    0.75   1
 -10   9   7    0.14    0.66   1
  10   9  -7    1.31    0.66   1
 -10  -9   7   -0.82    1.12   1
  10  -9  -7    0.43    0.83   1
 -10   9   6    2.11    0.72   1
 -10   9   6    0.16    0.61   1
  10   9  -6    0.53    0.57   1
  10   9  -6    1.51    0.70   1
 -10  -9   6    1.75    1.19   1
  10  -9  -6    0.86    0.74   1
  10   9  -5   20.89    1.75   1
  10   9  -5   24.99    1.74   1
 -10   9   5   21.15    1.77   1
 -10   9   5   20.27    1.80   1
 -10  -9   5   21.02    2.74   1
  10  -9  -5   22.96    1.91   1
 -10   9   4   21.23    1.71   1
  10   9  -4   15.95    1.51   1
 -10   9   4   20.08    1.68   1
  10   9  -4   18.28    1.54   1
 -10  -9   4   19.23    2.53   1
  10  -9  -4   18.58    1.88   1
  10  -9  -4   20.37    1.86   1
  10   9  -3    5.86    0.93   1
 -10   9   3    7.60    1.21   1
 -10   9   3    7.16    1.07   1
 -10   9   3    7.19    1.04   1
  10   9  -3    5.47    0.86   1
 -10  -9   3    4.36    1.52   1
  10  -9  -3    6.49    1.10   1
  10  -9  -3    6.73    1.11   1
 -10   9   2    4.93    0.96   1
 -10   9   2    5.12    1.02   1
  10   9  -2    4.14    0.78   1
  10   9  -2    4.90    0.82   1
 -10   9   2    7.36    1.07   1
 -10  -9   2    5.06    1.41   1
  10  -9  -2    4.99    1.05   1
  10  -9  -2    7.00    1.11   1
  10   9  -1   -0.38    0.41   1
 -10   9   1    0.12    0.66   1
 -10   9   1    0.13    0.55   1
 -10   9   1    0.89    0.65   1
  10  -9  -1   -0.16    0.64   1
 -10  -9   1    0.22    0.88   1
  10  -9  -1   -0.83    0.60   1
 -10   9   0    9.43    1.27   1
  10   9   0   12.69    1.27   1
 -10   9   0   11.41    1.43   1
 -10   9   0   13.82    1.57   1
  10  -9   0   11.38    1.46   1
  10  -9   0   12.58    1.46   1
 -10   9  -1   14.47    1.53   1
 -10   9  -1   12.69    1.51   1
 -10   9  -1   19.34    1.84   1
  10   9   1   12.61    1.32   1
  10  -9   1   16.15    1.64   1
  10  -9   1   12.67    1.62   1
 -10   9  -2    8.75    1.31   1
  10   9   2    7.50    1.00   1
 -10   9  -2    6.92    1.12   1
  10  -9   2    5.90    1.24   1
  10  -9   2    7.71    1.30   1
 -10  10   5    2.07    0.75   1
  10  10  -5    2.41    0.71   1
 -10  10   5    2.03    0.86   1
 -10 -10   5    1.31    1.34   1
  10 -10  -5    2.39    1.06   1
 -10  10   4    0.02    0.57   1
 -10  10   4   -0.40    0.62   1
  10  10  -4   -0.28    0.53   1
 -10 -10   4   -1.07    1.06   1
  10 -10  -4    0.44    0.81   1
  10 -10  -4   -0.16    0.81   1
 -10  10   3    4.66    0.90   1
  10  10  -3    4.54    0.81   1
 -10  10   3    4.84    0.98   1
  10 -10  -3    3.49    1.02   1
  10 -10  -3    5.62    1.19   1
 -10 -10   3    6.86    1.62   1
  10  10  -2   32.13    2.11   1
 -10  10   2   29.98    2.20   1
 -10  10   2   30.29    2.28   1
  10 -10  -2   31.92    2.49   1
  10 -10  -2   28.80    2.40   1
  10  10  -1    0.26    0.56   1
 -10  10   1    2.25    0.75   1
 -10  10   1    0.69    0.76   1
 -10 -10   1    1.73    1.07   1
  10 -10  -1    1.39    0.93   1
  10 -10  -1    2.87    0.95   1
  10  10   0   11.87    1.24   1
 -10  10   0   11.86    1.47   1
  10 -10   0   10.52    1.51   1
  10 -10   0    9.96    1.47   1
 -11   0  12    1.13    0.95   1
  11   0 -12    0.07    0.88   1
 -11   0  12   -0.65    0.77   1
 -11   0  11   -1.14    0.78   1
  11   0 -11   -0.44    0.76   1
 -11   0  11   -0.33    0.65   1
  11   0 -11   -0.59    0.64   1
  11   0 -10   -0.78    0.68   1
  11   0 -10    0.64    0.71   1
 -11   0  10    0.17    0.92   1
 -11   0  10   -0.17    0.65   1
 -11   0  10    0.18    0.75   1
 -11   0   9    1.53    0.94   1
  11   0  -9   -0.10    0.78   1
 -11   0   9   -0.66    0.74   1
  11   0  -9   -0.23    0.57   1
 -11   0   9    0.91    0.73   1
  11   0  -8    0.67    0.80   1
 -11   0   8    0.52    0.63   1
  11   0  -8    0.38    0.69   1
 -11   0   8   -0.15    0.76   1
 -11   0   8   -0.64    0.78   1
 -11   0   7   -0.45    0.84   1
 -11   0   7    0.17    0.55   1
  11   0  -7   -0.16    0.64   1
  11   0  -7   -0.20    0.54   1
  11   0  -6   -0.44    0.54   1
 -11   0   6    0.24    0.60   1
  11   0  -6    0.21    0.54   1
 -11   0   6   -0.41    0.67   1
 -11   0   5    0.06    0.67   1
  11   0  -5    0.09    0.57   1
 -11   0   5    0.23    0.52   1
  11   0  -5    0.04    0.52   1
  11   0  -4    0.56    0.53   1
 -11   0   4    0.53    0.54   1
  11   0  -4   -0.14    0.49   1
 -11   0   4   -0.15    0.67   1
 -11   0   3    0.15    0.51   1
  11   0  -3    0.20    0.37   1
 -11   0   3   -0.84    0.65   1
  11   0  -3   -0.20    0.49   1
  11   0  -2    0.33    0.39   1
  11   0  -2   -0.50    0.50   1
 -11   0   2   -0.01    0.47   1
 -11   0   2    0.13    0.77   1
  11   0  -1   -0.26    0.50   1
 -11   0   1    0.13    0.46   1
 -11   0   1   -1.03    0.64   1
  11   0  -1   -0.50    0.45   1
  11   0   0    0.46    0.61   1
 -11   0   0   -0.09    0.55   1
 -11   0   0    0.14    0.73   1
  11   0   0   -0.21    0.48   1
 -11   0  -1    0.66    0.76   1
  11   0   1   -0.50    0.51   1
 -11   0  -1    0.23    0.52   1
  11   0   1    0.09    0.54   1
  11   0   2   -0.10    0.64   1
 -11   0  -2    0.28    0.67   1
  11   0   2   -0.06    0.55   1
 -11   0  -2   -0.50    0.47   1
 -11   0  -3   -0.45    0.51   1
 -11   0  -3   -0.54    0.60   1
  11   0   3   -0.09    0.69   1
  11   0   3    0.48    0.62   1
 -11   0  -4    0.47    0.69   1
  11   0   4   -1.34    0.77   1
  11   0   4   -0.20    0.62   1
  11   0   5   -0.48    0.68   1
  11   0   5    0.34    0.89   1
  11   0   6   -1.03    0.82   1
  11   0   6    2.09    0.99   1
 -11   1  12   -0.91    0.87   1
 -11   1  12   -1.72    0.80   1
 -11  -1  12    1.44    1.01   1
 -11  -1  12    1.08    0.95   1
  11   1 -11   -0.60    0.71   1
 -11   1  11    0.40    0.76   1
 -11   1  11    0.50    0.89   1
  11   1 -11    0.55    0.86   1
 -11  -1  11   -0.86    0.77   1
  11  -1 -11    0.42    0.69   1
  11  -1 -11   -0.13    0.85   1
 -11  -1  11    0.97    0.77   1
  11   1 -10    0.98    0.78   1
 -11   1  10    1.15    0.79   1
 -11   1  10   -1.05    0.81   1
 -11   1  10    1.49    0.84   1
  11   1 -10    2.02    1.00   1
  11  -1 -10    2.49    0.86   1
 -11  -1  10    1.88    0.98   1
  11  -1 -10    2.07    0.97   1
 -11  -1  10    1.00    0.78   1
 -11  -1  10    2.22    0.96   1
  11   1  -9   13.32    1.60   1
 -11   1   9   12.11    1.55   1
  11   1  -9    9.72    1.68   1
 -11   1   9   12.59    1.62   1
 -11  -1   9   11.25    1.43   1
  11  -1  -9   10.85    1.69   1
 -11  -1   9   13.66    1.59   1
 -11  -1   9   11.42    1.62   1
  11  -1  -9   13.09    1.56   1
 -11   1   8   -0.50    0.74   1
  11   1  -8   -0.36    0.71   1
 -11   1   8    1.01    0.77   1
  11   1  -8   -0.18    0.51   1
  11  -1  -8   -0.50    0.62   1
  11  -1  -8    0.22    0.59   1
 -11  -1   8    0.53    0.59   1
 -11  -1   8    0.29    0.72   1
 -11  -1   8    0.40    0.90   1
  11   1  -7    9.17    1.27   1
  11   1  -7    9.45    1.42   1
 -11   1   7   10.56    1.48   1
 -11   1   7    9.99    1.28   1
  11  -1  -7    9.58    1.45   1
 -11  -1   7    7.51    1.22   1
  11  -1  -7    7.61    1.18   1
 -11  -1   7    9.22    1.19   1
 -11  -1   7    9.14    1.45   1
  11   1  -6    3.55    0.92   1
 -11   1   6    3.71    1.03   1
  11   1  -6    3.59    0.87   1
 -11   1   6    1.92    0.70   1
  11  -1  -6    2.98    0.87   1
 -11  -1   6    2.93    0.74   1
  11  -1  -6    2.85    0.76   1
 -11  -1   6    2.66    0.96   1
 -11  -1   6    2.61    0.86   1
 -11   1   5    1.21    0.61   1
 -11   1   5    1.22    0.84   1
  11   1  -5    1.27    0.62   1
  11   1  -5    1.83    0.67   1
 -11  -1   5    0.87    0.56   1
  11  -1  -5    1.66    0.69   1
 -11  -1   5    0.32    0.57   1
 -11  -1   5    1.24    0.86   1
  11  -1  -5    1.73    0.70   1
 -11   1   4    8.34    1.08   1
  11   1  -4    7.27    1.08   1
  11   1  -4    9.71    1.16   1
 -11   1   4   10.28    1.42   1
 -11  -1   4    7.87    1.30   1
  11  -1  -4    6.92    1.04   1
  11  -1  -4    8.83    0.89   1
 -11  -1   4    8.61    1.08   1
 -11  -1   4    6.23    0.94   1
 -11   1   3    0.24    0.78   1
  11   1  -3    0.14    0.40   1
  11   1  -3    0.45    0.50   1
  11   1  -3    0.13    0.45   1
  11   1  -3   -0.21    0.47   1
 -11   1   3   -0.32    0.47   1
  11  -1  -3   -0.14    0.39   1
 -11  -1   3   -0.21    0.43   1
  11  -1  -3    0.01    0.45   1
 -11  -1   3    0.21    0.69   1
  11   1  -2   26.96    1.75   1
 -11   1   2   24.64    2.22   1
  11   1  -2   27.55    1.83   1
  11   1  -2   29.02    2.01   1
 -11   1   2   25.75    1.95   1
  11  -1  -2   23.18    1.76   1
 -11  -1   2   23.26    2.19   1
  11  -1  -2   26.66    1.97   1
 -11  -1   2   31.84    1.99   1
  11   1  -1   11.10    1.12   1
 -11   1   1    7.57    1.10   1
  11   1  -1   11.35    1.29   1
  11   1  -1   10.24    1.04   1
 -11  -1   1    9.99    1.17   1
  11  -1  -1    9.37    1.22   1
 -11  -1   1    8.60    1.37   1
  11  -1  -1   10.35    1.10   1
  11   1   0   -0.14    0.53   1
  11   1   0    0.03    0.45   1
 -11   1   0   -0.06    0.50   1
  11   1   0   -0.82    0.41   1
 -11  -1   0    0.50    0.54   1
  11  -1   0    0.14    0.54   1
 -11  -1   0   -0.43    0.65   1
  11  -1   0   -0.75    0.48   1
 -11   1  -1    0.72    0.60   1
  11   1   1    0.54    0.62   1
  11   1   1    0.88    0.62   1
 -11  -1  -1    1.13    0.77   1
  11  -1   1    0.37    0.60   1
 -11  -1  -1    1.12    0.58   1
  11  -1   1    1.33    0.69   1
 -11   1  -2   -0.64    0.67   1
  11   1   2    1.54    0.79   1
  11   1   2    1.24    0.72   1
 -11   1  -2    0.41    0.60   1
  11  -1   2    1.22    0.65   1
 -11  -1  -2    1.87    0.78   1
  11  -1   2    1.44    0.75   1
 -11  -1  -2    2.54    0.75   1
  11   1   3   21.04    1.87   1
 -11   1  -3   20.74    1.83   1
 -11   1  -3   20.31    1.97   1
  11   1   3   26.26    2.03   1
  11  -1   3   22.21    1.95   1
  11  -1   3   21.89    2.08   1
 -11   1  -4    1.77    0.77   1
  11   1   4    1.15    0.98   1
  11   1   4    2.93    0.88   1
  11  -1   4    2.99    0.89   1
  11  -1   4    2.83    1.06   1
 -11   1  -5    2.50    0.88   1
  11   1   5    2.14    0.93   1
  11   1   5    2.26    1.09   1
  11  -1   5    2.27    0.92   1
  11  -1   5    0.80    0.91   1
 -11   1  -6    1.15    0.89   1
  11   1   6   -0.60    0.77   1
  11   1   6   -1.28    0.87   1
  11  -1   6    0.85    0.84   1
  11  -1   6    1.30    1.07   1
 -11   2  12   10.48    1.70   1
 -11  -2  12    9.67    1.58   1
 -11   2  11   10.66    1.64   1
 -11   2  11   10.87    1.67   1
  11   2 -11   15.57    1.98   1
  11   2 -11   13.39    1.74   1
 -11  -2  11   14.66    1.72   1
  11  -2 -11   14.96    2.05   1
 -11  -2  11   13.91    1.93   1
  11   2 -10    3.05    1.20   1
  11   2 -10    3.36    1.01   1
 -11   2  10    4.44    1.09   1
  11  -2 -10    2.84    1.08   1
 -11  -2  10    4.00    1.24   1
  11  -2 -10    3.83    0.93   1
 -11  -2  10    3.81    1.02   1
  11   2  -9    7.15    1.46   1
  11   2  -9    9.20    1.35   1
 -11   2   9    7.38    1.28   1
 -11   2   9    7.81    1.28   1
 -11  -2   9   12.11    1.73   1
  11  -2  -9    8.28    1.48   1
  11  -2  -9    8.00    1.24   1
 -11  -2   9    7.86    1.30   1
 -11   2   8    0.79    0.72   1
  11   2  -8    1.03    0.69   1
  11   2  -8    2.18    1.02   1
 -11   2   8    0.10    0.76   1
  11  -2  -8   -0.24    0.67   1
 -11  -2   8    1.18    1.00   1
  11  -2  -8   -0.08    0.52   1
 -11  -2   8    0.26    0.58   1
 -11  -2   8    0.70    0.73   1
  11   2  -7   22.32    2.10   1
 -11   2   7   22.87    1.91   1
 -11   2   7   23.30    2.12   1
  11   2  -7   23.58    1.98   1
  11  -2  -7   23.96    1.88   1
 -11  -2   7   20.82    1.85   1
 -11  -2   7   23.44    2.20   1
  11  -2  -7   24.17    2.09   1
 -11  -2   7   23.16    1.82   1
 -11   2   6   26.89    1.95   1
  11   2  -6   22.39    1.97   1
  11   2  -6   23.10    1.87   1
 -11   2   6   23.71    2.17   1
 -11  -2   6   24.93    2.20   1
 -11  -2   6   20.14    1.74   1
  11  -2  -6   27.10    1.90   1
 -11  -2   6   20.85    1.79   1
  11  -2  -6   27.43    2.07   1
  11   2  -5   23.33    1.68   1
  11   2  -5   26.17    1.90   1
  11   2  -5   24.50    1.90   1
 -11   2   5   22.58    2.08   1
 -11   2   5   23.59    1.85   1
 -11  -2   5   21.11    1.69   1
  11  -2  -5   24.89    1.84   1
 -11  -2   5   23.80    1.76   1
  11  -2  -5   23.21    1.58   1
 -11  -2   5   22.17    2.10   1
  11   2  -4   52.65    3.24   1
  11   2  -4   51.30    3.18   1
 -11   2   4   49.73    3.46   1
  11   2  -4   59.06    3.15   1
 -11   2   4   52.07    3.24   1
 -11  -2   4   51.36    3.53   1
  11  -2  -4   49.96    2.97   1
 -11  -2   4   53.34    3.16   1
  11  -2  -4   52.59    3.25   1
  11   2  -3    2.21    0.62   1
  11   2  -3    3.05    0.64   1
 -11   2   3    2.97    0.77   1
  11   2  -3    4.69    0.88   1
  11  -2  -3    4.51    0.84   1
 -11  -2   3    4.27    1.04   1
  11  -2  -3    3.17    0.66   1
 -11  -2   3    3.05    0.73   1
  11   2  -2    8.48    0.90   1
  11   2  -2    8.16    0.99   1
 -11   2   2    8.78    1.15   1
  11   2  -2    6.18    1.01   1
 -11  -2   2    8.07    1.38   1
 -11  -2   2    7.34    0.99   1
  11  -2  -2    9.54    1.05   1
  11  -2  -2    7.83    1.10   1
  11   2  -1    5.22    0.94   1
 -11   2   1    6.46    1.04   1
  11   2  -1    5.79    0.80   1
  11   2  -1    6.83    0.92   1
 -11  -2   1    6.81    0.95   1
  11  -2  -1    6.49    1.02   1
  11  -2  -1    6.51    0.92   1
 -11  -2   1    6.24    1.21   1
  11   2   0   30.30    2.14   1
  11   2   0   31.63    2.32   1
 -11   2   0   35.72    2.38   1
  11   2   0   35.76    2.23   1
  11  -2   0   34.87    2.38   1
 -11  -2   0   33.50    2.42   1
  11  -2   0   34.33    2.25   1
 -11  -2   0   31.57    2.52   1
  11   2   1   65.73    3.76   1
 -11   2  -1   63.15    3.86   1
  11   2   1   61.67    3.86   1
  11   2   1   64.74    3.76   1
  11  -2   1   62.53    3.87   1
  11  -2   1   68.09    3.83   1
 -11  -2  -1   65.31    4.01   1
 -11   2  -2    0.40    0.58   1
  11   2   2    1.55    0.69   1
  11   2   2    1.46    0.63   1
  11  -2   2    0.48    0.61   1
 -11  -2  -2    1.40    0.75   1
  11  -2   2    1.70    0.80   1
  11   2   3    2.23    0.85   1
 -11   2  -3    1.53    0.80   1
  11  -2   3    1.59    0.88   1
  11  -2   3    1.63    0.74   1
  11   2   4    1.13    0.70   1
 -11   2  -4    0.68    0.74   1
  11  -2   4    0.52    0.84   1
  11  -2   4   -0.46    0.53   1
  11   2   5   12.00    1.61   1
 -11   2  -5    8.97    1.52   1
  11  -2   5   12.66    1.66   1
  11  -2   5    8.22    1.50   1
 -11   2  -6   26.43    2.68   1
  11   2   6   24.93    2.64   1
  11  -2   6   25.58    2.35   1
  11  -2   6   23.46    2.44   1
 -11   3  11   -0.14    0.76   1
  11   3 -11    0.16    0.69   1
 -11  -3  11   -0.38    0.76   1
 -11  -3  11   -0.31    1.00   1
  11   3 -10    0.63    0.88   1
 -11   3  10    0.78    0.76   1
  11   3 -10    1.07    0.79   1
 -11  -3  10    0.56    0.93   1
  11  -3 -10    2.37    1.01   1
 -11  -3  10    2.11    0.91   1
  11   3  -9   43.98    2.96   1
  11   3  -9   34.53    3.08   1
 -11   3   9   46.10    3.01   1
 -11   3   9   43.72    3.06   1
 -11  -3   9   41.72    2.96   1
 -11  -3   9   38.98    3.21   1
  11  -3  -9   41.52    3.16   1
  11   3  -8    1.74    0.78   1
  11   3  -8    2.96    1.09   1
 -11   3   8    1.70    0.79   1
 -11   3   8    4.31    1.09   1
  11  -3  -8    2.53    0.87   1
 -11  -3   8    3.53    1.17   1
 -11  -3   8    3.65    0.95   1
  11   3  -7   35.24    2.63   1
 -11   3   7   28.31    2.52   1
  11   3  -7   31.00    2.32   1
 -11   3   7   34.22    2.40   1
  11  -3  -7   33.70    2.30   1
 -11  -3   7   31.64    2.32   1
 -11  -3   7   32.78    2.73   1
  11   3  -6    6.38    1.15   1
  11   3  -6    6.49    0.91   1
  11   3  -6    6.69    1.01   1
 -11   3   6    7.01    1.07   1
 -11   3   6    5.13    1.17   1
 -11  -3   6    3.77    1.15   1
  11  -3  -6    5.52    0.92   1
  11  -3  -6    7.39    1.20   1
 -11  -3   6    6.85    1.01   1
  11   3  -5    0.88    0.56   1
 -11   3   5    1.31    0.64   1
  11   3  -5    0.99    0.64   1
  11   3  -5    0.67    0.53   1
  11  -3  -5    0.99    0.49   1
  11  -3  -5    0.40    0.52   1
 -11  -3   5   -0.07    0.73   1
 -11  -3   5    1.64    0.58   1
  11   3  -4   32.29    2.25   1
 -11   3   4   28.29    2.24   1
  11   3  -4   32.97    2.18   1
  11   3  -4   32.99    2.28   1
 -11  -3   4   33.27    2.65   1
  11  -3  -4   36.76    2.34   1
  11  -3  -4   34.79    2.11   1
  11   3  -3    0.31    0.50   1
  11   3  -3    0.50    0.50   1
  11   3  -3    0.64    0.51   1
 -11   3   3    0.12    0.55   1
  11  -3  -3    0.39    0.52   1
 -11  -3   3    0.72    0.83   1
  11  -3  -3   -0.15    0.46   1
 -11   3   2  105.15    5.64   1
  11   3  -2  102.41    5.59   1
  11   3  -2   96.77    5.43   1
  11  -3  -2   97.60    5.54   1
 -11  -3   2  100.63    5.92   1
  11  -3  -2   99.76    5.43   1
  11   3  -1   19.88    1.59   1
  11   3  -1   18.11    1.48   1
 -11   3   1   23.67    1.82   1
  11   3  -1   21.37    1.72   1
  11  -3  -1   21.26    1.77   1
  11  -3  -1   24.94    1.71   1
 -11  -3   1   22.68    2.04   1
 -11   3   0    3.54    0.85   1
  11   3   0    3.58    0.75   1
  11   3   0    4.75    0.77   1
  11   3   0    2.63    0.75   1
 -11  -3   0    3.68    0.96   1
  11  -3   0    3.19    0.79   1
  11  -3   0    2.57    0.74   1
  11   3   1    1.66    0.61   1
 -11   3  -1    2.22    0.75   1
  11   3   1    2.51    0.73   1
 -11  -3  -1    1.47    0.76   1
  11  -3   1    1.69    0.73   1
  11  -3   1    1.97    0.70   1
  11   3   2   -0.14    0.50   1
 -11   3  -2    0.11    0.67   1
  11   3   2   -0.69    0.47   1
  11  -3   2    0.66    0.60   1
 -11  -3  -2    0.82    0.67   1
  11  -3   2    0.56    0.70   1
  11   3   3   59.95    3.64   1
 -11   3  -3   62.98    3.81   1
  11   3   3   55.84    3.72   1
  11  -3   3   59.81    3.77   1
  11  -3   3   60.57    3.75   1
  11   3   4   14.89    1.68   1
 -11   3  -4   15.46    1.79   1
  11  -3   4   11.72    1.56   1
  11  -3   4   12.86    1.72   1
 -11   3  -5    8.50    1.46   1
  11   3   5    8.28    1.37   1
  11  -3   5    5.55    1.33   1
  11  -3   5    9.76    1.50   1
  11   3   6    2.13    1.11   1
 -11   3  -6    2.39    1.12   1
  11  -3   6    2.14    1.14   1
  11  -3   6    1.42    0.86   1
 -11   4  11   14.89    1.84   1
  11   4 -11   10.79    1.62   1
 -11  -4  11    9.22    1.81   1
 -11  -4  11   10.79    1.52   1
  11   4 -10    9.14    1.63   1
  11   4 -10    8.62    1.34   1
 -11   4  10    8.02    1.33   1
 -11  -4  10    6.46    1.53   1
 -11  -4  10    9.84    1.40   1
 -11   4   9    7.96    1.29   1
  11   4  -9    5.11    1.13   1
  11   4  -9    8.33    1.55   1
 -11   4   9    5.84    1.16   1
 -11  -4   9    8.85    1.33   1
 -11  -4   9    6.15    1.50   1
  11   4  -8    2.30    0.86   1
 -11   4   8    1.36    1.00   1
  11   4  -8    2.58    1.11   1
 -11   4   8    0.57    0.68   1
 -11  -4   8    1.50    1.08   1
 -11  -4   8    2.38    0.85   1
 -11   4   7    6.24    1.14   1
 -11   4   7    9.53    1.53   1
  11   4  -7    8.43    1.44   1
  11   4  -7    7.91    1.14   1
  11   4  -7    7.34    1.05   1
 -11  -4   7    6.93    1.45   1
 -11  -4   7    7.10    1.08   1
  11   4  -6   24.86    2.12   1
  11   4  -6   25.08    1.87   1
 -11   4   6   23.21    1.96   1
  11   4  -6   24.92    1.95   1
 -11  -4   6   26.78    1.89   1
  11  -4  -6   25.66    1.77   1
 -11  -4   6   29.67    2.60   1
  11   4  -5   14.50    1.43   1
 -11   4   5   15.44    1.67   1
  11   4  -5   18.14    1.58   1
  11   4  -5   17.70    1.63   1
 -11   4   5   16.02    1.65   1
  11  -4  -5   15.62    1.35   1
 -11  -4   5   15.98    1.34   1
 -11  -4   5   17.94    2.09   1
 -11   4   4   41.91    2.69   1
 -11   4   4   43.34    2.61   1
  11   4  -4   38.98    2.62   1
  11   4  -4   36.39    2.56   1
  11   4  -4   37.34    2.48   1
 -11  -4   4   44.12    3.23   1
  11  -4  -4   38.62    2.50   1
  11  -4  -4   42.23    2.62   1
 -11   4   3    0.30    0.35   1
 -11   4   3    0.03    0.54   1
 -11   4   3    0.40    0.50   1
  11   4  -3    0.50    0.49   1
  11   4  -3    0.65    0.56   1
  11  -4  -3    1.35    0.60   1
  11  -4  -3    0.90    0.57   1
 -11  -4   3   -0.03    0.79   1
  11   4  -2    0.40    0.58   1
 -11   4   2    0.45    0.60   1
 -11   4   2    1.10    0.43   1
  11   4  -2    0.10    0.51   1
  11  -4  -2    0.81    0.57   1
  11  -4  -2    0.33    0.48   1
 -11  -4   2   -0.01    0.87   1
  11   4  -1   16.89    1.58   1
  11   4  -1   20.09    1.54   1
 -11   4   1   18.08    1.36   1
 -11   4   1   16.95    1.72   1
  11  -4  -1   19.06    1.61   1
 -11  -4   1   17.04    2.02   1
  11  -4  -1   14.92    1.57   1
  11   4   0   15.12    1.43   1
  11   4   0   14.44    1.51   1
 -11   4   0   14.64    1.31   1
 -11   4   0   14.29    1.59   1
 -11  -4   0   13.02    1.65   1
  11  -4   0   12.97    1.44   1
  11  -4   0   11.90    1.38   1
 -11   4  -1   51.98    3.23   1
  11   4   1   48.57    3.17   1
  11   4   1   48.01    3.04   1
  11  -4   1   51.47    3.19   1
 -11  -4  -1   50.03    3.36   1
  11  -4   1   48.05    3.16   1
  11   4   2    0.29    0.65   1
 -11   4  -2    1.15    0.69   1
  11   4   2    0.56    0.59   1
  11  -4   2    0.65    0.63   1
  11  -4   2    0.03    0.68   1
  11   4   3    4.68    0.93   1
  11   4   3    5.11    1.00   1
 -11   4  -3    3.20    0.93   1
  11  -4   3    4.06    0.96   1
  11  -4   3    3.53    1.00   1
  11   4   4    1.95    0.81   1
  11   4   4    4.15    0.95   1
 -11   4  -4    3.99    1.12   1
  11  -4   4    3.92    1.08   1
 -11   4  -5    4.52    1.17   1
  11   4   5    3.53    1.05   1
  11  -4   5    2.61    1.08   1
 -11   5  10    3.87    1.02   1
  11   5 -10    1.93    0.89   1
 -11  -5  10    3.55    1.45   1
 -11  -5  10    2.03    0.92   1
  11   5  -9   10.53    1.74   1
  11   5  -9    9.01    1.42   1
 -11   5   9   11.00    1.41   1
 -11  -5   9    9.84    1.84   1
 -11  -5   9    9.17    1.39   1
  11   5  -8    0.53    0.64   1
  11   5  -8    0.29    0.57   1
 -11   5   8    0.74    0.67   1
  11   5  -8    1.16    0.96   1
 -11   5   8   -0.77    0.90   1
 -11  -5   8    0.24    0.72   1
 -11  -5   8   -1.00    1.04   1
 -11   5   7   15.87    2.03   1
 -11   5   7   12.58    1.54   1
  11   5  -7   12.97    1.56   1
  11   5  -7   17.27    1.97   1
  11   5  -7   16.20    1.54   1
 -11  -5   7   14.35    1.51   1
  11  -5  -7   16.28    1.44   1
 -11  -5   7   13.69    2.08   1
  11   5  -6    2.77    0.73   1
  11   5  -6    2.63    0.79   1
  11   5  -6    3.14    1.00   1
 -11   5   6    2.25    0.71   1
 -11   5   6    2.84    0.80   1
 -11  -5   6    2.98    0.76   1
  11  -5  -6    3.31    0.73   1
 -11  -5   6    1.95    1.15   1
 -11   5   5   12.79    1.47   1
  11   5  -5   14.13    1.51   1
 -11   5   5   13.82    1.42   1
  11   5  -5   14.28    1.39   1
  11   5  -5   14.85    1.60   1
 -11  -5   5   12.93    1.95   1
  11  -5  -5   16.10    1.44   1
 -11   5   4    8.09    1.08   1
 -11   5   4    6.67    1.08   1
  11   5  -4    9.04    1.17   1
  11   5  -4    8.80    1.06   1
 -11  -5   4    9.17    1.69   1
  11  -5  -4    8.64    1.05   1
 -11   5   3    2.75    0.76   1
  11   5  -3    4.59    0.86   1
 -11   5   3    3.73    0.87   1
 -11   5   3    4.76    0.83   1
  11   5  -3    4.28    0.80   1
  11  -5  -3    5.97    0.91   1
 -11  -5   3    3.92    1.25   1
 -11   5   2   15.15    1.61   1
  11   5  -2   14.56    1.50   1
 -11   5   2   16.71    1.34   1
 -11   5   2   12.42    1.33   1
  11   5  -2   14.20    1.39   1
  11  -5  -2   13.90    1.41   1
 -11  -5   2   11.78    1.81   1
  11   5  -1    0.17    0.52   1
 -11   5   1    0.43    0.49   1
 -11   5   1    0.06    0.62   1
  11   5  -1   -1.04    0.42   1
 -11   5   1   -0.10    0.51   1
  11  -5  -1    0.59    0.62   1
 -11  -5   1   -0.69    0.79   1
  11   5   0   12.97    1.29   1
 -11   5   0    9.86    1.35   1
  11   5   0   11.61    1.33   1
 -11   5   0   12.55    1.29   1
 -11  -5   0   11.16    1.61   1
  11  -5   0   10.21    1.29   1
  11   5   1    1.49    0.64   1
 -11   5  -1    1.49    0.59   1
 -11   5  -1    2.36    0.78   1
  11   5   1    1.67    0.67   1
  11  -5   1    0.39    0.67   1
 -11  -5  -1    1.57    0.84   1
  11   5   2    3.15    0.79   1
 -11   5  -2    4.23    1.20   1
  11   5   2    3.69    0.90   1
 -11   5  -2    2.85    0.86   1
  11  -5   2    4.20    1.00   1
  11   5   3    7.32    1.10   1
 -11   5  -3    8.18    1.28   1
  11   5   3    5.46    1.06   1
  11  -5   3    8.60    1.28   1
  11   5   4    1.74    0.78   1
  11   5   4    1.93    0.86   1
 -11   5  -4    1.60    0.88   1
  11  -5   4    1.60    0.97   1
 -11   5  -5    9.36    1.62   1
  11   5   5    8.55    1.37   1
  11   5   5    7.53    1.43   1
  11  -5   5    8.99    1.61   1
 -11   6  10    4.53    1.16   1
  11   6 -10    5.57    1.21   1
 -11  -6  10    3.20    1.03   1
 -11  -6  10    3.49    1.61   1
  11   6  -9   -0.91    0.91   1
  11   6  -9    0.06    0.64   1
 -11   6   9   -0.51    0.59   1
  11   6  -9    0.40    1.03   1
 -11  -6   9   -0.20    1.16   1
 -11  -6   9    0.15    0.68   1
  11   6  -8   14.93    2.10   1
 -11   6   8   18.16    1.86   1
 -11   6   8   13.78    1.86   1
  11   6  -8   16.44    1.81   1
  11   6  -8   20.72    1.67   1
 -11  -6   8   17.16    1.76   1
 -11  -6   8   17.31    2.38   1
  11   6  -7    1.04    0.74   1
 -11   6   7    3.13    0.91   1
 -11   6   7    4.25    0.91   1
  11   6  -7    2.68    0.74   1
  11   6  -7    1.54    1.01   1
 -11  -6   7    0.68    0.62   1
 -11  -6   7    0.95    1.16   1
  11  -6  -7    2.80    0.74   1
  11   6  -6    2.52    0.70   1
 -11   6   6    3.05    0.77   1
 -11   6   6    1.95    0.75   1
  11   6  -6    2.88    0.99   1
  11   6  -6    2.11    0.78   1
 -11  -6   6    1.32    1.24   1
  11  -6  -6    3.56    0.78   1
  11   6  -5    1.33    0.66   1
 -11   6   5   -0.17    0.56   1
 -11   6   5    0.97    0.57   1
  11   6  -5    0.72    0.58   1
  11   6  -5    0.44    0.82   1
  11  -6  -5    1.11    0.60   1
 -11  -6   5   -0.74    0.93   1
 -11   6   4   -0.84    0.46   1
  11   6  -4    0.64    0.56   1
 -11   6   4    0.41    0.56   1
  11   6  -4   -0.03    0.48   1
  11  -6  -4    0.03    0.56   1
 -11  -6   4   -0.37    1.05   1
  11   6  -3   27.62    1.95   1
 -11   6   3   29.58    2.06   1
 -11   6   3   27.21    2.07   1
  11   6  -3   25.84    2.02   1
  11  -6  -3   25.64    2.00   1
 -11  -6   3   24.10    2.76   1
  11   6  -2    4.15    0.86   1
  11   6  -2    4.35    0.81   1
 -11   6   2    3.82    0.93   1
 -11   6   2    4.35    0.86   1
 -11   6   2    5.31    0.88   1
  11  -6  -2    4.27    0.91   1
 -11  -6   2    4.57    1.30   1
 -11   6   1   15.23    1.49   1
 -11   6   1   16.16    1.39   1
 -11   6   1   13.42    1.54   1
  11   6  -1   13.72    1.48   1
  11   6  -1   12.64    1.37   1
 -11  -6   1   15.71    2.03   1
  11  -6  -1   15.63    1.60   1
 -11   6   0    2.54    0.79   1
  11   6   0    1.33    0.65   1
 -11   6   0    1.25    0.67   1
  11   6   0    2.36    0.67   1
 -11   6   0    2.15    0.70   1
 -11  -6   0    1.85    1.06   1
  11  -6   0    2.17    0.82   1
  11   6   1    0.43    0.56   1
  11   6   1   -0.18    0.50   1
 -11   6  -1    0.09    0.48   1
 -11   6  -1   -0.09    0.57   1
  11  -6   1    0.83    0.73   1
 -11   6  -2   10.85    1.44   1
 -11   6  -2   10.89    1.31   1
  11   6   2    9.15    1.22   1
  11   6   2   11.64    1.38   1
  11  -6   2   12.23    1.53   1
 -11   6  -3    1.71    0.83   1
  11   6   3    1.33    0.74   1
 -11   6  -3    0.98    0.74   1
  11   6   3    0.55    0.63   1
  11  -6   3   -0.11    0.76   1
 -11   6  -4   11.22    1.62   1
  11   6   4   13.53    1.51   1
  11   6   4   12.10    1.53   1
  11  -6   4   10.66    1.63   1
  11   7  -9    0.83    0.98   1
  11   7  -9    1.33    0.71   1
 -11   7   9    0.60    0.95   1
 -11  -7   9    0.51    1.42   1
 -11  -7   9    0.64    0.76   1
 -11   7   8    0.29    0.59   1
  11   7  -8    0.68    0.65   1
 -11   7   8    0.55    0.68   1
  11   7  -8    0.25    1.03   1
  11   7  -8    0.14    0.63   1
 -11  -7   8   -0.05    0.71   1
  11  -7  -8    0.74    0.65   1
 -11  -7   8    1.40    1.22   1
  11   7  -7    0.54    0.95   1
 -11   7   7    0.06    0.59   1
  11   7  -7    0.22    0.62   1
  11   7  -7   -0.41    0.52   1
 -11   7   7    0.31    0.59   1
 -11  -7   7   -1.30    1.00   1
 -11  -7   7   -0.29    0.65   1
  11  -7  -7    0.53    0.65   1
  11   7  -6   16.33    1.65   1
 -11   7   6   15.11    1.65   1
  11   7  -6   15.52    1.52   1
 -11   7   6   17.28    1.66   1
  11   7  -6   15.23    1.96   1
 -11  -7   6   15.53    2.31   1
  11  -7  -6   14.73    1.54   1
  11   7  -5   19.60    1.68   1
  11   7  -5   17.83    1.53   1
 -11   7   5   18.47    1.69   1
 -11   7   5   19.20    1.66   1
 -11  -7   5   12.31    2.23   1
  11  -7  -5   15.75    1.62   1
 -11   7   4    0.07    0.59   1
 -11   7   4    0.54    0.60   1
  11   7  -4    0.71    0.57   1
  11   7  -4   -0.22    0.47   1
  11  -7  -4    0.05    0.68   1
 -11  -7   4    0.77    1.21   1
  11  -7  -4   -0.07    0.64   1
 -11   7   3    2.94    0.88   1
 -11   7   3    3.47    0.86   1
  11   7  -3    2.27    0.72   1
 -11   7   3    1.57    0.66   1
  11   7  -3    2.79    0.70   1
 -11  -7   3    2.33    1.27   1
  11  -7  -3    2.58    0.80   1
  11  -7  -3    4.08    0.90   1
  11   7  -2    3.35    0.82   1
 -11   7   2    5.29    0.97   1
 -11   7   2    2.55    0.78   1
  11   7  -2    4.09    0.81   1
 -11   7   2    4.87    0.89   1
 -11  -7   2    1.53    1.17   1
  11  -7  -2    3.31    0.93   1
  11  -7  -2    4.08    0.83   1
  11   7  -1   17.85    1.52   1
 -11   7   1   16.53    1.62   1
 -11   7   1   17.77    1.58   1
 -11   7   1   18.21    1.67   1
  11   7  -1   19.09    1.61   1
  11  -7  -1   18.28    1.70   1
 -11  -7   1   14.06    2.06   1
  11  -7  -1   17.96    1.78   1
 -11   7   0   17.52    1.75   1
 -11   7   0   15.29    1.61   1
  11   7   0   17.58    1.55   1
 -11   7   0   15.30    1.57   1
  11   7   0   15.09    1.48   1
  11  -7   0   17.37    1.75   1
 -11  -7   0   13.51    1.97   1
  11  -7   0   14.87    1.64   1
  11   7   1    1.34    0.61   1
 -11   7  -1    2.12    0.69   1
 -11   7  -1    1.50    0.80   1
  11   7   1    1.95    0.74   1
  11  -7   1    0.35    1.10   1
  11  -7   1    1.47    0.84   1
  11   7   2   13.69    1.46   1
 -11   7  -2   13.41    1.59   1
  11   7   2   14.54    1.53   1
 -11   7  -2   14.12    1.55   1
  11  -7   2   15.69    1.74   1
 -11   7  -3    4.95    1.15   1
 -11   7  -3    5.37    1.02   1
  11   7   3    6.22    1.10   1
  11   7   3    7.87    1.11   1
  11  -7   3    5.69    1.20   1
  11   8  -8    8.02    1.39   1
  11   8  -8    6.95    1.12   1
 -11   8   8    6.90    1.13   1
 -11   8   8    5.53    1.24   1
  11  -8  -8    7.64    1.25   1
 -11  -8   8    8.88    2.00   1
 -11   8   7    6.78    1.06   1
 -11   8   7    5.90    1.12   1
  11   8  -7    5.28    0.96   1
  11   8  -7    5.34    1.12   1
  11  -8  -7    5.94    1.05   1
 -11  -8   7    6.04    1.70   1
  11   8  -6    0.97    0.61   1
 -11   8   6    1.52    0.76   1
  11   8  -6    1.68    0.72   1
 -11   8   6    1.23    0.66   1
 -11  -8   6    1.59    1.20   1
  11  -8  -6   -0.09    0.67   1
 -11   8   5    1.29    0.70   1
  11   8  -5    0.94    0.65   1
 -11   8   5    1.54    0.74   1
  11   8  -5    2.72    0.70   1
  11  -8  -5    1.21    0.71   1
 -11  -8   5    0.88    1.21   1
  11   8  -4   12.94    1.32   1
 -11   8   4   12.48    1.46   1
  11   8  -4   13.53    1.42   1
 -11   8   4   12.09    1.42   1
 -11   8   4   13.22    1.53   1
  11  -8  -4   14.92    1.54   1
 -11  -8   4    8.81    1.96   1
  11  -8  -4   13.83    1.52   1
 -11   8   3   14.70    1.61   1
 -11   8   3   12.82    1.44   1
  11   8  -3   14.81    1.41   1
  11   8  -3   13.89    1.41   1
 -11   8   3   16.04    1.67   1
  11  -8  -3   14.41    1.61   1
 -11  -8   3   10.57    2.00   1
  11  -8  -3   13.31    1.46   1
 -11   8   2    3.56    0.89   1
  11   8  -2    3.70    0.78   1
  11   8  -2    2.28    0.74   1
 -11   8   2    3.67    0.88   1
 -11   8   2    2.23    0.75   1
 -11  -8   2    1.77    1.22   1
  11  -8  -2    3.37    0.90   1
  11  -8  -2    2.91    0.78   1
  11   8  -1   -0.49    0.53   1
  11   8  -1    0.75    0.55   1
 -11   8   1    0.41    0.61   1
 -11   8   1    1.34    0.72   1
 -11   8   1    1.23    0.63   1
  11  -8  -1   -0.23    0.55   1
 -11  -8   1    1.57    1.10   1
  11  -8  -1    2.94    0.93   1
  11   8   0    6.77    1.02   1
 -11   8   0    8.15    1.14   1
 -11   8   0    6.26    1.13   1
 -11   8   0    5.97    1.15   1
  11   8   0    8.00    1.04   1
  11  -8   0    6.85    1.10   1
  11  -8   0    6.24    1.21   1
 -11   8  -1   10.65    1.41   1
  11   8   1   13.09    1.37   1
  11   8   1   12.66    1.39   1
 -11   8  -1   14.52    1.61   1
 -11   8  -1   12.95    1.58   1
  11  -8   1   14.46    1.52   1
  11  -8   1   15.42    1.69   1
  11   8   2    4.29    0.98   1
 -11   8  -2    4.06    1.05   1
  11   8   2    4.78    0.89   1
  11  -8   2    4.90    1.28   1
  11  -8   2    5.42    1.20   1
  11   9  -6    2.41    0.94   1
  11   9  -6    2.01    0.75   1
 -11   9   6    2.64    0.82   1
 -11   9   6    2.17    0.96   1
 -11  -9   6    5.39    1.65   1
  11  -9  -6    3.83    1.12   1
 -11   9   5    0.51    0.80   1
  11   9  -5    0.00    0.56   1
 -11   9   5    0.06    0.59   1
  11   9  -5    0.75    0.71   1
 -11  -9   5    0.37    1.28   1
  11  -9  -5   -0.80    0.84   1
  11   9  -4    1.98    0.72   1
  11   9  -4    3.31    0.73   1
 -11   9   4    2.33    0.83   1
 -11   9   4    2.89    0.86   1
  11  -9  -4    2.43    0.95   1
 -11  -9   4    2.08    1.29   1
  11  -9  -4    2.46    0.91   1
 -11   9   3    0.77    0.72   1
  11   9  -3    0.33    0.55   1
  11   9  -3   -0.51    0.53   1
 -11   9   3   -0.06    0.58   1
 -11   9   3    1.32    0.76   1
  11  -9  -3   -0.39    0.66   1
 -11  -9   3    1.86    1.21   1
  11  -9  -3   -0.89    0.70   1
 -11   9   2   12.26    1.47   1
  11   9  -2    9.42    1.13   1
  11   9  -2   10.91    1.30   1
 -11   9   2   10.07    1.27   1
 -11   9   2    9.22    1.48   1
 -11  -9   2    9.30    1.77   1
  11  -9  -2   10.14    1.43   1
  11  -9  -2   10.22    1.36   1
  11   9  -1    3.23    0.76   1
 -11   9   1    4.08    1.00   1
 -11   9   1    3.79    0.89   1
  11  -9  -1    3.86    0.94   1
 -11  -9   1    3.86    1.23   1
  11  -9  -1    1.68    0.96   1
  11   9   0    0.36    0.58   1
 -11   9   0   -0.38    0.56   1
 -11   9   0    0.27    0.82   1
  11  -9   0    0.31    0.87   1
  11  -9   0   -0.10    0.74   1
 -12   0  11    1.27    0.92   1
  12   0 -11    2.76    1.00   1
 -12   0  11   -0.06    0.82   1
 -12   0  10    8.12    1.47   1
 -12   0  10    5.37    1.25   1
 -12   0  10    5.14    1.16   1
  12   0 -10    8.76    1.60   1
  12   0 -10   10.20    1.44   1
  12   0  -9    0.40    0.83   1
 -12   0   9   -1.01    0.90   1
 -12   0   9    0.69    0.75   1
 -12   0   9    1.42    0.94   1
  12   0  -9    0.07    0.73   1
  12   0  -8   17.39    1.82   1
 -12   0   8   14.78    1.78   1
  12   0  -8   16.60    1.98   1
 -12   0   8   15.62    1.73   1
 -12   0   8   15.91    1.94   1
 -12   0   7   46.08    3.17   1
 -12   0   7   48.36    3.49   1
  12   0  -7   50.84    3.25   1
 -12   0   7   49.23    3.32   1
  12   0  -7   53.93    3.44   1
  12   0  -6    4.95    1.01   1
 -12   0   6    5.35    1.12   1
  12   0  -6    5.46    1.05   1
 -12   0   6    5.04    0.94   1
 -12   0   6    6.09    1.29   1
  12   0  -5   51.16    3.26   1
  12   0  -5   50.06    3.25   1
 -12   0   5   52.00    3.57   1
 -12   0   5   51.66    3.22   1
 -12   0   4    1.71    0.69   1
 -12   0   4    1.73    0.93   1
  12   0  -4    1.58    0.72   1
  12   0  -3    3.48    0.71   1
 -12   0   3    2.91    1.08   1
  12   0  -3    2.97    0.80   1
 -12   0   3    3.61    0.83   1
 -12   0   2   16.94    1.63   1
 -12   0   2   14.53    1.85   1
  12   0  -2   13.66    1.55   1
  12   0  -2   15.31    1.30   1
  12   0  -1   14.18    1.40   1
  12   0  -1   16.89    1.71   1
 -12   0   1   16.40    1.63   1
 -12   0   1   18.00    2.02   1
 -12   0   0   68.67    4.53   1
  12   0   0   74.48    4.38   1
 -12   0   0   73.87    4.29   1
  12   0   0   73.40    4.17   1
 -12   0  -1    1.56    0.66   1
  12   0   1    1.74    0.75   1
 -12   0  -1    1.41    0.93   1
  12   0   1    1.21    0.74   1
 -12   0  -2    4.93    0.94   1
  12   0   2    4.10    1.02   1
 -12   0  -2    4.68    1.10   1
  12   0   2    3.90    0.95   1
 -12   0  -3    1.39    0.72   1
  12   0   3    1.06    0.73   1
  12   0   3    1.64    0.87   1
  12   0   4    5.04    1.21   1
  12   0   4    6.63    1.28   1
  12   0   5   44.74    3.16   1
  12   0   5   34.23    3.02   1
 -12   1  11   -1.27    0.92   1
 -12   1  11   -0.54    0.67   1
  12   1 -11   -1.06    0.61   1
  12  -1 -11   -1.04    0.61   1
 -12  -1  11   -0.05    0.85   1
 -12  -1  11    0.03    1.26   1
  12   1 -10   20.25    2.19   1
 -12   1  10   18.86    2.20   1
 -12   1  10   20.56    2.26   1
 -12   1  10   21.43    2.22   1
  12   1 -10   23.53    2.63   1
  12  -1 -10   22.91    2.61   1
 -12  -1  10   27.84    2.53   1
  12  -1 -10   25.30    2.11   1
 -12  -1  10   26.96    2.21   1
 -12  -1  10   27.10    2.25   1
 -12   1   9    2.50    1.05   1
  12   1  -9    2.73    1.12   1
 -12   1   9    3.31    0.99   1
  12   1  -9    3.63    0.99   1
 -12   1   9    8.01    1.41   1
  12  -1  -9    2.99    1.07   1
 -12  -1   9    3.63    0.94   1
  12  -1  -9    3.26    0.89   1
 -12  -1   9    3.26    1.16   1
 -12  -1   9    4.36    1.07   1
 -12   1   8   23.60    2.21   1
  12   1  -8   22.39    2.37   1
  12   1  -8   23.10    1.98   1
 -12   1   8   20.64    1.91   1
 -12  -1   8   22.89    2.01   1
 -12  -1   8   21.98    2.35   1
  12  -1  -8   24.21    2.20   1
 -12  -1   8   22.58    1.95   1
  12  -1  -8   20.59    1.88   1
 -12   1   7    5.58    1.03   1
  12   1  -7    6.58    1.23   1
 -12   1   7    6.07    1.30   1
  12   1  -7    5.04    1.02   1
 -12  -1   7    6.00    1.03   1
 -12  -1   7    7.00    1.38   1
 -12  -1   7    6.58    1.15   1
  12  -1  -7    5.30    1.12   1
  12  -1  -7    5.72    1.07   1
  12   1  -6   -0.30    0.59   1
 -12   1   6   -0.38    0.55   1
 -12   1   6   -1.27    0.66   1
  12   1  -6    0.55    0.65   1
 -12  -1   6    0.50    0.67   1
  12  -1  -6   -0.22    0.62   1
  12  -1  -6    0.85    0.61   1
 -12  -1   6   -0.15    0.53   1
 -12  -1   6   -0.05    0.85   1
 -12   1   5   22.35    2.19   1
  12   1  -5   25.81    1.98   1
 -12   1   5   27.90    2.04   1
  12   1  -5   23.03    1.89   1
  12  -1  -5   23.52    1.91   1
 -12  -1   5   23.48    1.91   1
 -12  -1   5   23.02    1.80   1
 -12  -1   5   24.36    2.26   1
  12   1  -4    4.34    0.88   1
 -12   1   4    4.66    0.92   1
  12   1  -4    3.87    0.91   1
 -12   1   4    4.05    1.14   1
 -12  -1   4    2.46    1.06   1
 -12  -1   4    4.17    0.85   1
  12  -1  -4    3.89    0.89   1
 -12   1   3   61.52    3.95   1
  12   1  -3   53.81    3.53   1
 -12   1   3   60.57    3.59   1
  12  -1  -3   59.02    3.32   1
  12  -1  -3   58.64    3.58   1
 -12  -1   3   55.80    3.48   1
 -12  -1   3   56.92    3.88   1
 -12   1   2   30.32    2.15   1
 -12   1   2   29.79    2.50   1
  12   1  -2   26.94    1.86   1
  12   1  -2   28.53    2.15   1
 -12  -1   2   26.91    2.43   1
 -12  -1   2   28.03    2.10   1
  12  -1  -2   28.89    1.95   1
  12  -1  -2   27.40    2.12   1
  12   1  -1    0.28    0.65   1
 -12   1   1    0.67    1.01   1
 -12   1   1    0.34    0.59   1
  12   1  -1    1.02    0.57   1
  12  -1  -1    0.83    0.66   1
 -12  -1   1    1.03    0.83   1
 -12  -1   1    1.24    0.63   1
  12  -1  -1    1.88    0.65   1
  12   1   0    3.60    0.88   1
  12   1   0    3.11    0.80   1
 -12   1   0    1.50    0.97   1
 -12   1   0    5.12    0.97   1
  12  -1   0    4.98    0.91   1
 -12  -1   0    3.64    1.06   1
 -12  -1   0    4.16    0.87   1
  12  -1   0    6.13    1.03   1
  12   1   1    0.46    0.61   1
 -12   1  -1    0.47    0.81   1
 -12   1  -1    0.36    0.56   1
  12   1   1    1.03    0.68   1
 -12  -1  -1   -0.31    0.72   1
  12  -1   1    0.30    0.66   1
  12  -1   1    0.56    0.63   1
 -12  -1  -1    1.13    0.62   1
  12   1   2   41.69    2.87   1
 -12   1  -2   39.34    3.00   1
 -12   1  -2   37.58    2.78   1
  12   1   2   39.85    2.87   1
  12  -1   2   48.06    2.93   1
  12  -1   2   43.10    2.92   1
 -12  -1  -2   45.02    3.00   1
  12   1   3   18.77    1.94   1
 -12   1  -3   21.97    1.86   1
  12   1   3   16.29    1.92   1
 -12   1  -3   19.90    2.76   1
  12  -1   3   21.60    2.08   1
  12  -1   3   20.21    2.05   1
  12   1   4    4.33    1.18   1
 -12   1  -4    3.66    0.99   1
  12   1   4    4.19    1.04   1
  12  -1   4    2.86    0.98   1
  12  -1   4    2.31    1.08   1
  12   1   5    0.55    0.93   1
  12   1   5    1.71    1.25   1
  12  -1   5    0.20    1.06   1
  12  -1   5    0.86    0.93   1
  12   2 -11    1.14    0.84   1
 -12   2  11    0.77    1.03   1
 -12   2  11    1.27    1.02   1
 -12  -2  11    3.09    1.38   1
 -12  -2  11    2.92    1.00   1
 -12   2  10    2.31    1.35   1
  12   2 -10    1.33    0.90   1
 -12   2  10    1.57    0.85   1
  12   2 -10    1.65    1.02   1
  12  -2 -10    4.40    1.19   1
 -12  -2  10    3.83    1.28   1
 -12  -2  10    4.81    1.05   1
 -12   2   9    1.58    0.82   1
  12   2  -9    1.32    0.96   1
 -12   2   9    2.49    1.04   1
  12   2  -9    1.65    0.77   1
  12  -2  -9    1.79    0.83   1
  12  -2  -9    1.52    0.94   1
 -12  -2   9    3.28    1.17   1
 -12  -2   9    1.28    0.85   1
 -12   2   8    1.21    0.96   1
  12   2  -8    0.25    0.78   1
  12   2  -8    2.14    0.79   1
 -12   2   8    0.81    0.72   1
  12  -2  -8    1.04    0.75   1
  12  -2  -8    0.72    0.80   1
 -12  -2   8    0.46    0.91   1
 -12  -2   8    1.64    0.83   1
  12   2  -7   13.02    1.55   1
 -12   2   7   11.83    1.69   1
 -12   2   7   16.87    1.74   1
  12   2  -7   12.61    1.67   1
 -12  -2   7   12.16    1.81   1
 -12  -2   7   13.43    1.53   1
 -12  -2   7   12.86    1.51   1
  12  -2  -7   12.33    1.48   1
  12   2  -6    2.35    0.83   1
 -12   2   6    3.11    1.06   1
  12   2  -6    0.79    0.61   1
 -12   2   6    2.40    0.79   1
 -12  -2   6    2.02    0.75   1
 -12  -2   6    2.30    0.70   1
 -12  -2   6    0.93    0.93   1
  12  -2  -6    3.16    0.78   1
  12   2  -5   13.50    1.52   1
 -12   2   5   12.29    1.72   1
  12   2  -5   10.30    1.34   1
 -12   2   5   11.31    1.39   1
 -12  -2   5   10.84    1.27   1
 -12  -2   5   12.44    1.76   1
  12  -2  -5   13.85    1.48   1
  12   2  -4    1.39    0.63   1
 -12   2   4    0.71    0.67   1
  12   2  -4    1.02    0.72   1
 -12   2   4    3.22    1.10   1
  12  -2  -4    1.33    0.66   1
  12  -2  -4    1.43    0.54   1
 -12  -2   4    1.30    0.60   1
 -12  -2   4    0.91    0.95   1
 -12   2   3    0.73    0.64   1
 -12   2   3   -0.77    0.83   1
  12   2  -3   -0.49    0.48   1
  12  -2  -3    0.25    0.53   1
 -12  -2   3    0.30    0.86   1
  12  -2  -3   -0.23    0.49   1
  12   2  -2   15.47    1.61   1
  12   2  -2   12.62    1.49   1
 -12   2   2   13.96    1.54   1
  12  -2  -2   15.29    1.41   1
 -12  -2   2   14.45    1.86   1
  12  -2  -2   12.17    1.46   1
  12   2  -1    1.38    0.91   1
  12   2  -1    0.90    0.52   1
 -12   2   1    1.75    0.75   1
  12   2  -1    1.57    0.71   1
 -12  -2   1    1.76    0.94   1
  12  -2  -1    0.09    0.59   1
  12  -2  -1    1.92    0.69   1
 -12   2   0   21.34    1.88   1
  12   2   0   23.95    1.95   1
  12   2   0   21.27    1.69   1
  12  -2   0   26.33    2.00   1
 -12  -2   0   22.62    2.13   1
  12  -2   0   26.92    1.93   1
  12   2   1    0.47    0.61   1
 -12   2  -1   -0.56    0.55   1
  12   2   1   -0.62    0.56   1
 -12  -2  -1    0.83    0.72   1
  12  -2   1   -0.79    0.61   1
  12  -2   1   -0.38    0.55   1
 -12   2  -2    3.94    0.93   1
  12   2   2    2.92    0.84   1
  12   2   2    4.08    0.95   1
  12  -2   2    2.43    0.83   1
  12  -2   2    3.34    0.98   1
 -12  -2  -2    4.10    1.34   1
 -12   2  -3    0.99    0.70   1
  12   2   3    1.72    0.92   1
 -12   2  -3    0.18    0.91   1
  12   2   3    0.33    0.66   1
  12  -2   3    1.75    0.89   1
  12  -2   3    1.28    0.74   1
  12   2   4    0.08    0.76   1
  12   2   4   -0.26    0.95   1
 -12   2  -4    0.56    0.75   1
  12  -2   4    0.80    0.77   1
  12  -2   4    0.56    0.91   1
 -12   2  -5   10.82    1.67   1
  12   2   5    7.91    1.52   1
  12   2   5   10.61    1.82   1
  12  -2   5   10.04    1.69   1
  12  -2   5   11.55    1.68   1
  12   3 -10    1.09    0.85   1
 -12   3  10    0.07    0.69   1
 -12  -3  10    0.31    0.81   1
 -12  -3  10    0.75    1.07   1
 -12   3   9    0.04    0.92   1
  12   3  -9    0.49    0.67   1
  12   3  -9   -0.97    0.76   1
 -12   3   9   -0.83    0.59   1
 -12  -3   9    0.95    1.07   1
 -12  -3   9   -0.40    0.64   1
 -12   3   8    1.07    0.79   1
  12   3  -8    1.48    1.03   1
 -12   3   8    2.34    1.03   1
  12   3  -8    1.98    0.78   1
 -12  -3   8    2.90    1.21   1
 -12  -3   8    2.11    0.86   1
 -12   3   7    1.81    1.02   1
  12   3  -7    1.16    0.68   1
 -12   3   7    2.24    0.86   1
  12   3  -7    4.18    1.08   1
 -12  -3   7    1.36    1.02   1
  12  -3  -7    1.89    0.70   1
 -12  -3   7    0.52    0.62   1
 -12   3   6    7.83    1.44   1
  12   3  -6    7.98    1.24   1
  12   3  -6    9.36    1.24   1
 -12   3   6    7.37    1.16   1
  12  -3  -6    8.26    1.15   1
 -12  -3   6    9.35    1.61   1
 -12  -3   6    6.70    1.01   1
 -12   3   5    0.18    0.89   1
  12   3  -5   -0.31    0.46   1
 -12   3   5    1.18    0.67   1
  12   3  -5   -0.06    0.53   1
  12   3  -5   -0.53    0.48   1
  12  -3  -5    0.82    0.48   1
  12  -3  -5    1.20    0.60   1
 -12  -3   5   -0.96    0.79   1
  12   3  -4    0.95    0.58   1
  12   3  -4    0.38    0.58   1
  12   3  -4    0.84    0.52   1
 -12   3   4    1.32    0.68   1
  12  -3  -4    0.53    0.52   1
 -12  -3   4    1.72    1.04   1
  12  -3  -4    1.56    0.65   1
  12   3  -3    0.88    0.59   1
 -12   3   3    0.41    0.62   1
  12   3  -3   -0.32    0.48   1
  12  -3  -3    0.65    0.58   1
 -12  -3   3    0.91    0.96   1
  12  -3  -3    0.86    0.57   1
  12   3  -2    0.56    0.59   1
  12   3  -2    1.01    0.60   1
 -12   3   2    0.87    0.69   1
 -12  -3   2    0.62    0.85   1
  12  -3  -2   -0.19    0.47   1
  12  -3  -2    0.61    0.57   1
  12   3  -1    5.77    1.05   1
  12   3  -1    7.48    1.03   1
 -12   3   1    8.74    1.24   1
  12  -3  -1    8.91    1.21   1
  12  -3  -1    5.63    1.00   1
 -12  -3   1    7.01    1.37   1
  12   3   0   -0.64    0.47   1
  12   3   0    1.02    0.58   1
  12   3   0   -0.05    0.56   1
 -12   3   0    0.12    0.62   1
  12  -3   0   -0.47    0.55   1
 -12  -3   0   -0.15    0.77   1
  12  -3   0   -0.38    0.52   1
  12   3   1    4.73    0.95   1
  12   3   1    4.52    0.98   1
  12   3   1    6.85    1.02   1
 -12   3  -1    4.33    1.04   1
 -12  -3  -1    6.24    1.17   1
  12  -3   1    5.79    1.06   1
  12  -3   1    5.07    1.03   1
  12   3   2   -0.07    0.64   1
 -12   3  -2    1.35    0.80   1
  12   3   2    0.11    0.69   1
  12  -3   2   -0.47    0.67   1
  12  -3   2    0.79    0.71   1
 -12   3  -3   -0.16    0.64   1
  12   3   3   -0.84    0.62   1
  12  -3   3    0.50    0.61   1
  12  -3   3    0.61    0.84   1
  12   3   4    1.82    0.84   1
 -12   3  -4    1.02    0.87   1
  12  -3   4    1.02    0.95   1
  12  -3   4    0.95    0.82   1
  12   3   5    0.20    0.98   1
 -12   3  -5   -0.14    0.75   1
  12  -3   5    0.02    0.69   1
  12  -3   5    1.11    1.20   1
 -12   4  10    1.18    0.87   1
  12   4 -10    0.90    0.77   1
 -12  -4  10    1.23    0.85   1
 -12  -4  10    0.76    1.28   1
 -12   4   9    5.67    1.26   1
  12   4  -9    4.53    1.05   1
  12   4  -9    4.45    1.30   1
 -12   4   9    4.31    1.04   1
 -12  -4   9    4.26    1.36   1
 -12  -4   9    3.98    1.03   1
  12   4  -8    6.75    1.15   1
  12   4  -8    6.03    1.42   1
 -12   4   8    7.51    1.40   1
 -12   4   8    7.23    1.19   1
 -12  -4   8    6.79    1.56   1
 -12  -4   8    3.72    0.98   1
 -12   4   7    1.55    1.12   1
  12   4  -7    1.05    0.77   1
  12   4  -7    1.74    0.94   1
 -12   4   7    1.99    0.77   1
 -12  -4   7    2.02    1.15   1
 -12  -4   7    2.22    0.71   1
  12   4  -6    0.88    0.70   1
 -12   4   6    0.36    0.92   1
  12   4  -6    0.21    0.62   1
 -12   4   6    0.08    0.61   1
  12   4  -6    0.80    0.59   1
 -12  -4   6    0.71    1.01   1
  12   4  -5    5.45    1.01   1
  12   4  -5    4.94    0.99   1
  12   4  -5    4.73    0.84   1
 -12   4   5    4.29    0.99   1
 -12  -4   5    3.81    1.31   1
  12  -4  -5    4.56    0.81   1
  12   4  -4   11.91    1.44   1
 -12   4   4   13.90    1.57   1
  12   4  -4   13.74    1.38   1
 -12  -4   4   16.07    2.07   1
  12  -4  -4   13.30    1.37   1
 -12   4   3    9.18    1.28   1
  12   4  -3    8.21    1.18   1
  12   4  -3    6.60    1.01   1
 -12  -4   3   10.23    1.69   1
  12  -4  -3    5.39    1.40   1
  12  -4  -3    7.93    1.06   1
  12   4  -2   -0.01    0.54   1
  12   4  -2    0.46    0.55   1
 -12   4   2   -0.70    0.63   1
 -12  -4   2    1.16    1.02   1
  12  -4  -2    0.21    0.58   1
  12  -4  -2   -0.41    0.48   1
  12   4  -1    4.84    0.91   1
  12   4  -1    4.60    0.92   1
 -12   4   1    6.21    1.11   1
 -12  -4   1    5.77    1.35   1
  12  -4  -1    5.11    0.95   1
  12  -4  -1    4.99    0.93   1
  12   4   0   13.05    1.53   1
  12   4   0   13.25    1.42   1
 -12   4   0   13.35    1.56   1
  12  -4   0   12.61    1.50   1
 -12  -4   0   13.73    1.83   1
  12  -4   0   14.37    1.52   1
  12   4   1   10.50    1.34   1
  12   4   1    8.25    1.15   1
 -12   4  -1    9.55    1.34   1
  12  -4   1    5.55    1.13   1
  12  -4   1   10.78    1.64   1
 -12  -4  -1    9.42    1.43   1
  12   4   2    0.34    0.60   1
 -12   4  -2    1.17    0.72   1
  12   4   2    0.39    0.65   1
  12  -4   2    0.60    0.76   1
  12   4   3    2.03    0.81   1
  12   4   3    2.16    0.81   1
 -12   4  -3    1.63    0.85   1
  12  -4   3    2.80    1.01   1
 -12   4  -4    7.79    1.41   1
  12   4   4    7.96    1.44   1
  12  -4   4    8.01    1.50   1
  12   5  -9    2.43    0.91   1
 -12   5   9    1.69    0.85   1
 -12  -5   9    3.45    1.48   1
 -12  -5   9    1.89    0.83   1
  12   5  -8    3.52    1.22   1
 -12   5   8    7.13    1.21   1
  12   5  -8    4.45    1.07   1
 -12   5   8    1.87    1.17   1
 -12  -5   8    5.28    1.04   1
 -12  -5   8    4.43    1.44   1
  12   5  -7   11.47    1.62   1
  12   5  -7    9.36    1.21   1
  12   5  -7    7.96    1.27   1
 -12   5   7    8.25    1.28   1
 -12   5   7    7.92    1.55   1
 -12  -5   7   10.56    1.88   1
 -12   5   6    5.87    1.12   1
  12   5  -6    5.02    1.00   1
  12   5  -6    6.23    1.20   1
  12   5  -6    6.36    0.97   1
  12  -5  -6    5.57    0.90   1
 -12  -5   6    6.83    1.61   1
  12   5  -5   12.88    1.34   1
  12   5  -5   11.73    1.41   1
 -12   5   5   11.53    1.44   1
  12  -5  -5   10.55    1.22   1
 -12  -5   5   13.45    2.00   1
  12   5  -4    1.09    0.59   1
 -12   5   4    0.44    0.67   1
  12   5  -4   -1.01    0.45   1
 -12  -5   4    1.36    1.09   1
  12  -5  -4   -0.14    0.52   1
  12   5  -3   23.92    1.93   1
 -12   5   3   22.36    1.97   1
  12   5  -3   25.50    1.89   1
  12  -5  -3   25.70    1.94   1
 -12  -5   3   22.10    2.60   1
  12   5  -2   25.79    1.91   1
  12   5  -2   23.31    1.96   1
 -12   5   2   22.29    1.98   1
  12  -5  -2   25.14    1.92   1
 -12  -5   2   23.82    2.59   1
  12   5  -1    3.59    0.85   1
  12   5  -1    3.70    0.80   1
 -12   5   1    3.15    0.89   1
  12  -5  -1    4.14    0.94   1
 -12  -5   1    3.92    1.18   1
  12   5   0    0.76    0.71   1
  12   5   0    0.32    0.55   1
 -12   5   0   -0.56    0.56   1
  12  -5   0    1.33    0.78   1
 -12  -5   0    0.53    0.87   1
 -12   5  -1    0.65    0.76   1
  12   5   1    1.93    0.66   1
  12   5   1    2.56    0.81   1
  12  -5   1    0.97    0.77   1
  12   5   2   21.44    1.97   1
 -12   5  -2   20.22    2.12   1
  12   5   2   25.80    1.93   1
  12  -5   2   23.09    2.17   1
  12   5   3   13.10    1.60   1
 -12   5  -3   10.23    1.50   1
  12   5   3   11.94    1.47   1
  12  -5   3   14.84    1.74   1
  12   5   4   -0.01    0.95   1
  12   5   4   -0.99    0.57   1
 -12   5  -4    0.28    0.83   1
  12  -5   4    1.23    1.20   1
 -12   6   9   -0.43    0.75   1
  12   6  -9   -0.37    0.78   1
 -12  -6   9    0.26    0.75   1
 -12  -6   9    0.89    1.62   1
 -12   6   8    3.61    1.26   1
  12   6  -8    5.39    1.08   1
 -12   6   8    2.87    0.94   1
  12   6  -8    5.16    1.38   1
  12   6  -8    5.58    0.97   1
 -12  -6   8    3.00    1.51   1
 -12  -6   8    4.76    1.56   1
  12   6  -7   20.44    1.66   1
 -12   6   7   14.17    1.67   1
  12   6  -7   15.86    1.76   1
  12   6  -7   21.37    2.28   1
 -12  -6   7   14.41    2.24   1
  12   6  -6    1.37    0.66   1
  12   6  -6    1.59    0.75   1
 -12   6   6    1.72    0.72   1
 -12  -6   6    0.27    1.12   1
  12  -6  -6    1.50    0.70   1
 -12   6   5   24.37    2.03   1
  12   6  -5   21.73    1.81   1
  12   6  -5   23.52    1.92   1
  12  -6  -5   24.52    1.88   1
 -12  -6   5   24.36    2.84   1
  12   6  -4    2.09    0.71   1
 -12   6   4    1.76    0.69   1
 -12   6   4    1.70    0.75   1
  12   6  -4    1.80    0.72   1
  12  -6  -4    2.65    0.76   1
 -12  -6   4    0.89    1.20   1
 -12   6   3    0.72    0.58   1
  12   6  -3    1.66    0.71   1
 -12   6   3    1.08    0.77   1
  12   6  -3    1.00    0.62   1
  12  -6  -3    0.30    0.69   1
 -12  -6   3    0.39    1.09   1
  12   6  -2    5.75    1.04   1
 -12   6   2    8.83    1.29   1
  12   6  -2    8.30    1.08   1
 -12  -6   2    6.06    1.50   1
  12  -6  -2    6.24    1.10   1
 -12   6   1    6.01    1.10   1
  12   6  -1    4.96    0.99   1
  12   6  -1    3.43    0.83   1
  12  -6  -1    3.86    0.98   1
 -12  -6   1    5.15    1.34   1
 -12   6   0   36.76    2.54   1
  12   6   0   32.69    2.42   1
  12   6   0   32.93    2.31   1
 -12  -6   0   30.55    2.76   1
  12  -6   0   33.07    2.45   1
  12   6   1    0.84    0.72   1
 -12   6  -1   -0.28    0.64   1
  12   6   1    1.03    0.63   1
  12  -6   1    1.13    0.87   1
 -12   6  -2    2.66    0.93   1
  12   6   2    1.46    0.68   1
  12   6   2    1.46    0.82   1
  12  -6   2    2.42    1.04   1
  12   6   3    0.10    0.62   1
 -12   6  -3    1.31    0.87   1
  12   6   3   -0.91    0.82   1
  12  -6   3    0.33    1.02   1
 -12   7   8    9.71    1.53   1
  12   7  -8   12.05    1.66   1
  12   7  -8    9.69    1.28   1
 -12  -7   8   11.12    2.34   1
 -12   7   7    0.17    0.76   1
  12   7  -7    1.36    0.65   1
  12   7  -7    1.22    0.81   1
 -12  -7   7    0.33    1.22   1
  12  -7  -7    1.40    0.69   1
 -12   7   6    2.25    0.85   1
  12   7  -6    1.48    0.67   1
  12   7  -6    3.15    0.87   1
 -12   7   6    0.39    0.99   1
 -12  -7   6    2.32    1.35   1
  12  -7  -6    1.97    0.76   1
 -12   7   5    7.83    1.13   1
 -12   7   5    6.97    1.14   1
  12   7  -5    6.58    1.02   1
  12   7  -5    6.51    1.12   1
 -12  -7   5    5.70    1.66   1
  12  -7  -5    7.80    1.17   1
 -12   7   4    2.10    0.78   1
 -12   7   4    3.61    0.88   1
  12   7  -4    3.31    0.78   1
 -12   7   4    1.91    0.74   1
  12   7  -4    2.84    0.79   1
  12  -7  -4    2.13    0.87   1
 -12  -7   4    0.40    1.24   1
  12   7  -3   17.75    1.60   1
  12   7  -3   20.87    1.74   1
 -12   7   3   22.43    1.76   1
 -12   7   3   16.41    1.80   1
 -12   7   3   20.38    1.73   1
  12  -7  -3   17.67    1.78   1
 -12  -7   3   10.54    2.11   1
  12   7  -2    4.65    0.98   1
  12   7  -2    4.90    0.91   1
 -12   7   2    5.38    1.07   1
 -12   7   2    5.24    0.95   1
  12  -7  -2    5.10    1.02   1
 -12  -7   2    1.27    1.20   1
  12   7  -1    5.18    0.99   1
  12   7  -1    4.60    0.88   1
 -12   7   1    3.73    0.96   1
 -12   7   1    4.26    0.90   1
  12  -7  -1    3.92    1.04   1
 -12  -7   1    3.27    1.26   1
 -12   7   0    1.30    0.78   1
  12   7   0    1.40    0.66   1
  12   7   0    0.32    0.67   1
  12  -7   0    3.48    1.00   1
  12   7   1    2.65    0.86   1
  12   7   1    4.98    0.91   1
 -12   7  -1    3.42    0.97   1
  12  -7   1    3.90    1.09   1
 -12   7  -2    8.64    1.41   1
  12   7   2   10.39    1.29   1
  12   7   2    8.12    1.33   1
  12  -7   2   10.37    1.55   1
  12   8  -6    1.79    0.96   1
 -12   8   6   -0.15    0.87   1
 -12   8   6    0.22    0.73   1
  12   8  -6    0.89    0.62   1
  12  -8  -6    1.27    0.88   1
 -12  -8   6    2.35    1.47   1
  12   8  -5    2.12    0.68   1
 -12   8   5    1.87    0.84   1
  12   8  -5    2.34    0.88   1
 -12   8   5    2.59    0.85   1
  12  -8  -5    3.57    0.98   1
 -12  -8   5    3.28    1.45   1
 -12   8   4   14.86    1.67   1
 -12   8   4   14.44    1.62   1
  12   8  -4   12.67    1.39   1
 -12   8   4   14.37    1.57   1
  12   8  -4   14.71    1.58   1
 -12  -8   4   11.04    2.12   1
  12  -8  -4   14.36    1.61   1
 -12   8   3    4.63    1.05   1
 -12   8   3    5.08    0.99   1
 -12   8   3    4.74    0.96   1
  12   8  -3    4.38    0.86   1
 -12  -8   3    4.91    1.50   1
  12  -8  -3    3.50    1.02   1
 -12   8   2   11.98    1.39   1
  12   8  -2   11.99    1.30   1
  12   8  -2   11.30    1.38   1
 -12   8   2   10.45    1.38   1
 -12   8   2   10.01    1.42   1
 -12  -8   2    7.17    1.71   1
  12  -8  -2   12.51    1.53   1
 -12   8   1   -0.77    0.74   1
  12   8  -1    0.63    0.71   1
  12   8  -1    0.32    0.59   1
 -12   8   1    1.32    0.73   1
 -12  -8   1    0.62    0.96   1
  12  -8  -1    0.42    0.85   1
  12   8   0    4.31    1.00   1
  12   8   0    3.93    0.87   1
 -12   8   0    1.56    0.96   1
  12  -8   0    3.81    1.16   1
 -13   0  10   -1.05    0.69   1
 -13   0  10    1.28    1.14   1
 -13   0  10    0.31    0.77   1
  13   0 -10   -0.53    0.73   1
 -13   0   9   -0.70    0.59   1
 -13   0   9   -1.21    0.75   1
 -13   0   9    0.74    0.98   1
  13   0  -9    0.78    0.95   1
  13   0  -9   -0.40    0.64   1
  13   0  -8    0.76    0.85   1
 -13   0   8   -0.47    0.76   1
 -13   0   8    1.29    0.77   1
 -13   0   8    2.17    1.05   1
  13   0  -8    0.23    0.63   1
 -13   0   7    0.47    0.67   1
  13   0  -7   -0.02    0.62   1
 -13   0   7    0.69    1.01   1
  13   0  -7    0.95    0.74   1
 -13   0   7   -1.57    0.74   1
 -13   0   6   -0.15    0.98   1
 -13   0   6    0.40    0.59   1
  13   0  -6    0.16    0.60   1
  13   0  -6    0.74    0.72   1
 -13   0   6   -0.60    0.71   1
 -13   0   5   -0.76    0.56   1
  13   0  -5   -0.43    0.56   1
 -13   0   5    0.11    0.90   1
 -13   0   4    0.32    0.61   1
  13   0  -4   -0.06    0.59   1
 -13   0   4   -0.18    0.85   1
  13   0  -3   -0.35    0.53   1
 -13   0   3   -0.88    0.79   1
 -13   0   3   -0.02    0.63   1
 -13   0   2    0.71    0.95   1
  13   0  -2    0.58    0.52   1
 -13   0   2    0.09    0.58   1
  13   0  -2    0.06    0.61   1
  13   0  -1    0.32    0.57   1
 -13   0   1    0.57    0.92   1
  13   0  -1    0.67    0.67   1
 -13   0   1   -0.03    0.63   1
  13   0   0    0.37    0.64   1
  13   0   0   -0.25    0.60   1
 -13   0   0    0.04    0.85   1
 -13   0   0    0.53    0.56   1
 -13   0  -1    0.75    0.78   1
 -13   0  -1   -0.23    0.63   1
  13   0   1    0.56    0.66   1
  13   0   1    0.15    0.65   1
 -13   0  -2    1.12    0.82   1
  13   0   2   -0.34    0.71   1
  13   0   2    0.14    0.65   1
  13   0   3    0.57    0.72   1
  13   0   3   -0.24    0.85   1
  13   0   4    1.75    1.26   1
  13   0   4    0.23    0.79   1
  13   1 -10    4.05    1.05   1
 -13   1  10    3.52    1.07   1
 -13   1  10    3.37    1.24   1
 -13   1  10    1.98    1.08   1
  13  -1 -10    3.22    0.93   1
 -13  -1  10    1.45    0.98   1
 -13  -1  10    4.71    1.50   1
 -13   1   9    0.93    0.97   1
  13   1  -9    1.44    0.85   1
 -13   1   9    1.14    0.75   1
 -13   1   9    0.69    0.95   1
  13   1  -9    1.69    0.96   1
  13  -1  -9    1.52    0.89   1
  13  -1  -9    2.21    1.08   1
 -13  -1   9    1.06    0.92   1
 -13  -1   9    1.35    0.83   1
 -13  -1   9    3.36    1.22   1
 -13   1   8    4.90    0.99   1
 -13   1   8    2.42    1.11   1
 -13   1   8    0.87    0.95   1
  13   1  -8    3.04    0.91   1
  13   1  -8    3.64    1.06   1
 -13  -1   8    3.16    1.03   1
 -13  -1   8    1.74    1.07   1
  13  -1  -8    3.72    1.13   1
 -13  -1   8    2.91    0.86   1
  13  -1  -8    2.05    0.88   1
  13   1  -7    0.24    0.63   1
 -13   1   7    0.42    0.65   1
 -13   1   7    0.30    0.92   1
  13   1  -7    1.70    0.78   1
 -13  -1   7    0.27    0.90   1
  13  -1  -7    0.11    0.61   1
 -13  -1   7    0.54    0.64   1
  13  -1  -7    0.90    0.70   1
 -13  -1   7    0.32    0.77   1
 -13   1   6    3.23    0.89   1
  13   1  -6    3.51    0.92   1
  13   1  -6    5.30    1.07   1
 -13   1   6    2.47    1.08   1
  13  -1  -6    3.76    0.93   1
 -13  -1   6    4.72    0.99   1
 -13  -1   6    4.80    1.33   1
  13   1  -5    4.41    0.95   1
 -13   1   5    2.64    0.84   1
  13   1  -5    3.23    0.85   1
 -13   1   5    3.17    1.22   1
 -13  -1   5    3.47    1.18   1
  13  -1  -5    2.92    0.83   1
 -13  -1   5    2.70    0.78   1
 -13   1   4    7.83    1.17   1
  13   1  -4    5.63    1.08   1
 -13   1   4    5.43    1.33   1
 -13  -1   4    5.84    1.38   1
  13  -1  -4    6.09    1.05   1
 -13  -1   4    4.90    0.95   1
  13   1  -3    9.89    1.34   1
 -13   1   3   10.58    1.67   1
 -13   1   3    9.39    1.29   1
 -13  -1   3   13.18    1.84   1
  13  -1  -3   10.03    1.35   1
  13  -1  -3   11.49    1.43   1
 -13  -1   3    8.79    1.22   1
 -13   1   2    1.35    1.14   1
  13   1  -2    1.20    0.71   1
 -13   1   2    0.86    0.68   1
 -13  -1   2    1.02    1.01   1
 -13  -1   2    0.19    0.59   1
  13  -1  -2    1.30    0.77   1
  13  -1  -2   -0.14    0.53   1
 -13   1   1    1.72    0.78   1
 -13   1   1    1.16    1.05   1
  13   1  -1    0.89    0.57   1
  13   1  -1    1.81    0.82   1
  13  -1  -1   -0.10    0.53   1
  13  -1  -1    1.48    0.75   1
 -13  -1   1    2.11    1.03   1
 -13   1   0    0.68    0.95   1
  13   1   0   -0.28    0.55   1
  13   1   0   -0.81    0.54   1
 -13   1   0   -0.26    0.54   1
  13  -1   0   -0.13    0.57   1
 -13  -1   0   -0.59    0.84   1
  13  -1   0   -0.48    0.57   1
 -13   1  -1    8.17    1.48   1
  13   1   1    6.33    1.19   1
 -13   1  -1    5.92    1.14   1
  13   1   1    9.13    1.25   1
 -13  -1  -1    8.75    1.47   1
  13  -1   1    8.96    1.28   1
  13  -1   1   12.52    1.52   1
 -13   1  -2    8.26    1.33   1
 -13   1  -2    8.37    1.41   1
  13   1   2    8.16    1.35   1
  13   1   2    8.16    1.29   1
  13  -1   2    8.37    1.35   1
  13  -1   2   10.22    1.40   1
  13   1   3    0.06    0.77   1
  13   1   3   -0.62    0.85   1
 -13   1  -3    0.40    0.76   1
  13  -1   3   -0.34    0.75   1
  13  -1   3    0.39    0.87   1
  13   1   4    0.78    0.98   1
  13   1   4    2.02    1.31   1
  13  -1   4   -0.46    1.25   1
  13  -1   4    0.17    0.80   1
 -13   2  10   -2.58    0.91   1
 -13   2  10    1.07    1.09   1
 -13   2  10   -0.43    0.66   1
  13   2 -10   -0.47    0.76   1
 -13  -2  10   -1.00    1.26   1
 -13  -2  10    0.38    0.80   1
  13   2  -9    4.05    1.06   1
 -13   2   9    4.52    1.03   1
  13   2  -9    4.00    1.25   1
 -13   2   9    3.60    1.18   1
 -13  -2   9    3.04    1.23   1
 -13  -2   9    3.38    1.00   1
  13   2  -8   18.04    1.96   1
 -13   2   8   21.41    1.93   1
  13   2  -8   21.93    2.30   1
 -13   2   8   19.71    2.21   1
 -13  -2   8   20.74    2.39   1
  13  -2  -8   21.19    1.84   1
 -13  -2   8   18.14    1.89   1
 -13   2   7    0.35    0.66   1
 -13   2   7    0.22    1.02   1
  13   2  -7   -0.04    0.62   1
  13   2  -7    0.35    0.75   1
 -13  -2   7   -0.31    1.00   1
  13  -2  -7   -0.72    0.51   1
 -13  -2   7    2.14    0.73   1
  13   2  -6   24.05    2.00   1
  13   2  -6   21.58    1.95   1
 -13   2   6   21.92    2.36   1
 -13   2   6   23.68    2.00   1
 -13  -2   6   25.35    2.45   1
  13  -2  -6   23.24    1.92   1
  13   2  -5    6.21    1.03   1
  13   2  -5    4.07    0.98   1
 -13   2   5    4.90    1.25   1
 -13   2   5    6.63    1.13   1
 -13  -2   5    7.99    1.51   1
  13  -2  -5    5.92    1.07   1
 -13   2   4    2.00    1.14   1
  13   2  -4    3.55    0.95   1
 -13   2   4    4.79    0.98   1
 -13  -2   4    1.91    1.07   1
  13  -2  -4    2.64    0.83   1
 -13   2   3    9.82    1.68   1
  13   2  -3    7.64    1.25   1
 -13   2   3    8.85    1.32   1
 -13  -2   3   11.49    1.75   1
  13  -2  -3   10.29    1.35   1
  13  -2  -3   10.79    1.18   1
  13   2  -2    2.85    0.88   1
 -13   2   2    2.30    0.81   1
 -13   2   2    2.13    1.12   1
 -13  -2   2    3.48    1.17   1
  13  -2  -2    1.53    0.65   1
  13  -2  -2    2.60    0.83   1
  13   2  -1   48.67    3.18   1
 -13   2   1   41.53    3.52   1
 -13   2   1   43.47    3.05   1
 -13  -2   1   43.20    3.34   1
  13  -2  -1   50.58    3.14   1
  13  -2  -1   44.69    2.90   1
 -13   2   0   11.54    1.40   1
  13   2   0   11.49    1.46   1
  13   2   0    9.75    1.19   1
 -13   2   0    9.36    1.68   1
  13  -2   0    9.90    1.38   1
  13  -2   0   10.71    1.28   1
 -13  -2   0    8.45    1.51   1
 -13   2  -1    0.70    1.00   1
 -13   2  -1    1.28    0.73   1
  13   2   1   -0.40    0.67   1
  13   2   1    0.19    0.65   1
 -13  -2  -1    0.32    0.74   1
  13  -2   1    0.84    0.75   1
  13  -2   1    0.20    0.64   1
 -13   2  -2   -1.26    0.77   1
 -13   2  -2    0.32    0.62   1
  13   2   2    0.78    0.74   1
  13   2   2    0.63    0.81   1
  13  -2   2   -0.33    0.80   1
  13  -2   2    0.17    0.62   1
  13   2   3    4.12    1.16   1
 -13   2  -3    3.29    0.95   1
  13   2   3    1.92    0.87   1
  13  -2   3    2.86    1.10   1
  13  -2   3    2.59    0.92   1
 -13   3   9    6.09    1.23   1
 -13   3   9    8.46    1.55   1
  13   3  -9    7.60    1.33   1
 -13  -3   9    8.53    1.30   1
 -13  -3   9   10.26    1.91   1
  13   3  -8    6.05    1.15   1
  13   3  -8    4.50    1.23   1
 -13   3   8    5.62    1.12   1
 -13   3   8    4.30    1.21   1
 -13  -3   8    6.13    1.47   1
 -13  -3   8    5.76    1.10   1
  13   3  -7    1.21    0.85   1
  13   3  -7    1.03    0.75   1
 -13   3   7   -0.09    0.62   1
 -13   3   7   -0.28    0.93   1
 -13  -3   7    0.82    1.03   1
 -13   3   6   24.26    2.47   1
  13   3  -6   21.31    1.89   1
  13   3  -6   21.36    1.88   1
 -13   3   6   17.35    1.91   1
 -13  -3   6   23.49    2.64   1
  13  -3  -6   23.28    1.89   1
 -13   3   5   13.56    1.93   1
  13   3  -5   13.73    1.61   1
 -13   3   5   16.05    1.73   1
  13  -3  -5   16.44    1.67   1
 -13  -3   5   15.17    2.11   1
  13   3  -4   26.69    2.25   1
 -13   3   4   30.56    2.32   1
 -13   3   4   24.94    2.56   1
 -13  -3   4   28.47    2.68   1
  13  -3  -4   31.36    2.06   1
  13  -3  -4   30.98    2.24   1
 -13   3   3   32.14    2.38   1
  13   3  -3   31.40    2.32   1
 -13  -3   3   28.07    2.69   1
  13  -3  -3   29.99    2.32   1
  13  -3  -3   27.87    2.10   1
  13   3  -2   -0.04    0.58   1
 -13   3   2   -0.08    0.59   1
  13  -3  -2    0.85    0.67   1
  13  -3  -2   -0.13    0.60   1
 -13  -3   2    0.20    0.85   1
  13   3  -1    0.79    0.75   1
 -13   3   1    1.89    0.80   1
  13  -3  -1    1.81    0.80   1
  13  -3  -1    1.86    0.75   1
 -13  -3   1    2.11    1.07   1
  13   3   0    3.03    0.88   1
 -13   3   0    1.30    0.76   1
 -13  -3   0    2.22    1.00   1
  13  -3   0    2.46    0.84   1
  13  -3   0    3.79    0.91   1
  13   3   1   24.20    1.94   1
  13   3   1   22.46    2.07   1
 -13   3  -1   23.06    2.04   1
  13  -3   1   24.77    2.03   1
  13  -3   1   24.36    2.08   1
 -13  -3  -1   24.06    2.22   1
  13   3   2   26.90    2.28   1
  13   3   2   27.22    2.25   1
 -13   3  -2   28.41    2.33   1
  13  -3   2   28.39    2.34   1
  13  -3   2   25.31    2.17   1
  13   3   3    0.42    0.79   1
  13   3   3   -0.75    0.99   1
 -13   3  -3    0.04    0.71   1
  13  -3   3   -0.33    0.97   1
  13  -3   3    2.05    0.88   1
  13   4  -9   -0.01    0.78   1
 -13   4   9    1.42    1.20   1
 -13   4   9    1.27    0.91   1
 -13  -4   9    0.69    0.73   1
 -13  -4   9    0.18    1.36   1
 -13   4   8   22.16    1.99   1
  13   4  -8   20.18    2.05   1
  13   4  -8   20.64    2.33   1
 -13   4   8   18.95    2.24   1
 -13  -4   8   21.83    2.61   1
  13   4  -7    0.52    0.66   1
  13   4  -7    1.06    0.78   1
 -13   4   7    0.87    1.04   1
 -13   4   7    0.25    0.70   1
 -13  -4   7    1.64    1.22   1
 -13   4   6   22.68    2.00   1
  13   4  -6   23.19    2.02   1
 -13   4   6   23.37    2.44   1
 -13  -4   6   23.44    2.72   1
  13   4  -5    0.54    0.59   1
 -13   4   5   -0.93    0.91   1
 -13   4   5    0.97    0.78   1
 -13  -4   5   -0.08    0.99   1
  13  -4  -5    0.29    0.59   1
  13   4  -4    0.04    0.57   1
 -13   4   4    0.31    0.66   1
  13   4  -4    0.25    0.53   1
  13  -4  -4    0.22    0.58   1
 -13  -4   4    0.11    0.96   1
 -13   4   3   17.02    1.86   1
  13   4  -3   15.81    1.75   1
  13   4  -3   17.18    1.64   1
 -13  -4   3   17.42    2.26   1
  13  -4  -3   17.12    1.63   1
  13   4  -2    1.45    0.65   1
  13   4  -2    1.26    0.69   1
 -13   4   2    2.28    0.85   1
 -13  -4   2   -0.19    0.88   1
  13  -4  -2    1.42    0.69   1
 -13   4   1   44.53    3.03   1
  13   4  -1   42.08    2.83   1
  13   4  -1   45.43    2.98   1
  13  -4  -1   40.49    2.86   1
 -13  -4   1   42.83    3.30   1
 -13   4   0    0.39    0.71   1
  13   4   0    0.75    0.63   1
  13   4   0    0.53    0.65   1
 -13  -4   0    2.48    0.96   1
  13  -4   0    0.48    0.71   1
 -13   4  -1    1.85    0.82   1
  13   4   1    3.58    0.92   1
  13  -4   1    1.73    0.88   1
  13   4   2    2.70    1.00   1
 -13   4  -2    2.00    0.86   1
  13   4   2    2.38    0.91   1
  13  -4   2    1.79    1.03   1
  13   4   3   -0.98    1.15   1
 -13   4  -3   -0.11    0.75   1
  13   4   3   -0.15    0.82   1
  13  -4   3    1.71    1.21   1
 -13   5   8    0.48    0.71   1
 -13   5   8   -1.05    1.08   1
  13   5  -8   -1.15    0.57   1
 -13  -5   8   -0.80    1.13   1
 -13   5   7    9.39    1.64   1
 -13   5   7    9.39    1.39   1
  13   5  -7    8.53    1.28   1
 -13  -5   7    6.62    1.72   1
  13   5  -6    2.85    0.98   1
  13   5  -6    3.08    0.91   1
 -13   5   6    2.65    0.89   1
 -13   5   6    0.61    1.22   1
 -13  -5   6    2.88    1.29   1
  13   5  -5    5.98    1.08   1
 -13   5   5    7.03    1.18   1
  13   5  -5    5.68    0.98   1
 -13  -5   5    8.20    1.79   1
  13  -5  -5    4.44    0.91   1
  13   5  -4    5.09    1.07   1
  13   5  -4    5.19    0.95   1
 -13   5   4    7.43    1.26   1
 -13  -5   4    7.87    1.71   1
  13  -5  -4    5.17    0.96   1
  13   5  -3    1.85    0.80   1
 -13   5   3    1.31    0.79   1
  13   5  -3    0.57    0.63   1
  13  -5  -3    1.14    0.74   1
 -13  -5   3    0.12    1.03   1
  13   5  -2    8.82    1.22   1
  13   5  -2    8.28    1.27   1
 -13   5   2   11.27    1.46   1
  13  -5  -2   10.96    1.32   1
 -13  -5   2   10.10    1.74   1
  13   5  -1    0.68    0.61   1
  13   5  -1   -0.87    0.62   1
 -13   5   1    2.53    0.88   1
  13  -5  -1    1.62    0.78   1
 -13  -5   1    1.29    1.05   1
  13   5   0    7.49    1.14   1
 -13   5   0    6.81    1.21   1
  13   5   0    8.79    1.26   1
 -13  -5   0   11.56    1.74   1
  13  -5   0    8.77    1.29   1
 -13   5  -1    2.01    0.84   1
  13   5   1    3.25    0.85   1
  13   5   1    3.73    0.98   1
  13  -5   1    3.37    1.03   1
  13   5   2    3.18    1.05   1
  13   5   2    3.88    0.94   1
 -13   5  -2    4.82    1.15   1
  13  -5   2    5.18    1.31   1
  13   6  -7    1.79    0.87   1
 -13   6   7   -1.42    1.15   1
 -13   6   7   -0.13    0.78   1
 -13  -6   7    1.76    1.47   1
  13   6  -6    0.21    0.58   1
  13   6  -6    0.83    0.83   1
 -13   6   6    1.84    0.79   1
  13  -6  -6   -0.59    0.65   1
 -13  -6   6   -0.50    1.10   1
  13   6  -5   13.79    1.46   1
  13   6  -5   14.16    1.60   1
 -13   6   5   12.30    1.59   1
 -13  -6   5    8.35    1.92   1
  13  -6  -5   14.29    1.47   1
  13   6  -4   11.71    1.31   1
 -13   6   4    9.45    1.37   1
  13   6  -4   12.18    1.46   1
  13  -6  -4    8.55    1.22   1
 -13  -6   4    7.14    1.77   1
  13   6  -3    2.80    0.88   1
  13   6  -3    2.41    0.78   1
 -13   6   3    4.37    1.04   1
  13  -6  -3    2.33    0.81   1
 -13  -6   3    3.10    1.36   1
 -13   6   2    0.13    0.63   1
  13   6  -2    0.98    0.72   1
  13   6  -2    1.40    0.69   1
  13  -6  -2    0.00    0.69   1
 -13  -6   2    1.21    1.09   1
  13   6  -1   -0.58    0.51   1
 -13   6   1    0.06    0.64   1
  13   6  -1    0.03    0.67   1
 -13  -6   1   -0.20    0.91   1
  13  -6  -1    1.25    0.86   1
  13   6   0    6.55    1.07   1
  13   6   0    5.67    1.15   1
 -13   6   0    8.02    1.28   1
  13  -6   0    6.85    1.31   1
  13   6   1    4.03    0.93   1
  13   6   1    3.85    1.12   1
 -13   6  -1    4.76    1.12   1
  13  -6   1    6.81    1.37   1
 -13   7   5    0.29    0.78   1
  13   7  -5   -0.06    0.54   1
  13   7  -5   -0.15    0.80   1
 -13  -7   5   -0.35    1.28   1
  13  -7  -5    0.42    0.79   1
  13   7  -4    0.68    0.59   1
  13   7  -4    0.90    0.83   1
 -13   7   4    1.15    0.89   1
  13  -7  -4    0.85    0.82   1
 -13  -7   4   -0.11    1.12   1
  13   7  -3    6.73    1.19   1
  13   7  -3    6.69    1.03   1
 -13   7   3    6.53    1.23   1
  13  -7  -3    7.69    1.29   1
 -13  -7   3    6.23    1.68   1
  13   7  -2   17.45    1.77   1
  13   7  -2   17.14    1.64   1
 -13   7   2   11.28    1.59   1
 -13  -7   2   14.57    2.22   1
  13  -7  -2   17.02    1.84   1
  13   7  -1    0.24    0.88   1
 -13   7   1    0.25    0.82   1
  13   7  -1    1.37    0.66   1
  13  -7  -1   -0.50    0.98   1
 -13  -7   1    1.86    0.99   1
 -14   0   9   35.25    3.07   1
  14   0  -9   27.68    2.46   1
 -14   0   9   28.52    2.48   1
 -14   0   9   30.89    2.43   1
  14   0  -8    1.28    0.95   1
 -14   0   8    1.03    0.81   1
 -14   0   8    2.05    1.15   1
  14   0  -8    1.02    0.74   1
 -14   0   8    0.78    0.67   1
 -14   0   7   23.45    2.07   1
 -14   0   7   27.31    2.59   1
  14   0  -7   25.51    2.14   1
 -14   0   6    3.61    1.21   1
 -14   0   6    2.58    0.84   1
  14   0  -6    4.75    1.04   1
 -14   0   5    2.60    1.20   1
 -14   0   5    1.07    0.70   1
  14   0  -5    1.48    0.79   1
 -14   0   4   20.82    1.89   1
 -14   0   4   24.01    2.57   1
  14   0  -4   22.99    2.06   1
 -14   0   3   -0.44    0.67   1
 -14   0   3    0.44    1.00   1
  14   0  -3    0.64    0.71   1
 -14   0   2   48.62    3.75   1
  14   0  -2   53.31    3.46   1
 -14   0   1   11.09    1.51   1
  14   0  -1   14.26    1.70   1
  14   0  -1   13.63    1.41   1
 -14   0   1   13.51    1.94   1
  14   0   0    1.02    0.77   1
  14   0   0    1.62    0.73   1
 -14   0   0    0.76    0.98   1
  14   0   1    3.90    1.01   1
  14   0   1    3.72    0.94   1
 -14   0  -1    2.13    1.06   1
  14   0   2    0.41    0.99   1
  14   0   2    0.82    0.77   1
 -14   1   9    3.40    1.50   1
 -14   1   9    1.93    0.86   1
 -14   1   9    1.56    1.05   1
  14   1  -9    2.05    0.86   1
  14  -1  -9    3.95    0.99   1
 -14  -1   9    0.86    0.89   1
 -14  -1   9    4.08    1.64   1
  14   1  -8    0.84    0.83   1
 -14   1   8   -0.59    0.87   1
  14   1  -8    1.06    0.73   1
 -14   1   8    1.03    1.21   1
 -14   1   8    1.40    0.77   1
 -14  -1   8    0.19    1.10   1
  14  -1  -8   -0.32    0.67   1
 -14   1   7    8.76    1.35   1
 -14   1   7    7.86    1.63   1
  14   1  -7    7.68    1.29   1
 -14   1   7    7.66    1.56   1
  14   1  -7    8.30    1.36   1
 -14  -1   7    8.16    1.63   1
  14  -1  -7   10.00    1.42   1
  14   1  -6   16.37    1.78   1
  14   1  -6   16.67    1.81   1
 -14   1   6   15.11    1.73   1
 -14   1   6   13.45    1.95   1
  14  -1  -6   17.39    1.86   1
 -14  -1   6   14.81    2.10   1
  14   1  -5   13.71    1.67   1
 -14   1   5   14.49    1.66   1
 -14   1   5    8.87    1.70   1
  14  -1  -5   12.25    1.54   1
 -14  -1   5   13.91    2.06   1
 -14   1   4   23.75    2.64   1
 -14   1   4   23.60    2.04   1
  14   1  -4   25.79    2.18   1
 -14  -1   4   24.06    2.63   1
  14  -1  -4   23.73    2.06   1
  14   1  -3    0.10    0.73   1
 -14   1   3   -0.08    0.68   1
 -14   1   3   -0.80    0.98   1
 -14  -1   3    0.25    0.97   1
  14  -1  -3    0.66    0.69   1
  14   1  -2   -0.18    0.64   1
 -14   1   2    1.30    1.05   1
 -14   1   2    0.22    0.63   1
  14  -1  -2    1.63    0.79   1
 -14  -1   2    1.09    1.08   1
  14  -1  -2    0.79    0.96   1
 -14   1   1    4.90    1.47   1
  14   1  -1    5.49    1.13   1
 -14   1   1    4.13    1.06   1
  14  -1  -1    7.50    1.27   1
  14  -1  -1    5.50    0.95   1
 -14  -1   1    6.34    1.43   1
  14   1   0   13.04    1.39   1
 -14   1   0    9.62    1.73   1
  14   1   0   11.97    1.61   1
 -14   1   0   13.79    1.60   1
 -14  -1   0    9.65    1.69   1
  14  -1   0   14.47    1.70   1
  14  -1   0   11.87    1.41   1
 -14   1  -1   30.10    2.69   1
 -14   1  -1   32.47    2.40   1
  14   1   1   26.03    2.33   1
  14   1   1   29.30    2.28   1
 -14  -1  -1   30.41    2.52   1
  14  -1   1   28.75    2.25   1
  14  -1   1   31.45    2.47   1
  14   1   2   -0.69    0.68   1
  14   1   2    0.76    0.99   1
  14  -1   2    0.13    0.67   1
  14  -1   2   -0.90    0.84   1
  14   2  -8   -0.56    0.59   1
 -14   2   8    0.12    1.05   1
 -14   2   8   -1.72    0.60   1
 -14  -2   8    0.84    1.30   1
  14   2  -7    7.38    1.26   1
 -14   2   7    7.21    1.56   1
 -14   2   7    7.44    1.26   1
  14   2  -7   10.46    1.48   1
 -14  -2   7    7.25    1.63   1
  14  -2  -7    5.98    1.12   1
 -14   2   6    0.98    1.13   1
  14   2  -6   -0.23    0.57   1
 -14   2   6    0.43    0.67   1
  14   2  -6    1.92    1.17   1
  14  -2  -6   -0.29    0.56   1
 -14  -2   6    0.28    1.04   1
 -14   2   5   -0.09    0.64   1
 -14   2   5    0.22    1.02   1
  14   2  -5    0.94    0.72   1
  14  -2  -5    1.02    0.73   1
 -14  -2   5   -1.15    0.85   1
 -14   2   4    9.07    1.41   1
 -14   2   4   11.20    1.84   1
  14   2  -4   10.32    1.44   1
 -14  -2   4    8.43    1.69   1
  14  -2  -4    9.68    1.36   1
 -14   2   3    0.04    1.16   1
  14   2  -3    0.33    0.70   1
 -14   2   3    0.00    0.70   1
 -14  -2   3    0.57    0.95   1
  14  -2  -3    1.32    0.80   1
 -14   2   2   14.74    1.69   1
  14   2  -2   13.71    1.70   1
 -14   2   2   13.07    2.11   1
 -14  -2   2   13.24    1.98   1
  14  -2  -2   14.89    1.70   1
  14  -2  -2   14.34    1.47   1
 -14   2   1   -0.41    1.08   1
  14   2  -1    0.39    0.66   1
 -14   2   1    1.66    0.79   1
  14  -2  -1    0.77    0.70   1
  14  -2  -1    0.54    0.69   1
 -14  -2   1    1.30    1.04   1
 -14   2   0    0.74    1.10   1
  14   2   0    1.76    0.87   1
 -14   2   0    1.39    0.82   1
  14  -2   0    1.81    0.80   1
 -14  -2   0    1.89    1.01   1
  14  -2   0    1.42    0.76   1
 -14   2  -1    1.91    1.11   1
  14   2   1    0.80    0.77   1
 -14   2  -1    1.94    0.82   1
  14   2   1    2.38    0.89   1
  14  -2   1    1.93    0.92   1
  14  -2   1    0.17    0.64   1
 -14   2  -2   -0.77    0.97   1
  14   2   2    0.57    1.00   1
 -14   2  -2    0.58    0.71   1
  14   2   2   -0.62    0.70   1
  14  -2   2    0.91    1.15   1
  14  -2   2   -1.20    0.54   1
 -14   3   8    2.89    0.96   1
  14   3  -8    3.59    0.97   1
 -14   3   8    4.12    1.39   1
 -14  -3   8    3.38    1.53   1
 -14   3   7    0.53    0.80   1
  14   3  -7    1.63    0.77   1
  14   3  -7    0.79    0.70   1
 -14   3   7    0.40    1.04   1
 -14  -3   7    0.28    1.11   1
 -14   3   6    0.03    0.66   1
  14   3  -6    0.47    0.65   1
 -14   3   6   -0.46    0.94   1
 -14  -3   6    1.20    1.13   1
  14   3  -5    0.68    0.70   1
 -14   3   5    0.33    0.67   1
 -14   3   5   -1.27    1.01   1
 -14  -3   5    2.25    1.18   1
 -14   3   4    1.09    0.81   1
  14   3  -4    0.45    0.64   1
 -14   3   4   -1.12    1.07   1
  14  -3  -4   -0.03    0.60   1
 -14  -3   4    0.78    1.01   1
  14   3  -3    4.11    1.04   1
 -14   3   3    6.03    1.21   1
 -14   3   3    5.53    1.54   1
 -14  -3   3    4.63    1.45   1
  14  -3  -3    7.16    1.20   1
  14  -3  -3    4.50    0.92   1
  14   3  -2    1.15    0.75   1
 -14   3   2   -1.16    1.00   1
 -14   3   2    0.86    0.73   1
  14  -3  -2   -0.25    0.64   1
  14  -3  -2    0.04    0.66   1
 -14  -3   2   -0.07    0.92   1
 -14   3   1   -1.27    1.16   1
 -14   3   1    1.84    0.84   1
  14   3  -1    1.80    0.79   1
 -14  -3   1    0.52    0.89   1
  14  -3  -1    1.05    0.69   1
  14  -3  -1    1.62    0.84   1
 -14   3   0   -1.80    1.06   1
  14   3   0   -0.42    0.68   1
 -14   3   0    0.72    0.68   1
 -14  -3   0    1.60    0.94   1
  14  -3   0   -0.07    0.74   1
  14  -3   0   -0.01    0.57   1
 -14   3  -1   -0.29    0.60   1
 -14   3  -1   -1.78    0.89   1
  14   3   1    0.94    0.78   1
  14  -3   1   -0.52    0.79   1
  14  -3   1   -0.28    0.80   1
 -14   4   7    1.26    0.79   1
  14   4  -7    1.34    0.83   1
 -14   4   7    0.34    1.22   1
 -14  -4   7    0.43    1.29   1
 -14   4   6    4.42    1.45   1
  14   4  -6    5.69    1.15   1
 -14   4   6    5.47    1.14   1
 -14  -4   6    7.46    1.69   1
 -14   4   5    3.92    1.45   1
 -14   4   5    2.90    0.98   1
  14   4  -5    5.87    1.13   1
 -14  -4   5    4.99    1.40   1
 -14   4   4    1.92    0.83   1
 -14   4   4    1.76    1.20   1
  14   4  -4    2.00    0.86   1
  14  -4  -4    1.43    0.85   1
 -14  -4   4    2.53    1.24   1
 -14   4   3    1.44    1.17   1
  14   4  -3    0.13    0.71   1
 -14   4   3    1.22    0.75   1
 -14  -4   3    1.49    1.21   1
  14  -4  -3    0.14    0.64   1
 -14   4   2    5.43    1.20   1
  14   4  -2    6.38    1.16   1
  14  -4  -2    5.59    1.02   1
 -14  -4   2    7.39    1.64   1
  14   4  -1    9.02    1.40   1
 -14   4   1    9.84    1.46   1
  14  -4  -1   10.71    1.40   1
 -14  -4   1   10.97    1.75   1
 -14   4   0    2.58    0.95   1
  14   4   0    1.72    0.89   1
 -14  -4   0    3.29    1.25   1
  14  -4   0    2.31    0.99   1
 -14   5   6    2.93    1.63   1
  14   5  -6    5.22    1.14   1
 -14   5   6    3.65    1.03   1
 -14  -5   6    5.56    1.70   1
  14   5  -5    6.22    1.20   1
 -14   5   5    5.11    1.09   1
 -14   5   5    3.72    1.53   1
 -14  -5   5    6.54    1.74   1
 -14   5   4   14.22    1.75   1
  14   5  -4   14.15    1.70   1
  14  -5  -4   14.12    1.51   1
 -14  -5   4   11.18    2.11   1
 -14   5   3    3.44    1.04   1
  14   5  -3    4.08    1.04   1
  14  -5  -3    5.42    1.05   1
 -14  -5   3    4.53    1.43   1
  14   5  -2    1.21    0.87   1
 -14   5   2    1.81    0.88   1
 -14  -5   2    3.47    1.24   1
  14  -5  -2    2.75    0.92   1
 -14   5   1   -0.28    0.71   1
  14   5  -1    0.85    0.82   1
  14  -5  -1    1.75    0.98   1
 -14  -5   1    0.09    0.80   1
  15   0  -7   -0.66    0.59   1
 -15   0   7    1.70    1.31   1
  15   0  -6    0.16    0.67   1
 -15   0   6    1.42    1.19   1
 -15   0   5   -0.78    0.92   1
  15   0  -5    0.04    0.59   1
 -15   0   4    0.61    1.02   1
  15   0  -4   -0.40    0.58   1
 -15   0   3   -0.94    0.94   1
  15   0  -3    0.50    0.69   1
 -15   0   2    0.16    1.12   1
  15   0  -2   -0.05    0.75   1
 -15   0   1   -0.17    1.01   1
  15   0  -1   -0.71    0.59   1
 -15   1   7    5.19    1.14   1
 -15   1   7    5.48    1.62   1
  15   1  -7    3.12    1.01   1
  15  -1  -7    2.98    1.04   1
 -15  -1   7    4.21    1.63   1
 -15   1   6    2.07    1.43   1
 -15   1   6    0.94    0.75   1
  15   1  -6    2.07    0.88   1
 -15  -1   6    0.21    1.23   1
  15  -1  -6    1.91    0.88   1
 -15   1   5    7.25    1.68   1
  15   1  -5    6.80    1.22   1
 -15   1   5    4.83    1.10   1
  15  -1  -5    6.33    1.19   1
 -15  -1   5    5.84    1.62   1
  15   1  -4    0.43    0.74   1
 -15   1   4    0.39    1.06   1
 -15   1   4    0.25    0.68   1
  15  -1  -4    1.59    0.81   1
 -15  -1   4   -0.33    0.93   1
  15   1  -3    1.24    0.79   1
 -15   1   3    2.07    1.29   1
 -15   1   3    1.66    0.82   1
  15  -1  -3    0.09    0.72   1
 -15  -1   3    1.16    1.11   1
 -15   1   2    1.07    0.82   1
 -15   1   2    1.83    1.25   1
  15   1  -2    3.08    1.03   1
 -15  -1   2    1.84    1.14   1
  15  -1  -2    2.18    0.86   1
 -15   1   1    0.94    1.07   1
 -15   1   1    2.34    0.88   1
  15   1  -1    2.61    1.00   1
 -15  -1   1    3.06    1.10   1
  15  -1  -1    1.46    0.87   1
 -15   2   6    0.91    0.80   1
  15   2  -6    1.53    0.83   1
 -15   2   6    0.20    1.25   1
  15  -2  -6    1.38    0.82   1
 -15  -2   6    0.45    1.25   1
  15   2  -5    9.39    1.47   1
 -15   2   5   13.94    2.11   1
 -15   2   5   13.88    1.72   1
  15  -2  -5   11.55    1.59   1
 -15  -2   5   13.25    2.12   1
 -15   2   4    1.58    1.25   1
  15   2  -4    0.91    0.84   1
 -15   2   4    1.79    0.92   1
 -15  -2   4    2.13    1.20   1
  15  -2  -4    2.18    0.84   1
  15   2  -3   20.31    2.18   1
 -15   2   3   20.39    2.59   1
 -15   2   3   23.90    2.15   1
  15  -2  -3   22.21    2.25   1
 -15  -2   3   24.77    2.72   1
  15   2  -2   13.60    1.73   1
 -15   2   2    8.30    1.83   1
 -15   2   2   14.14    1.71   1
  15  -2  -2   12.63    1.57   1
 -15  -2   2   12.62    1.98   1
 -15   2   1   -0.44    0.63   1
 -15   2   1    0.07    1.10   1
  15   2  -1    0.32    0.76   1
  15  -2  -1    0.86    0.86   1
  15  -2  -1   -0.15    0.69   1
 -15  -2   1    1.08    1.02   1
 -15   3   5   19.81    2.11   1
  15   3  -5   19.47    2.10   1
 -15   3   5   20.21    2.60   1
 -15  -3   5   21.52    2.69   1
  15   3  -4    0.23    0.84   1
 -15   3   4   -0.40    0.73   1
 -15   3   4    0.75    1.26   1
 -15  -3   4    0.66    1.27   1
  15   3  -3    2.53    1.00   1
 -15   3   3    0.15    1.41   1
 -15   3   3    1.51    0.88   1
 -15  -3   3    1.31    1.15   1
  15   3  -2    7.09    1.33   1
 -15   3   2    8.33    1.33   1
 -15   3   2    5.72    1.80   1
 -15  -3   2    6.78    1.59   1
  15  -3  -2    7.17    1.22   1
   0   0   0    0.00    0.00   0
;
_shelx_hkl_checksum              97271
_shelx_res_file
;
TITL test2
    isotypic.res
    created by SHELXL-2017/1 at 17:37:51 on 15-Jan-2019
CELL 0.71069 8.6061 7.582 7.7252 90 105.88 90
ZERR    4.00   0.00020   0.00010   0.00020   0.0000   0.0011   0.0000
LATT 1
SYMM -x+1/2,y+1/2,-z
SFAC  H Ba O Te
UNIT 8 4 16 4
TEMP 23
L.S. 10
BOND $H
rem setting P21_a
rem same coordinates as in original study
omit -1 3 1
bond $H
LIST 6
htab
acta
size 0.18 0.09 0.01
rem crystal obtained by MS 12/2015 intended synthesis in the system BaSeTeO
rem redetermination wit H atoms located!
FMAP 2
PLAN 20
EQIV $10 x+1/2, -y+1/2, z
HTAB O1W O3_$10
EQIV $11 -x+1/2, y+1/2, -z+1
HTAB O1W O2_$11
dfix 0.85 0.01 O1W H1
dfix 0.85 0.01 O1W H2
dfix H1 H2 1.5 0.05
WGHT    0.013000    0.312400
FVAR       0.09164
BA1   2    0.332031    0.849050    0.117706    11.00000    0.01206    0.01126 =
         0.01810    0.00052    0.00307   -0.00019
TE1   4    0.004199    0.187103    0.288830    11.00000    0.01224    0.01311 =
         0.01221   -0.00102    0.00361    0.00006
O1    3   -0.047791    0.315648    0.074925    11.00000    0.01915    0.01550 =
         0.01553    0.00289    0.00554   -0.00030
O2    3    0.203312    0.098703    0.280667    11.00000    0.01449    0.02976 =
         0.02659   -0.00418    0.00646    0.00501
O3    3   -0.133127   -0.002384    0.203035    11.00000    0.01920    0.01465 =
         0.02481    0.00017    0.00502   -0.00400
O1W   3    0.137670    0.603999    0.356679    11.00000    0.02238    0.06019 =
         0.02154   -0.01310   -0.00122    0.01471
H1    1    0.209976    0.553297    0.319489    11.00000    0.04675
H2    1    0.172498    0.608051    0.470549    11.00000    0.04817
HKLF 4
REM  test2
REM R1 =  0.0199 for    2535 Fo > 4sig(Fo)  and  0.0290 for all    3003 data
REM     63 parameters refined using      3 restraints
END
WGHT      0.0130      0.3124
REM Instructions for potential hydrogen bonds
HTAB O1W O3_$10
HTAB O1W O2_$11
REM Highest difference peak  1.361,  deepest hole -1.029,  1-sigma level  0.221
Q1    1   0.3409  0.8121  0.0498  11.00000  0.05    1.36
Q2    1   0.0021  0.1131  0.2837  11.00000  0.05    1.35
Q3    1   0.3290  0.7669  0.1164  11.00000  0.05    1.20
Q4    1  -0.1767 -0.0365  0.1159  11.00000  0.05    1.07
Q5    1   0.0036  0.5095  0.2926  11.00000  0.05    1.02
Q6    1   0.1600  0.6946  0.5380  11.00000  0.05    0.99
Q7    1   0.1616  0.6466  0.3021  11.00000  0.05    0.91
Q8    1   0.1263  0.3127  0.1227  11.00000  0.05    0.81
Q9    1  -0.0070  0.1481  0.3676  11.00000  0.05    0.79
Q10   1  -0.0031  0.1970  0.2408  11.00000  0.05    0.76
Q11   1   0.0124  0.1824  0.5023  11.00000  0.05    0.76
Q12   1   0.2013  0.0033  0.3074  11.00000  0.05    0.75
Q13   1   0.2054  0.9910  0.1053  11.00000  0.05    0.74
Q14   1   0.3167  0.9635  0.2574  11.00000  0.05    0.72
Q15   1   0.4011  0.8285 -0.0161  11.00000  0.05    0.71
Q16   1  -0.0177  0.0186  0.2994  11.00000  0.05    0.70
Q17   1   0.1059  0.1930  0.4025  11.00000  0.05    0.69
Q18   1   0.0157  0.2960  0.1408  11.00000  0.05    0.67
Q19   1  -0.1456  0.2205  0.0190  11.00000  0.05    0.67
Q20   1   0.1975  0.3646  0.1984  11.00000  0.05    0.67
;
_shelx_res_checksum              19607
loop_
_space_group_symop_operation_xyz
'x, y, z'
'-x+1/2, y+1/2, -z'
'-x, -y, -z'
'x-1/2, -y-1/2, z'
loop_
_atom_site_type_symbol
_atom_site_label
_atom_site_fract_x
_atom_site_fract_y
_atom_site_fract_z
_atom_site_U_iso_or_equiv
_atom_site_adp_type
_atom_site_calc_flag
_atom_site_occupancy
Ba Ba 0.33203(2) 0.84905(2) 0.11771(2) 0.01402(3) Uani d 1
Te Te 0.00420(2) 0.18710(2) 0.28883(2) 0.01247(3) Uani d 1
O O1 -0.0478(2) 0.31565(19) 0.0749(2) 0.0166(3) Uani d 1
O O2 0.2033(2) 0.0987(2) 0.2807(2) 0.0234(3) Uani d 1
O O3 -0.1331(2) -0.0024(2) 0.2030(2) 0.0198(3) Uani d 1
O O4 0.1377(3) 0.6040(3) 0.3567(3) 0.0361(5) Uani d 1
H H1 0.210(3) 0.553(5) 0.319(5) 0.047(11) Uiso d 1
H H2 0.172(4) 0.608(5) 0.4705(14) 0.048(11) Uiso d 1
loop_
_atom_site_aniso_label
_atom_site_aniso_U_11
_atom_site_aniso_U_22
_atom_site_aniso_U_33
_atom_site_aniso_U_12
_atom_site_aniso_U_13
_atom_site_aniso_U_23
Ba 0.01206(5) 0.01126(5) 0.01810(6) -0.00019(3) 0.00307(4) 0.00052(4)
Te 0.01224(6) 0.01311(5) 0.01221(5) 0.00006(4) 0.00361(4) -0.00102(4)
O1 0.0191(7) 0.0155(6) 0.0155(7) -0.0003(5) 0.0055(6) 0.0029(5)
O2 0.0145(7) 0.0298(8) 0.0266(9) 0.0050(6) 0.0065(6) -0.0042(7)
O3 0.0192(7) 0.0147(6) 0.0248(8) -0.0040(5) 0.0050(6) 0.0002(6)
O4 0.0224(9) 0.0602(14) 0.0215(9) 0.0147(9) -0.0012(7) -0.0131(10)
loop_
_atom_type_symbol
_atom_type_description
_atom_type_scat_dispersion_real
_atom_type_scat_dispersion_imag
_atom_type_scat_source
H H 0.0000 0.0000 'International Tables Vol C Tables 4.2.6.8 and 6.1.1.4'
Ba Ba -0.3244 2.2819 'International Tables Vol C Tables 4.2.6.8 and 6.1.1.4'
O O 0.0106 0.0060 'International Tables Vol C Tables 4.2.6.8 and 6.1.1.4'
Te Te -0.5308 1.6751 'International Tables Vol C Tables 4.2.6.8 and 6.1.1.4'
loop_
_geom_angle_atom_site_label_1
_geom_angle_atom_site_label_2
_geom_angle_atom_site_label_3
_geom_angle_site_symmetry_1
_geom_angle_site_symmetry_3
_geom_angle
O2 Ba O1 1_565 2 139.83(5)
O2 Ba O3 1_565 4_665 127.23(5)
O1 Ba O3 2 4_665 89.77(5)
O2 Ba O1 1_565 3_565 98.76(5)
O1 Ba O1 2 3_565 107.47(5)
O3 Ba O1 4_665 3_565 73.59(5)
O2 Ba O4 1_565 4_675 92.01(7)
O1 Ba O4 2 4_675 73.13(6)
O3 Ba O4 4_665 4_675 86.63(6)
O1 Ba O4 3_565 4_675 160.17(6)
O2 Ba O1 1_565 4_675 68.09(5)
O1 Ba O1 2 4_675 71.75(5)
O3 Ba O1 4_665 4_675 153.03(5)
O1 Ba O1 3_565 4_675 130.01(4)
O4 Ba O1 4_675 4_675 69.54(6)
O2 Ba O3 1_565 3_565 83.85(5)
O1 Ba O3 2 3_565 84.18(5)
O3 Ba O3 4_665 3_565 127.51(4)
O1 Ba O3 3_565 3_565 59.15(4)
O4 Ba O3 4_675 3_565 139.19(5)
O1 Ba O3 4_675 3_565 71.32(5)
O2 Te O3 . . 102.18(8)
O2 Te O1 . . 99.12(8)
O3 Te O1 . . 96.48(7)
Te O1 Ba . 2_545 120.32(7)
Te O1 Ba . 3_565 101.64(6)
Ba O1 Ba 2_545 3_565 112.62(6)
Te O1 Ba . 4_575 112.15(7)
Ba O1 Ba 2_545 4_575 108.25(5)
Ba O1 Ba 3_565 4_575 99.87(5)
Te O2 Ba . 1_545 140.90(9)
Te O3 Ba . 4_565 148.51(8)
Te O3 Ba . 3_565 99.59(6)
Ba O3 Ba 4_565 3_565 100.63(5)
Ba O4 H1 4_575 . 119(2)
Ba O4 H2 4_575 . 133(3)
H1 O4 H2 . . 107(3)
loop_
_geom_bond_atom_site_label_1
_geom_bond_atom_site_label_2
_geom_bond_site_symmetry_2
_geom_bond_distance
Ba O2 1_565 2.6755(17)
Ba O1 2 2.6905(16)
Ba O3 4_665 2.7064(15)
Ba O1 3_565 2.7867(16)
Ba O4 4_675 2.792(2)
Ba O1 4_675 2.7980(15)
Ba O3 3_565 2.8461(17)
Te O2 . 1.8571(16)
Te O3 . 1.8632(16)
Te O1 . 1.8644(15)
O4 H1 . 0.846(10)
O4 H2 . 0.849(10)
loop_
_geom_hbond_atom_site_label_D
_geom_hbond_atom_site_label_H
_geom_hbond_atom_site_label_A
_geom_hbond_site_symmetry_A
_geom_hbond_distance_DH
_geom_hbond_distance_HA
_geom_hbond_distance_DA
_geom_hbond_angle_DHA
_geom_hbond_publ_flag
O4 H1 O3 4_665 0.846(10) 1.856(14) 2.679(3) 164(4) yes
O4 H2 O2 2_556 0.849(10) 1.928(13) 2.761(3) 167(4) yes

_cod_database_fobs_code 1551194
