#------------------------------------------------------------------------------
#$Date: 2019-07-04 11:31:55 +0300 (Thu, 04 Jul 2019) $
#$Revision: 216736 $
#$URL: file:///home/coder/svn-repositories/cod/cif/1/55/19/1551972.cif $
#------------------------------------------------------------------------------
#
# This file is available in the Crystallography Open Database (COD),
# http://www.crystallography.net/
#
# All data on this site have been placed in the public domain by the
# contributors.
#
data_1551972
loop_
_publ_author_name
'Neil S. Keddie'
'Alexandra M. Z. Slawin'
'Tomas Lebl'
'Douglas Philp'
'David O Hagan'
_publ_section_title
;
 All-cis 1,2,3,4,5,6-hexafluorocyclohexane is a facially polarized
 cyclohexane
;
_journal_name_full               'Nature Chemistry'
_journal_page_first              483
_journal_page_last               488
_journal_paper_doi               10.1038/nchem.2232
_journal_volume                  7
_journal_year                    2015
_chemical_absolute_configuration syn
_chemical_formula_moiety         'C7 H6 F8 O3 S'
_chemical_formula_sum            'C7 H6 F8 O3 S'
_chemical_formula_weight         322.17
_space_group_crystal_system      monoclinic
_space_group_IT_number           4
_space_group_name_Hall           'P 2yb'
_space_group_name_H-M_alt        'P 1 21 1'
_atom_sites_solution_hydrogens   geom
_atom_sites_solution_primary     direct
_atom_sites_solution_secondary   difmap
_cell_angle_alpha                90.0000
_cell_angle_beta                 97.192(3)
_cell_angle_gamma                90.0000
_cell_formula_units_Z            2
_cell_length_a                   5.6059(14)
_cell_length_b                   7.4253(17)
_cell_length_c                   13.076(3)
_cell_measurement_reflns_used    1818
_cell_measurement_temperature    93
_cell_measurement_theta_max      25.35
_cell_measurement_theta_min      3.14
_cell_volume                     540.0(2)
_computing_cell_refinement       'CrystalClear-SM Expert 2.1 b28'
_computing_data_collection
'CrystalClear-SM Expert 2.1 b28 (Rigaku, 2013)'
_computing_data_reduction        'CrystalClear-SM Expert 2.1 b28'
_computing_molecular_graphics    'CrystalStructure 4.1'
_computing_publication_material  'CrystalStructure 4.1 (Rigaku, 2014)'
_computing_structure_refinement  'SHELXL2013 (Sheldrick, 2008)'
_computing_structure_solution    'SIR2002 (Burla, et al., 2003)'
_diffrn_ambient_temperature      93
_diffrn_detector_area_resol_mean 5.811
_diffrn_measured_fraction_theta_full 0.985
_diffrn_measured_fraction_theta_max 0.983
_diffrn_measurement_device_type  'Rigaku XtaLAB P100'
_diffrn_measurement_method       \w
_diffrn_radiation_type           'Mo K\a'
_diffrn_radiation_wavelength     0.71075
_diffrn_reflns_av_R_equivalents  0.0645
_diffrn_reflns_Laue_measured_fraction_full 0.985
_diffrn_reflns_Laue_measured_fraction_max 0.983
_diffrn_reflns_limit_h_max       6
_diffrn_reflns_limit_h_min       -6
_diffrn_reflns_limit_k_max       8
_diffrn_reflns_limit_k_min       -8
_diffrn_reflns_limit_l_max       15
_diffrn_reflns_limit_l_min       -15
_diffrn_reflns_number            7413
_diffrn_reflns_point_group_measured_fraction_full 0.954
_diffrn_reflns_point_group_measured_fraction_max 0.951
_diffrn_reflns_theta_full        25.000
_diffrn_reflns_theta_max         25.407
_diffrn_reflns_theta_min         3.141
_diffrn_standards_interval_count .
_diffrn_standards_number         0
_exptl_absorpt_coefficient_mu    0.416
_exptl_absorpt_correction_T_max  0.996
_exptl_absorpt_correction_T_min  0.680
_exptl_absorpt_correction_type   multi-scan
_exptl_absorpt_process_details   'REQAB (Rigaku, 1998)'
_exptl_crystal_colour            colorless
_exptl_crystal_density_diffrn    1.981
_exptl_crystal_density_method    'not measured'
_exptl_crystal_description       platelet
_exptl_crystal_F_000             320.00
_exptl_crystal_size_max          0.100
_exptl_crystal_size_mid          0.100
_exptl_crystal_size_min          0.010
_refine_diff_density_max         1.00
_refine_diff_density_min         -0.49
_refine_ls_abs_structure_details
;
 Flack x determined using 730 quotients [(I+)-(I-)]/[(I+)+(I-)]
 (Parsons, Flack and Wagner, Acta Cryst. B69 (2013) 249-259).
;
_refine_ls_abs_structure_Flack   0.39(8)
_refine_ls_extinction_method     none
_refine_ls_goodness_of_fit_ref   1.059
_refine_ls_hydrogen_treatment    constr
_refine_ls_number_parameters     172
_refine_ls_number_reflns         1894
_refine_ls_number_restraints     1
_refine_ls_R_factor_all          0.0533
_refine_ls_R_factor_gt           0.0522
_refine_ls_shift/su_max          0.000
_refine_ls_structure_factor_coef Fsqd
_refine_ls_weighting_details
'w = 1/[\s^2^(Fo^2^)+(0.0886P)^2^+0.0000P] where P=(Fo^2^+2Fc^2^)/3'
_refine_ls_weighting_scheme      calc
_refine_ls_wR_factor_gt          0.1251
_refine_ls_wR_factor_ref         0.1257
_reflns_number_gt                1782
_reflns_number_total             1894
_reflns_threshold_expression     F^2^>2.0\s(F^2^)
_cod_data_source_file            nchem.2232-s6.cif
_cod_data_source_block           11
_cod_database_code               1551972
_shelx_res_file
;

    shelxl.res created by SHELXL-2014/7

TITL NKDH24
CELL  0.71075 5.60590 7.42530 13.07590 90.00000 97.19210 90.00000
ZERR  2 0.00138 0.00165 0.00312 0.00000 0.00340 0.00000
LATT -1
SYMM    -X, .50+Y,    -Z
SFAC C H F O S
UNIT 14 12 16 6 2
L.S. 20
FMAP 2
PLAN -5
WPDB -2
HTAB
BOND $H
CONF
LIST 4
TEMP -180.0
ACTA 50
SIZE 0.010 0.100 0.100
WGHT    0.088600
FVAR       0.77785
S1    5    0.241778    0.462756    0.730516    11.00000    0.01357    0.02335 =
         0.04207    0.00072    0.00541    0.00030
F1    3    0.541456    0.628830    0.952655    11.00000    0.02156    0.03348 =
         0.03932    0.00675    0.00698   -0.00435
F2    3    0.978992    0.757016    0.909104    11.00000    0.01216    0.03166 =
         0.04066    0.00253    0.00562    0.00281
F3    3    1.051456    1.112341    0.885438    11.00000    0.01541    0.03620 =
         0.04424   -0.00051    0.00171   -0.00949
F4    3    0.937898    0.920766    0.712447    11.00000    0.01372    0.03272 =
         0.04152    0.00271    0.00991    0.00233
F5    3    0.485008    0.886898    0.619041    11.00000    0.02515    0.03402 =
         0.03598    0.00259    0.00164   -0.00608
F6    3    0.518632    0.492251    0.585971    11.00000    0.02902    0.05446 =
         0.04443   -0.00934    0.01315   -0.00642
F7    3    0.143607    0.554401    0.535974    11.00000    0.04525    0.05418 =
         0.04623    0.00221   -0.00655    0.00654
F8    3    0.256413    0.277738    0.564971    11.00000    0.05124    0.04045 =
         0.05757   -0.01735    0.00838   -0.00806
O6    4    0.284363    0.664462    0.753659    11.00000    0.00853    0.02742 =
         0.04122    0.00210    0.00414    0.00259
O7    4    0.423075    0.353225    0.785896    11.00000    0.01856    0.02690 =
         0.04756    0.00054    0.00660    0.00418
O8    4   -0.007110    0.431965    0.733922    11.00000    0.01621    0.03026 =
         0.06399   -0.00132    0.00757   -0.00444
C1    1    0.553706    0.787064    0.897097    11.00000    0.01007    0.02678 =
         0.03885    0.00247    0.00630    0.00051
AFIX  13
H1    2    0.422445    0.870301    0.912353    11.00000   -1.20000
AFIX   0
C2    1    0.797760    0.876991    0.928154    11.00000    0.01171    0.03167 =
         0.03579   -0.00245    0.00492    0.00088
AFIX  13
H2    2    0.815482    0.907852    1.003165    11.00000   -1.20000
AFIX   0
C3    1    0.817016    1.047726    0.864977    11.00000    0.01186    0.02352 =
         0.04170   -0.00219    0.00570   -0.00048
AFIX  13
H3    2    0.705106    1.140059    0.887845    11.00000   -1.20000
AFIX   0
C4    1    0.759928    1.023269    0.748835    11.00000    0.01294    0.02197 =
         0.03998    0.00282    0.00526    0.00246
AFIX  13
H4    2    0.748800    1.143444    0.714044    11.00000   -1.20000
AFIX   0
C5    1    0.521476    0.920630    0.723369    11.00000    0.01138    0.02328 =
         0.03718    0.00158    0.00493    0.00190
AFIX  13
H5    2    0.387062    0.997350    0.742268    11.00000   -1.20000
AFIX   0
C6    1    0.523936    0.744259    0.782220    11.00000    0.00949    0.02230 =
         0.04274   -0.00304    0.00368   -0.00348
AFIX  13
H6    2    0.654145    0.662458    0.764239    11.00000   -1.20000
AFIX   0
C7    1    0.293173    0.446334    0.593760    11.00000    0.02995    0.03342 =
         0.04197   -0.00159    0.00441    0.00203
HKLF 4
 
REM  NKDH24
REM R1 =  0.0522 for    1782 Fo > 4sig(Fo)  and  0.0533 for all    1894 data
REM    172 parameters refined using      1 restraints
 
END  
     
WGHT      0.0883      0.0000 

REM Instructions for potential hydrogen bonds
EQIV $1 -x+1, y+1/2, -z+2
HTAB C1 F1_$1
EQIV $2 x-1, y, z
HTAB C1 F2_$2
EQIV $3 x, y+1, z
HTAB C3 O7_$3
HTAB C4 O7_$3
EQIV $4 x+1, y+1, z
HTAB C4 O8_$4
HTAB C5 F4_$2
EQIV $5 x+1, y, z
HTAB C6 O8_$5

REM Highest difference peak  0.999,  deepest hole -0.493,  1-sigma level  0.120
Q1    1   0.2308  0.4633  0.6616  11.00000  0.05    1.00
Q2    1   0.2690  0.4516  0.8023  11.00000  0.05    0.81
Q3    1   0.2578  0.6063  0.7003  11.00000  0.05    0.62
Q4    1   0.7858  1.0451  0.8022  11.00000  0.05    0.54
Q5    1   0.5251  0.6347  0.8773  11.00000  0.05    0.50
;
_shelx_res_checksum              57652
_shelx_hkl_file
;
   0   1   0    0.60    2.55
   0   1   0    0.56    2.45
   0   0   2 1744.29   39.37
   0   0  -2 1745.96   42.64
   0   0  -2 1575.96   36.55
   0   0  -2 1655.87   38.27
   0   1   1  489.20   18.60
   0   1   1  547.23   20.53
   0   1  -1  592.43   47.66
   0   1   1  479.03   17.90
   0   1   1  531.45   19.36
   0   1  -1  529.38   21.99
   0   1  -1  456.24   24.46
  -1   0   0  295.93   13.15
   1   0   0  315.34   13.65
  -1   0   0  301.12   13.50
  -1   0   0  307.98   14.11
  -1   0   0  326.14   14.21
  -1   0   0  356.73   17.39
  -1   0   1   93.05    6.75
  -1   0   1   94.62    7.55
   1   0  -1   97.92    6.72
   1   0  -1  105.00    7.86
   1   0  -1  100.81    7.11
   1   0  -1   94.33    6.63
   1   0   1 1779.01   46.92
  -1   0  -1 1681.72   40.36
   1   0   1 1632.73   38.28
   1   0   1 1652.32   42.70
  -1   0  -1 1675.53   40.67
  -1   0  -1 1646.20   41.23
  -1   0  -1 1611.61   41.88
   1   0   1 1799.48   50.23
   0   1   2 1533.49   37.82
   0   1  -2 1456.11   37.85
   0   1   2 1533.35   36.26
   0   1  -2 1403.77   34.13
   0   1   2 1416.26   35.87
   0   1   2 1501.01   34.69
   0   1  -2 1606.17   43.39
   0   1  -2 1553.62   40.89
   1   0  -2 1289.37   32.44
   1   0  -2 1431.61   35.30
  -1   0   2 1347.85   32.22
   1   0  -2 1336.66   33.24
  -1   0   2 1339.34   33.92
   1  -1   0 5501.45  119.14
  -1   1   0 5783.29  124.32
   1   1   0 6180.31  183.96
  -1  -1   0 6147.05  181.62
  -1   1   0 5727.38  131.00
  -1   1   0 5401.07  111.68
  -1  -1   0 6285.97  188.45
  -1   1   0 5495.40  114.71
  -1   1   0 5304.76  119.16
  -1  -1   0 5852.22  114.29
  -1   1   1  749.58   26.87
  -1  -1   1  745.18   21.75
  -1   1   1  834.65   27.98
  -1   1   1  714.70   24.10
   1  -1  -1  834.12   28.00
   1  -1  -1  668.19   32.03
   1   1  -1  818.52   23.10
  -1   1   1  685.93   25.63
   1   1  -1  781.64   33.87
   1   1  -1  830.28   40.68
   1   1  -1  750.49   22.06
  -1  -1   1  818.38   26.29
   1  -1  -1  780.55   45.17
   0   0  -3    0.06    2.04
   0   0   3    0.41    2.24
   0   0  -3    0.18    2.51
   0   0   3   -0.04    1.86
   0   0   3    0.15    2.25
   0   0   3   -0.15    2.01
   0   0  -3    0.36    2.08
   0   0  -3    0.13    1.96
   1  -1   1  262.71   17.79
   1  -1   1  207.23   10.91
  -1   1  -1  222.30   16.72
   1  -1   1  253.85   16.62
  -1  -1  -1  240.45   11.54
   1   1   1  220.05   10.21
  -1  -1  -1  197.51    9.91
  -1   1  -1  204.61   11.73
  -1  -1  -1  225.88   10.90
  -1  -1  -1  224.04   11.35
   1  -1   1  213.27   12.30
  -1   1  -1  223.68   13.23
   1   1   1  227.31   12.29
   1   1   1  246.49   13.16
   1   1   1  227.36   11.58
  -1   1  -1  249.29   16.48
   1   0   2 1527.17   42.47
  -1   0  -2 1297.46   34.28
   1   0   2 1403.31   33.96
  -1   0  -2 1478.58   37.86
  -1   0  -2 1450.37   40.41
   1   0   2 1401.79   37.25
   1   0   2 1462.60   41.36
  -1   0  -2 1333.38   36.26
   1  -1  -2 2553.77   59.41
  -1  -1   2 2364.52   52.15
  -1   1   2 2236.75   50.17
   1  -1  -2 2466.15   70.36
  -1  -1   2 2433.55   53.70
   1   1  -2 2327.84   52.36
   1   1  -2 2576.15   56.43
   1  -1  -2 2176.28   55.94
   1  -1  -2 2442.51   56.39
   1   1  -2 2433.77   52.87
  -1   1   2 2496.63   59.32
  -1  -1   2 2359.63   51.25
   1  -1  -2 2157.17   51.29
   0   1   3  234.23   10.36
   0   1   3  205.60   10.07
   0   1  -3  213.16   11.16
   0   1  -3  218.53   10.92
   0   1   3  222.19   11.20
   0   1   3  228.10   11.70
   0   1  -3  229.17   12.23
   0   1  -3  222.32   12.32
   0   2   0 1790.80   53.23
   0  -2   0 1532.42   59.00
   0  -2   0 1687.43   80.43
   0  -2   0 1655.57   66.92
   0   2   0 1623.23   57.54
   0   2   0 1671.91   62.77
   1   0  -3    0.79    2.65
   1   0  -3    1.02    2.54
   1   0  -3    0.41    2.15
   1   0  -3    0.48    1.92
  -1   0   3    0.55    1.78
   1   0  -3    1.00    2.11
   0  -2  -1 1395.84   55.97
   0   2   1 1443.44   54.93
   0   2  -1 1461.36   74.67
   0   2   1 1536.01   59.39
   0   2  -1 1365.49   51.68
   0  -2   1 1489.82   39.33
   0  -2  -1 1513.64   59.51
   0   2   1 1437.85   39.95
   0  -2   1 1403.52   65.29
   0   2  -1 1339.93   46.33
   0  -2  -1 1414.80   49.71
   0   2   1 1624.12   50.09
   0   2  -1 1539.79   65.75
   1  -1   2  157.47   12.77
   1  -1   2  113.31    7.36
  -1   1  -2  118.44    8.21
   1   1   2  141.98    7.95
  -1   1  -2  147.51   11.21
   1   1   2  136.55    8.80
  -1  -1  -2  136.69    8.63
  -1  -1  -2  112.29    8.17
  -1   1  -2  142.35   10.29
   1  -1   2  135.30    8.19
   1  -1   2  124.24   11.17
  -1   1  -2  135.26    8.47
   1   1   2  133.81    9.09
   1   1   2  135.31    9.39
  -1  -1  -2  147.46    9.55
  -1  -1   3  445.08   16.47
   1  -1  -3  408.97   18.96
   1  -1  -3  427.13   20.63
  -1   1   3  423.01   15.74
   1   1  -3  443.97   16.07
   1  -1  -3  449.81   17.15
  -1  -1   3  446.93   15.07
  -1   1   3  455.25   16.93
   1   1  -3  450.49   15.80
   1  -1  -3  407.05   18.65
  -1   1   3  446.55   20.08
   1   1  -3  473.68   18.17
  -1  -1   3  474.46   16.73
  -1  -1   3  464.57   16.12
   1   1  -3  463.38   17.87
   0   0   4  550.03   18.97
   0   0   4  518.44   21.96
   0   0  -4  469.70   19.13
   0   0  -4  506.76   17.35
   0   0   4  534.50   18.05
   0   0  -4  522.38   18.04
   0   0   4  466.75   18.15
   0   0  -4  500.87   20.67
   1   0   3  393.33   17.46
  -1   0  -3  371.12   15.15
   1   0   3  404.32   16.42
   1   0   3  467.11   18.49
  -1   0  -3  394.34   16.07
  -1   0  -3  448.29   20.11
   1   0   3  487.47   17.09
  -1   0  -3  400.65   15.26
   0  -2   2 1208.46   67.22
   0   2  -2 1234.97   65.10
   0   2   2 1501.40   51.89
   0  -2  -2 1346.22   58.71
   0   2   2 1503.84   53.45
   0  -2   2 1509.57   39.09
   0   2  -2 1340.45   42.99
   0  -2  -2 1506.57   38.87
   0  -2  -2 1364.39   40.62
   0  -2   2 1350.83   64.79
   0   2  -2 1320.46   43.63
   0  -2  -2 1351.59   57.11
   0   2   2 1528.35   38.73
   0   2  -2 1537.49   51.79
   0   2   2 1434.19   35.52
   0   2  -2 1364.26   57.06
  -1  -2   0  284.53   14.01
  -1  -2   0  228.84   16.10
  -1   2   0  198.37   18.97
   1   2   0  255.90   16.33
  -1   2   0  286.50   29.87
  -1   2   0  234.37   17.38
  -1  -2   0  267.93   12.96
   1   2   0  272.79   24.63
  -1   2   0  201.73   23.82
   1   2   0  261.46   29.93
  -1  -2   0  229.91   16.76
  -1   2   0  227.06   19.86
  -1   2   1   51.85    6.96
   1  -2  -1   50.28    7.61
  -1   2   1   44.25    8.73
   1   2  -1   58.22    6.28
  -1   2   1   41.61    8.61
   1  -2  -1   49.94    7.31
   1   2  -1   59.03    6.43
   0   1  -4 1665.35   48.40
   0   1  -4 1717.85   45.11
   0   1   4 1657.22   42.79
   0  -1  -4 1650.75   41.64
   0  -1  -4 1748.62   41.99
   0   1   4 1863.62   46.37
   0   1   4 1666.46   42.76
   0   1  -4 1787.83   43.22
  -1   0   4  898.24   27.22
   1   0  -4  953.02   28.86
   1   0  -4  827.48   24.96
   1   0  -4  923.24   30.97
   1   0  -4  887.96   27.31
   1   2   1  352.52   16.42
   1   2   1  354.73   21.57
  -1   2  -1  347.80   15.11
   1   2   1  325.34   13.76
  -1   2  -1  257.96   29.74
   1  -2   1  340.04   14.66
  -1  -2  -1  322.35   15.39
  -1   2  -1  248.28   29.65
  -1  -2  -1  343.28   15.21
   1   2   1  325.07   15.11
  -1  -2  -1  283.80   17.13
  -1   2  -1  283.72   20.19
  -1   2  -1  268.78   20.51
  -1  -1  -3  224.53   12.28
  -1   1  -3  225.70   12.27
   1  -1   3  243.61   16.64
  -1   1  -3  189.03   10.71
  -1  -1  -3  249.85   13.03
  -1   1  -3  190.40   11.44
   1   1   3  226.82   11.46
   1   1   3  233.94   11.73
   1  -1   3  221.19   12.78
  -1   1  -3  235.00   11.67
   1   1   3  226.51   14.22
   1  -1   3  236.02   15.05
   1   1   3  228.18   10.80
  -1   2   2  307.65   17.69
   1  -2  -2  286.06   21.40
   1   2  -2  327.20   19.93
  -1   2   2  272.01   21.75
  -1   2   2  338.47   15.13
   1   2  -2  371.00   16.36
   1  -2  -2  282.36   17.55
   1   2  -2  356.94   20.25
   1   2  -2  359.64   16.35
   0  -2   3  709.44   40.32
   0   2  -3  735.24   24.97
   0   2   3  774.65   23.53
   0  -2   3  716.59   46.97
   0  -2  -3  672.14   31.86
   0  -2  -3  715.03   23.72
   0   2  -3  705.19   28.51
   0  -2   3  643.90   28.85
   0   2  -3  650.77   38.35
   0   2   3  817.37   26.57
   0   2  -3  656.60   23.58
   0  -2   3  782.57   27.20
   0  -2  -3  725.77   24.41
   0   2   3  650.58   27.97
  -2   0   1 1257.25   36.92
   2   0  -1 1343.08   36.65
   2   0  -1 1315.18   36.60
  -2   0   1 1381.74   37.98
  -2   0   1 1234.80   34.04
  -2   0   1 1252.89   36.25
  -2   0   0  919.83   28.44
  -2   0   0 1009.08   37.08
  -2   0   0  939.96   29.35
  -2   0   0  922.50   28.94
  -2   0   0 1094.61   33.38
   1   1  -4  620.16   22.86
   1  -1  -4  564.30   21.20
  -1   1   4  641.37   22.07
  -1   1   4  660.21   21.87
   1   1  -4  606.24   19.96
  -1  -1   4  640.01   20.98
   1  -1  -4  595.87   24.30
   1   1  -4  702.42   21.52
   1  -1  -4  611.50   31.37
  -1  -1   4  654.41   20.08
   1   1  -4  595.21   18.36
   1  -1  -4  613.75   27.34
   1   1  -4  709.60   20.97
  -1   1   4  680.61   21.07
  -1  -1   4  689.36   21.31
  -1  -2  -2  600.09   23.18
   1   2   2  546.21   19.16
  -1  -2  -2  538.85   17.91
  -1  -2  -2  565.68   21.69
   1   2   2  620.94   19.90
  -1   2  -2  494.57   38.22
   1  -2   2  564.71   27.00
  -1   2  -2  471.81   33.36
  -1   2  -2  549.49   22.67
   1   2   2  561.73   24.70
   1  -2   2  540.66   24.57
   1   2   2  558.80   20.07
  -1   2  -2  508.63   26.63
   2   0  -2   35.58    4.69
   2   0  -2   36.24    5.05
  -2   0   2   32.65    4.44
  -2   0   2   32.11    4.08
  -2   0   2   30.60    3.94
  -2   0   2   29.87    4.27
   1   0   4  613.87   20.20
  -1   0  -4  600.29   20.54
   1   0   4  492.33   19.04
   1   0   4  659.57   22.63
  -1   0  -4  602.07   21.24
  -1   0  -4  531.85   21.14
   1   0   4  523.31   17.27
  -1   0  -4  568.56   24.79
   2   0   1   59.02    7.62
  -2   0  -1   54.81    5.77
  -2   0  -1   52.11    5.32
   2   0   1   60.69    7.80
   2   1  -1  933.03   31.26
   2   1  -1  887.13   26.36
  -2  -1   1  949.17   28.38
  -2   1   1  908.56   29.51
  -2  -1   1  973.82   32.50
  -2   1   1  844.67   30.14
  -2  -1   1  976.17   27.07
   2  -1  -1  875.06   35.52
   2  -1  -1  967.87   32.30
  -2  -1   1  983.84   29.83
   2  -1  -1  849.99   34.92
  -2  -1   0  369.22   16.53
  -2  -1   0  350.96   16.35
  -2  -1   0  391.28   19.31
   2  -1   0  307.17   14.97
   2   1   0  341.48   14.62
  -2  -1   0  355.20   14.61
  -2  -1   0  364.39   16.15
  -2   1   0  371.28   15.75
  -2   1   0  304.11   19.70
  -2   1   0  360.94   21.43
  -2   1   0  325.66   17.39
  -2   1   0  362.59   25.67
  -2  -1   0  367.32   18.86
  -2  -1   0  371.61   17.73
  -1   2   3  497.18   20.96
   1  -2  -3  494.69   23.56
  -1   2   3  500.46   22.89
   1   2  -3  519.49   20.69
   1  -2  -3  461.44   22.85
   1   2  -3  525.66   20.72
   1   2  -3  516.78   22.04
  -1   2   3  471.92   27.73
  -1   2   3  462.12   20.65
  -1  -2   3  480.61   19.78
   1   2  -3  501.50   22.84
  -1  -2   3  438.73   20.95
   1  -2  -3  402.39   29.32
   0   0   5  390.46   18.07
   0   0  -5  371.52   21.53
   0   0   5  410.33   23.03
   0   0  -5  444.98   18.73
   0   0   5  413.46   14.92
   0   0  -5  367.94   17.38
   0   0  -5  394.25   20.98
   0   0   5  470.71   18.90
   2  -1  -2  604.78   26.21
   2   1  -2  800.88   31.99
   2   1  -2  718.33   28.36
   2  -1  -2  710.12   32.83
  -2  -1   2  741.70   27.99
  -2   1   2  612.93   32.46
   2  -1  -2  719.38   34.11
  -2   1   2  719.70   31.09
  -2  -1   2  752.84   29.17
   2   1  -2  728.31   29.35
  -2   1   2  642.12   27.21
  -2  -1   2  760.18   27.95
   2   1  -2  754.11   28.48
   2  -1  -2  640.29   29.32
  -2  -1   2  824.04   32.32
   1  -1   4  773.42   34.96
  -1   1  -4  722.75   30.28
  -1  -1  -4  723.92   28.96
   1   1   4  791.35   33.62
  -1   1  -4  775.63   31.25
  -1   1  -4  700.11   32.78
   1  -1   4  782.79   37.59
   1   1   4  816.08   31.44
   1   1   4  766.08   28.91
   1   1   4  704.22   35.63
   1  -1   4  746.83   29.72
  -1  -1  -4  753.70   29.96
  -1   1  -4  635.18   29.78
  -2   1  -1  509.94   28.71
   2  -1   1  592.65   30.01
   2   1   1  603.02   27.82
   2  -1   1  610.18   30.28
  -2  -1  -1  562.35   25.97
  -2  -1  -1  516.92   23.99
   2   1   1  523.83   24.88
   2  -1   1  437.55   24.19
  -2  -1  -1  460.98   20.06
  -2   1  -1  487.73   21.08
   2   1   1  586.68   27.12
  -2   1  -1  515.15   25.12
  -2  -1  -1  510.42   22.43
  -2   1  -1  430.34   20.53
   2  -1   1  484.90   23.83
   2   1   1  506.58   21.26
  -2   0   3  120.31    8.49
  -2   0   3  127.05    8.56
   2   0  -3  135.22    8.98
  -2   0   3  156.18    9.98
   2   0  -3  142.14    9.87
  -2   0   3  132.17    8.44
   0   3   0    0.06    1.78
   0   3   0    0.12    1.81
   0   3   0    0.09    1.78
   0  -3   0    0.05    2.00
   0  -3   0    0.11    2.32
   0  -3   0    0.15    2.25
  -1   0   5 5784.98  194.23
   1   0  -5 6183.32  202.30
   1   0  -5 5282.02  157.26
  -1   0   5 5715.11  171.01
   1   0  -5 5786.43  190.69
   0   1   5 1787.45   61.58
   0  -1  -5 1773.81   59.28
   0   1  -5 1701.72   61.92
   0   1   5 1680.70   57.40
   0   1  -5 1778.86   63.48
   0   1  -5 1793.73   63.76
   0   1  -5 1702.99   60.20
   0   1   5 1719.13   57.46
   0  -1  -5 1624.12   65.66
   0   1   5 1717.87   62.45
  -2   0  -2  109.34    8.33
   2   0   2  116.15    9.35
   2   0   2  114.43   10.01
  -2   0  -2   95.39    7.82
   0  -2   4  390.05   21.13
   0  -2   4  326.18   27.30
   0   2  -4  379.10   21.68
   0  -2   4  380.41   23.00
   0   2   4  408.40   21.02
   0  -2   4  326.76   25.66
   0  -2  -4  352.22   18.97
   0   2  -4  403.62   19.54
   0  -2  -4  401.60   20.49
   0   2   4  390.14   25.95
   0   2   4  393.14   18.74
   0  -2  -4  359.46   18.37
   0   2  -4  401.75   18.23
   0   2   4  378.72   17.73
   0   2  -4  344.24   23.59
   1   2   3  390.82   23.40
   1  -2   3  328.95   20.54
   1   2   3  367.81   16.69
  -1   2  -3  397.58   20.19
  -1  -2  -3  345.87   18.94
  -1  -2  -3  375.75   19.31
   1   2   3  382.92   17.21
   1  -2   3  397.41   19.78
  -1   2  -3  326.69   21.89
   1   2   3  386.34   18.40
  -1  -2  -3  361.15   17.81
  -1   2  -3  334.46   20.97
   1  -2   3  378.24   23.50
  -1   2  -3  339.60   19.38
   0  -3  -1  348.60   25.71
   0   3   1  334.61   25.46
   0   3  -1  311.53   33.49
   0   3   1  326.47   21.57
   0  -3  -1  331.57   20.48
   0   3  -1  286.63   18.77
   0  -3   1  296.10   20.48
   0   3  -1  286.97   24.50
   0  -3  -1  340.54   21.91
   0  -3  -1  322.84   26.00
   0   3   1  299.91   22.45
   0   3  -1  262.32   23.16
   0  -3  -1  316.84   22.00
   0  -3   1  305.80   20.17
   0   3  -1  294.68   20.09
   0   3  -1  305.04   26.12
  -2   1   3  576.26   23.98
   2  -1  -3  643.82   28.31
  -2  -1   3  684.12   26.84
  -2  -1   3  643.62   26.09
   2   1  -3  665.65   27.36
   2  -1  -3  565.67   26.34
   2   1  -3  666.58   27.67
   2  -1  -3  723.38   30.07
   2   1  -3  688.12   27.35
   2  -1  -3  591.57   24.77
  -2  -1   3  662.60   25.52
  -2  -1   3  725.34   28.98
  -2   1   3  603.30   24.88
   2   1  -3  651.08   26.93
  -2   1   3  604.18   24.00
  -1   1   5  168.23   14.66
   1  -1  -5  165.77   11.90
  -1   1   5  193.84   12.68
  -1   1   5  156.63   12.66
   1  -1  -5  162.37   14.54
  -1  -1   5  155.46   12.19
   1   1  -5  173.02   11.31
  -1  -1   5  180.49   11.51
   1   1  -5  170.49   14.21
   1   1  -5  181.02   14.22
  -1  -1   5  175.58   10.46
  -1   1   5  168.64   14.22
   1   1  -5  171.85   12.33
   1  -1  -5  172.50   14.26
   1   1  -5  168.95   12.03
   1  -1  -5  176.96   18.22
   2  -1   2   86.00    9.79
  -2   1  -2   73.88    7.95
  -2  -1  -2   77.34    7.65
  -2   1  -2   68.37    7.16
   2  -1   2   75.87    6.57
   2   1   2   85.15    7.68
  -2  -1  -2   86.95    7.16
   2  -1   2   74.66    7.51
  -2   1  -2   81.82    8.66
  -2  -1  -2   79.81    7.31
  -2  -1  -2   80.30    7.51
  -2   1  -2   55.41    6.27
   2   1   2   83.46    7.82
   2  -1   2   83.05    9.91
   2   1   2   69.57    5.70
   2   1   2   87.10    8.28
   1   2  -4 1210.79   45.90
   1   2  -4 1266.36   52.02
  -1   2   4 1273.26   55.58
   1   2  -4 1274.38   44.87
  -1   2   4 1158.40   47.95
   1  -2  -4 1104.91   48.01
   1   2  -4 1306.79   50.40
   1  -2  -4 1168.59   53.76
  -1   2   4 1065.96   44.56
  -1   2   4 1092.64   44.57
   1  -2  -4 1148.09   51.28
   1   2  -4 1293.50   45.19
  -1  -2   4 1154.75   42.29
   0   3  -2  916.50   59.21
   0  -3   2 1062.20   69.84
   0   3   2 1173.56   48.67
   0   3  -2 1035.60   46.52
   0  -3   2 1030.69   61.06
   0   3  -2 1159.65   55.44
   0  -3  -2 1330.37   54.56
   0   3   2 1250.56   51.57
   0   3  -2 1140.26   44.73
   0   3  -2 1137.29   47.59
   0  -3   2 1235.01   46.16
   0   3   2 1134.02   52.24
   0  -3  -2 1118.63   53.58
   0  -3  -2 1086.45   40.90
   0   3   2 1116.15   51.18
  -1   3   0   49.80   14.38
  -1  -3   0   40.21    7.05
  -1   3   0   47.82   10.53
  -1  -3   0   58.88    7.20
  -1  -3   0   51.55    7.48
   1   3   0   46.42    9.80
  -1  -3   0   50.37    7.75
  -1  -3   0   57.08    9.29
   1   3   0   56.80    9.93
  -1   3   0   49.95   14.60
  -1   3   0   46.13    8.74
   1   3   0   59.86    8.45
   2   0  -4  564.82   22.74
  -2   0   4  608.99   24.13
   2   0  -4  599.31   25.02
  -2   0   4  599.04   25.14
  -2   0   4  645.14   25.69
  -2   0   4  580.71   22.57
  -1   3   1  360.55   24.24
  -1  -3   1  511.75   26.70
   1  -3  -1  407.06   38.25
  -1   3   1  363.22   27.14
   1   3  -1  420.12   37.54
   1   3  -1  426.80   27.15
   1  -3  -1  399.94   32.88
   1   3  -1  418.42   25.04
  -1  -3   1  437.72   25.71
   1   0   5  601.58   27.30
   1   0   5  672.16   33.63
  -1   0  -5  577.72   27.59
   1   0   5  661.78   27.66
  -1   0  -5  685.38   29.25
  -1   0  -5  591.34   25.48
   1   0   5  650.78   27.14
  -2  -2   1  617.33   35.40
   2   2  -1  632.80   26.66
  -2   2   1  449.38   29.76
   2  -2  -1  565.42   35.46
  -2   2   1  433.16   25.57
  -2  -2   1  618.19   31.91
   2  -2  -1  536.53   30.88
   2   2  -1  630.18   25.57
   2  -2  -1  566.23   29.97
  -2   2   1  572.24   26.42
  -2   2   1  502.27   34.60
   2  -2   0  263.38   20.77
  -2  -2   0  348.30   18.39
   2   2   0  337.48   17.14
  -2  -2   0  320.18   20.32
  -2   2   0  269.50   25.20
  -2   2   0  240.06   18.49
  -2   2   0  240.13   21.54
  -2   2   0  276.39   29.87
  -2   2   0  360.98   22.62
  -2   2   0  225.21   17.72
  -2   2   0  221.33   16.85
  -2   0  -3  564.34   25.89
  -2   0  -3  617.03   26.80
   2   0   3  693.55   29.80
   2   0   3  685.99   28.63
   1   3   1  106.13    8.80
  -1  -3  -1   75.95    9.07
  -1   3  -1   83.28   16.43
  -1  -3  -1   88.21   12.46
  -1   3  -1   91.31   17.16
  -1  -3  -1   73.81    9.22
  -1   3  -1   76.69   17.33
   1   3   1   91.89    9.76
  -1  -3  -1  107.52   12.13
  -1   3  -1   87.38   13.81
   1   3   1   95.88   10.41
  -1   3  -1   79.08   15.03
  -1  -3  -1   94.86   10.17
  -1   3  -1   80.51   18.01
   2  -2  -2  795.22   39.10
   2  -2  -2  774.15   35.68
  -2  -2   2  973.33   34.49
  -2   2   2  838.68   39.78
   2  -2  -2  852.41   56.03
   2   2  -2  882.62   41.66
  -2   2   2  958.75   36.49
   2  -2  -2  951.68   49.50
   2   2  -2 1066.92   39.26
   2   2  -2 1046.89   39.79
   2   2  -2  963.11   40.20
  -2   2   2  829.63   40.28
  -2   2   2  820.12   42.70
   1  -3  -2  166.51   15.81
  -1  -3   2  193.86   15.84
   1   3  -2  214.67   16.34
  -1   3   2  156.07   15.61
   1   3  -2  190.28   17.66
   1   3  -2  186.95   13.78
  -1  -3   2  192.79   14.95
   1  -3  -2  179.41   20.37
  -1   3   2  158.93   16.09
   1  -3  -2  175.87   18.31
   1   3  -2  194.62   22.26
   1   3  -2  148.81   18.19
  -1   3   2  177.65   15.68
  -1  -2  -4 1205.06   45.26
   1  -2   4 1190.65   52.86
  -1  -2  -4 1192.61   45.27
  -1   2  -4 1118.80   47.06
   1   2   4 1100.33   45.10
  -1   2  -4 1180.76   46.50
  -1  -2  -4 1079.49   45.37
   1   2   4 1172.75   40.99
   1  -2   4 1010.99   44.22
  -1   2  -4 1039.10   44.61
   1  -2   4 1072.15   57.16
  -1   2  -4 1098.46   42.42
   1   2   4 1229.19   47.87
   1   2   4 1141.13   40.41
   0   0   6 4724.84  153.59
   0   0  -6 4290.40  132.25
   0   0   6 4374.46  137.25
   0   0  -6 5050.20  159.49
   0   0  -6 4448.80  142.22
   0   0  -6 5092.84  168.44
   0   0   6 4939.59  155.13
   0   0   6 5034.63  151.98
   2   2   1 1797.98   59.89
  -2   2  -1 1911.48   87.01
   2  -2   1 1823.36   60.94
  -2   2  -1 1722.47   83.04
  -2   2  -1 1920.93   87.73
  -2   2  -1 1916.05   79.52
  -2  -2  -1 1980.73   64.99
   2   2   1 1988.35   70.38
  -2   2  -1 1861.84   71.17
   2   1  -4  144.76    9.76
   2   1  -4  160.38   11.82
   2  -1  -4  128.40   10.58
   2   1  -4  134.56    8.95
   2  -1  -4  148.92   12.45
  -2   1   4  135.26    9.46
  -2  -1   4  151.88   10.07
   2  -1  -4  127.12    9.50
  -2  -1   4  149.08    9.52
  -2  -1   4  133.87    8.09
   2  -1  -4  131.37   11.61
  -2  -1   4  156.55   11.18
   2   1  -4  146.05   10.15
   2  -1  -4  157.15   11.28
   1   1   5   89.84    7.94
   1   1   5   89.55   11.42
   1  -1   5   98.17   11.38
   1  -1   5   92.91    8.75
  -1   1  -5   78.79    9.79
   1   1   5   96.02    8.36
   1   1   5   97.50    7.53
  -1  -1  -5   85.77    9.10
  -1   1  -5   84.77    7.46
  -1   1  -5  100.38    9.29
  -1  -1  -5   98.38    9.86
   1  -1   5   81.84    7.43
  -1   1  -5   81.45    8.43
   0   3  -3  670.65   37.79
   0  -3   3  500.98   44.93
   0   3   3  788.13   33.10
   0   3  -3  633.89   44.80
   0   3   3  652.74   35.76
   0   3  -3  592.00   28.29
   0   3   3  620.34   28.64
   0  -3  -3  738.32   34.86
   0  -3  -3  634.42   34.56
   0  -3   3  672.70   28.91
   0   3  -3  604.05   29.97
   0  -3   3  508.30   39.66
   0   3  -3  711.35   35.04
   0  -3  -3  676.00   32.18
   0   3   3  613.88   33.50
   0  -2  -5   77.01    7.30
   0  -2   5   71.95    7.87
   0   2  -5   80.98    7.97
   0   2  -5   68.93    7.44
   0  -2   5   65.33   11.76
   0  -2   5   83.63    9.67
   0   2   5   78.84    8.89
   0   2   5   78.06    8.10
   0   2   5   71.28    8.76
   0   2  -5   72.83    8.54
   0  -2   5   71.79   10.44
   0   2  -5   73.99    7.44
   0   2   5   67.02    7.04
   0  -2  -5   64.94    8.64
   0  -2  -5   71.40    8.37
  -2  -1  -3  957.31   37.77
  -2  -1  -3  898.14   36.14
   2   1   3  974.85   39.79
   2  -1   3  880.88   40.62
  -2  -1  -3  844.96   34.44
  -2  -1  -3 1000.35   39.63
  -2   1  -3  992.71   41.90
   2   1   3  997.44   41.09
   2  -1   3  916.29   36.60
   2  -1   3 1061.54   44.45
  -2   1  -3  805.81   37.69
  -2   1  -3  807.14   33.92
   2   1   3 1002.83   39.07
   2   1   3  880.57   40.17
   1   0  -6  253.58   17.21
   1   0  -6  290.46   16.83
   1   0  -6  292.79   17.99
  -1   0   6  309.69   25.45
  -1   0   6  282.92   17.78
  -1   3  -2  905.28   41.89
   1   3   2 1108.02   43.79
  -1   3  -2  935.55   55.63
   1   3   2 1090.88   42.18
  -1  -3  -2 1154.28   51.61
  -1   3  -2  996.93   47.19
  -1  -3  -2  833.18   41.77
  -1   3  -2  914.03   52.52
   1  -3   2  979.92   49.06
   1  -3   2  956.38   62.83
  -1  -3  -2 1011.43   43.60
   1   3   2 1084.96   53.93
   1   3   2 1116.74   45.93
   1  -3   2  846.36   68.75
  -1  -3  -2  934.31   44.53
   0   1   6  205.83   17.37
   0   1  -6  182.69   13.98
   0   1   6  173.01   14.04
   0  -1  -6  222.96   15.49
   0   1  -6  209.51   13.14
   0   1   6  220.02   15.12
   0  -1   6  133.39   10.91
   0   1  -6  161.13   14.52
   0  -1  -6  190.36   11.97
   0   1  -6  173.48   11.54
   0   1   6  209.21   13.56
   0  -1   6  142.41    9.58
   2   2  -3  133.53   10.20
   2  -2  -3  121.76   11.38
  -2   2   3  117.66    8.56
  -2   2   3   86.59   10.07
  -2   2   3  110.17   12.38
   2   2  -3  116.81   12.76
   2  -2  -3  109.80   12.36
   2  -2  -3  104.70   11.90
  -2  -2   3  124.79    8.61
   2   2  -3  113.67   10.15
   2  -2  -3  114.18   14.83
   2  -2  -3  108.76   12.46
   2   2  -3  139.18    9.80
  -1  -2   5  102.77    7.65
   1  -2  -5  124.84   16.15
  -1   2   5  130.63   11.75
   1  -2  -5  111.33   10.80
   1   2  -5  137.32   11.06
   1   2  -5  124.93    9.95
   1   2  -5  124.72   11.96
   1   2  -5  105.59   10.59
  -1  -2   5  101.57   13.52
   1   2  -5  119.77   11.70
  -1   2   5  103.15    9.78
  -1  -2   5  107.11    8.74
  -1   2   5  124.52   10.39
   1  -2  -5  114.59   12.12
  -1   2   5  109.48   11.41
   1   3  -3 1024.87   43.09
   1  -3  -3  989.33   48.17
  -1   3   3  899.89   43.95
  -1  -3   3 1108.02   47.22
   1  -3  -3 1038.63   60.23
  -1   3   3  973.99   46.63
   1   3  -3 1107.25   45.76
   1   3  -3 1025.15   42.56
  -1   3   3 1028.72   52.00
   1  -3  -3  991.23   49.87
  -1  -3   3 1164.79   46.03
   1   3  -3 1049.04   43.17
   2  -2   2 1027.51   40.20
   2  -2   2 1056.11   65.91
   2   2   2 1073.28   42.49
  -2  -2  -2 1055.72   43.19
  -2  -2  -2 1064.70   40.69
   2  -2   2  902.92   47.61
  -2   2  -2  937.20   41.80
  -2   2  -2 1032.54   54.37
   2   2   2 1045.73   43.82
   2   2   2 1148.47   44.55
   2   0  -5   24.10    4.95
  -2   0   5   25.19    4.44
  -2   0   5   25.23    4.29
   2   0  -5   28.63    4.84
  -2   0   5   25.25    4.10
  -1   1   6  467.91   25.17
  -1   1   6  499.29   31.31
   1   1  -6  433.09   21.44
   1   1  -6  420.16   19.60
   1  -1  -6  423.72   20.23
  -1  -1   6  431.49   28.28
   1   1  -6  452.12   25.12
  -1  -1   6  452.39   24.71
   1  -1  -6  433.83   22.88
  -1  -1   6  415.87   21.12
  -1   1   6  447.01   25.04
   1  -1  -6  426.02   25.30
  -1   1   6  493.51   26.43
   1  -1  -6  536.91   28.07
   1   1  -6  449.83   24.79
   2   0   4  736.79   35.74
  -2   0  -4  750.01   34.19
   2   0   4  662.57   29.47
  -2   0  -4  576.16   27.81
   0   3   4   32.66    5.08
   0  -3  -4   30.39    6.15
   0  -3   4   34.23    5.62
   0   3  -4   28.19    6.56
   0  -3   4   33.75    9.27
   0   3  -4   34.24    6.18
   0   3   4   32.22    5.35
   0  -3  -4   37.30    5.15
   0  -3   4   26.35    8.84
   0  -3  -4   33.31    5.77
   0   3  -4   31.45    5.53
   0   3   4   35.93    6.36
   0  -3  -4   32.25    7.65
   0   3  -4   28.16    6.79
   0   3   4   30.21    6.26
   0   3  -4   29.05    4.99
  -1  -3  -3  207.65   18.45
  -1  -3  -3  248.88   17.57
   1  -3   3  234.48   18.82
   1  -3   3  220.32   23.43
  -1   3  -3  209.35   18.43
   1   3   3  235.28   15.37
  -1  -3  -3  205.82   15.60
  -1  -3  -3  210.55   13.68
  -1   3  -3  242.08   18.67
   1   3   3  209.48   14.33
  -1   3  -3  215.43   14.96
   1  -3   3  239.57   19.98
   1  -3   3  213.22   29.75
  -1   3  -3  219.14   20.93
   1   3   3  234.53   20.48
   1   3   3  230.66   14.60
  -2  -1   5  343.00   18.15
   2  -1  -5  318.93   23.22
   2  -1  -5  325.52   18.14
   2   1  -5  366.72   20.84
  -2  -1   5  324.22   18.69
   2   1  -5  327.53   17.47
   2   1  -5  362.80   18.80
   2  -1  -5  361.98   19.04
  -2  -1   5  335.31   19.62
   2   1  -5  327.62   16.19
  -2   1   5  313.00   17.95
  -2  -1   5  342.64   18.20
   2  -1  -5  317.96   23.51
   2  -1  -5  366.74   20.78
  -1   0  -6   16.62    4.33
   1   0   6   16.71    3.58
   1   0   6   17.55    3.63
   1   0   6   15.15    3.92
  -1   0  -6   16.59    3.77
  -1   0  -6   17.51    3.83
  -1   0  -6   17.64    5.06
   1   0   6   19.86    3.65
   2   2  -4  105.82    8.91
   2  -2  -4   97.11    9.36
  -2   2   4  114.17   11.22
   2   2  -4  121.96   10.31
   2  -2  -4   98.86   11.78
   2  -2  -4  104.22   11.53
   2  -2  -4  100.05   12.06
  -2  -2   4  108.47    8.84
  -2  -2   4  122.89   10.25
  -2   2   4   94.38    8.26
   2   2  -4  117.78    8.73
   2  -2  -4  109.58   12.30
   2   2  -4  115.08    8.34
  -2   2   4   86.66    9.54
   2  -1   4  177.82   15.66
  -2   1  -4  186.58   14.89
   2  -1   4  172.82   12.84
  -2   1  -4  197.46   17.43
  -2  -1  -4  213.34   13.37
   2   1   4  232.12   14.82
   2  -1   4  171.21   18.06
   2  -1   4  200.34   14.75
   2   1   4  172.87   11.16
  -2  -1  -4  215.23   13.74
  -2   1  -4  155.30   12.83
  -2  -1  -4  192.57   14.52
  -2  -1  -4  189.62   11.60
   2   1   4  198.34   14.90
  -2   1  -4  200.32   15.70
   2   1   4  211.67   14.22
   1   2   5   97.09    9.13
  -1   2  -5  104.24   11.48
   1  -2   5   69.61   11.23
  -1   2  -5   81.23    9.85
  -1  -2  -5   94.23   10.42
   1   2   5  104.40   10.01
   1  -2   5   82.66   10.72
  -1   2  -5   93.98   13.68
   1   2   5   93.46    9.28
   1  -2   5   65.58   13.95
  -1   2  -5   87.44    9.91
   1  -2   5   94.07   11.18
   1   2   5   92.42   10.88
  -1  -2  -5   91.86    9.24
  -1  -2  -5   95.64    9.37
  -2   2  -3  105.95   15.14
  -2   2  -3  109.21   11.20
   2   2   3  109.22    9.40
  -2  -2  -3  109.25    8.18
   2   2   3  108.53    8.04
  -2  -2  -3  110.20    9.27
   2  -2   3  106.34    9.25
   2   2   3  100.93    8.97
  -2   2  -3  107.55   16.32
  -2   2  -3   79.87    9.29
   2  -2   3  113.21   17.89
   2  -2   3   91.90   11.68
   2   2   3  116.20   10.62
   1   3  -4  650.81   34.09
  -1   3   4  643.00   37.49
   1  -3  -4  528.28   28.16
   1   3  -4  631.00   27.49
  -1   3   4  557.52   32.84
  -1   3   4  476.93   28.42
  -1   3   4  574.70   29.60
   1   3  -4  582.52   26.33
  -1  -3   4  498.09   32.00
   1   3  -4  526.25   24.20
  -1  -3   4  672.97   30.43
   1  -3  -4  623.76   32.19
   1  -3  -4  554.99   38.45
   1  -3  -4  631.26   39.69
   1   3  -4  620.93   32.79
  -1  -3   4  484.25   36.74
   1   1   6  439.20   25.37
  -1   1  -6  348.00   18.36
  -1   1  -6  404.57   26.81
  -1   1  -6  342.98   19.37
  -1  -1  -6  425.49   23.17
  -1  -1  -6  357.67   21.92
   1   1   6  356.44   22.54
   1  -1   6  328.58   19.55
   1   1   6  407.33   22.80
   1  -1   6  414.13   25.28
  -1   1  -6  381.49   20.85
   1   1   6  436.08   26.40
   0  -2   6  186.27   14.45
   0   2   6  177.53   15.16
   0  -2  -6  173.71   13.96
   0   2   6  182.15   12.53
   0   2  -6  154.19   12.29
   0   2  -6  189.24   15.15
   0  -2   6  163.40   12.55
   0  -2   6  173.73   12.71
   0  -2  -6  183.18   15.36
   0   2   6  166.10   14.22
   0   2  -6  156.62   13.68
   0   2   6  156.51   12.45
   0   2  -6  173.54   17.05
   0  -2   6  159.83   17.97
  -3   0   1 1216.95   42.84
   3   0  -1 1159.28   45.57
  -3   0   1 1133.22   45.29
  -3   0   1 1179.89   45.63
  -3   0   1 1237.07   49.41
  -3   0   1 1168.24   50.24
  -3   0   1 1226.20   48.70
  -3   0   1 1132.39   44.61
   0   4   0  159.40   11.89
   0  -4   0  203.13   15.14
   0   4   0  200.98   18.18
   0   4   0  177.03   15.45
   0  -4   0  203.53   18.19
   0  -4   0  210.49   16.00
   0   4   0  192.30   26.08
  -3   0   0  324.85   17.82
  -3   0   0  321.98   20.04
  -3   0   0  328.05   17.56
   3   0   0  304.53   17.20
  -3   0   0  338.36   20.97
  -3   0   0  330.32   18.92
  -3   0   0  302.40   17.22
  -3   0   0  284.89   16.18
   0   0   7  232.99   17.40
   0   0  -7  216.05   14.80
   0   0  -7  234.35   16.58
   0   0   7  255.58   15.77
   0   0  -7  273.93   19.98
   0   0   7  243.69   14.34
   0   0   7  225.74   15.26
   0   0  -7  217.95   16.46
  -2  -3   1   10.78    2.95
  -2  -3   1    8.84    2.76
  -2   3   1    7.63    2.95
   2   3  -1    9.46    3.25
  -2   3   1    8.13    3.90
   2  -3  -1    7.42    3.36
  -2  -3   1   11.84    3.07
  -2  -3   1   10.80    2.98
  -2   3   1    6.91    3.06
  -2   3   1    8.07    3.10
  -2  -3   1    8.64    3.79
  -2   3   1    6.09    3.54
  -2   3   0  126.89   15.42
  -2  -3   0  222.50   14.73
  -2   3   0  132.28   15.35
  -2   3   0  181.68   17.47
  -2  -3   0  198.26   18.67
  -2   3   0  194.09   22.15
  -2  -3   0  207.50   12.19
  -2   3   0  134.11   20.46
  -2  -3   0  201.65   18.37
  -2  -3   0  225.67   15.00
   2   3   0  215.27   16.96
  -2   3   0  182.97   18.48
   2  -3   0  185.98   15.96
  -2   3   0  124.36   20.98
   3   0  -2 1097.54   44.73
   3   0  -2 1101.80   42.30
  -3   0   2 1160.33   45.83
   3   0  -2 1078.01   42.63
  -3   0   2 1113.84   43.27
   3   0  -2 1181.52   47.91
  -3   0   2 1187.26   40.56
  -3   0   2 1183.50   40.15
   0  -4   1  281.61   19.09
   0   4   1  236.61   18.93
   0   4   1  209.91   13.35
   0   4  -1  261.27   19.90
   0  -4  -1  238.04   17.36
   0  -4  -1  212.77   20.03
   0  -4  -1  217.14   20.95
   0  -4  -1  245.09   16.71
   0   4  -1  228.93   18.90
   0   4  -1  180.04   16.77
   0   4  -1  212.94   21.22
   0  -4  -1  254.36   18.56
   0   4   1  202.20   15.63
   0   4  -1  232.06   30.38
   0  -4   1  246.34   17.82
   0   4  -1  211.41   15.58
  -1   2   6  128.55   12.58
   1   2  -6  150.61   12.24
  -1  -2   6  133.84   10.00
  -1   2   6  136.69   12.02
  -1  -2   6  126.61   13.94
   1   2  -6  127.96   12.79
  -1   2   6  141.09   13.35
   1  -2  -6  139.92   12.67
  -1  -2   6  124.92    9.85
   1   2  -6  139.43   10.92
   1  -2  -6  130.84   12.28
   1   2  -6  146.00   11.56
  -1   2   6  140.78   10.81
   1   2  -6  130.48   11.32
   1  -2  -6  127.12   12.27
  -1   0   7  380.91   24.25
  -1   0   7  377.90   22.71
   1   0  -7  386.87   22.39
   1   0  -7  410.86   20.90
  -1   0   7  351.08   19.82
   1   0  -7  427.25   23.99
  -2   0   6    9.98    2.73
  -2   0   6   13.83    3.59
  -2   0   6   13.01    3.09
   2   0  -6   12.85    2.82
   2   0  -6   11.80    3.29
   2   0  -6    9.31    2.96
  -2   3   2  315.50   19.07
  -2  -3   2  390.02   19.76
  -2   3   2  322.45   21.80
   2   3  -2  302.91   18.73
   2  -3  -2  272.47   21.79
   2  -3  -2  279.95   20.60
   2   3  -2  305.23   19.58
  -2  -3   2  385.05   35.13
  -2  -3   2  402.89   20.53
  -2   3   2  286.31   21.95
  -2  -3   2  322.10   17.84
   1   3   4   77.47    7.74
  -1  -3  -4   84.42    8.38
  -1  -3  -4   66.63    9.58
   1   3   4   75.01    8.41
  -1   3  -4   67.41    9.27
   1  -3   4   72.39   10.26
   1   3   4   77.02    7.70
   1  -3   4   63.45    7.66
  -1   3  -4   64.22    8.22
   1  -3   4   63.20   13.44
   1  -3   4   70.24   13.66
  -1  -3  -4   68.54    8.59
  -1  -3  -4   84.41    9.63
  -1   3  -4   67.56   12.03
  -1   3  -4   72.07   11.03
   1   3   4   75.62    9.83
  -3   1   1  721.64   32.18
  -3  -1   1  828.77   34.15
  -3  -1   1  810.03   30.57
  -3   1   1  835.59   32.83
  -3  -1   1  830.37   30.79
  -3  -1   1  811.27   37.40
  -3   1   1  750.11   36.93
  -3  -1   1  801.73   31.04
  -3   1   1  754.74   31.04
  -3  -1   1  821.15   30.85
  -3  -1   1  846.38   34.53
   3  -1  -1  776.12   32.15
  -3   1   1  800.53   32.16
  -2  -3  -1  126.06   10.93
  -2  -3  -1  151.36   12.04
  -2   3  -1   90.58   12.15
   2  -3   1  134.13   10.22
  -2   3  -1   86.38   17.43
   2   3   1  112.77   14.79
  -2  -3  -1  123.55   13.01
  -2   3  -1  143.14   17.39
  -2  -3  -1  141.16   12.94
   2   3   1  115.77    9.40
  -2   3  -1  122.06   12.17
  -2  -3  -1  151.17   11.05
  -2   3  -1  110.15   13.51
  -2   3  -1  128.66   18.30
   2   3   1  112.32   13.28
   3   0   1  136.42    9.39
  -3   0  -1  126.86    8.86
  -3   0  -1  141.34   10.36
  -3   0  -1  132.20   10.41
  -3   0  -1  120.88    8.52
  -3   0  -1  124.11    9.57
  -3   0  -1  143.08   11.17
   3  -1   0 1198.45   44.64
  -3  -1   0 1280.30   70.08
  -3  -1   0 1257.70   67.73
  -3   1   0 1119.90   40.74
  -3  -1   0 1184.86   41.56
  -3  -1   0 1320.07   70.72
  -3   1   0 1007.94   38.17
  -3   1   0 1191.03   45.93
  -3  -1   0 1276.79   69.32
  -3  -1   0 1211.19   43.23
  -3  -1   0 1241.59   66.13
  -3   1   0 1027.57   38.99
   0   1  -7   67.07    8.23
   0   1   7   62.02    7.97
   0  -1   7   52.49    8.70
   0  -1  -7   67.73    7.95
   0  -1  -7   72.84    9.85
   0   1  -7   76.03   10.44
   0   1   7   73.61    9.19
   0   1   7   73.73    7.31
   0  -1   7   70.95    6.51
   0   1  -7   76.92    9.69
   0   1   7   63.75    8.13
   0   1  -7   77.26    8.06
   0   3   5   58.92    7.04
   0   3   5   52.21    6.54
   0  -3  -5   68.69    9.76
   0  -3  -5   63.73    8.37
   0   3  -5   62.95   10.85
   0   3  -5   60.13    8.58
   0   3  -5   65.03    7.70
   0  -3   5   57.31   10.73
   0   3  -5   65.86    7.92
   0   3   5   68.36    7.71
   0   3  -5   65.36    7.43
   0  -3  -5   67.01    8.24
   0  -3   5   61.51    7.12
   0  -3  -5   67.50   10.87
   0  -3   5   55.34   11.83
   0   3   5   63.57    8.72
  -3  -1   2  437.25   23.12
  -3  -1   2  379.65   18.22
   3  -1  -2  403.27   19.18
   3  -1  -2  347.78   21.59
  -3  -1   2  392.36   17.73
  -3   1   2  350.76   19.38
  -3  -1   2  396.33   18.32
  -3  -1   2  407.34   23.44
  -3   1   2  362.19   18.84
  -3  -1   2  369.96   16.32
   3  -1  -2  393.51   19.61
   3  -1  -2  361.84   19.61
  -2   0  -5    3.34    1.96
   2   0   5    3.25    2.16
   2   0   5    3.85    2.51
  -2   0  -5    3.82    2.33
  -3   0   3   95.31    7.31
  -3   0   3  108.11    8.06
   3   0  -3   97.99    9.45
   3   0  -3  120.26    9.68
   3   0  -3  109.90    8.82
  -3   0   3  106.74    8.20
  -3   0   3  105.02    7.94
   3   0  -3  110.03    9.13
   0  -4   2  860.20   35.43
   0   4  -2  952.29   42.03
   0   4  -2 1025.32   54.15
   0   4  -2  868.40   47.45
   0   4  -2  769.29   46.30
   0   4   2 1006.39   46.56
   0  -4  -2 1017.85   52.96
   0   4   2 1043.28   43.39
   0  -4  -2  934.43   40.76
   0  -4  -2 1041.87   46.90
   0   4  -2  758.87   39.59
   0   4  -2  820.35   40.03
   0   4  -2  921.40   42.89
   0  -4  -2  871.80   42.30
   0   4   2  878.17   36.79
   2   2  -5  192.03   12.43
   2  -2  -5  170.17   17.80
   2   2  -5  172.86   11.53
  -2  -2   5  167.50   11.23
   2   2  -5  209.63   12.42
   2  -2  -5  158.28   15.10
  -2  -2   5  171.69   12.16
  -2   2   5  188.47   11.53
   2  -2  -5  158.61   13.95
  -2   2   5  157.74   12.94
   2  -2  -5  165.06   14.12
   2   2  -5  181.22   14.87
   2  -2  -5  219.89   18.17
  -2   2   5  168.29   13.28
  -1  -1   7  113.98   11.20
   1  -1  -7  120.11   11.41
   1  -1  -7  123.80   11.34
   1   1  -7  121.82   11.40
  -1   1   7  112.11   10.08
  -1  -1   7  107.68    9.04
   1  -1  -7  119.75   12.57
  -1  -1   7  125.12    9.96
   1   1  -7  138.66   10.83
  -1   1   7  142.91   12.02
  -1   1   7  143.90   14.40
  -1   1   7  115.53    9.97
   1  -1  -7  137.75   13.00
   1   1  -7  141.73   12.42
   1   1  -7  138.81   12.28
  -1  -1   7  127.29    8.94
   2  -1  -6  329.78   20.32
  -2  -1   6  316.88   19.70
   2   1  -6  312.24   19.56
   2   1  -6  335.43   16.58
  -2  -1   6  329.08   17.71
   2  -1  -6  308.51   17.28
   2   1  -6  329.11   16.65
  -2   1   6  310.79   19.65
   2  -1  -6  285.03   17.81
  -2  -1   6  339.45   18.96
   2   1  -6  348.22   21.58
   2  -1  -6  315.25   17.90
   2   1  -6  362.41   21.38
   2  -1  -6  333.44   22.20
  -1   4   0   32.19   11.51
  -1  -4   0   37.48    6.15
   1   4   0   36.90    8.81
  -1   4   0   32.41    6.34
  -1  -4   0   37.92    6.27
  -1   4   0   32.72   11.76
   1   4   0   34.99    5.89
   1   4   0   44.23   12.69
  -1   4   0   34.26    7.89
   1   4   0   37.24    7.17
  -1  -4   0   32.47    7.92
   2  -2   4   70.05   14.07
   2   2   4   92.99    7.13
  -2   2  -4   82.46    9.23
  -2  -2  -4   91.23    8.22
  -2   2  -4  100.52   10.46
  -2  -2  -4   84.98    7.97
   2   2   4   84.98    8.06
   2  -2   4   81.84    7.47
  -2   2  -4   73.13   12.94
   2  -2   4   74.06    9.88
  -2   2  -4   71.34   11.25
   2   2   4   98.87    9.87
   2   2   4   93.74   11.74
   1  -4  -1  107.98   16.22
  -1   4   1   98.94   10.14
  -1  -4   1   90.75   10.19
   1   4  -1  111.30   11.21
  -1  -4   1  116.22   12.16
   1   4  -1   86.46   14.62
   1   4  -1   97.80   11.62
  -1  -4   1  113.82   11.49
  -1   4   1   98.50   11.07
   1  -4  -1  116.29   16.38
   2   3  -3  452.76   29.83
  -2   3   3  492.15   28.06
   2   3  -3  564.72   39.16
   2  -3  -3  467.92   26.33
  -2   3   3  516.02   27.44
  -2  -3   3  614.93   41.60
  -2  -3   3  639.95   26.03
   2  -3  -3  527.09   31.22
  -2  -3   3  525.47   22.62
  -2   3   3  491.32   27.04
  -3  -1  -1  380.70   18.83
   3   1   1  428.09   21.54
  -3  -1  -1  353.91   16.47
  -3  -1  -1  342.26   16.70
  -3   1  -1  355.78   17.97
  -3  -1  -1  335.94   17.09
  -3   1  -1  328.50   16.97
  -3   1  -1  402.79   24.17
   3  -1   1  357.15   17.58
   3   1   1  308.39   15.50
  -3  -1  -1  353.73   17.60
   3   1   1  436.68   20.68
  -3   1  -1  309.12   16.76
   1  -3  -5   46.10    6.64
   1   3  -5   58.83    8.23
  -1   3   5   56.72    9.39
  -1  -3   5   48.86    9.75
   1   3  -5   46.25    6.30
  -1  -3   5   41.87    7.85
   1   3  -5   48.93    7.39
  -1  -3   5   48.30    6.30
   1  -3  -5   45.56    7.55
  -1   3   5   44.34    6.90
   1   3  -5   53.19    7.25
  -1   3   5   51.91    8.35
   1   3  -5   55.36    7.92
  -1   3   5   50.53    6.54
   1  -3  -5   54.06    9.40
   2   3   2  680.66   30.26
  -2  -3  -2  716.74   29.55
   2  -3   2  736.82   34.66
  -2   3  -2  827.90   49.10
  -2   3  -2  729.24   50.15
  -2   3  -2  762.43   35.02
  -2  -3  -2  830.69   36.14
  -2   3  -2  754.60   49.24
   2   3   2  699.66   34.22
  -2  -3  -2  668.14   30.60
  -2  -3  -2  665.00   31.83
  -2   3  -2  810.26   56.66
   2   3   2  754.16   35.61
  -2   3  -2  608.85   31.50
   2   1   5   52.68    6.09
   2  -1   5   46.23    8.20
  -2   1  -5   47.09    5.90
  -2  -1  -5   46.94    6.43
  -2  -1  -5   51.69    6.77
  -2  -1  -5   46.19    5.78
   2   1   5   48.79    7.10
  -2  -1  -5   44.79    5.92
  -2   1  -5   38.77    7.36
   2   1   5   55.58    7.17
   2  -1   5   63.22    8.68
   2   1   5   57.31    7.32
  -2   1  -5   43.02    6.72
   2  -1   5   48.18    6.59
  -2   1  -5   43.13    6.05
   2  -1   5   46.17    7.43
  -3   1   3  273.68   14.31
   3  -1  -3  266.86   16.71
  -3  -1   3  286.23   14.08
   3  -1  -3  312.57   16.19
   3   1  -3  281.96   15.31
  -3   1   3  272.01   15.08
   3   1  -3  290.06   15.04
  -3   1   3  222.34   16.37
  -3  -1   3  293.92   14.63
   3  -1  -3  230.78   14.56
  -3  -1   3  274.03   13.20
  -3  -1   3  297.36   14.43
   3  -1  -3  262.79   21.79
  -1  -4  -1  357.49   22.81
   1   4   1  346.52   21.11
   1  -4   1  382.85   30.14
   1   4   1  361.77   21.81
  -1   4  -1  347.49   26.67
  -1  -4  -1  251.91   21.88
  -1  -4  -1  296.54   19.27
  -1   4  -1  268.12   22.12
  -1  -4  -1  370.39   23.54
  -1   4  -1  316.50   34.80
  -1   4  -1  319.65   33.07
   1   4   1  351.46   20.51
  -1   4  -1  218.39   29.43
  -1   4  -1  331.41   32.26
  -1   4  -1  306.67   24.82
  -1  -4  -1  321.98   20.62
   3   0   2    1.96    3.24
   3   0   2    0.89    2.69
   3   0   2    1.02    1.80
  -3   0  -2    1.20    2.65
  -3   0  -2    0.78    2.23
  -3   0  -2    1.20    2.32
   3   0   2    1.39    2.48
  -3   0  -2    1.73    2.27
   1  -4  -2  358.76   19.96
   1   4  -2  356.22   21.62
   1   4  -2  369.05   22.23
   1  -4  -2  307.62   24.27
  -1  -4   2  369.59   20.65
  -1   4   2  318.80   23.45
   1  -4  -2  379.84   32.99
   1   4  -2  305.55   25.03
   1  -4  -2  406.11   26.19
   1   4  -2  327.74   24.49
   1  -4  -2  347.69   27.64
  -1  -4   2  375.35   21.50
  -1  -2  -6   19.44    4.29
  -1   2  -6   21.28    5.03
   1  -2   6   17.86    5.41
  -1   2  -6   23.79    4.90
   1  -2   6   21.64    4.70
   1   2   6   24.84    5.29
   1  -2   6   21.70    4.81
   1  -2   6   15.75    5.69
  -1  -2  -6   21.02    4.05
  -1   2  -6   18.31    4.08
   1   2   6   23.02    4.55
  -1   2  -6   18.24    3.68
   1   2   6   21.59    3.58
   1   2   6   21.96    4.59
  -1  -2  -6   22.64    5.21
   0   4   3  655.42   29.18
   0  -4  -3  672.71   41.97
   0  -4  -3  605.92   44.55
   0   4   3  677.84   42.35
   0  -4   3  590.77   50.50
   0  -4  -3  582.71   40.98
   0   4   3  593.20   40.29
   0   4  -3  611.10   40.00
   0  -4  -3  586.39   40.84
   0   4  -3  693.48   44.47
   0   4  -3  566.30   38.56
   0  -4   3  630.44   38.14
   0   4  -3  538.50   38.79
   0   4  -3  504.85   40.12
   0   4   3  607.21   38.08
   3   0  -4  266.18   18.05
  -3   0   4  328.21   21.20
   3   0  -4  326.35   21.37
  -3   0   4  294.24   18.26
  -3   0   4  276.16   17.89
   3   0  -4  279.15   19.36
   3   0  -4  326.86   21.37
  -3   0   4  282.52   17.85
   1   0   7   62.30    7.73
  -1   0  -7   70.90    8.71
  -1   0  -7   63.74    8.22
  -1   0  -7   71.38    9.82
   1   0   7   76.40    9.23
   1   0   7   75.15    9.60
  -1   0  -7   70.17    8.40
   1   0   7   72.18    7.30
  -1   4  -2   78.83   11.52
  -1  -4  -2  105.32   12.04
   1   4   2   86.45    9.97
  -1  -4  -2   76.64    9.05
  -1   4  -2  100.46   15.70
  -1   4  -2   75.92   10.27
  -1   4  -2   83.62   11.83
  -1  -4  -2   96.61   11.03
  -1   4  -2   87.61   13.82
  -1  -4  -2   83.21   11.02
  -1  -4  -2   95.45   10.88
  -1   4  -2   82.69   16.12
   1   4   2  100.12   11.14
   1   4   2   99.39   12.04
  -1   4  -2  106.10   18.30
   3   1   2  115.34   10.84
  -3  -1  -2  100.95    9.29
   3   1   2   89.79    8.65
  -3   1  -2   89.13    9.36
   3  -1   2  120.29   11.69
   3  -1   2   99.11    8.95
  -3  -1  -2   91.01    8.28
  -3   1  -2   90.03    9.55
   3  -1   2  122.33   11.89
   3  -1   2   96.95   10.00
  -3  -1  -2  113.83    9.93
  -3  -1  -2   98.50    9.44
   3   1   2  109.79   10.56
  -3  -2   1  115.81   11.58
  -3   2   1  108.95   12.51
   3   2  -1  128.03   10.51
   3  -2  -1   98.48   12.44
  -3   2   1  115.71   13.35
  -3  -2   1  135.96   12.88
  -3  -2   1  133.87   11.13
  -3  -2   1  127.53   10.98
  -3   2   1   96.99   15.61
  -3   2   1   84.60   11.47
  -3   2   1  101.52   17.42
  -3  -2   1  124.98   13.13
  -2  -3   4  282.74   18.27
  -2   3   4  274.35   20.53
  -2  -3   4  260.77   18.91
   2  -3  -4  248.45   21.35
   2   3  -4  239.28   21.81
   2   3  -4  232.43   18.94
   2   3  -4  343.92   23.05
   2  -3  -4  254.85   20.35
   2  -3  -4  265.08   22.19
   2  -3  -4  213.50   18.62
  -2   3   4  260.84   20.09
   2   3  -4  291.07   20.22
  -2  -3   4  289.73   19.35
   1   3   5  346.47   25.13
   1   3   5  288.43   20.17
  -1  -3  -5  338.44   24.41
  -1  -3  -5  311.65   23.26
   1  -3   5  329.28   33.26
  -1   3  -5  299.13   23.29
  -1  -3  -5  306.53   25.90
   1   3   5  321.83   23.90
  -1   3  -5  316.68   26.97
   1  -3   5  317.05   33.70
   1  -3   5  306.45   24.24
  -1   3  -5  290.32   22.06
  -1  -3  -5  311.61   22.41
   1   3   5  277.26   22.98
   1  -3   5  279.57   22.02
  -1   3  -5  319.44   23.15
  -3   1   4   10.59    2.69
   3   1  -4   12.69    3.18
  -3   1   4   11.40    2.66
   3  -1  -4   10.92    3.01
   3  -1  -4   11.41    3.51
  -3  -1   4   12.34    2.79
  -3  -1   4   12.36    3.01
   3   1  -4   10.91    3.32
  -3   1   4   12.74    3.20
   3  -1  -4    9.08    3.01
   3  -1  -4    9.93    3.74
  -3   1   4   10.56    2.45
  -3   2   0  252.58   21.74
  -3   2   0  187.08   17.73
  -3  -2   0  254.77   17.86
   3  -2   0  196.75   14.99
  -3  -2   0  249.30   19.31
  -3   2   0  193.55   21.22
  -3   2   0  188.98   16.99
  -3  -2   0  273.80   19.08
  -3   2   0  260.29   20.73
  -3  -2   0  261.34   18.10
  -3  -2   0  241.41   17.81
   3   2   0  259.49   16.93
   0   2  -7  614.01   39.55
   0   2  -7  568.42   36.69
   0   2  -7  676.22   39.19
   0  -2  -7  712.65   43.19
   0   2   7  618.41   39.42
   0  -2   7  593.27   36.33
   0   2   7  611.43   37.51
   0   2   7  580.73   37.10
   0   2   7  568.22   33.86
   0  -2   7  643.47   39.36
   0   2  -7  708.78   39.76
   0  -2  -7  605.59   36.70
   0  -2   7  604.31   44.64
   0  -2   7  712.12   43.02
   1  -4  -3  240.30   23.78
   1   4  -3  297.44   23.24
  -1   4   3  245.97   21.45
   1  -4  -3  282.07   22.93
   1   4  -3  303.28   23.63
  -1  -4   3  314.78   22.71
  -1   4   3  257.88   20.32
   1   4  -3  262.83   23.21
   1   4  -3  224.58   23.57
  -1   4   3  210.73   18.17
   1  -4  -3  300.65   28.00
  -1  -4   3  306.93   23.06
  -1   4   3  264.78   21.21
   1   4  -3  278.67   20.70
   1   1   7  227.32   17.69
  -1   1  -7  189.88   17.77
  -1   1  -7  222.59   17.40
   1   1   7  237.95   18.22
   1   1   7  240.37   19.04
  -1   1  -7  191.58   16.54
  -1   1  -7  237.12   18.61
   1  -1   7  209.47   18.97
  -1  -1  -7  245.51   19.47
  -3   2   2  423.60   26.74
  -3  -2   2  467.83   35.64
   3  -2  -2  557.74   34.20
   3   2  -2  510.48   30.33
   3   2  -2  546.22   31.62
  -3   2   2  432.37   31.29
   3  -2  -2  477.54   42.38
   3  -2  -2  416.14   32.69
  -3  -2   2  551.81   31.99
  -3  -2   2  509.48   33.14
  -3   2   2  360.73   34.70
  -3  -2   2  553.97   33.84
   2   3   3  527.89   34.70
  -2  -3  -3  517.23   33.22
   2   3   3  615.49   40.89
   2   3   3  541.67   34.54
  -2  -3  -3  512.99   31.68
  -2   3  -3  408.25   41.74
  -2   3  -3  578.75   40.22
  -2  -3  -3  660.09   38.20
  -2   3  -3  589.23   41.96
  -2  -3  -3  623.81   38.33
   2  -3   3  506.66   34.35
  -2   3  -3  474.62   32.99
   2   3   3  510.36   30.17
   2  -3   3  529.53   48.26
   2  -3   3  612.67   48.35
   2  -3   3  411.91   31.35
  -1  -2   7   27.21    4.72
   1  -2  -7   35.35    6.88
   1   2  -7   31.66    5.17
  -1   2   7   30.57    5.68
   1   2  -7   31.66    5.21
   1  -2  -7   26.09    5.48
   1   2  -7   32.90    6.03
   1  -2  -7   27.30    5.20
   1   2  -7   26.19    5.66
  -1   2   7   32.19    6.45
  -1  -2   7   28.44    6.21
   1  -2  -7   27.59    5.38
   1   2  -7   25.15    5.83
  -1  -2   7   28.45    5.44
  -2   0   7  315.36   22.40
   2   0  -7  327.62   24.65
  -2   0   7  384.91   26.18
   2   0  -7  369.09   26.02
  -2   0   7  307.19   21.34
   2   0  -7  414.87   30.34
   2   2  -6   21.31    5.83
   2  -2  -6   22.47    4.99
  -2  -2   6   20.63    4.14
   2   2  -6   23.58    3.99
   2  -2  -6   18.91    4.69
   2  -2  -6   21.43    6.27
   2  -2  -6   17.31    4.20
   2   2  -6   20.82    4.97
  -2  -2   6   20.88    4.39
  -2   2   6   18.72    4.44
   2   2  -6   22.99    5.15
   2  -2  -6   18.71    3.94
   3   0   3   67.35    8.95
   3   0   3   83.06    8.86
  -3   0  -3   82.76    8.14
  -3   0  -3   69.09    8.79
   3   0   3   83.32    8.87
  -3   0  -3   80.36    8.90
   3   0   3   76.80    7.25
  -3   0  -3   67.51    8.76
   0   3   6  222.28   17.19
   0  -3  -6  182.06   16.98
   0   3   6  208.34   16.00
   0   3  -6  219.17   18.68
   0   3  -6  196.52   17.77
   0  -3   6  194.59   20.35
   0  -3  -6  191.57   16.14
   0  -3   6  197.50   16.28
   0   3   6  193.37   17.00
   0   3   6  219.24   19.10
   0  -3  -6  222.01   18.62
   0   3  -6  182.59   14.85
   0   3  -6  209.09   16.47
   0  -3   6  189.36   23.59
   0  -3  -6  219.16   19.27
   0  -3   6  209.71   19.36
  -3   2  -1   57.35    8.73
  -3  -2  -1   82.49    8.51
  -3  -2  -1   80.47    7.99
  -3   2  -1   56.70   12.92
   3   2   1   80.72    9.50
   3  -2   1   74.42    8.17
   3   2   1   84.24    8.08
  -3  -2  -1   80.54    7.93
  -3   2  -1   82.39    9.49
   3   2   1   91.35    9.82
  -3   2  -1   57.63    8.72
  -3   2  -1   61.45    7.79
   0   0  -8  168.63   16.17
   0   0  -8  135.07   12.28
   0   0   8  178.92   16.61
   0   0  -8  137.25   12.39
   1   0  -8    0.45    1.46
   1   0  -8    0.60    1.63
  -1   0   8    0.39    2.23
   1   0  -8    0.55    2.01
  -2   0  -6   73.98    8.82
   2   2   5  347.86   25.76
   2   2   5  350.79   24.19
  -2   2  -5  356.88   26.20
   2   2   5  376.77   25.95
  -2  -2  -5  348.91   23.34
  -2  -2  -5  357.38   27.58
  -2   2  -5  344.86   25.67
   2  -2   5  351.11   25.99
  -2   2  -5  401.95   27.24
   2  -2   5  309.10   26.17
  -2   2  -5  285.55   22.40
   0   4   4  313.78   21.21
   0   4   4  307.61   24.44
   0  -4  -4  365.89   25.19
   0  -4   4  327.95   23.47
   0   4  -4  358.13   25.66
   0  -4   4  268.49   28.99
   0   4  -4  319.41   23.82
   0  -4  -4  389.72   31.62
   0   4   4  280.00   20.99
   0   4  -4  284.78   27.58
   0  -4  -4  351.03   28.40
   0  -4   4  264.20   31.69
   0   4  -4  357.23   27.45
   0   4   4  378.25   27.55
   0  -4  -4  359.00   26.60
   0   4  -4  328.49   23.28
  -3  -2   3  185.62   12.99
  -3   2   3  173.29   14.02
   3   2  -3  175.48   13.85
   3   2  -3  192.79   13.48
  -3   2   3  165.54   14.69
   3  -2  -3  155.56   15.50
   3  -2  -3  163.23   14.95
   3  -2  -3  213.83   16.39
   3   2  -3  161.86   15.61
   3   2  -3  208.74   14.94
  -3  -2   3  190.16   14.19
   3  -2  -3  178.70   21.17
  -1  -4  -3  205.79   19.85
   1  -4   3  168.78   16.41
   1   4   3  195.49   16.87
   1   4   3  204.44   20.80
  -1  -4  -3  175.92   17.71
   1  -4   3  124.79   21.42
  -1   4  -3  176.84   22.46
  -1  -4  -3  214.70   18.37
  -1   4  -3  155.54   15.16
  -1   4  -3  137.96   19.67
  -1  -4  -3  168.36   15.22
  -1   4  -3  163.94   14.95
  -1   4  -3  176.57   16.62
   1   4   3  170.39   13.30
   1   4   3  185.74   15.22
  -3   0   5   65.54    6.45
  -3   0   5   65.47    6.91
   3   0  -5   64.28    7.03
   3   0  -5   61.41    8.48
  -3   0   5   59.59    7.35
  -3   0   5   65.65    8.84
   3   0  -5   64.27    7.01
   3   0  -5   72.41    7.42
   1   3  -6   17.77    4.27
   1  -3  -6   20.70    4.83
  -1  -3   6   19.64    4.05
  -1  -3   6   15.72    4.60
   1  -3  -6   18.12    4.35
   1   3  -6   18.60    4.79
   1   3  -6   16.53    3.50
  -1  -3   6   15.94    5.58
  -1   3   6   19.91    5.32
   1  -3  -6   16.72    3.88
   1   3  -6   16.76    3.49
  -1   3   6   15.70    4.10
   1   3  -6   19.00    3.73
  -1   3   6   19.29    4.07
  -2  -1   7  268.32   20.03
   2  -1  -7  308.72   21.12
  -2   1   7  240.02   17.96
   2   1  -7  285.33   25.04
   2  -1  -7  281.83   20.38
   2  -1  -7  270.56   20.24
   2   1  -7  280.26   23.74
   2   1  -7  274.34   19.83
   2  -1  -7  261.69   20.63
  -2  -1   7  278.81   21.47
   2  -1  -7  242.67   19.50
   2   1  -7  307.01   23.25
  -3  -1  -3  113.19    9.87
  -3  -1  -3   91.62    8.21
   3   1   3  127.11   11.92
   3   1   3  106.50    8.90
   3   1   3  124.32   12.21
  -3   1  -3  104.94   10.26
   3  -1   3  118.49    9.53
  -3   1  -3   96.72   11.33
   3  -1   3   95.89   10.93
  -3  -1  -3  114.76   11.66
   0  -1  -8   73.11    9.72
   0   1   8   77.89    9.28
   0  -1  -8   73.09    8.44
   0   1  -8   78.10   10.34
   0   1  -8   90.75   10.44
   0   1  -8   74.15    8.43
   1  -1  -8   20.26    3.94
  -1   1   8   20.25    5.77
   1  -1  -8   22.37    4.35
   1   1  -8   22.24    4.92
   1  -1  -8   21.35    5.34
   1   1  -8   18.77    4.53
  -1  -1   8   20.16    4.47
  -1  -1   8   15.62    3.27
  -1  -1   8   23.30    5.54
   1   1  -8   21.09    4.20
   2  -1   6  166.15   14.14
  -2   1  -6  154.94   13.31
  -2  -1  -6  158.63   14.08
  -2   1  -6  128.19   13.14
   2   1   6  143.99   12.56
  -2   1  -6  134.16   12.52
   2  -1   6  132.24   12.52
  -2  -1  -6  171.06   17.08
  -2   1  -6  172.39   14.99
  -2  -1  -6  163.75   12.91
   2   1   6  143.00   13.32
  -1   4   4    6.81    3.60
   1  -4  -4    5.27    2.54
  -1   4   4    6.52    3.54
   1   4  -4    5.98    2.91
  -1  -4   4    4.08    3.67
   1   4  -4    6.71    2.91
   1  -4  -4    5.86    3.20
  -1   4   4    4.79    2.62
   1   4  -4    6.17    2.60
   1  -4  -4    5.14    2.35
   1   4  -4    5.55    2.32
  -1  -4   4    3.47    3.22
  -1   4   4    5.43    2.40
   1   4  -4    6.64    2.89
  -1  -4   4    4.81    2.09
   1  -4  -4    7.05    3.44
  -3   1   5   38.13    5.49
   3   1  -5   41.49    6.20
   3  -1  -5   33.51    6.55
  -3  -1   5   38.53    4.94
   3  -1  -5   38.34    6.56
   3   1  -5   39.12    5.20
  -3  -1   5   37.62    5.11
   3  -1  -5   34.32    5.67
   3  -1  -5   33.75    5.21
  -3   1   5   38.13    6.18
  -2   3   5   46.73    7.10
   2  -3  -5   51.22    9.32
   2   3  -5   46.00    7.55
  -2  -3   5   45.19    9.17
   2   3  -5   61.32    6.75
   2  -3  -5   46.08    6.82
   2  -3  -5   46.34    6.93
   2   3  -5   43.62    7.08
  -2  -3   5   46.67    6.76
   2   3  -5   49.33    6.04
   2  -3  -5   47.00    7.36
   3  -2   2  108.97    9.34
   3  -2   2   77.63   11.95
   3   2   2  103.81    8.58
  -3   2  -2   76.08    9.72
  -3  -2  -2  106.03    9.54
  -3  -2  -2  101.56   10.45
  -3   2  -2  120.91   11.61
  -3   2  -2  108.91   12.28
   3   2   2  115.00   11.80
   3   2   2  117.28   11.41
  -3   2  -2   88.25    9.69
  -3  -2  -2  117.19    9.92
  -2   3  -4  180.13   17.51
  -2   3  -4  186.07   15.75
  -2  -3  -4  226.08   16.98
   2   3   4  197.59   16.50
  -2  -3  -4  257.87   20.26
  -2  -3  -4  219.44   19.16
   2  -3   4  213.84   18.26
   2   3   4  247.95   18.68
   2   3   4  194.33   17.11
   2  -3   4  180.20   18.04
  -2   3  -4  216.52   20.31
  -2   3  -4  183.12   19.52
   3  -2  -4  517.92   34.45
   3  -2  -4  335.40   29.25
  -3   2   4  431.66   25.60
   3   2  -4  502.00   29.00
   3   2  -4  452.48   28.97
  -3  -2   4  428.01   27.93
   3   2  -4  470.37   26.34
  -3  -2   4  453.49   27.14
   3  -2  -4  419.29   31.41
   3  -2  -4  389.01   26.05
  -3   2   4  358.43   21.42
   3   2  -4  405.61   26.20
  -2  -4   1   12.75    3.81
  -2   4   1    8.61    3.02
  -2  -4   1   13.85    3.80
   2   4  -1   13.07    3.84
   2  -4  -1    8.36    3.24
  -2  -4   1   12.87    4.59
  -2  -4   0  255.97   19.38
   2   4   0  253.53   19.55
  -2  -4   0  254.20   18.94
  -2  -4   0  237.94   20.57
  -2   4   0  176.30   18.83
  -2   4   0  221.29   33.63
  -2   4   0  227.15   27.45
   1  -2   7    9.83    3.02
  -1   2  -7   11.26    3.59
   1  -2   7    8.06    3.28
  -1   2  -7   10.23    3.62
  -1  -2  -7    9.36    2.81
   1   2   7   10.22    2.95
  -1  -2  -7    9.36    3.07
  -1   2  -7    8.82    3.20
  -1  -2  -7   10.28    3.48
  -1   2  -7    7.83    2.80
   3   0   4   80.72    7.57
  -3   0  -4   65.85    8.21
  -3   0  -4   80.56   10.97
  -3   0  -4   84.64    9.24
   2  -4  -2  142.99   18.79
  -2  -4   2  195.15   15.48
   2  -4  -2  148.39   19.41
   2   4  -2  155.96   15.77
   2   4  -2  154.22   14.88
  -2  -4   2  192.19   15.52
  -1  -3  -6   26.50    4.99
   1   3   6   26.62    5.29
   1   3   6   24.03    4.45
  -1  -3  -6   27.43    4.98
  -1  -3  -6   25.08    5.40
  -1   3  -6   31.10    6.11
   1   3   6   24.86    5.30
  -1   3  -6   24.90    5.18
   1  -3   6   22.13    4.21
  -1   3  -6   26.23    5.39
  -1   3  -6   22.02    5.67
   1   3   6   22.13    4.06
   1  -3   6   19.82    6.87
  -1  -3  -6   25.60    4.72
   1  -3   6   31.49    6.23
   1  -4   4  201.09   26.87
  -1   4  -4  217.44   17.96
   1  -4   4  191.65   16.71
  -1  -4  -4  263.35   20.21
   1   4   4  231.11   21.10
  -1  -4  -4  225.44   20.41
   1  -4   4  133.87   22.64
  -1   4  -4  200.00   22.89
   1   4   4  216.84   19.31
  -1   4  -4  173.62   16.65
   1  -4   4  192.58   16.70
   1   4   4  231.17   18.05
  -1  -4  -4  208.80   17.07
  -1  -4  -4  184.35   15.87
   1   4   4  192.25   15.40
  -1   4  -4  207.95   19.16
   2   4   1  156.32   20.21
  -2   4  -1  159.13   24.77
  -2  -4  -1  174.83   15.28
   2   4   1  154.34   21.01
  -2   4  -1  140.86   19.83
  -2   4  -1  198.84   27.92
   2  -4   1  213.70   29.01
  -2   4  -1  221.95   31.94
  -2  -4  -1  183.73   15.38
  -2   4  -1  207.53   17.31
  -2   4  -1  218.89   22.98
  -2  -4  -1  143.29   14.47
   2   4   1  187.09   15.43
  -2  -4  -1  160.46   13.88
  -2  -4  -1  188.50   16.60
   0   4   5    7.49    3.03
   0   4   5    7.93    2.72
   0  -4  -5    7.55    3.05
   0  -4  -5    5.88    2.16
   0   4   5    6.39    2.37
   0  -4   5    6.02    2.36
   0   4  -5    6.19    3.19
   0   4   5    4.84    2.31
   0   4  -5    7.02    2.89
   0   4  -5    7.71    2.53
   0   4  -5    6.80    2.92
   0  -4   5    6.13    3.43
   0   4  -5    6.54    2.78
   0  -4  -5    4.88    2.64
   0  -4  -5    8.43    2.87
   0  -4   5    3.79    3.45
  -1   0  -8   16.74    3.82
  -1   0  -8   18.80    4.64
   1   0   8   19.54    4.29
  -1   0  -8   21.49    5.24
   3   0  -6  265.23   18.99
   3   0  -6  215.30   17.57
   3   0  -6  218.37   17.01
  -3   0   6  232.94   17.75
   3   0  -6  217.17   17.53
   2   2  -7   62.15    6.95
  -2  -2   7   67.20    7.88
   2   2  -7   71.78    9.46
   2  -2  -7   73.39    8.83
   2   2  -7   68.23    8.65
   2  -2  -7   68.27    8.79
   2  -2  -7   73.75   11.13
   2   2  -7   63.98    8.11
  -2  -2   7   64.39    8.74
   2  -2  -7   55.93    6.66
  -2   2   7   55.62    7.39
   2  -2  -7   71.09    8.76
  -3  -1  -4   50.05    6.46
  -3   1  -4   41.41    6.93
   3   1   4   51.19    7.41
   3  -1   4   54.00    6.91
   3   1   4   57.30    8.32
  -3  -1  -4   56.88    7.53
   3  -1   4   43.91    8.06
  -3  -1  -4   58.00    6.94
  -3   1  -4   48.02    7.81
   3   1   4   55.39    8.24
   3  -2   3  408.92   26.28
  -3   2  -3  331.87   21.58
   3   2   3  368.79   28.81
  -3   2  -3  338.77   22.45
  -3  -2  -3  367.76   22.39
   3   2   3  418.11   24.58
  -3   2  -3  317.53   23.23
  -3  -2  -3  443.66   26.92
   3   2   3  371.47   24.84
  -3   2  -3  320.04   29.06
  -3  -2  -3  405.53   27.12
  -3   3   1   93.76   12.05
  -3   3   1   73.04   17.73
  -3   3   1   71.14    9.29
  -3  -3   1   89.50   10.51
  -3  -3   1  117.03   10.50
  -3  -3   1  109.04   10.42
   3   3  -1  102.22    8.67
   3  -3  -1   88.37   10.90
  -3   3   1   85.32   18.75
  -3   3   1   66.91    9.48
  -2  -4   3   32.38    5.05
   2  -4  -3   31.03    8.75
   2  -4  -3   24.54    6.76
   2   4  -3   33.47    6.07
  -2  -4   3   32.89    5.20
  -2   4   3   25.18    5.29
   2  -4  -3   24.34    6.72
   2  -4  -3   25.71    5.17
   2  -4  -3   21.11    5.70
   2   4  -3   32.80    5.97
   0   2  -8  119.14   11.05
   0  -2   8  113.67   13.11
   0   2  -8  107.12   12.20
   0   2   8  119.46   13.45
   0  -2  -8  119.22   11.65
   0   2  -8  124.94   12.40
   0  -5   0    0.81    1.81
   0   5   0    0.72    1.95
   0   5   0    1.57    2.74
   0  -5   0    0.64    1.80
   0   5   0    0.96    1.74
   0   5   0    0.65    2.13
   0   5   0    2.43    3.74
   0  -5   0    0.42    1.64
   1  -4  -5   84.54   10.38
   1   4  -5   95.07   10.56
   1   4  -5   78.75    8.32
  -1  -4   5   69.49   14.15
   1  -4  -5   83.26   12.68
   1  -4  -5   92.80   13.12
  -1  -4   5   72.88   12.10
  -1   4   5   88.66   11.22
   1   4  -5   85.19   10.17
  -1  -4   5   90.72    9.46
   1   4  -5  100.59   10.48
   1   4  -5   95.27   11.59
  -1   4   5   92.85   12.27
  -1   4   5   84.17   10.07
   1  -4  -5   82.97    9.80
   2   0  -8    1.28    2.08
   2   0  -8    1.96    2.42
   3   3   0   38.81    5.39
  -3  -3   0   38.00    5.01
  -3   3   0   22.62    6.78
   3  -3   0   24.71    4.94
  -3   3   0   37.44    8.45
  -3   3   0   26.95    6.16
  -3   3   0   23.85    5.96
  -3  -3   0   28.78    6.85
  -3  -3   0   34.85    4.60
  -3   3   0   26.95    5.99
   0  -3  -7  658.57   38.89
   0  -3  -7  546.23   32.17
   0  -3   7  543.04   42.05
   0   3  -7  574.74   35.79
   0   3   7  652.80   41.32
   0  -3  -7  667.15   40.35
   0   3   7  566.38   35.08
   0   3  -7  588.76   38.06
   0  -3   7  615.53   41.59
   0   3  -7  604.39   36.32
   0  -3  -7  562.30   36.43
   0  -3   7  547.17   32.71
   0  -3   7  641.04   41.00
   0   3  -7  645.31   38.46
  -3   3   2  683.01   42.52
   3  -3  -2  613.91   41.47
  -3  -3   2  840.46   46.44
  -3  -3   2  727.13   46.47
  -3   3   2  692.51   44.05
   3  -3  -2  602.82   39.61
  -3   3   2  692.17   43.11
   3  -3  -2  743.97   50.09
  -3  -3   2  856.89   53.64
  -2  -4  -2   81.55    9.73
   2  -4   2   54.05    8.61
  -2   4  -2   52.36   11.22
   2   4   2   61.36   10.73
  -2  -4  -2   60.70    8.88
  -2  -4  -2   91.56   10.32
  -2   4  -2   76.00   12.85
  -2  -4  -2   89.09   10.52
   2   4   2   90.16    9.34
  -2   4  -2   60.77    9.26
  -2  -4  -2   59.88    7.92
  -2   4  -2   53.56    9.54
   2   4   2   61.76    9.70
   1  -2  -8  336.30   21.65
   1  -2  -8  372.63   24.67
   1  -2  -8  290.67   19.90
  -1   2   8  360.26   28.47
  -1  -2   8  321.99   25.45
   1   2  -8  291.18   21.98
   1   2  -8  360.14   24.50
   1  -2  -8  379.44   29.06
   1   2  -8  363.15   24.39
  -1  -2   8  271.92   19.92
   1   2  -8  352.62   23.05
  -2   2  -6    9.06    3.82
   2   2   6   10.03    3.01
  -2  -2  -6   10.65    3.55
  -2  -2  -6   10.42    2.92
   2  -2   6    9.71    2.98
   2   2   6   11.49    3.10
  -2   2  -6    8.46    2.91
   2  -2   6    8.04    3.22
  -2   2  -6    9.45    3.46
  -2   2  -6   11.39    3.73
   2   2   6    9.88    3.44
  -1   1  -8  314.40   22.43
  -1   1  -8  285.52   22.51
   1   1   8  255.61   19.34
  -1   1  -8  284.11   20.20
  -1  -1  -8  302.68   21.84
   0  -5   1  250.56   21.13
   0  -5  -1  280.08   21.76
   0  -5   1  308.83   22.52
   0   5   1  247.53   18.91
   0  -5  -1  293.84   21.17
   0   5  -1  262.95   27.13
   0   5   1  289.02   20.59
   0   5  -1  261.03   20.43
   0  -5  -1  265.02   21.27
   0   5  -1  307.24   25.24
   0   5   1  292.08   22.75
   0  -5  -1  286.54   21.05
   0   5  -1  241.10   25.46
   0   5  -1  235.69   20.17
   0  -5  -1  284.12   25.37
  -3  -2   5   44.26    5.89
   3  -2  -5   36.92    5.69
   3   2  -5   51.58    5.85
   3   2  -5   53.98    6.32
  -3  -2   5   45.20    5.96
   3  -2  -5   45.60    6.75
   3  -2  -5   40.27    6.72
   3  -2  -5   40.67    6.25
   3   2  -5   45.07    6.93
   3  -2  -5   50.80    8.85
   3   2  -5   49.47    6.68
  -3   2   5   39.95    5.97
  -3   1   6  446.15   30.00
   3  -1  -6  478.98   31.59
   3  -1  -6  434.80   32.24
   3   1  -6  431.53   26.78
   3  -1  -6  545.29   38.41
   3  -1  -6  396.90   28.18
  -3  -1   6  454.20   29.80
   3  -1  -6  453.59   28.57
  -3  -1   6  515.09   32.51
   3   1  -6  492.35   31.13
  -1  -3   7  266.03   24.10
   1   3  -7  356.72   23.77
  -1   3   7  264.54   19.86
   1  -3  -7  371.66   25.51
   1  -3  -7  320.92   24.18
   1   3  -7  321.68   25.07
   1   3  -7  404.23   27.83
  -1  -3   7  298.27   23.48
  -1   3   7  367.64   27.73
   1  -3  -7  321.99   22.64
   1   3  -7  349.92   24.13
   2  -3  -6   55.40   10.42
   2   3  -6   60.74    7.32
   2   3  -6   49.70    7.72
   2  -3  -6   51.82    7.12
  -2   3   6   45.30    7.18
   2   3  -6   50.75    8.68
   2   3  -6   57.73    6.57
   2  -3  -6   51.14    6.94
   2  -3  -6   48.47    7.19
  -2  -3   6   50.30    9.77
  -2  -3   6   50.02    7.78
  -2   0  -7   29.42    5.84
  -3   3  -1   99.58   14.71
   3  -3   1   86.48    9.94
  -3  -3  -1  101.75    9.27
   3   3   1   94.13   14.65
  -3  -3  -1   94.08   11.22
   3   3   1  101.08    9.26
  -3   3  -1   68.14    9.59
  -3   3  -1   85.45   10.14
  -3   3  -1   74.10   14.19
  -3   3  -1   67.57   10.23
   2  -1  -8   66.14    8.23
   2  -1  -8   65.56    8.76
  -2  -1   8   59.28    7.83
   2   1  -8   74.48    9.05
   2  -1  -8   70.44    9.51
   2  -1  -8   61.44    9.23
   2   1  -8   67.44    8.16
   2   1  -8   66.96    8.91
   2   1  -8   72.61    9.24
   2   3   5   32.51    5.12
  -2   3  -5   30.30    5.77
  -2  -3  -5   36.53    6.69
   2   3   5   40.38    7.48
   2   3   5   44.26    6.59
   2  -3   5   37.11    6.02
  -2   3  -5   33.89    5.61
  -2   3  -5   38.91    7.34
  -2  -3  -5   45.93    7.68
   2  -3   5   32.17    6.46
  -2   3  -5   34.05    6.51
  -2  -3  -5   38.52    6.86
  -3  -3   3  126.54   18.69
   3  -3  -3  151.22   16.00
   3  -3  -3  176.48   20.24
  -3  -3   3  153.75   17.45
   3  -3  -3  118.66   16.23
  -3  -3   3  167.56   12.02
   3  -3  -3  153.72   14.26
  -3   3   3  156.69   14.30
   3   3  -3  173.55   14.14
   3   3  -3  164.67   12.36
   0   5  -2  267.35   23.43
   0   5  -2  226.36   20.06
   0  -5  -2  228.15   19.38
   0   5  -2  224.38   20.68
   0   5  -2  192.65   19.57
   0   5  -2  234.46   24.07
   0   5  -2  238.07   22.95
   0  -5  -2  265.42   22.73
   0  -5   2  265.10   20.01
   0   5   2  224.24   20.00
   0  -5  -2  218.44   23.53
   0   5   2  230.41   17.75
   0  -5  -2  258.60   21.97
   0   5  -2  195.84   21.79
   0   5   2  263.41   20.53
   0  -5  -2  244.29   20.60
   0   0   9   59.85    8.70
   0   0  -9   58.18    7.37
   0   0  -9   49.99    6.72
   0   0  -9   54.34    6.88
   1   0  -9    1.21    1.76
  -1   0   9    0.83    2.13
   1   0  -9   -0.09    2.37
   1   0  -9    0.64    2.00
   1   5   0  149.75   16.10
  -1  -5   0  172.46   16.96
  -1   5   0  174.64   15.71
   1   5   0  186.88   17.18
   1   5   0  132.74   20.88
  -1   5   0  177.37   22.77
  -1  -5   0  196.20   17.28
   1   5   0  151.18   14.95
  -1   5   0  171.42   17.52
  -1  -5   0  197.87   17.33
  -1   5   0  180.68   26.02
   1   5   0  199.80   17.64
  -2  -4   4    3.15    2.84
   2  -4  -4    3.77    2.03
  -2   4   4    3.81    2.31
   2  -4  -4    5.49    3.16
   2  -4  -4    3.42    2.07
   2   4  -4    5.48    2.64
  -2  -4   4    5.62    4.67
   2  -4  -4    6.19    3.99
   2   4  -4    5.42    2.68
   2   4  -4    3.27    2.56
  -2   1  -7   38.88    7.12
  -2   1  -7   33.84    5.85
  -2  -1  -7   37.23    5.73
  -2  -1  -7   35.90    5.80
   2  -1   7   38.38    6.53
   2   1   7   39.98    7.07
  -2  -1  -7   35.37    6.10
  -2   1  -7   32.48    6.38
   1   5  -1   24.29    5.71
  -1  -5   1   30.09    5.76
   1   5  -1   33.01    6.35
   1   5  -1   20.31    5.95
  -1   5   1   20.04    4.67
   1  -5  -1   28.99    5.90
  -1   5   1   27.48    5.31
  -1  -5   1   26.37    5.21
  -1  -5   1   29.13    6.70
   1  -5  -1   30.05    8.45
  -1   4  -5  100.77   11.20
  -1  -4  -5  102.16   10.42
  -1   4  -5  100.33   11.55
  -1  -4  -5  119.34   12.20
   1   4   5  100.04    9.71
   1   4   5  114.91   13.81
  -1  -4  -5   95.32   10.11
  -1   4  -5  106.54   16.54
  -1  -4  -5  107.19   13.51
  -1   4  -5  111.47   13.42
   1  -4   5   98.86   12.05
   1  -4   5   92.21   18.43
   1  -4   5   78.37   14.83
   1   4   5   93.20   10.36
   1   4   5  105.62   10.79
   1  -4   5   86.69    9.49
  -3   0  -5  933.29   53.56
  -3   0  -5  945.21   55.16
  -3   0  -5  855.02   50.23
   3   0   5  956.11   53.81
  -2   4  -3  138.59   15.51
  -2  -4  -3  175.66   16.12
  -2  -4  -3  165.19   16.13
   2   4   3  157.53   15.97
  -2   4  -3  149.66   15.99
  -2   4  -3  157.10   15.65
  -2  -4  -3  216.51   18.32
   2  -4   3  138.51   15.37
   2   4   3  157.95   18.08
  -2   4  -3  193.07   24.43
   2  -4   3  146.71   14.83
   2   4   3  171.15   13.48
  -1  -5  -1   59.94   10.51
   1   5   1   73.54    9.84
  -1  -5  -1   55.53    8.77
  -1   5  -1   66.45   12.08
  -1  -5  -1   71.97    9.34
  -1  -5  -1   65.91    9.84
   1   5   1   59.18    8.73
  -1   5  -1   50.15    7.32
   1   5   1   61.59    8.54
  -1  -5  -1   66.16    9.80
  -1   5  -1   65.76   12.06
  -1   5  -1   64.11   15.80
   3  -3   2   15.59    5.59
  -3   3  -2   14.73    4.26
  -3   3  -2   16.65    4.34
  -3   3  -2   19.54    5.57
   3   3   2   20.27    6.22
  -3   3  -2   23.90    7.20
  -3  -3  -2   19.38    4.10
  -3  -3  -2   19.97    4.12
   3   3   2   24.39    4.37
   3  -3   2   18.70    4.36
   3   3   2   20.03    6.00
   0   1   9    4.45    2.59
   0   1  -9    3.70    2.25
   0  -1  -9    3.85    2.62
   0   1  -9    4.74    2.06
   0   1  -9    5.27    2.13
   0  -1  -9    5.58    2.42
  -3  -2  -4   29.71    4.56
   3  -2   4   26.59    5.03
   3   2   4   27.64    3.93
  -3   2  -4   27.41    5.70
   3   2   4   30.54    5.83
  -3   2  -4   28.73    4.91
  -3  -2  -4   30.66    5.87
   3  -2   4   24.49    5.76
  -3   2  -4   26.01    5.36
  -3  -2  -4   27.89    4.87
  -3   2  -4   23.61    5.36
   3   2   4   32.14    7.35
   1   1  -9  112.58   12.01
   1   1  -9  128.89   12.81
   1  -1  -9  118.90   12.76
   1   1  -9  130.59   12.54
   1  -1  -9  112.55   11.07
  -1  -1   9  107.44   11.80
   1  -1  -9  132.54   13.62
  -1   1   9  125.67   12.16
  -1  -5   2  243.15   19.76
  -1  -5   2  243.03   19.28
   1   5  -2  165.40   16.26
   1  -5  -2  185.61   19.65
   1   5  -2  172.86   16.70
  -1   5   2  158.70   14.93
   1   5  -2  230.22   20.06
   1  -5  -2  242.19   23.77
   1   5  -2  246.32   20.98
  -1   5   2  206.53   16.64
   0  -4   6  134.57   17.46
   0  -4  -6  222.95   21.91
   0   4   6  194.50   17.13
   0   4  -6  212.59   17.79
   0  -4   6  131.12   20.11
   0   4  -6  234.82   19.37
   0   4   6  205.72   18.79
   0   4  -6  205.21   18.71
   0  -4  -6  206.55   16.89
   0   4  -6  227.57   18.66
   0   4   6  213.84   16.63
   0   4  -6  203.04   17.06
   0  -4  -6  208.62   17.41
   0  -4  -6  229.88   20.45
   0  -4   6  190.70   15.27
   0   5  -3   31.28    6.35
   0  -5  -3   31.12    6.08
   0   5  -3   33.37    6.95
   0   5  -3   28.22    5.44
   0   5   3   29.16    5.54
   0  -5  -3   28.65    6.43
   0   5  -3   29.25    5.88
   0  -5  -3   22.22    5.26
   0   5   3   22.22    4.06
   0   5  -3   23.38    6.73
   0   5  -3   25.89    7.61
   0  -5  -3   33.16    6.51
   0  -5   3   31.06    5.34
   0   5  -3   25.69    5.58
   0   5   3   28.49    5.01
  -3  -3   4   74.51    8.88
   3   3  -4   91.71    8.43
   3  -3  -4   61.33    8.95
  -3   3   4   69.31    8.69
   3  -3  -4   60.77    8.61
   3  -3  -4   87.55   12.76
   3   3  -4   63.46   10.27
   3  -3  -4   64.82   12.24
   3   3  -4   71.82   10.27
   3   3  -4   84.20    8.50
   3  -3  -4   67.75    9.69
   3   0  -7    8.57    3.08
   3   0  -7    9.40    3.22
   3   0  -7    8.08    2.62
   3   0  -7    9.05    2.94
  -4   0   1   38.55    6.54
  -4   0   1   25.80    6.17
   4   0  -1   34.63    6.15
  -4   0   1   34.33    6.68
  -3  -1  -5  113.21    9.97
  -3  -1  -5  107.16   10.92
  -3  -1  -5  128.79   14.67
  -3   1  -5  117.85   12.50
   3  -1   5  117.78   12.16
  -3   1  -5  118.66   11.29
   3   1   5  120.88   11.86
  -1   3  -7  111.73   13.33
  -1  -3  -7  141.95   14.47
  -1  -3  -7  146.81   13.91
  -1  -3  -7  140.60   13.00
   1   3   7  137.72   13.38
  -1   3  -7  117.38   10.71
   1  -3   7  143.57   14.74
   1  -3   7  125.64   11.97
  -1   3  -7  156.12   15.09
  -1   3  -7  152.97   13.90
  -1   2  -8   37.01    5.80
  -1   2  -8   34.35    5.54
  -1  -2  -8   38.29    5.99
  -1  -2  -8   37.43    6.73
   1  -2   8   37.95    6.85
  -1   2  -8   36.07    6.54
  -1  -2  -8   36.29    6.30
   1   2   8   37.45    5.73
  -4   0   2 1195.37   65.47
   4   0  -2  983.36   52.06
  -4   0   2 1042.90   58.28
  -4   0   2 1055.95   57.83
  -3  -2   6  332.67   23.70
  -3  -2   6  356.70   22.77
   3   2  -6  430.62   27.45
  -3   2   6  320.75   22.30
   3   2  -6  340.04   23.06
   3  -2  -6  314.12   24.64
   3  -2  -6  441.01   32.96
   3  -2  -6  347.32   24.97
   3  -2  -6  351.30   24.30
   3   2  -6  360.33   21.98
   3  -2  -6  355.14   25.72
   3   2  -6  334.67   27.80
   1   4  -6   34.86    5.64
   1   4  -6   38.48    6.16
   1  -4  -6   37.48    7.88
  -1   4   6   31.45    6.31
   1  -4  -6   29.43    5.14
  -1   4   6   31.88    6.34
  -1  -4   6   26.34    6.66
   1   4  -6   40.96    6.79
   1  -4  -6   34.93    5.77
   1  -4  -6   35.53    8.04
  -1  -4   6   22.19    6.81
   1   4  -6   31.60    6.74
  -1  -5  -2  434.65   31.59
   1   5   2  425.40   28.41
  -1  -5  -2  509.00   33.10
  -1   5  -2  422.90   31.02
   1   5   2  504.63   32.47
  -1   5  -2  503.89   34.67
  -1   5  -2  404.98   34.49
  -1   5  -2  530.19   41.52
  -1  -5  -2  407.62   30.44
   1   5   2  408.92   28.99
  -1   5  -2  465.79   42.56
  -1  -5  -2  467.95   33.80
  -1   5  -2  413.05   36.23
  -1  -5  -2  426.84   28.71
  -1   5  -2  340.08   31.74
   4   0   0 2478.92  123.65
  -4   0   0 2640.98  158.19
  -4   0   0 2726.82  164.69
  -4   0   0 2317.92  118.22
   2  -2  -8   73.87    8.84
   2  -2  -8   72.45    9.50
   2   2  -8   66.96    8.57
  -2  -2   8   68.78    9.66
   2  -2  -8   77.74   11.43
   2  -2  -8   75.18    9.30
   2   2  -8   70.65    8.45
   2   2  -8   69.50    9.60
  -2  -2   8   63.82    7.80
   2   2  -8   80.21    9.86
   3  -1  -7  240.03   21.37
   3  -1  -7  251.20   20.91
  -3  -1   7  237.67   20.73
   3   1  -7  267.95   23.78
   3  -1  -7  225.46   21.33
   3   1  -7  227.30   20.84
   3  -1  -7  238.49   20.61
  -4  -1   1  137.88   11.88
  -4   1   1  158.52   15.41
  -4   1   1  150.71   15.35
   4  -1  -1  133.02   12.52
  -4  -1   1  149.52   12.11
  -4   1   1  163.44   15.68
  -4  -1   1  160.46   13.78
  -4  -1   1  163.89   14.91
  -4  -1   1  143.68   13.30
  -1   5   3   69.83   16.54
   1   5  -3  112.26   12.75
   1  -5  -3   96.53   13.05
   1   5  -3   93.76   10.99
  -1   5   3   76.07    8.33
   1  -5  -3   86.47   10.48
   1  -5  -3   91.15   12.72
   1  -5  -3   90.88   13.96
   1   5  -3  115.71   12.82
  -1  -5   3  109.46   11.93
  -1  -5   3  113.29   12.20
   1  -5  -3   86.38   13.42
   1   5  -3   92.30   13.17
  -4   0   3   41.70    6.26
   4   0  -3   43.78    6.33
   4   0  -3   47.11    6.52
   4   0  -3   39.70    5.62
  -4   1   2   26.69    5.34
  -4  -1   2   23.91    3.86
  -4  -1   2   32.62    5.38
  -4  -1   2   25.91    3.88
   4  -1  -2   28.47    5.06
  -4   1   2   27.65    5.43
  -4  -1   2   29.92    5.82
  -4  -1   2   29.55    5.03
  -4   1   2   22.59    6.53
   2   4  -5   20.79    4.61
   2   4  -5   37.24    6.16
   2  -4  -5   26.80    5.39
   2   4  -5   34.87    5.64
  -2   4   5   29.08    5.92
   2  -4  -5   25.83    5.18
   2  -4  -5   26.53    5.23
   2  -4  -5   33.67    9.24
   2   4  -5   21.91    5.47
   2  -4  -5   34.68    8.40
  -2  -3   7   81.48   10.14
   2   3  -7   88.64    9.78
   2  -3  -7   83.29    9.91
   2   3  -7  101.68   11.98
   2   3  -7   75.30   10.05
  -2  -3   7   77.77   11.96
   2  -3  -7   79.95    9.53
   2  -3  -7   90.35   10.47
  -2   3   7   75.36    9.61
   2  -3  -7   87.22   12.27
   2   3  -7   84.07   10.19
  -4  -1   0   31.10    5.15
  -4  -1   0   26.16    4.51
  -4   1   0   30.12    5.55
   4  -1   0   29.51    4.88
  -4  -1   0   28.36    4.41
  -4   1   0   23.04    5.66
  -4  -1   0   30.98    4.92
  -4  -1   0   23.98    4.29
  -4   1   0   18.82    3.95
  -4   0  -1   15.61    4.59
  -4   0  -1    7.25    3.50
  -4   0  -1    9.75    3.93
   4   0   1   13.01    3.45
   3   3   3  175.48   17.28
   3   3   3  177.94   20.13
  -3   3  -3  161.18   19.66
  -3   3  -3  178.35   17.87
  -3  -3  -3  185.60   15.84
  -3   3  -3  141.82   15.87
   3  -3   3  187.02   17.29
  -3  -3  -3  164.61   16.63
   3   3   3  221.06   16.88
   3  -3   3  143.89   15.83
  -3   3  -3  150.18   20.69
  -2  -2  -7  136.19   13.06
  -2  -2  -7  133.31   14.89
  -2   2  -7  135.04   14.56
   2  -2   7  126.20   13.35
   2   2   7  124.89   12.99
  -2   2  -7  111.50   12.69
  -2   2  -7  123.36   14.11
  -2  -4  -4   80.52   10.96
  -2   4  -4   74.10    9.48
   2   4   4   72.91   10.64
   2  -4   4   67.94   10.18
  -2  -4  -4  100.38   12.39
  -2   4  -4   66.65   10.94
   2   4   4   74.97   10.22
  -2  -4  -4   77.18    9.53
  -2   4  -4   64.49    9.53
  -2   4  -4   89.12   15.04
   2  -4   4   79.98   10.57
   2   4   4   89.01    9.93
   0  -3   8   84.51   10.98
   0   3  -8   75.25    9.38
   0  -3  -8   77.97   10.73
   0  -3  -8   77.47    9.38
   0  -3  -8   82.13    9.82
   0   3  -8   70.10    8.94
   0   3  -8   69.18    9.66
   0   3   8   77.27    9.47
  -1   0  -9  117.31   11.84
  -1   0  -9  108.75   11.87
   1   0   9  100.64   10.46
  -1   0  -9   92.21   11.77
  -4  -1   3   18.91    3.51
   4  -1  -3   19.00    4.42
  -4  -1   3   20.72    4.75
  -4  -1   3   17.51    3.46
   4  -1  -3   17.64    4.35
   4  -1  -3   14.67    3.36
  -4  -1   3   20.62    4.68
  -1  -3   8   28.83    6.59
   1   3  -8   36.27    6.02
  -1   3   8   39.32    6.97
   1  -3  -8   30.27    4.93
   1   3  -8   31.13    5.15
   1  -3  -8   39.07    6.10
   1   3  -8   37.14    7.20
   1   3  -8   33.22    6.52
   1  -3  -8   39.59    6.97
  -1  -3   8   34.11    6.00
   2  -3   6    0.41    1.84
  -2  -3  -6    0.70    1.83
  -2   3  -6    0.31    2.08
  -2   3  -6    0.09    1.93
   2   3   6    0.07    1.89
  -2   3  -6    0.00    1.89
  -2  -3  -6    0.23    2.15
   2   3   6    0.61    2.07
  -2   3  -6    0.10    2.30
   2  -3   6    0.44    1.60
   2   3   6   -0.14    1.77
  -2  -3  -6   -0.21    1.58
   2   0  -9   24.70    4.76
   2   0  -9   20.05    4.66
   0   5  -4   25.29    5.82
   0  -5  -4   23.33    4.83
   0   5   4   27.23    5.88
   0   5  -4   28.55    5.59
   0   5  -4   19.38    6.17
   0  -5  -4   21.41    5.35
   0   5  -4   25.06    5.73
   0   5  -4   25.04    7.15
   0   5   4   23.98    5.62
   0  -5  -4   26.41    5.32
   0   5  -4   29.38    5.65
   0   5   4   22.77    4.41
   0  -5   4   24.20    4.74
   0   5   4   23.58    5.15
   0  -5  -4   27.43    6.17
  -1   5  -3  453.56   39.12
   1   5   3  526.08   37.25
  -1   5  -3  733.88   52.66
   1  -5   3  573.78   41.55
  -1   5  -3  748.01   51.03
  -1   5  -3  498.42   37.37
  -1  -5  -3  655.60   41.40
   1   5   3  680.55   41.27
  -1  -5  -3  690.11   43.54
  -1  -5  -3  507.80   38.31
  -1   5  -3  507.19   38.13
  -1  -5  -3  526.71   38.85
  -1  -5  -3  674.91   42.35
  -1   5  -3  594.28   49.73
   1   5   3  554.96   39.53
   3   3  -5   65.60    8.77
  -3   3   5   65.97    8.22
   3  -3  -5   67.13    9.15
   3   3  -5   54.92    9.17
   3  -3  -5   70.34   12.32
   3   3  -5   91.07    9.64
   3  -3  -5   76.16   13.65
  -3  -3   5   63.58    9.72
  -3  -3   5   69.12    8.92
   3   3  -5   76.01    7.94
   3  -3  -5   56.79    8.51
   3  -3  -5   57.32    8.81
   0  -2   9  539.46   39.69
   0   2  -9  500.14   37.57
   0  -2  -9  545.86   37.42
   0   2  -9  542.80   38.60
   0   2  -9  535.37   36.66
   0   2   9  572.88   41.21
   1   2  -9   98.35   11.48
   1  -2  -9   97.43   12.18
   1   2  -9   91.39   10.49
   1  -2  -9   94.82   10.80
   1   2  -9   99.44   10.90
   1  -2  -9   99.49   10.77
   1   2  -9   98.10   10.91
  -1   2   9  108.87   12.42
  -4   1  -1  355.41   26.39
  -4  -1  -1  350.25   25.13
  -4  -1  -1  304.12   22.50
  -4   1  -1  343.41   25.14
  -4  -1  -1  333.09   23.88
  -4   1  -1  317.51   24.20
   4  -1   1  341.63   23.82
  -4  -1  -1  337.72   24.00
   4   0  -4   57.83    7.04
   4   0  -4   50.68    6.80
   4   0  -4   47.83    5.83
   4   0  -4   55.96    7.58
  -1   4  -6   15.98    4.19
   1  -4   6   17.22    4.80
  -1   4  -6   14.84    4.22
  -1   4  -6   17.47    4.79
  -1   4  -6   19.18    4.61
  -1  -4  -6   19.54    5.10
   1  -4   6   15.09    4.00
  -1  -4  -6   15.71    4.17
   1   4   6   15.59    3.74
   1   4   6   14.73    4.10
  -1  -4  -6   15.23    3.39
   1   4   6   18.76    4.11
  -1   1  -9  289.91   22.68
  -1  -1  -9  281.82   22.93
  -1   1  -9  232.72   19.98
  -1   1  -9  325.83   26.16
   1   1   9  304.59   23.97
   3   2   5    5.29    2.32
  -3  -2  -5    5.50    2.77
  -3   2  -5    3.30    2.74
   3  -2   5    5.42    2.62
  -3  -2  -5    5.60    2.48
  -3   2  -5    5.82    3.14
  -3   2  -5    4.74    2.34
  -3  -2  -5    6.30    2.76
  -2   0  -8   35.89    5.58
   2  -1  -9  113.33   11.79
   2   1  -9  128.13   14.33
   2  -1  -9  105.50   11.83
   2   1  -9  107.45   11.24
   2   1  -9   99.80   11.63
   2   1  -9   92.48   10.11
   2  -1  -9  106.69   13.56
   2  -1  -9  100.86   11.56
  -1   5   4  115.34   15.60
   1   5  -4  168.29   15.99
   1   5  -4  117.53   13.15
   1  -5  -4  125.44   13.51
   1   5  -4  156.87   16.87
   1  -5  -4  160.27   16.85
   1  -5  -4  156.32   18.78
   1   5  -4  166.37   16.27
   1   5  -4  117.46   14.36
  -1  -5   4  155.90   15.01
  -3   0  -6   34.71    7.12
  -3   0  -6   34.20    6.50
  -3   0  -6   29.18    6.36
   3   0   6   30.56    6.15
  -4   0  -2   16.27    3.63
  -4   0  -2   16.29    3.74
  -4   0  -2   19.02    4.21
   4   0   2   19.73    3.82
  -4  -1   4  311.55   22.41
   4   1  -4  338.43   25.28
   4  -1  -4  345.16   27.52
   4  -1  -4  274.24   21.91
   4  -1  -4  323.23   24.59
   4  -1  -4  365.47   26.40
   4   1  -4  344.50   24.91
  -3  -4   1  739.86   45.62
  -3  -4   1  740.73   43.63
  -3   4   1  521.36   38.87
  -3   4   1  632.43   55.78
  -3   4   1  488.57   49.48
   3   4  -1  752.57   42.93
  -3  -4   1  597.21   46.01
   3  -4  -1  511.84   37.65
  -3   4   0   90.99   14.19
  -3   4   0   67.71   10.30
   3  -4   0   80.94    9.56
   3   4   0   83.93    8.98
  -3  -4   0   84.14   10.72
  -3  -4   0   77.65   10.02
  -3   4   0   97.47   16.44
   0   4  -7  216.45   18.80
   0   4  -7  226.78   22.27
   0  -4  -7  241.11   22.77
   0   4  -7  187.38   16.33
   0  -4  -7  231.44   20.99
   0   4  -7  230.60   20.57
   0  -4  -7  200.67   17.80
   0  -4  -7  219.20   19.77
   0   4   7  222.60   21.02
   0  -4   7  144.71   17.72
   0   4   7  221.92   20.45
   0  -4   7  139.69   20.15
   2   5  -1  357.99   29.12
  -2  -5   1  387.77   33.53
  -2   5   1  425.35   45.39
  -2   5   1  391.02   48.63
   3   2  -7   26.10    5.43
   3  -2  -7   24.69    6.29
   3  -2  -7   25.32    5.42
   3   2  -7   21.63    5.55
  -3  -2   7   20.22    4.85
   3  -2  -7   22.67    4.61
   3   2  -7   27.36    4.82
  -3  -2   7   23.81    4.69
   3   2  -7   23.51    4.93
   3  -2  -7   27.03    5.69
  -4  -2   1   34.89    4.89
  -4   2   1   31.27    5.82
  -4  -2   1   34.28    5.02
  -4  -2   1   37.53    5.94
  -4  -2   1   33.03    4.95
   4  -2  -1   34.30    6.78
  -4   2   1   22.37    5.02
  -4   2   1   29.23    6.06
   4   2  -1   35.02    4.70
  -4  -2   1   31.37    4.86
  -4   2   1   32.36    6.20
  -2   5   0   20.63    7.54
   2   5   0   18.04    4.70
  -2   5   0   20.47    7.00
  -2  -5   0   14.76    4.53
  -2   1  -8   27.49    5.02
  -2   1  -8   34.65    6.37
  -2  -1  -8   34.38    5.50
   2   1   8   33.65    6.13
   2  -1   8   35.80    6.99
  -2   1  -8   34.75    6.75
  -2  -1  -8   37.64    7.00
  -2  -1  -8   36.57    6.62
  -3  -4   2  193.05   17.41
   3   4  -2  218.43   17.46
   3  -4  -2  165.97   14.33
  -3   4   2  125.05   12.73
   3  -4  -2  121.73   13.78
  -3  -1  -6  163.61   14.87
  -3   1  -6  117.48   11.51
  -3   1  -6  142.55   16.39
   3   1   6  158.50   16.25
   3  -1   6  148.76   15.66
  -3  -1  -6  138.54   14.25
  -3  -1  -6  142.45   14.30
   4   2  -2  492.15   33.38
  -4  -2   2  444.50   31.40
  -4   2   2  403.71   31.79
  -4   2   2  320.62   29.98
  -4   2   2  329.32   25.90
  -4  -2   2  411.81   27.92
  -4   2   2  392.95   33.23
  -4  -2   2  480.70   35.19
  -4  -2   2  486.92   33.41
  -4  -2   2  500.02   35.35
   4  -2  -2  425.45   33.24
   4  -1   2  191.06   14.80
  -4   1  -2  165.76   14.84
  -4   1  -2  166.11   15.37
  -4  -1  -2  183.76   15.12
  -4   1  -2  162.66   16.03
  -4  -1  -2  187.32   14.77
  -4  -1  -2  174.06   15.69
   3   0  -8  459.84   32.71
   3   0  -8  415.45   32.50
   3   0  -8  472.04   35.90
   3   0  -8  444.35   31.85
   1   4  -7  433.10   29.10
  -1  -4   7  327.87   31.76
   1  -4  -7  443.34   28.97
  -1  -4   7  386.19   30.38
   1   4  -7  440.63   31.58
   1   4  -7  442.75   29.36
   1  -4  -7  421.66   32.45
   1  -4  -7  505.69   35.91
   1   4  -7  497.57   31.86
  -1   4   7  477.69   34.44
   1  -4  -7  385.18   25.39
  -1   4   7  421.14   29.49
  -4   2   0  157.14   15.26
  -4  -2   0  197.77   16.22
   4   2   0  196.09   13.96
  -4   2   0  159.32   15.67
  -4  -2   0  196.52   14.47
  -4   2   0  134.17   15.05
  -4  -2   0  198.55   14.72
  -4  -2   0  187.00   14.33
   4  -2   0  183.91   14.40
  -4  -2   0  192.54   14.71
  -3   3  -4  133.88   16.04
  -3  -3  -4  143.22   12.51
  -3   3  -4  111.42   11.91
   3   3   4  172.17   13.11
  -3  -3  -4  149.20   16.23
  -3   3  -4  124.75   16.73
   3   3   4  139.92   15.65
   3  -3   4  142.09   15.04
   3   3   4  143.99   15.81
   3  -3   4  120.70   14.45
  -3   3  -4  140.76   14.75
   2  -4  -6    7.06    3.69
   2  -4  -6    5.05    2.12
   2  -4  -6    4.24    2.89
   2   4  -6    5.83    2.42
   2  -4  -6    5.28    2.16
  -2  -4   6    4.72    2.43
   2   4  -6    4.28    2.34
  -2  -4   6    3.66    2.75
   2   4  -6    4.27    2.38
   2  -4  -6    4.99    2.35
   2   4  -6    6.28    2.89
   1   0 -10    6.07    2.42
   1   0 -10    7.35    2.44
  -1   0  10    7.37    3.05
   2  -5  -2  140.22   17.84
   2  -5  -2  154.50   22.27
   2   5  -2  144.83   14.50
  -2  -5   2  118.08   13.61
   0   0 -10   -0.11    1.76
   0   0 -10    0.14    2.10
   0   0 -10   -0.49    2.46
   0   0  10   -0.02    1.78
   1   5   4  164.37   14.95
  -1   5  -4  164.78   15.46
  -1   5  -4  221.88   22.96
  -1   5  -4  164.26   16.62
   1  -5   4  150.34   14.22
  -1  -5  -4  190.10   17.24
  -1  -5  -4  174.87   15.11
   1   5   4  156.57   16.53
  -1  -5  -4  200.66   17.59
   1   5   4  197.38   17.29
  -1   5  -4  177.33   21.12
  -1  -5  -4  176.94   17.21
  -1   5  -4  191.59   19.48
  -2   5  -1  763.57   58.60
  -2  -5  -1  817.58   51.55
   2   5   1  854.99   51.42
   4   0  -5   30.03    4.93
   4   0  -5   32.08    5.87
   4   0  -5   33.87    5.26
   4   0  -5   36.69    5.92
  -3  -4  -1  502.13   33.86
  -3   4  -1  428.75   37.43
  -3  -4  -1  570.63   34.59
  -3   4  -1  578.65   44.85
   3   4   1  575.65   34.31
  -3  -4  -1  438.21   32.87
  -3   4  -1  462.10   34.05
   3  -4   1  464.86   33.46
  -4   2   3    1.72    2.00
   4   2  -3    2.54    2.48
  -4   2   3    2.27    2.09
   4  -2  -3    3.80    3.26
  -4  -2   3    1.88    2.17
   4  -2  -3    2.17    2.49
  -4  -2   3    2.43    2.38
  -4  -2   3    2.28    2.87
   4   2  -3    3.13    2.47
  -4   2   3    2.09    2.54
  -4  -2   3    2.33    2.73
   4  -2  -3    2.48    3.28
   0  -5  -5  101.35   10.97
   0   5  -5  104.47   11.55
   0  -5  -5  100.32   11.18
   0   5   5   86.96    9.04
   0   5  -5   95.77   11.51
   0  -5  -5   85.53   11.10
   0   5  -5   94.09   10.96
   0   5   5  104.74   12.93
   0   5  -5   88.49   10.14
   0  -5   5   94.00    9.98
   0  -5  -5   88.45    9.77
   0  -5   5   72.89   14.55
   0   5  -5   61.64    9.22
   0  -5   5   77.83   14.07
  -2   4  -5   13.78    3.96
  -2  -4  -5   16.39    3.67
  -2   4  -5   21.16    5.68
   2  -4   5   18.19    4.89
  -2   4  -5   15.12    5.62
   2   4   5   15.62    4.51
  -2  -4  -5   17.51    4.66
   2   4   5   20.74    4.02
   2  -4   5   15.66    4.18
  -2  -4  -5   19.49    4.48
  -2   4  -5   19.81    5.19
   2   4   5   16.48    4.05
   3  -4  -3  577.81   41.08
  -3  -4   3  804.99   50.48
  -3  -4   3  851.97   59.20
   3   4  -3  766.84   45.71
   3  -4  -3  565.87   41.56
   3   4  -3  706.69   43.05
  -1   3  -8  139.43   13.24
  -1  -3  -8  124.20   13.00
   1   3   8  126.03   12.82
   1  -3   8  134.18   12.91
  -1   3  -8  137.67   15.23
  -1  -3  -8  138.05   13.01
  -1  -3  -8  113.64   10.91
  -1   3  -8  115.14   11.65
  -3  -3   6   34.16    7.36
   3   3  -6   27.24    6.09
   3  -3  -6   33.55    8.77
   3  -3  -6   30.00    5.72
  -3   3   6   27.63    4.46
   3   3  -6   29.48    5.69
   3  -3  -6   31.43    6.87
   3   3  -6   37.06    4.94
   3   3  -6   39.39    5.97
   3  -3  -6   31.74    5.68
  -3  -3   6   32.61    5.58
   3  -3  -6   31.70    5.63
   3  -1  -8  107.05   12.79
   3  -1  -8  114.61   11.10
   3  -1  -8  111.50   11.14
   3  -1  -8  106.69   12.59
   3   1  -8  114.08   13.74
   3   1  -8  122.32   12.14
  -4   2  -1  578.05   35.86
  -4  -2  -1  770.43   43.48
  -4   2  -1  605.64   37.19
   4   2   1  706.21   39.28
  -4   2  -1  612.71   38.12
  -4  -2  -1  674.57   41.29
  -4  -2  -1  730.74   42.08
   4  -2   1  725.94   40.97
  -4  -2  -1  722.99   41.64
  -4  -2  -1  697.57   41.91
   1   1 -10  411.88   27.97
   1   1 -10  387.52   27.04
   1  -1 -10  368.56   25.65
  -1  -1  10  394.41   26.78
   1   1 -10  356.50   25.03
  -1   1  10  369.15   25.51
   1  -1 -10  423.71   28.94
   1  -1 -10  404.11   29.03
   0  -1 -10  105.85   12.01
   0   1 -10   84.75    9.51
   0   1 -10   90.69    9.79
   0  -1 -10  100.50   10.34
   0   1  10   99.99   10.80
   0   1 -10  100.83   11.53
  -4   0  -3  643.38   40.04
  -4   0  -3  580.38   38.04
   4   0   3  661.80   37.31
  -4   0  -3  684.13   44.66
   4  -1  -5  376.24   25.61
  -4  -1   5  355.32   23.88
   4  -1  -5  348.35   24.63
   4   1  -5  373.20   24.28
   4  -1  -5  319.04   23.16
   4   1  -5  409.01   25.90
   4  -1  -5  350.29   26.33
   2  -5  -3  168.73   17.78
   2  -5  -3  209.87   24.81
   2   5  -3  216.84   19.09
   2   5  -3  225.74   19.94
   1   5  -5    8.28    3.50
   1   5  -5    8.47    3.02
  -1  -5   5    5.95    4.29
   1  -5  -5    8.48    3.04
   1   5  -5    8.40    3.00
   1  -5  -5    9.37    4.85
  -1  -5   5    6.10    4.49
  -1   5   5    8.60    3.21
   1  -5  -5    7.43    3.21
  -1  -5   5    8.50    2.47
   1  -5  -5    8.30    3.06
   1   5  -5    8.25    2.78
  -2  -3   8  312.94   22.83
   2   3  -8  331.07   24.15
  -2   3   8  276.67   20.64
   2   3  -8  371.84   26.62
   2  -3  -8  329.30   22.43
  -2  -3   8  288.49   25.33
   2  -3  -8  366.27   28.36
   2  -3  -8  278.48   21.42
   2   3  -8  301.48   23.74
   2  -3  -8  340.42   26.00
   2   3  -8  308.85   21.81
  -1  -2  -9   82.54   10.11
  -1  -2  -9   81.44    9.03
  -1   2  -9   94.14   11.01
  -1   2  -9   92.58   10.84
  -1  -2  -9   89.87    9.61
   1  -2   9   87.94    9.96
   1   2   9   86.99    9.95
  -1   2  -9   88.62    9.53
   2   5   2   34.91    5.96
  -2  -5  -2   22.36    5.32
  -2  -5  -2   34.24    6.87
  -2   5  -2   39.33    9.82
  -2  -5  -2   24.64    4.89
  -2   5  -2   36.45   11.13
   2   2  -9   18.78    4.48
   2   2  -9   20.81    4.28
   2  -2  -9   20.02    4.54
   2   2  -9   21.99    4.59
   2  -2  -9   21.48    4.44
   2  -2  -9   21.39    4.54
   2   2  -9   20.29    4.48
   2  -2  -9   20.48    5.27
   3   4   2   33.97    4.61
   3  -4   2   21.43    5.20
  -3   4  -2   28.49    7.72
  -3   4  -2   24.43    6.52
  -3  -4  -2   22.08    5.78
  -3  -4  -2   34.79    5.51
  -3   4  -2   25.15    5.66
  -3  -4  -2   26.04    5.44
  -4  -2   4  182.98   17.17
   4  -2  -4  207.52   16.79
   4   2  -4  172.06   12.75
  -4   2   4  186.34   14.84
  -4   2   4  173.97   13.45
  -4  -2   4  190.98   14.13
   4  -2  -4  151.80   14.92
   4  -2  -4  154.54   14.50
  -4  -2   4  191.32   14.54
   4   2  -4  203.58   14.22
   4   2  -4  208.60   14.69
   4  -2  -4  149.58   15.75
  -4   1  -3  395.51   26.27
  -4  -1  -3  346.52   23.55
  -4  -1  -3  348.91   24.01
  -4   1  -3  344.84   27.70
  -4   1  -3  368.50   23.93
  -4  -1  -3  360.98   23.18
   4  -1   3  332.23   21.71
  -2  -3  -7  114.34   12.53
  -2   3  -7  116.61   12.81
  -2   3  -7   97.84   11.19
   2   3   7  116.79   11.64
   2  -3   7  101.19   10.60
  -2   3  -7  110.66   14.13
  -2  -3  -7  110.12   12.72
  -2  -3  -7  108.80   10.77
   3  -4  -4  107.07   12.76
   3  -4  -4   99.81   12.92
   3   4  -4  128.19   11.50
   3  -4  -4   98.13   14.48
  -3  -4   4   85.24   15.04
   3  -4  -4   97.80   11.56
   3   4  -4  128.88   13.39
  -3  -4   4  115.77   11.29
   2  -2   8  225.38   18.22
  -2   2  -8  221.30   19.76
   2   2   8  209.55   16.75
  -2  -2  -8  243.88   20.85
  -2  -2  -8  238.05   18.30
  -2   2  -8  250.98   20.39
  -2   2  -8  235.10   17.69
  -1  -4  -7  180.97   17.92
   1  -4   7  188.36   18.14
  -1  -4  -7  186.96   17.07
  -1   4  -7  175.33   16.50
  -1   4  -7  172.23   15.30
  -1   4  -7  147.75   15.14
  -1  -4  -7  175.96   15.93
   1   4   7  191.39   17.17
  -3  -2  -6  564.23   36.68
  -3   2  -6  576.04   37.96
  -3   2  -6  595.73   42.60
  -3   2  -6  665.75   40.41
   3  -2   6  531.99   34.39
   3   2   6  585.45   36.98
  -3  -2  -6  552.08   33.87
  -3  -2  -6  491.56   31.29
  -4  -2  -2  260.73   17.96
  -4   2  -2  201.38   17.10
  -4   2  -2  179.50   20.90
  -4  -2  -2  250.55   18.00
   4   2   2  257.43   17.27
   4  -2   2  269.55   20.07
   4   2   2  266.32   21.93
  -4  -2  -2  253.69   19.87
   0   3  -9   35.45    6.18
   0  -3  -9   40.43    6.38
   0   3  -9   38.78    6.08
   0  -3  -9   39.53    6.53
   0   3   9   42.80    7.80
   0  -3   9   42.70    8.06
   0   3  -9   33.97    5.89
   0  -3  -9   37.46    6.68
   1  -3  -9   42.52    6.10
   1  -3  -9   40.14    6.54
   1   3  -9   34.88    5.86
   1   3  -9   30.38    6.08
   1   3  -9   40.20    6.08
   1   3  -9   36.58    6.03
  -1   3   9   36.12    6.94
   4   0  -6 1158.88   45.61
   4   0  -6  991.52   57.39
   4   0  -6  970.75   54.59
   4   0  -6 1086.82   46.25
   2   5  -4   45.49    7.31
   2   5  -4   47.82    7.91
   2  -5  -4   47.96    8.63
   2  -5  -4   39.14    8.34
   2  -5  -4   47.95    7.94
   2  -5  -4   51.40    9.73
   2  -5  -4   46.12    9.82
   1  -5   5    0.35    1.42
  -1   5  -5    0.18    1.81
  -1   5  -5    0.29    1.96
  -1   5  -5    0.20    2.08
  -1  -5  -5    0.03    2.15
  -1  -5  -5    0.33    2.04
  -1   5  -5    0.50    2.03
   1   5   5    0.02    2.02
  -1  -5  -5    0.37    1.93
   0  -6   0  269.41   21.37
   0  -6   0  255.96   19.87
   0   6   0  199.47   23.96
   0   6   0  200.85   28.08
   0  -6   0  237.01   19.58
   2   0 -10  250.29   20.74
   2   0 -10  280.98   21.53
  -3  -3  -5   48.27    8.56
   3  -3   5   45.96    7.67
   3  -3   5   41.01    7.62
  -3   3  -5   45.14    7.95
  -3  -3  -5   42.72    5.75
  -3   3  -5   38.22    6.73
   3   3   5   45.43    6.47
  -3   3  -5   48.19    7.79
   3   3   5   39.59    7.68
  -3   3  -5   55.07    8.84
  -3   0  -7   52.16    8.41
   3   0   7   47.92    7.00
  -3   0  -7   46.31    7.62
  -3   0  -7   43.88    6.41
  -2  -5  -3   33.88    6.52
  -2   5  -3   48.93   13.13
  -2  -5  -3   37.74    6.17
  -2   5  -3   47.05    9.74
  -2  -5  -3   57.75    7.98
   2   5   3   52.88    7.47
   0   6   1    7.74    5.89
   0   6  -1    8.33    4.03
   0   6  -1    7.60    3.82
   0  -6  -1   11.26    3.64
   0  -6   1    8.85    3.15
   0  -6   1    8.55    3.20
   0   6   1    7.57    4.87
   0  -6  -1   11.00    3.11
   0  -6  -1   11.29    3.83
   3   2  -8  205.43   14.74
   3   2  -8  205.69   13.88
   3  -2  -8  193.18   17.20
   3  -2  -8  182.78   16.71
  -3  -2   8  172.19   15.01
   3   2  -8  195.26   16.93
   3  -2  -8  197.20   18.37
   3  -2  -8  194.02   15.07
   3   2  -8  163.32   15.00
  -1   0 -10    8.01    2.90
  -1   0 -10    7.40    2.51
  -1   0 -10    5.48    3.04
   1   0  10    6.45    2.87
  -2  -4   7   68.75    9.25
   2  -4  -7   66.81    8.03
   2  -4  -7   79.89    9.82
   2   4  -7   85.20   10.09
   2  -4  -7   72.34    8.32
   2   4  -7   55.83    8.29
   2   4  -7   84.69    9.75
   2  -4  -7   69.15    8.31
   2   4  -7   63.18    7.53
  -2  -4   7   57.97   10.46
  -1   2  10  119.29   12.66
   1  -2 -10  120.60   11.99
   1   2 -10  128.71   12.12
   1   2 -10  111.28   10.64
   1  -2 -10  146.59   11.98
   1   2 -10  138.64   11.50
   1  -2 -10  112.17   10.47
   1   2 -10  128.46   11.53
  -3   4  -3   99.86   15.56
   3  -4   3   91.14   10.48
  -3  -4  -3  109.10   11.25
  -3   4  -3  104.59   13.91
   3  -4   3  111.35   12.52
  -3   4  -3   96.21   11.78
  -3  -4  -3  110.67   12.37
   3   4   3  140.62   11.09
  -3  -4  -3  142.98   11.36
   4  -1  -6   96.58   12.04
   4   1  -6   78.52    8.56
   4  -1  -6   85.38   11.94
   4   1  -6   95.88    8.88
   4   1  -6   89.37   10.26
   4  -1  -6   84.39    8.41
   4  -1  -6   92.31   10.70
   4   1  -6   76.97    8.31
   0   2 -10  129.03   11.24
   0   2 -10  140.34   12.90
   0   2  10  120.81   11.15
   0   2 -10  134.29   11.57
   0  -2 -10  133.65   11.29
   0  -2  10  135.66   13.52
   0  -5  -6   41.98    6.62
   0  -5   6   30.65    9.62
   0   5  -6   40.17    7.84
   0  -5  -6   47.04    8.42
   0   5  -6   44.41    7.19
   0  -5   6   35.81    5.37
   0  -5   6   34.01    9.18
   0   5   6   44.38    7.25
   0  -5  -6   39.82    5.70
   0   5  -6   43.71    6.65
   0   5  -6   43.59    6.99
   0  -5  -6   42.71    7.36
  -4   0  -4   50.33    7.52
  -4   0  -4   52.63    6.58
   4   0   4   54.09    5.89
  -4   0  -4   62.80    7.38
   4   2  -5   24.41    3.79
   4   2  -5   28.64    4.62
   4  -2  -5   29.03    5.58
   4   2  -5   22.63    4.75
   4   2  -5   23.02    4.51
  -4  -2   5   26.57    4.16
   4  -2  -5   20.55    6.35
   4  -2  -5   21.02    4.82
   4  -2  -5   26.16    5.28
  -4  -2   5   22.34    4.60
   0   4  -8   47.10    6.71
   0   4  -8   63.66    8.58
   0  -4  -8   57.04    7.27
   0  -4  -8   54.81    6.76
   0  -4  -8   57.33    8.67
   0   4  -8   53.00    8.64
   0   4   8   55.64    7.43
   0   4  -8   65.33    8.63
   2  -1 -10   85.12   10.41
   2   1 -10   87.01   10.59
   2   1 -10   91.60   10.02
   2  -1 -10   88.67    9.92
   2  -1 -10   84.93    8.87
   2   1 -10   70.52    7.23
   2  -1 -10   81.55    8.74
   2   1 -10   72.55    7.39
  -3  -3   7   -0.05    1.94
   3  -3  -7    0.70    2.60
  -3  -3   7    0.21    1.53
   3   3  -7    0.21    2.15
   3  -3  -7    0.16    1.99
   3  -3  -7    0.12    1.97
   3   3  -7   -0.19    2.43
   3  -3  -7    0.05    1.78
   3   3  -7   -0.04    1.93
   3   3  -7   -0.26    1.77
   3  -3  -7    0.42    3.17
  -4  -3   1  128.26   10.36
   4  -3  -1   96.65   10.62
   4   3  -1  140.65    9.29
  -4  -3   1  119.93    9.12
  -4  -3   1  133.88    9.87
  -4   3   1   99.34   10.68
  -4  -3   1  112.04   11.23
  -4   3   1  115.42   17.05
  -4  -3   1  120.03    9.86
  -4   3   1   99.18   13.72
  -2   0  -9   38.47    6.22
   3   1   7   59.75    8.11
  -3   1  -7   52.65    7.20
  -3  -1  -7   56.14    7.19
  -3  -1  -7   51.52    7.33
   3  -1   7   58.23    7.00
  -3   1  -7   51.68    6.92
  -3  -1  -7   55.67    8.96
   1  -4  -8  159.69   12.23
   1   4  -8  157.21   13.01
   1  -4  -8  169.81   14.89
   1  -4  -8  121.97   10.42
  -1  -4   8  124.75   13.69
   1   4  -8  170.18   14.12
   1   4  -8  150.56   11.74
   1  -4  -8  160.28   16.29
   1   4  -8  134.64   12.54
  -1  -4   8  117.11   15.73
  -1   4   8  143.72   13.08
  -2  -4  -6   93.24    9.54
   2   4   6   83.49   11.01
  -2   4  -6  114.76   14.25
   2  -4   6   87.76   10.02
   2   4   6   94.67    9.86
   2   4   6   89.83   10.12
  -2   4  -6   88.32    9.32
  -2  -4  -6  107.72   10.93
   2  -4   6   83.33   10.57
  -2  -4  -6   95.23    9.23
  -2   4  -6  101.61   11.04
  -4  -3   2    7.33    2.82
  -4  -3   2    6.80    2.68
  -4   3   2    7.34    3.86
  -4   3   2    5.01    4.65
  -4   3   2    9.76    4.67
   4  -3  -2    6.19    2.82
  -4  -3   2    6.25    2.22
  -4  -3   2    5.74    2.39
   4   3  -2    7.72    2.73
  -4  -3   2    7.72    2.97
   0  -6  -2   14.09    3.68
   0  -6  -2   13.56    5.30
   0  -6  -2   13.60    3.79
   0   6  -2   12.92    4.19
   0  -6  -2   16.23    4.20
   0  -6   2   14.57    3.46
   0  -6   2   12.06    3.85
   0   6  -2   12.17    6.10
   3   4  -5   89.60    8.66
  -3  -4   5   56.59   10.79
   3  -4  -5   63.13    8.02
   3  -4  -5   62.04    8.60
   3  -4  -5   59.80    7.63
   3   4  -5   92.72    8.44
   3   0  -9    8.63    3.24
   3   0  -9    8.51    3.08
   3   0  -9    9.73    3.03
   3   0  -9    8.28    2.93
   1   5  -6  229.06   17.12
   1  -5  -6  229.84   20.97
   1  -5  -6  178.72   13.23
   1   5  -6  190.90   16.49
   1  -5  -6  204.30   16.47
  -1  -5   6  141.38   17.40
   1   5  -6  188.40   14.34
  -1  -5   6  163.55   22.29
   1  -5  -6  196.33   14.58
  -1   5   6  174.27   16.21
   1   5  -6  225.67   16.53
   1   1  10   39.96    5.72
  -1   1 -10   36.21    5.32
  -1   1 -10   35.56    6.43
  -1  -1 -10   36.96    5.60
  -1   1 -10   43.99    6.07
  -4  -3   0   55.54    6.05
  -4   3   0   39.98    8.54
   4  -3   0   44.64    7.30
   4   3   0   57.73    5.67
  -4   3   0   52.90    8.01
  -4  -3   0   54.14    6.71
  -4  -3   0   42.17    6.75
  -4  -3   0   45.56    6.36
  -4   3   0   40.17    7.58
   4  -2   3  364.93   22.21
  -4   2  -3  343.41   22.48
  -4  -2  -3  377.99   22.14
  -4   2  -3  445.07   21.65
  -4  -2  -3  349.93   17.26
   4   2   3  398.96   18.83
  -4  -2  -3  401.51   20.07
  -1  -6   0  134.64   14.57
  -1  -6   0  140.86   12.77
  -1  -6   0  141.77   12.81
  -1   6   0  132.03   21.08
  -1   6   0  140.14   19.06
   1   6   0  151.95   13.46
  -4   1  -4   22.31    4.16
  -4  -1  -4   24.66    4.41
  -4   1  -4   25.21    5.77
  -4   1  -4   25.38    4.57
   4  -1   4   21.46    4.11
  -4  -1  -4   24.70    4.58
  -4  -1  -4   23.43    4.97
  -1  -6   1  243.12   19.91
  -1  -6   1  276.21   18.33
   1   6  -1  286.53   20.53
  -1  -6   1  269.78   17.98
  -1   6   1  258.50   28.53
  -1   6   1  256.35   29.44
   2   1   9   53.28    7.13
  -2   1  -9   47.60    6.47
  -2  -1  -9   54.16    7.20
   2  -1   9   50.52    6.53
  -2   1  -9   45.71    7.48
  -2  -1  -9   49.86    7.58
  -2  -1  -9   54.99    8.00
  -2   1  -9   48.02    6.82
   4   3  -3  209.08   11.79
   4  -3  -3  151.63   14.29
   4  -3  -3  126.44   18.85
  -4  -3   3  176.44   11.26
  -4  -3   3  164.38   17.93
   4  -3  -3  167.53   17.76
  -4   3   3  144.02   16.94
  -4  -3   3  170.08   14.14
  -4  -3   3  175.18   10.60
  -4  -3   3  205.58   12.34
  -1  -6  -1  102.87   10.77
  -1  -6  -1  101.54   10.02
  -1  -6  -1   92.57   10.84
  -1   6  -1   89.53   16.52
  -1   6  -1   93.37   13.13
   1   6   1  105.87   11.34
  -2  -5   5  169.80   18.61
   2   5  -5  154.32   12.30
   2  -5  -5  106.08   10.89
   2  -5  -5  145.60   18.53
   2  -5  -5   94.13   10.37
   2  -5  -5  144.32   15.33
   2   5  -5  159.86   12.84
   3  -1  -9  155.45   12.44
   3   1  -9  129.99   12.84
   3   1  -9  143.78   12.43
   3  -1  -9  148.83   13.61
   3  -1  -9  151.01   13.19
   3  -1  -9  154.01   13.01
  -4  -3  -1  339.03   18.35
  -4  -3  -1  264.17   21.13
  -4   3  -1  294.78   23.18
  -4  -3  -1  284.81   18.25
   4   3   1  345.50   16.47
   4  -3   1  275.02   16.73
  -4   3  -1  306.89   20.93
  -4  -3  -1  284.24   17.97
  -4  -3  -1  306.22   17.82
  -4   3  -1  255.72   26.44
  -1  -6   2   46.34    7.99
   1  -6  -2   40.73    6.84
  -1  -6   2   50.37    6.62
   1   6  -2   54.25    7.95
   1  -6  -2   40.51    8.73
  -1  -6   2   54.35    7.33
  -2   5  -4   17.47    6.02
  -2   5  -4   19.69    5.20
  -2  -5  -4   17.32    4.38
  -2  -5  -4   19.41    3.93
   2  -5   4   16.44    4.49
   2   5   4   21.00    4.26
   2  -5   4   15.27    4.98
  -2  -5  -4   21.47    4.47
   0  -6  -3   37.28    7.45
   0  -6  -3   33.68    6.92
   0   6  -3   30.18    7.47
   0  -6   3   33.45    5.42
   0  -6  -3   36.17    6.50
   0  -6  -3   35.96    7.58
   0  -6  -3   34.90    5.70
   1   3   9  345.56   21.60
  -1  -3  -9  338.93   19.40
  -1  -3  -9  300.39   19.41
  -1   3  -9  271.04   17.54
  -1   3  -9  372.25   22.28
  -1   3  -9  288.30   16.63
   1  -3   9  324.89   18.91
  -1  -3  -9  360.09   20.94
   4   0  -7  196.59   17.15
   4   0  -7  234.67   16.59
   4   0  -7  206.22   14.51
   4   0  -7  213.57   15.50
   2   3  -9  109.82   10.14
   2  -3  -9   81.14   10.60
   2  -3  -9   98.58    9.29
   2   3  -9  108.19    9.87
   2   3  -9   90.85    9.86
   2   3  -9   91.80   10.60
   2  -3  -9   88.22    9.30
   1   0 -11  180.68   13.56
   1   0 -11  167.24   14.19
  -1   0  11  198.81   14.88
  -1   6  -2   96.37   13.62
  -1  -6  -2  117.19   11.53
  -1   6  -2  102.62   17.21
   1  -6   2  119.00   18.34
   1  -6   2  115.56   17.06
  -1  -6  -2  119.49   11.57
  -1  -6  -2   80.58   11.36
   1   6   2  127.12   11.39
  -1  -6  -2  115.92   11.00
  -1  -6  -2   86.13   10.78
  -3  -4  -4    0.88    2.31
  -3  -4  -4    2.33    2.32
   3  -4   4    1.00    2.05
   3  -4   4    1.57    1.95
  -3  -4  -4    1.86    1.86
  -3   4  -4    2.49    3.05
   3   4   4    2.39    2.22
  -3   4  -4    2.30    3.41
  -3   4  -4    1.76    1.93
   0   0 -11   66.27    7.38
   0   0 -11   77.59    9.01
   0   0  11   68.88    7.34
   0   0 -11   62.64    7.76
   4   3  -4   34.60    4.44
   4  -3  -4   30.90    7.79
   4  -3  -4   28.27    7.69
  -4  -3   4   30.22    6.53
  -4  -3   4   28.90    4.73
  -4  -3   4   24.20    7.06
  -4  -3   4   30.06    4.22
   4  -3  -4   27.69    5.50
   4   3  -4   35.24    4.72
   4  -2  -6  132.67   11.33
   4   2  -6  125.44   13.64
   4   2  -6  105.67   10.81
   4  -2  -6  100.39   10.03
   4  -2  -6  105.18   13.66
  -4  -2   6   96.94   10.56
   4   2  -6  133.85   11.07
   4  -2  -6  115.64   11.25
   4   2  -6  127.23    9.44
  -1  -5  -6  143.20   13.77
  -1   5  -6  106.82   13.10
   1   5   6  154.41   13.60
  -1   5  -6  138.56   12.66
  -1  -5  -6  147.89   12.65
  -1   5  -6  120.27   11.68
  -1  -5  -6  132.66   12.44
  -1   5  -6  130.03   12.54
   1  -5   6  110.52   10.52
   2  -2 -10    8.84    3.55
   2   2 -10    5.55    2.62
   2  -2 -10    8.03    2.65
   2  -2 -10    8.42    3.14
   2   2 -10    7.67    2.86
   2   2 -10    8.46    2.87
   2  -2 -10    8.04    2.92
   2   2 -10    8.05    2.61
  -3   2  -7   68.54    7.84
  -3   2  -7   85.27    8.87
  -3  -2  -7   78.16    9.39
   3  -2   7   75.40    8.44
  -3  -2  -7   73.49    7.94
  -3   2  -7   88.38    9.63
  -3  -2  -7   74.49    9.20
   3   2   7   68.60    7.69
   1  -6  -3   79.88   14.14
   1   6  -3   84.31    9.36
   1  -6  -3   85.30   10.68
   1   6  -3   92.75   10.45
  -1  -6   3   78.39    8.23
   2  -3   8  428.83   28.23
  -2   3  -8  493.47   23.38
   2   3   8  432.82   22.99
  -2  -3  -8  423.94   26.40
  -2  -3  -8  442.66   23.61
  -2  -3  -8  438.28   25.71
  -2   3  -8  439.92   24.64
  -2   3  -8  477.10   27.03
   4  -1  -7  139.68   12.66
   4   1  -7  128.46   10.90
   4   1  -7  127.47   12.33
   4  -1  -7  122.57   12.60
   4   1  -7  147.64   12.69
   4  -1  -7  132.87   10.17
   4  -1  -7  138.32   13.37
   4   1  -7  130.05   10.80
   3  -3   6   37.18    6.43
  -3   3  -6   31.43    6.58
   3   3   6   38.74    5.97
  -3   3  -6   35.73    4.94
  -3   3  -6   38.30    6.96
  -3  -3  -6   41.70    6.08
  -3  -3  -6   38.14    6.75
   1  -4   8   81.00    9.39
  -1   4  -8   68.92    7.11
  -1  -4  -8   85.18   10.43
  -1   4  -8   72.22    9.44
   1   4   8   76.83    8.86
  -1  -4  -8   84.06    8.97
  -1   4  -8   81.50    8.67
  -1  -4  -8   84.43    8.97
  -1  -1  11   67.27    7.55
   1   1 -11   64.91    7.87
   1   1 -11   70.11    7.95
   1  -1 -11   61.21    8.19
   1   1 -11   61.56    7.37
   1  -1 -11   63.78    7.34
  -1   1  11   68.97    8.49
   1  -1 -11   62.50    6.89
  -4  -3  -2   83.98    7.97
  -4   3  -2   68.50    7.77
   4  -3   2   84.90    8.26
  -4  -3  -2   95.52    7.63
  -4  -3  -2   80.70    9.02
  -4   3  -2   76.83   10.37
  -4   3  -2   78.47   11.51
  -4  -3  -2   78.83   10.90
   4   3   2   96.49    6.96
   3   4  -6   92.67    8.24
   3  -4  -6   53.04    8.49
   3   4  -6   86.26    8.12
   3  -4  -6   72.38    8.21
   3  -4  -6   69.85    7.93
  -3  -4   6   73.05    8.53
   3  -4  -6   65.67    8.48
  -1   2 -10  194.37   13.63
  -1  -2 -10  194.25   15.36
   1  -2  10  189.25   12.45
  -1   2 -10  189.25   14.53
   1   2  10  190.22   12.67
  -1  -2 -10  205.29   12.79
  -1  -2 -10  199.91   13.61
  -1   2 -10  193.35   12.92
  -4   0  -5    9.36    3.29
  -4   0  -5    9.33    2.85
   4   0   5    9.06    2.75
  -4   0  -5    8.40    3.08
   0   1 -11   51.14    6.37
   0   1 -11   50.13    6.13
   0  -1 -11   58.63    8.15
   0  -1 -11   56.13    6.62
   0   1  11   53.59    6.91
   0   1 -11   58.16    7.75
   3   5  -1   59.87    8.18
  -3   5   1   69.23   14.61
  -3   5   1   62.45   13.94
  -3  -5   1   52.52    9.25
  -4  -2  -4   45.88    6.31
   4   2   4   45.37    6.42
  -4   2  -4   33.55    6.95
  -4  -2  -4   39.31    5.76
   4  -2   4   39.33    6.19
  -4  -2  -4   46.79    7.82
  -4   2  -4   35.91    6.76
   2  -4  -8   44.66    6.21
   2   4  -8   45.13    6.49
   2  -4  -8   38.75    6.11
  -2  -4   8   31.71    7.44
   2   4  -8   35.35    6.41
   2  -4  -8   47.80    8.03
   2  -4  -8   43.13    6.26
   2   4  -8   39.52    5.96
  -2  -4   8   36.45    6.53
   2   4  -8   47.65    6.30
  -3  -5   0  232.24   14.64
  -3   5   0  146.80   19.37
  -3   5   0  150.17   20.42
   3   5   0  242.50   13.95
   0   5  -7  102.12   11.02
   0  -5  -7  105.99   10.99
   0  -5  -7  109.76    9.49
   0   5  -7   99.19    9.86
   0   5  -7   97.09    9.51
   0   5   7  107.75   10.38
   0  -5   7   91.83   13.98
   0   5  -7  111.25    9.40
   0  -5  -7  115.56   11.05
  -2   2  -9    2.58    2.44
  -2   2  -9    2.07    2.03
  -2  -2  -9    2.69    2.14
  -2   2  -9    1.04    2.78
  -2  -2  -9    2.63    2.79
   2   2   9    1.76    2.46
   2  -2   9    2.58    2.25
  -3   5   2  300.83   32.51
   3   5  -2  461.07   26.30
  -3   5   2  280.03   34.45
  -3  -5   2  438.67   27.95
   0   6  -4   40.50    7.96
   0  -6  -4   45.29    6.32
   0  -6  -4   46.06    8.43
   0  -6  -4   47.40    6.99
   0  -6   4   44.94    6.10
   0  -6  -4   46.49    6.95
   0  -6  -4   48.05    7.51
  -1  -6  -3   73.88    8.65
  -1  -6  -3   50.45    7.72
  -1  -6  -3   56.56    9.68
  -1   6  -3   67.75   10.83
  -1  -6  -3   67.48    7.96
   1   6   3   76.40    8.86
  -1  -6  -3   74.50    9.35
  -1   6  -3   66.92   11.24
   3  -2  -9    2.93    3.01
   3   2  -9    2.92    2.39
   3   2  -9    2.50    2.81
   3   2  -9    2.48    2.57
   3  -2  -9    2.62    2.10
   3  -2  -9    3.11    2.47
   3   2  -9    2.58    2.25
   3  -2  -9    2.72    2.37
   3  -3  -8   44.93    8.64
  -3  -3   8   39.54    7.48
   3  -3  -8   40.84    5.95
   3  -3  -8   48.76    8.02
   3   3  -8   53.97    6.75
  -3  -3   8   43.04    6.15
   3   3  -8   38.33    6.54
   3  -3  -8   44.36    6.50
   3   3  -8   51.82    7.51
   3   3  -8   39.55    7.04
   1   5  -7  131.03   11.33
   1  -5  -7   98.49    9.41
   1  -5  -7   98.06   10.80
  -1   5   7  102.11   11.12
   1  -5  -7  125.64   12.96
  -1  -5   7   67.75   12.85
   1   5  -7  125.16   11.18
  -1  -5   7   78.22   11.77
   1   5  -7  103.64   11.24
   1  -5  -7  122.65   14.28
  -4   1  -5   25.51    5.42
  -4  -1  -5   27.14    5.22
  -4  -1  -5   28.80    5.41
  -4   1  -5   23.23    5.48
  -4  -1  -5   29.10    5.21
   4  -1   5   26.57    5.28
  -3   0  -8  149.49   12.75
  -3   0  -8  143.29   13.16
  -3   0  -8  152.38   12.81
   3   0   8  142.94   11.80
   2  -5  -6   71.89    8.47
   2  -5  -6   94.28   14.61
   2   5  -6  101.99   10.29
   2  -5  -6   86.15   11.07
   2   5  -6   89.76    8.84
   2  -5  -6   68.70    9.29
   2  -5  -6   68.82    8.31
   1   3 -10    3.94    2.07
   1   3 -10    4.59    2.37
   1  -3 -10    4.56    2.64
   1  -3 -10    4.82    2.45
   1   3 -10    3.84    2.41
  -1   3  10    4.41    3.07
   1   3 -10    5.04    2.68
   0  -3  10  123.71   12.05
   0  -3 -10  129.22   10.74
   0   3 -10  113.91   10.63
   0   3 -10  129.21   10.74
   0  -3 -10  133.56   11.37
   0   3  10  126.20   12.40
   0  -3 -10  122.18   12.06
   0   3 -10  123.73   10.95
   2   4   7   72.10    8.64
   2  -4   7   67.56    8.81
  -2   4  -7   54.04    8.83
  -2  -4  -7   69.23    9.15
  -2   4  -7   65.48    8.16
  -2  -4  -7   70.48    9.52
  -2  -4  -7   69.63    8.12
  -2   4  -7   57.23    8.00
   4  -3  -5   30.09    5.79
  -4  -3   5   30.81    4.74
   4   3  -5   36.42    5.25
   4  -3  -5   28.95    6.08
   4  -3  -5   24.14    5.75
   4   3  -5   39.67    4.80
  -4  -3   5   23.44    6.28
  -4  -3   5   31.90    5.78
   4  -3  -5   23.29    5.42
   4  -3  -5   32.53    7.89
  -3  -5  -1  210.96   14.91
   3   5   1  213.06   13.58
  -3   5  -1  128.69   18.18
  -3   5  -1  190.79   22.70
  -2   5  -5  221.15   18.16
  -2  -5  -5  200.74   16.25
  -2   5  -5  217.64   21.41
  -2  -5  -5  192.87   13.61
  -2  -5  -5  235.08   16.40
   2   5   5  226.31   15.31
   2  -5   5  152.14   12.89
   1  -6  -4   28.82    6.45
   1   6  -4   38.62    6.54
  -1  -6   4   29.61    4.89
   1  -6  -4   26.94    4.91
   1  -6  -4   25.92    6.68
   1   6  -4   37.12    6.53
   1  -6  -4   29.59    6.30
   1  -6  -4   24.58    5.90
  -3  -5   3  120.72   11.15
   3  -5  -3  167.90   21.62
   3   5  -3  196.64   13.33
   3  -5  -3  146.57   17.42
   0   4  -9  313.26   16.26
   0   4   9  342.95   18.82
   0   4  -9  344.03   17.61
   0  -4  -9  356.30   20.18
   0   4  -9  329.59   19.61
   0  -4  -9  342.53   19.71
   0   4  -9  330.74   17.29
   0  -4  -9  382.27   21.21
   2   0 -11   22.77    4.61
   2   0 -11   27.34    5.67
   1  -4  -9   50.17    6.61
  -1   4   9   43.86    7.14
   1   4  -9   39.65    6.21
   1  -4  -9   53.23    8.61
   1   4  -9   49.43    6.89
   1  -4  -9   45.76    6.82
   1   4  -9   45.89    5.82
   1   4  -9   54.44    7.50
  -3  -1  -8  128.85    9.92
  -3  -1  -8  144.15   12.75
   3   1   8  127.15   10.05
  -3   1  -8  128.82   10.83
  -3   1  -8  111.39   10.72
   3  -1   8  140.23   11.67
  -3  -1  -8  128.42   12.34
  -4  -3  -3   17.25    3.98
  -4   3  -3   15.82    5.17
   4  -3   3   15.62    4.22
   4   3   3   18.46    3.67
  -4  -3  -3   19.00    4.08
  -4   3  -3   22.80    5.33
  -4   3  -3   18.00    4.66
  -4  -3  -3   22.77    3.99
   3   0 -10   15.42    5.31
   3   0 -10   14.83    3.44
   3   0 -10   13.35    3.48
   3   0 -10   14.72    3.73
   2   6  -1   80.62    9.76
  -2   6   1   84.66   17.39
  -2  -6   1   67.74    9.31
  -2   6   1   68.93   14.98
   3   4   5  157.61   11.71
  -3  -4  -5  128.03   13.16
  -3  -4  -5  154.59   12.31
   3  -4   5  100.07   10.64
  -3   4  -5  122.31   13.08
  -3   4  -5  158.32   14.93
  -3  -4  -5  119.93   10.67
  -3   4  -5  124.73   12.63
   3  -4   5  109.74   11.06
  -2  -6   0  164.21   14.49
  -2   6   0  121.36   18.80
   2   6   0  194.72   15.62
  -2   6   0  165.98   23.94
   4  -2  -7  161.13   15.61
   4   2  -7  171.84   15.43
   4   2  -7  194.22   12.62
  -4  -2   7  139.31   12.52
   4   2  -7  158.37   12.94
   4  -2  -7  172.62   12.96
   4  -2  -7  147.29   17.37
   4  -2  -7  170.96   14.49
   4   2  -7  140.95   14.62
   1   2 -11   20.53    3.72
   1   2 -11   19.76    3.90
   1   2 -11   17.83    4.20
   1  -2 -11   18.62    4.28
   1  -2 -11   24.12    5.02
   1   2 -11   21.01    4.15
  -1   2  11   20.25    4.79
   1  -2 -11   21.69    3.70
   4   0  -8   59.04    7.13
   4   0  -8   53.79    7.28
   4   0  -8   57.41    7.48
   4   0  -8   49.56    7.76
   3  -5   2  113.80   14.79
  -3  -5  -2  128.41   12.51
  -3  -5  -2  171.95   14.30
  -3   5  -2  147.39   16.70
  -3  -5  -2  114.56   11.51
   3   5   2  194.50   12.33
  -3   5  -2  140.69   15.28
  -1   0 -11  111.92    9.71
  -1   0 -11  104.68    9.72
  -1   0 -11   99.51    9.81
   1   0  11  103.00    9.84
   2  -1 -11   30.68    5.22
   2   1 -11   27.58    4.54
   2  -1 -11   27.10    4.64
   2  -1 -11   27.44    4.87
   2   1 -11   32.10    5.48
   2  -1 -11   25.99    5.24
   2   1 -11   27.42    4.78
   2   1 -11   30.65    5.25
   0   2 -11  126.02   10.92
   0  -2  11  126.60   10.08
   0   2 -11  117.00    9.60
   0   2  11  124.90   11.44
   0   2 -11  125.09   11.64
   0  -2 -11  106.86    9.18
  -2   6   2  213.58   26.89
   2   6  -2  319.10   19.05
  -2  -6   2  209.72   17.75
  -2   0 -10  216.83   13.43
  -2   0 -10  217.95   14.54
   1  -6   4    6.78    2.79
  -1  -6  -4    6.64    3.39
  -1   6  -4    7.19    3.79
  -1  -6  -4    9.07    2.96
   1   6   4    8.91    3.09
  -1  -6  -4    6.87    2.90
  -1   6  -4    6.43    3.32
   2   6   1  362.06   19.34
  -2   6  -1  394.47   37.31
  -2  -6  -1  319.93   18.79
  -2   6  -1  288.53   28.36
  -5   0   1   88.17    7.77
   5   0  -1   99.93    8.12
  -5   0   1   93.11    8.41
  -5   0   1   98.38    8.76
  -5   0   2    1.00    2.89
  -5   0   2    0.85    3.01
  -5   0   2    0.84    2.78
   5   0  -2    1.18    2.91
   3  -5  -4  418.76   29.75
   3  -5  -4  406.78   30.91
   3  -5  -4  354.67   18.42
   3  -5  -4  330.57   21.47
   3  -1 -10   22.74    4.44
   3  -1 -10   23.46    4.98
   3   1 -10   24.83    5.29
   3   1 -10   20.67    4.91
   3  -1 -10   24.17    4.55
   3  -1 -10   22.95    6.05
   3  -4  -7  216.72   22.80
  -3  -4   7  208.71   16.32
   3   4  -7  299.91   21.13
   3  -4  -7  214.48   16.27
   3   4  -7  289.72   19.94
   3  -4  -7  219.62   16.71
   3  -4  -7  214.19   15.29
  -3  -4   7  180.94   18.78
  -4  -4   1    6.53    2.29
  -4  -4   1    6.25    5.30
   4  -4  -1    5.35    2.37
  -4  -4   1    4.58    2.28
  -4   4   1    5.89    3.75
  -4  -4   1    7.04    3.13
  -4   4   1    3.92    3.96
   4   4  -1    5.44    2.62
   1   5   7   84.61    8.78
  -1   5  -7   83.51    9.81
  -1   5  -7   75.10    8.35
  -1   5  -7   90.97   10.41
  -1   5  -7   69.59    9.77
  -1  -5  -7   77.37    9.42
  -1  -5  -7   90.90    9.53
  -1  -5  -7   89.51    8.71
   0  -6  -5  139.18   11.90
   0   6  -5  133.07   14.82
   0  -6  -5  144.87   13.15
   0  -6  -5  127.49   13.58
   0  -6  -5  162.36   15.65
   0  -6   5  142.21   11.87
  -4   4   2   57.01   13.60
   4   4  -2   78.68    8.38
  -4  -4   2   75.30    7.72
  -4  -4   2   74.85    9.19
  -4   4   2   63.04   12.53
   4  -4  -2   55.22    8.81
   4   1  -8  107.76    9.59
   4   1  -8   99.34   10.59
   4  -1  -8  100.48    9.76
   4   1  -8   90.73   11.35
   4  -1  -8  100.58   11.82
   4  -1  -8  105.74   11.57
   4  -1  -8   93.84   11.72
   4   1  -8   91.41    9.86
  -4  -4   0  338.95   20.72
  -4  -4   0  328.75   19.66
  -4  -4   0  293.46   23.40
  -4   4   0  247.26   30.19
   4   4   0  329.97   18.54
   4  -4   0  272.02   18.68
  -4   4   0  265.08   29.15
  -4  -4   0  261.33   17.98
  -1   1 -11   45.24    7.13
  -1   1 -11   48.61    6.79
  -1  -1 -11   46.36    6.52
   1   1  11   46.64    5.65
  -1   1 -11   49.38    7.40
  -4  -2  -5   43.16    6.61
   4   2   5   41.97    5.62
  -4  -2  -5   36.39    6.65
   4  -2   5   37.28    6.12
  -4   2  -5   35.50    5.89
  -4   2  -5   38.51    6.85
  -4  -2  -5   41.64    5.61
  -5   0   0    0.37    2.69
  -5   0   0    1.42    2.65
   5   0   0    1.11    2.85
  -5   0   0    1.49    2.69
   5   0  -3    5.98    2.73
  -5   0   3    7.05    3.44
  -5   0   3    5.18    3.90
  -5   0   3    4.49    2.85
  -2   1 -10  187.61   15.04
   2  -1  10  211.31   16.55
  -2  -1 -10  216.81   16.51
  -2  -1 -10  190.80   14.88
  -2  -1 -10  200.56   14.84
   2   1  10  168.91   12.23
  -2   1 -10  216.61   16.24
  -2   1 -10  184.26   15.39
   4  -3  -6   47.91    8.12
   4   3  -6   47.78    6.01
  -4  -3   6   40.64    6.04
   4  -3  -6   43.62    6.89
   4  -3  -6   43.84    8.90
  -4  -3   6   37.64    7.41
   4  -3  -6   42.18    6.73
   4   3  -6   50.11    5.96
  -4   0  -6  383.78   26.41
   4   0   6  418.34   23.65
  -4   0  -6  450.80   28.09
  -4   0  -6  469.19   27.95
   2   6  -3   54.50    7.99
   2  -6  -3   66.57   11.86
   2  -6  -3   62.83   11.89
  -2  -6   3   49.61    8.78
  -5   1   1  216.41   18.16
  -5  -1   1  256.54   16.27
  -5   1   1  265.70   17.80
  -5   1   1  231.47   17.47
  -5  -1   1  228.39   14.78
   5   1  -1  259.41   15.32
   5  -1  -1  263.80   16.60
  -5  -1   1  251.16   16.03
   5   1  -2  767.75   23.15
  -5   1   2  713.96   36.71
   5  -1  -2  634.66   35.70
  -5   1   2  619.82   35.76
  -5  -1   2  743.11   24.84
  -5  -1   2  771.26   25.67
  -5   1   2  771.75   27.97
  -5  -1   2  756.08   26.27
   1  -6  -5   47.07    8.37
   1   6  -5   38.86    6.34
   1  -6  -5   37.65    7.25
   1   6  -5   42.44    7.49
   1  -6  -5   33.91    6.00
   2  -3 -10  254.56   18.15
   2  -3 -10  217.22   18.73
   2   3 -10  252.84   17.77
   2   3 -10  230.87   16.54
   2   3 -10  194.79   16.56
   2   3 -10  233.67   17.70
  -3  -3  -7   82.86   10.05
   3   3   7   84.20    9.78
  -3   3  -7   77.90   10.80
   3  -3   7   80.61    9.04
  -3  -3  -7   81.29    8.24
  -3   3  -7   84.75    9.81
  -3   3  -7   82.55   10.09
   4   4  -3   32.04    4.52
  -4   4   3   22.73    8.43
   4  -4  -3   21.76    5.19
  -4  -4   3   23.05    4.27
  -4   4   3   23.79    8.60
   4  -4  -3   17.15    4.43
  -4  -4   3   23.73    5.73
   2   6   2  340.39   22.70
  -2   6  -2  271.26   25.87
  -2  -6  -2  256.95   22.29
  -2   6  -2  345.04   33.24
  -2  -6  -2  370.16   33.37
  -2  -6  -2  357.98   25.07
  -1  -3 -10   52.54    7.23
  -1   3 -10   58.41    7.59
  -1  -3 -10   52.49    6.81
  -1   3 -10   42.90    5.87
  -1   3 -10   40.66    6.43
  -1  -3 -10   52.64    7.54
   1   3  10   53.16    7.28
   1  -3  10   52.04    7.78
   2  -5  -7  112.10   15.19
   2  -5  -7  111.04   12.23
   2  -5  -7   87.83   10.03
   2   5  -7  119.32   11.86
   2  -5  -7   90.26    9.18
   2  -5  -7   98.13   10.40
   2   5  -7  125.14   11.82
  -5  -1   0  408.73   22.25
  -5   1   0  309.62   18.88
   5   1   0  397.78   20.99
  -5  -1   0  389.50   20.90
  -5   1   0  409.44   23.43
   5  -1   0  362.13   20.57
  -5   1   0  359.05   23.78
  -5  -1   0  402.15   24.35
  -3  -2  -8  238.76   18.08
   3   2   8  257.54   17.27
  -3   2  -8  258.80   20.30
  -3   2  -8  232.60   19.20
  -3   2  -8  248.27   17.64
  -3  -2  -8  249.40   18.03
  -3  -2  -8  235.08   15.79
   3  -2   8  234.94   16.98
  -4   4  -1   60.33    9.33
  -4   4  -1   36.06   10.84
  -4  -4  -1   39.67    7.63
  -4  -4  -1   44.62    6.14
   4   4   1   60.03    5.98
  -4  -4  -1   63.00    6.22
   4  -4   1   36.47    6.46
  -4  -4  -1   36.83    7.26
  -5  -1   3  320.69   20.15
  -5   1   3  306.74   20.27
  -5  -1   3  295.76   19.31
  -5   1   3  242.04   17.99
   5  -1  -3  254.22   16.98
   5   1  -3  277.17   15.93
  -5  -1   3  310.85   18.70
  -5   1   3  307.76   19.99
   3  -5   3   67.03    8.89
  -3   5  -3   65.87   12.99
  -3  -5  -3   60.16    8.63
  -3  -5  -3   83.34    8.88
  -3   5  -3   69.12   10.59
  -3  -5  -3   68.39    9.39
   3   5   3   80.78    8.39
   4   3   4  153.31   12.27
  -4  -3  -4  145.24   10.82
  -4   3  -4  115.23   14.84
  -4   3  -4  126.00   14.24
  -4  -3  -4  119.97   13.29
  -4   3  -4  126.76   15.39
  -4  -3  -4  123.00   11.56
   4  -3   4  118.07   11.72
  -5   0  -1  268.96   16.14
  -5   0  -1  267.31   16.28
  -5   0  -1  224.54   18.49
   5   0   1  250.92   14.66
  -4   1  -6  107.47   11.96
  -4   1  -6  101.27   11.50
   4  -1   6  109.97   11.68
  -4  -1  -6  115.44   12.25
  -4  -1  -6  110.29    9.43
  -4  -1  -6  113.40   11.66
   0   5  -8  340.61   20.68
   0   5  -8  355.61   22.27
   0   5   8  341.96   24.61
   0  -5  -8  339.26   21.87
   0  -5  -8  357.65   24.28
   0  -5  -8  344.56   21.88
   0   5  -8  352.16   21.75
   0   5  -8  317.32   23.66
   5   0  -4   47.25    5.59
  -5   0   4   51.93    6.78
  -5   0   4   56.79    7.56
  -5   0   4   50.62    6.90
  -1  -4  -9   89.08   10.92
  -1  -4  -9   89.46    9.22
  -1   4  -9   92.94   10.11
  -1   4  -9   72.77    9.15
   1   4   9   86.34    9.20
  -1  -4  -9   84.15    8.36
   1  -4   9   73.08    9.03
  -1   4  -9   72.41    7.86
  -2  -3  -9   62.42    7.93
  -2   3  -9   60.88    8.19
  -2  -3  -9   56.07    8.06
  -2  -3  -9   68.64    7.88
   2   3   9   66.37    7.50
   2  -3   9   63.96    8.43
  -2   3  -9   56.84    8.29
  -2   3  -9   66.87    8.23
   1  -5  -8    4.43    2.37
   1  -5  -8    5.62    3.11
   1  -5  -8    4.80    2.12
   1  -5  -8    5.03    2.63
  -1   5   8    6.06    3.08
   1   5  -8    5.73    3.38
  -1  -5   8    3.47    3.31
   1   5  -8    5.29    2.55
  -1  -5   8    2.80    3.34
   2  -5   6   42.99    7.00
  -2  -5  -6   65.09    8.89
  -2  -5  -6   55.56    8.28
  -2  -5  -6   55.10    7.00
  -2   5  -6   60.95    9.10
  -2   5  -6   61.47   10.67
   2   5   6   60.77    7.81
   2  -5   6   47.92    7.84
  -2  -4   9   78.26   11.44
  -2  -4   9   86.19   10.84
   2  -4  -9   89.72    9.28
   2  -4  -9   89.49    9.76
   2  -4  -9  106.89   12.05
   2   4  -9  100.69    9.97
   2   4  -9  111.20   10.53
   2   4  -9   87.43    9.20
   3   5  -5    8.18    3.21
   3   5  -5   10.68    3.47
   3  -5  -5    7.74    4.69
   3  -5  -5    7.73    3.84
   3  -5  -5    6.38    3.39
   3  -5  -5    5.55    3.28
   3  -3  -9   37.09    6.31
   3   3  -9   28.15    6.03
  -3  -3   9   27.46    6.14
   3  -3  -9   33.69    5.80
   3   3  -9   39.21    6.40
   3  -3  -9   37.42    6.82
   3   3  -9   29.05    5.70
   3  -3  -9   32.10    7.15
   3   3  -9   40.59    5.92
   2   2 -11   68.86    7.65
   2   2 -11   83.05    8.82
   2  -2 -11   86.67    9.19
   2   2 -11   65.35    8.19
   2  -2 -11   79.84   10.12
   2   2 -11   79.94    9.19
   2  -2 -11   79.55    9.63
  -1   0  12   22.76    4.30
   1   0 -12   19.80    4.65
   1   0 -12   23.85    4.50
   4  -4  -4  448.52   33.83
   4   4  -4  583.33   29.98
  -4  -4   4  470.61   34.27
   4  -4  -4  393.46   24.78
   4   4  -4  543.74   27.33
   2  -6  -4  184.35   19.75
   2  -6  -4  190.72   17.13
   2   6  -4  253.05   19.62
   2   6  -4  240.68   19.20
  -5   1  -1   45.43    5.93
  -5  -1  -1   43.45    5.35
   5  -1   1   48.98    5.39
  -5   1  -1   51.01    7.89
  -5   1  -1   36.32    7.47
  -5  -1  -1   40.93    5.46
  -5  -1  -1   43.78    5.30
   5   1   1   40.90    4.82
  -1   6  -5   83.31   10.16
  -1  -6  -5  100.26   12.31
  -1  -6  -5  109.90   10.76
   1   6   5  115.03   11.40
  -1  -6  -5   99.54   10.79
  -1   6  -5   75.27   11.32
  -5  -1   4  542.55   28.95
  -5   1   4  555.17   31.22
   5  -1  -4  441.67   25.36
  -5  -1   4  587.00   31.37
  -5   1   4  430.43   29.03
   5   1  -4  521.40   26.40
  -5   1   4  603.29   33.81
  -5  -1   4  484.56   27.84
   3  -2 -10   92.63    9.35
   3  -2 -10  100.72   10.19
   3   2 -10   82.86    9.73
   3  -2 -10  103.44   13.84
   3   2 -10   94.34   10.78
   3   2 -10   97.32    9.27
   3   2 -10  109.14   10.26
   3  -2 -10  108.99   11.93
  -2   4  -8   59.97    7.78
   2  -4   8   59.31    8.54
  -2   4  -8   57.12    9.33
  -2   4  -8   68.48    8.06
  -2  -4  -8   62.26    8.77
  -2  -4  -8   61.52    8.15
   2   4   8   69.40    7.99
  -2  -4  -8   66.56    7.74
   0   0 -12   13.99    3.31
   0   0 -12   13.72    3.22
   0   0  12   13.47    3.74
   0   0 -12   10.74    3.66
  -2  -6  -3    0.54    2.09
  -2  -6  -3    0.78    1.99
  -2  -6  -3    1.81    2.34
   2   6   3    0.87    2.42
  -2   6  -3    0.58    2.57
  -2   6  -3    1.12    3.41
  -3  -4  -6   22.90    4.32
  -3   4  -6   25.33    6.71
  -3  -4  -6   28.77    5.52
  -3   4  -6   24.81    5.66
  -3  -4  -6   21.95    5.21
  -3   4  -6   23.46    5.35
   3  -4   6   20.33    4.97
   3   4   6   25.23    4.53
  -4   4  -2  301.69   28.54
  -4  -4  -2  289.03   21.14
  -4  -4  -2  382.64   20.64
   4  -4   2  291.71   21.09
  -4  -4  -2  314.67   15.78
   4   4   2  384.07   21.04
  -4   4  -2  429.85   31.89
   4   2  -8   77.54    8.24
   4   2  -8   64.44    9.96
   4  -2  -8   77.96    9.80
   4  -2  -8   70.26    8.39
   4   2  -8   78.20    8.47
   4   2  -8   55.77    8.29
   4  -2  -8   70.31   11.26
   4  -2  -8   74.21    9.20
   1  -2  11   18.71    3.96
  -1   2 -11   16.88    3.92
  -1   2 -11   19.25    3.82
  -1  -2 -11   20.61    4.12
  -1   2 -11   22.95    4.82
  -1  -2 -11   18.87    4.13
  -1  -2 -11   19.29    4.00
   1   2  11   18.22    3.66
  -1   1  12   16.97    4.67
   1   1 -12   15.96    3.71
   1   1 -12   15.12    3.91
   1  -1 -12   15.10    3.77
   1  -1 -12   16.04    3.58
  -1  -1  12   18.21    3.77
   1  -1 -12   16.87    3.69
   1   1 -12   15.62    3.62
  -2  -2 -10   19.76    4.23
  -2   2 -10   20.70    4.49
  -2   2 -10   20.17    4.20
  -2  -2 -10   21.42    3.97
   2   2  10   20.71    3.91
  -2   2 -10   21.20    4.76
   2  -2  10   20.81    3.67
  -3   0  -9   32.10    5.79
  -3   0  -9   34.31    6.07
   3   0   9   34.91    5.40
  -3   0  -9   32.92    5.59
   5   0   2    8.56    2.88
  -5   0  -2    8.92    3.09
  -5   0  -2    8.70    3.55
  -5   0  -2   12.90    3.57
   0  -6  -6   97.40   10.31
   0  -6  -6  117.07   11.68
   0  -6   6   77.95   15.13
   0  -6  -6  102.09    9.54
   0   6  -6   89.98   11.51
   0  -6  -6   98.84    9.61
  -5  -2   1   67.95    6.86
  -5  -2   1   66.49    6.20
  -5   2   1   67.82    7.45
  -5  -2   1   63.26    5.69
   5  -2  -1   52.89    7.67
  -5   2   1   55.31    9.45
  -5   2   1   47.79    6.50
   5  -2  -2  305.54   18.75
  -5  -2   2  325.74   17.75
  -5   2   2  311.73   17.52
  -5   2   2  316.33   21.32
  -5   2   2  300.26   17.89
  -5  -2   2  304.49   14.75
  -5  -2   2  304.17   14.38
  -5  -2   2  342.86   18.74
   5   0  -5   52.03    6.62
   5   0  -5   52.02    6.52
   5   0  -5   59.42    7.87
   5   0  -5   45.97    5.98
   4   0  -9  169.41   11.74
   4   0  -9  167.14   12.25
   4   0  -9  149.98   14.41
   4   0  -9  161.64   14.37
   0   1 -12   18.93    3.83
   0   1  12   18.16    4.46
   0   1 -12   15.20    3.74
   0  -1 -12   22.01    4.27
   0  -1 -12   13.68    3.64
   0   1 -12   20.34    4.15
  -4  -3   7   73.78    7.02
   4   3  -7  104.14    8.99
   4   3  -7   97.34    9.89
   4  -3  -7   92.10    9.13
   4  -3  -7  103.31   14.27
   4  -3  -7   77.60   12.37
   4  -3  -7   84.47    9.68
   1  -3 -11   12.72    3.50
   1  -3 -11   15.18    3.58
   1   3 -11   11.26    3.68
  -1   3  11   12.57    4.14
   1   3 -11   12.52    3.24
   1   3 -11   13.75    3.23
   1   3 -11   16.50    3.75
   3   4  -8  148.62   11.52
   3  -4  -8  149.07   15.75
   3  -4  -8  129.49   12.05
   3   4  -8  158.12   11.26
   3  -4  -8  135.19   11.79
   1   6  -6   73.03    9.15
   1  -6  -6   68.13   10.38
   1  -6  -6   49.07    6.47
   1   6  -6   69.28    8.45
   1  -6  -6   64.45   10.77
  -5  -2   0   16.53    3.69
  -5  -2   0   16.78    3.62
  -5   2   0   13.86    4.33
   5  -2   0   17.92    4.36
  -5   2   0   12.69    5.09
  -5   2   0   13.15    4.58
  -5  -2   0   17.28    3.53
  -3   5  -4  125.06   13.86
  -3  -5  -4  148.49   11.81
  -3  -5  -4  117.09   12.52
  -3   5  -4  115.27   16.48
   3   5   4  139.03   10.65
   3  -5   4  100.66   11.40
  -3  -5  -4  112.40   10.86
   1   4 -10   25.90    4.48
   1   4 -10   19.62    4.37
  -1   4  10   25.10    5.22
   1  -4 -10   22.03    5.34
   1  -4 -10   23.83    4.31
   1  -4 -10   23.53    4.75
   1   4 -10   23.20    4.17
   1   4 -10   29.00    5.26
  -5  -2   3    5.26    2.91
  -5   2   3    4.02    2.65
  -5   2   3    3.47    3.60
   5  -2  -3    3.56    2.83
  -5  -2   3    5.11    3.00
  -5  -2   3    3.81    2.97
  -5  -2   3    4.03    2.41
  -5   2   3    7.73    4.36
   0  -3  11   13.05    3.58
   0  -3 -11   12.42    3.06
   0  -3 -11   12.21    3.47
   0  -3 -11   12.43    3.84
   0   3 -11   14.26    4.11
   0   3 -11   13.54    3.31
   0   3  11   14.57    4.20
   0   3 -11   15.36    4.08
   3   1   9   14.23    3.19
  -3  -1  -9   18.91    3.87
   3  -1   9   15.03    3.17
  -3   1  -9   18.95    4.22
  -3   1  -9   17.25    3.97
  -3  -1  -9   19.08    3.92
  -3  -1  -9   14.72    3.98
   0   4 -10    1.92    2.60
   0   4 -10    0.61    1.78
   0   4 -10    1.58    2.33
   0   4 -10    1.38    2.48
   0   4  10    0.27    2.16
   0  -4 -10    1.38    2.68
   0  -4 -10    1.03    1.82
   0  -4 -10    1.68    2.16
  -5  -1  -2  275.59   13.46
  -5  -1  -2  294.11   16.74
  -5   1  -2  305.73   13.74
  -5  -1  -2  247.51   13.25
  -5   1  -2  218.83   14.28
   5  -1   2  275.70   13.07
   5   1   2  296.48   13.23
  -5   1  -2  285.81   17.87
   4   4  -5   85.19    7.48
   4  -4  -5   72.06   13.54
   4  -4  -5   64.25    8.62
   4  -4  -5   62.85    8.91
  -4  -4   5   53.68   10.85
   4   4  -5   98.22    7.93
  -4  -2  -6   29.26    4.79
  -4   2  -6   27.77    5.81
  -4   2  -6   31.07    5.48
  -4  -2  -6   31.12    5.47
   4   2   6   30.77    5.01
   4  -2   6   30.20    5.58
  -4  -2  -6   28.19    6.15
   5   1  -5   56.55    5.51
   5  -1  -5   47.70    6.62
   5  -1  -5   52.50    7.57
   5   1  -5   56.67    7.08
   5  -1  -5   49.74    8.00
  -5  -1   5   64.26    7.30
   5  -1  -5   50.89    7.41
   0  -7   0    0.54    1.68
   4   1  -9   45.48    6.39
   4   1  -9   49.75    6.80
   4   1  -9   40.23    6.68
   4   1  -9   36.95    7.12
   4  -1  -9   53.46    9.79
   4  -1  -9   45.40    6.40
   4  -1  -9   43.13    7.50
   4  -1  -9   46.87    6.74
  -1  -5  -8   74.36    8.32
  -1  -5  -8   77.57   10.32
  -1   5  -8   62.39    8.38
  -1   5  -8   61.57    7.27
   1   5   8   67.37    7.66
  -1   5  -8   72.44    9.35
  -1  -5  -8   68.97    7.98
  -1   5  -8   57.31    8.50
   0  -7   1  169.64   12.94
   0  -7  -1  217.12   14.83
   3   0 -11    2.73    2.91
   3   0 -11    1.90    2.27
   3   0 -11    0.96    2.27
   3   0 -11    2.32    2.33
   3  -5  -6   37.30    8.25
   3   5  -6   41.61    5.99
   3  -5  -6   31.14    6.36
   3  -5  -6   45.27    9.26
   3   5  -6   42.87    6.42
   3  -5  -6   30.20    5.99
   2  -6  -5  177.31   17.24
   2   6  -5  153.80   12.57
   2  -6  -5  146.39   16.14
   2   6  -5  190.87   14.40
  -4  -3  -5   63.72    7.49
   4   3   5   80.45    8.13
  -4   3  -5   70.01    9.01
  -4   3  -5   61.81    7.99
   4  -3   5   64.97    8.29
  -4   3  -5   63.64   10.16
  -4  -3  -5   64.87    6.48
  -4  -3  -5   67.87    8.85
   2   0 -12  144.70   10.49
   2   0 -12  141.93   10.25
   2   0 -12  143.13   12.74
  -4  -4  -3   51.32    6.67
  -4  -4  -3   63.76    7.20
  -4   4  -3   52.12    8.75
  -4   4  -3   53.70   11.12
   4   4   3   59.48    5.98
  -4  -4  -3   49.98    8.13
   4  -4   3   45.70    7.05
  -5  -2  -1   77.62    6.27
  -5   2  -1   73.35    9.32
  -5   2  -1   76.38    9.84
  -5  -2  -1   93.40    7.48
  -5  -2  -1   85.42    7.85
  -5   2  -1   77.34   12.08
   5  -2   1   93.67    9.88
  -2  -6  -4   13.55    3.65
  -2  -6  -4   17.96    4.39
  -2  -6  -4   14.79    4.52
  -2   6  -4   13.84    5.84
   2   6   4   19.39    4.03
  -2   6  -4   17.80    5.41
  -4   0  -7    1.65    2.67
   4   0   7    0.86    2.27
  -4   0  -7    2.85    2.64
  -4   0  -7    3.13    2.41
  -5  -2   4  129.20   11.24
  -5  -2   4  144.87   10.01
   5  -2  -4  117.76   11.33
  -5   2   4  114.12   15.41
  -5  -2   4  136.18   11.70
  -5   2   4  140.61   12.22
  -5   2   4  123.06   14.91
   2  -5  -8   29.23    7.76
   2  -5  -8   24.28    4.78
   2   5  -8   31.02    5.11
   2   5  -8   32.15    5.69
   2  -5  -8   25.30    4.40
   2  -5  -8   28.79    5.30
   0  -7  -2   23.56    4.73
   0  -7   2   19.79    4.77
   3  -1 -11    9.58    3.66
   3   1 -11    7.40    3.05
   3  -1 -11    7.58    3.67
   3  -1 -11   10.44    3.27
   3  -1 -11    9.17    2.98
   3   1 -11    8.47    3.22
  -5   0  -3   80.26    7.97
  -5   0  -3   83.40    8.96
   5   0   3   84.05    7.94
  -5   0  -3   89.70    8.60
  -3   3  -8   26.44    4.36
   3  -3   8   23.50    4.69
   3   3   8   27.32    4.69
  -3   3  -8   26.91    5.69
  -3  -3  -8   26.19    5.60
  -3   3  -8   22.83    6.17
  -3  -3  -8   25.99    4.78
   5   0  -6   10.30    3.46
   5   0  -6    9.59    3.56
   5   0  -6   10.61    3.51
   5   0  -6    9.57    3.32
   1   2 -12  103.55    9.95
   1   2 -12  114.64    9.92
   1  -2 -12   98.88    9.26
   1   2 -12  112.85    9.78
   1  -2 -12  114.08    9.39
   1   2 -12  111.33    9.71
  -1   2  12  110.43   10.41
   1  -2 -12   99.04   10.46
   2  -1 -12  126.40    9.95
   2  -1 -12  116.63   11.13
   2   1 -12  118.36   10.17
   2  -1 -12  116.47    9.67
   2   1 -12  110.01    9.70
   2  -1 -12  120.80   10.83
   2   1 -12  133.00   11.17
   2   1 -12  121.10    9.64
  -1  -6  -6   71.47    8.55
  -1   6  -6   71.10   10.14
  -1   6  -6   75.77    8.65
  -1  -6  -6   74.22    8.60
   1   6   6   77.08    7.97
  -1  -6  -6   72.53   10.28
  -1  -7   0   14.96    4.04
  -1   7   0   13.09    6.97
   2   5   7  178.34   12.42
   2  -5   7  139.48   14.42
  -2   5  -7  173.98   13.20
  -2  -5  -7  191.85   13.37
  -2  -5  -7  165.58   12.84
  -2   5  -7  158.88   16.02
  -2  -5  -7  181.65   13.12
  -1  -7   1   34.21    6.51
  -1   7   1   35.76   10.17
  -4  -1  -7   32.98    5.72
   4  -1   7   32.27    5.69
  -4   1  -7   27.63    5.51
  -4  -1  -7   36.92    6.19
  -4   1  -7   35.28    7.76
  -4  -1  -7   32.22    5.75
  -2   0 -11    0.17    2.43
  -2   0 -11    1.36    2.16
   0  -2  12    1.08    2.44
   0   2  12    1.77    2.31
   0   2 -12    0.75    2.68
   0   2 -12    0.93    2.40
   0  -2 -12    1.55    2.40
   0   2 -12    2.12    2.52
  -1   0 -12   67.68    7.46
  -1   0 -12   50.27    6.39
   1   0  12   54.11    6.60
  -1   0 -12   65.93    7.99
  -1   7  -1   73.76   13.71
  -1  -7  -1   85.84   10.54
  -5   1  -3  230.74   19.68
  -5  -1  -3  290.53   15.06
  -5  -1  -3  313.19   19.31
  -5   1  -3  313.86   14.90
  -5   1  -3  288.77   18.99
   5   1   3  308.39   14.19
  -5  -1  -3  255.03   16.15
   5  -1   3  306.45   17.19
   0  -5  -9   72.63    8.94
   0   5   9   71.72    9.13
   0   5  -9   66.61    7.60
   0   5  -9   68.41    8.42
   0   5  -9   64.31    7.91
   0   5  -9   67.65    9.02
   0  -5  -9   67.44    7.79
   0  -5  -9   78.29   11.03
   2   3 -11    1.72    2.67
   2   3 -11    0.35    2.09
   2  -3 -11    0.81    2.67
   2   3 -11    0.32    2.43
  -2   3  11    0.55    2.57
   2  -3 -11    1.21    1.94
   2   3 -11    0.56    2.74
   1  -5  -9   22.94    5.07
   1  -5  -9   19.88    4.28
   1   5  -9   23.56    4.71
   1  -5  -9   25.53    6.43
   1   5  -9   22.33    4.69
   5  -1  -6  122.68   14.82
   5   1  -6  121.65    9.75
   5  -1  -6  106.48   10.05
   5  -1  -6  101.49   12.21
   5  -1  -6  110.08   10.03
   5   1  -6  119.08    8.75
   5   1  -6  108.96   10.56
   5   1  -6  128.46   11.72
  -1   7   2   35.98   12.10
  -1  -7   2   47.62    7.50
   4   4  -6  325.39   18.43
   4  -4  -6  346.31   28.56
   4  -4  -6  260.66   18.15
   4   4  -6  331.18   15.52
   4  -4  -6  263.07   18.87
   3  -2   9    0.91    2.76
  -3  -2  -9    1.37    2.75
  -3   2  -9    0.52    2.68
  -3  -2  -9    0.57    2.32
   3   2   9    0.83    2.20
  -3   2  -9    0.78    2.30
  -3   2  -9    1.23    2.58
  -3  -2  -9    1.25    2.09
  -5  -2  -2   43.65    5.23
  -5   2  -2   47.94    8.19
  -5  -2  -2   41.89    5.40
  -5  -2  -2   38.14    6.39
   5  -2   2   43.20    6.44
  -5   2  -2   42.84    6.97
  -3   6   1  200.80   23.84
  -3   6   1  189.28   26.12
  -3  -6   1  213.25   18.63
   3   6  -1  240.73   16.61
   0  -7  -3   15.25    5.26
   0  -7  -3   13.39    3.55
   0  -7   3   10.81    4.02
   0  -7  -3   14.74    4.60
  -5  -2   5   79.31    9.19
   5  -2  -5   71.98    9.00
   5  -2  -5   79.83    9.38
  -5  -2   5   72.75   10.10
   5  -2  -5   73.20    8.77
  -2  -1 -11   84.40    8.86
  -2   1 -11   83.04    8.69
  -2  -1 -11   81.34    7.98
   2   1  11   87.22    8.04
  -2   1 -11   74.20    8.86
  -2  -1 -11   92.23   10.46
  -2   1 -11   78.80    8.17
   2  -1  11   84.72    8.23
   3   6   0   76.19    8.54
  -3   6   0   77.38   15.72
  -3   6   0   55.74   11.76
  -3  -6   0   85.62   10.51
   0  -6  -7  116.25   10.90
   0  -6  -7  120.97   10.89
   0  -6  -7  111.67   12.49
   3   3 -10   88.36    9.07
   3  -3 -10   68.12    7.56
   3  -3 -10   79.77   10.86
   3  -3 -10   80.07    9.38
   3   3 -10   80.34    8.31
   3   3 -10   60.94    8.32
   3  -3 -10   73.26   10.05
   2   4 -10   77.43    8.03
   2  -4 -10   69.60    7.36
   2   4 -10   69.45    7.86
   2  -4 -10   73.79    8.85
  -3  -5  -5   46.69    7.05
  -3  -5  -5   47.30    8.02
   3   5   5   58.28    7.85
   3  -5   5   38.80    6.52
  -3   5  -5   60.89    9.96
  -3   5  -5   43.96    9.62
  -3  -5  -5   59.38    8.32
   3   4   7   75.17    7.79
  -3  -4  -7   67.80    7.87
  -3  -4  -7   69.44    9.43
  -3   4  -7   64.25    9.63
   3  -4   7   64.82    8.40
  -3   4  -7   60.73    8.51
  -3  -4  -7   79.28    9.31
  -3   4  -7   66.16    8.86
   4  -2  -9  101.36   11.07
   4   2  -9  105.23    9.41
   4   2  -9   93.46   11.48
   4  -2  -9  102.15    9.55
   4   2  -9  123.17   12.26
   4  -2  -9  112.55   10.71
   4  -2  -9  100.64   11.69
   4   2  -9   89.55   11.62
   3   6  -2   17.22    4.69
  -3  -6   2   12.05    3.62
  -3   6   2   10.84    6.36
  -3   6   2   18.08    7.76
  -1   1 -12    1.61    2.15
  -1  -1 -12    1.16    2.15
  -1   1 -12    2.11    2.17
   1   1  12    1.02    2.76
  -1   1 -12    1.44    2.77
   4   3  -8   19.43    4.51
   4  -3  -8   19.01    4.75
   4  -3  -8   17.73    5.43
   4  -3  -8   19.51    4.43
   4   3  -8   18.65    3.83
   4  -3  -8   17.75    7.00
  -1  -4 -10   67.46    7.64
  -1  -4 -10   74.45    9.58
  -1   4 -10   65.53    7.45
  -1   4 -10   71.71    9.17
   1  -4  10   74.97    9.46
  -1   4 -10   58.46    7.40
   1   4  10   65.57    7.91
  -1  -4 -10   68.29    7.60
  -1  -7  -2   65.46    8.66
  -1   7  -2   66.38   13.61
   1  -6  -7   41.31    6.41
   1   6  -7   52.46    7.77
   1   6  -7   52.84    7.59
   1  -6  -7   53.56    8.29
   1  -6  -7   47.24    9.71
  -1   3 -11   18.95    4.09
  -1  -3 -11   20.23    4.82
  -1   3 -11   18.48    4.13
  -1   3 -11   17.67    3.99
  -1  -3 -11   18.43    3.83
   1  -3  11   19.72    4.28
   1   3  11   16.76    3.58
  -1  -3 -11   19.87    4.29
   2  -6  -6   71.96    9.65
   2   6  -6   76.39    8.43
   2   6  -6   76.48    8.72
   2  -6  -6   73.31   10.83
   2  -3  10   42.38    5.89
   2   3  10   47.96    5.91
  -2   3 -10   46.81    6.17
  -2  -3 -10   45.89    5.96
  -2  -3 -10   40.03    5.55
  -2   3 -10   46.25    6.45
  -2   3 -10   43.80    6.91
  -2  -3 -10   44.29    6.81
  -4   4  -4   31.35    7.57
   4  -4   4   21.86    4.63
  -4  -4  -4   24.00    4.93
  -4  -4  -4   31.93    5.61
  -4   4  -4   33.14    7.31
   4   4   4   30.39    4.68
  -4  -4  -4   23.86    5.41
  -5  -3   1  101.95    8.64
   5   3  -1  106.81    8.25
  -5  -3   1  111.72    9.15
  -5   3   1  109.19   12.60
  -5  -3   1  112.56    8.70
  -5   3   1   88.30   13.65
   5  -3  -1   87.89    9.42
  -3   6  -1  278.12   31.74
  -3   6  -1  318.04   28.42
  -3  -6  -1  324.40   21.96
   3   6   1  275.23   17.99
  -5   3   2   46.70    8.49
  -5  -3   2   55.23    6.19
  -5   3   2   52.09    8.84
  -5  -3   2   60.36    7.03
   5   3  -2   55.80    5.45
   5  -3  -2   49.39    7.59
  -5  -3   2   58.07    7.31
   3  -5  -7   19.65    4.66
   3  -5  -7   20.73    5.33
   3  -5  -7   25.50    6.91
   3   5  -7   27.67    5.20
   3  -5  -7   28.90    6.65
   3   5  -7   27.97    5.42
  -4  -5   1  258.14   15.22
   4   5  -1  264.12   14.38
  -4   5   1  229.12   25.01
  -4   5   1  176.27   22.29
  -2   4  -9   28.80    5.62
  -2  -4  -9   25.07    4.40
   2  -4   9   26.23    5.44
  -2   4  -9   28.70    4.71
   2   4   9   26.02    4.72
  -2   4  -9   24.03    5.54
  -2  -4  -9   26.59    5.07
  -2  -4  -9   25.59    4.70
  -1  -7   3    3.15    2.69
   1  -7  -3    3.75    3.08
   1  -7  -3    4.77    3.46
  -2  -6  -5  101.17   10.55
  -2  -6  -5   75.45   10.32
  -2   6  -5   86.46   10.44
  -2   6  -5   75.59   12.14
   2   6   5  102.36   10.31
  -2  -6  -5   81.53    8.75
  -3  -6   3   47.06    7.48
   3   6  -3   51.59    7.34
  -4   5   2   55.63   13.24
  -4  -5   2   66.74    8.42
   4   5  -2   66.42    7.12
  -4   5   2   72.07   14.07
   3   2 -11    0.04    2.56
   3   2 -11    0.44    2.34
   3   2 -11    0.50    2.26
   3  -2 -11   -0.04    2.83
   3   2 -11    0.47    2.42
   3  -2 -11   -0.59    2.02
   3  -2 -11   -0.71    2.64
   3  -2 -11    0.86    2.57
   3  -4  -9  143.45   12.62
   3   4  -9  171.60   12.98
   3  -4  -9  147.56   12.66
   3   4  -9  166.41   12.67
   3  -4  -9  161.19   16.80
  -4   5   0  110.95   17.75
  -4  -5   0  126.47   10.89
   4   5   0  136.37   10.19
  -4   5   0  122.54   16.97
   5  -3   0   69.74    8.24
  -5  -3   0   86.08    7.45
  -5   3   0   75.07   10.43
  -5  -3   0   83.09    7.32
   5   3   0   87.96    7.22
  -5  -3   0   91.75    8.60
   4   0 -10   94.79    9.30
   4   0 -10  102.61   12.32
   4   0 -10   96.49    9.57
   4   0 -10   78.42    9.43
  -5   0  -4    9.56    3.11
   5   0   4    8.65    3.08
  -5   0  -4    7.76    3.20
  -5   0  -4    9.91    3.33
   5  -3  -3    3.55    2.75
   5   3  -3    3.16    2.77
  -5  -3   3    2.61    2.41
  -5  -3   3    2.70    2.88
  -5   3   3    3.08    3.69
  -5  -3   3    3.92    2.75
   2   2 -12    6.35    2.92
   2   2 -12    6.87    2.44
   2   2 -12    8.12    2.74
   2  -2 -12    7.30    2.85
   2  -2 -12    5.52    2.81
   2   2 -12    7.70    2.89
   2  -2 -12    6.82    2.53
  -4   3  -6   61.55    8.48
   4  -3   6   41.84    6.23
   4   3   6   43.79    5.88
  -4  -3  -6   40.33    6.65
  -4   3  -6   40.56    6.76
  -4   3  -6   45.43    7.04
  -4  -3  -6   48.05    6.85
   5   0  -7   11.99    3.94
   5   0  -7   15.79    3.70
   5   0  -7   12.68    3.36
   5   0  -7   11.50    3.74
  -4  -2  -7   93.39    8.92
  -4  -2  -7  103.06   10.30
   4   2   7   88.12    8.76
  -4   2  -7   95.57    9.71
   4  -2   7   87.68    8.54
  -4  -2  -7   91.85   10.94
  -4   2  -7   81.40    9.48
  -4   5   3   69.19   14.64
  -4  -5   3   77.95    9.37
  -4   5   3   67.57   15.53
   4   5  -3   83.07    9.28
   0  -7  -4   65.48    9.27
   0  -7  -4   54.31    9.74
   0  -7  -4   56.85    7.28
  -1  -7  -3   37.05    7.08
  -1  -7  -3   41.91    7.83
  -1  -7  -3   55.62    7.63
  -1   7  -3   33.99    9.32
   5  -2   3    8.80    2.84
  -5  -2  -3    8.63    3.30
  -5   2  -3    8.46    4.48
  -5  -2  -3    7.90    2.73
  -5  -2  -3    9.91    3.07
  -5   2  -3    7.68    2.78
   3   6   2   22.35    4.66
  -3   6  -2   24.44    7.33
  -3  -6  -2   23.03    4.99
  -3   6  -2   15.79    6.66
   3   0  10   66.40    6.61
  -3   0 -10   63.96    7.41
  -3   0 -10   66.78    8.53
  -4  -5  -1  105.23    9.81
  -4   5  -1   76.19   15.48
  -4   5  -1  124.26   14.22
   4   5   1  106.13    9.38
   5  -2  -6  169.28   14.57
   5  -2  -6  191.60   15.27
   5  -2  -6  181.06   15.95
   5  -2  -6  161.27   13.48
   4  -1 -10   16.34    3.96
   4  -1 -10   15.98    5.08
   4   1 -10   16.63    4.03
   4   1 -10   15.42    4.88
   4  -1 -10   16.54    3.91
   4   1 -10   12.22    3.93
   4   1 -10   17.04    3.62
   4  -1 -10   13.45    4.78
  -5   1  -4  116.51   12.31
   5  -1   4  108.48   10.25
  -5  -1  -4  100.92   11.07
  -5   1  -4  102.28   10.53
  -5   1  -4   96.19   11.13
  -5  -1  -4   98.37   10.06
   5   1   4  107.31    8.84
  -5  -1  -4  102.80   10.13
   1   0 -13    1.42    2.69
  -1   0  13    1.85    3.09
   1   0 -13    0.99    2.14
   5  -3   1   59.83    8.22
  -5  -3  -1   68.58    7.26
   5   3   1   74.76    6.76
  -5   3  -1   61.66    9.99
  -5  -3  -1   76.78    7.17
  -5  -3  -1   63.94    7.17
   5   1  -7   42.55    5.97
   5   1  -7   38.68    6.12
   5  -1  -7   37.06    5.61
   5  -1  -7   39.08    6.66
   5  -1  -7   45.47    6.90
   5   1  -7   36.79    6.44
   5  -1  -7   39.18    6.59
   5   1  -7   37.69    6.67
  -5   3   4  346.02   22.52
   5   3  -4  355.59   13.57
  -5  -3   4  347.87   18.57
  -5  -3   4  366.05   15.91
  -5  -3   4  299.70   21.59
   5  -3  -4  270.93   19.77
  -2   2 -11   27.25    5.12
  -2  -2 -11   31.51    5.57
   2  -2  11   30.36    4.78
  -2   2 -11   32.90    5.37
  -2   2 -11   27.54    4.95
   2   2  11   34.66    5.18
  -2  -2 -11   31.45    5.04
  -3  -6   4    9.91    3.59
   3   6  -4   11.22    3.54
   3  -6  -4    9.65    4.09
   3  -6  -4   10.12    5.58
  -1  -5  -9   35.52    5.34
  -1   5  -9   36.30    6.69
  -1   5  -9   31.14    5.77
  -1   5  -9   33.66    5.17
  -1   5  -9   35.77    6.36
   1   5   9   38.64    6.32
  -1  -5  -9   42.62    6.16
  -1  -5  -9   43.74    7.69
  -1   6  -7   73.46   10.44
  -1  -6  -7   89.93   11.80
  -1   6  -7   65.50    7.60
  -1  -6  -7   80.85    8.51
  -1  -6  -7   91.76    9.55
   1   6   7   85.96    9.71
   4  -4  -7   30.05    7.85
   4  -4  -7   29.10    7.54
   4   4  -7   32.52    5.55
   4  -4  -7   27.64    5.46
   4  -4  -7   26.15    6.10
   4   4  -7   34.16    6.12
   2  -5  -9    1.30    1.88
   2   5  -9    2.12    2.72
   2  -5  -9    0.93    1.87
   2  -5  -9    0.89    3.20
   2  -5  -9    1.43    2.60
   2   5  -9    1.68    2.71
  -1  -2 -12   36.19    6.48
   1  -2  12   38.09    5.66
  -1   2 -12   38.50    6.48
  -1  -2 -12   41.67    5.68
  -1   2 -12   37.82    5.15
  -1  -2 -12   41.72    5.98
   1   2  12   37.84    5.33
  -1   2 -12   36.20    5.48
   1  -7  -4   52.42    8.62
   1  -7  -4   68.16    9.64
  -1   4  11   53.50    8.07
   1   4 -11   62.36    7.33
   1  -4 -11   56.48    6.87
   1  -4 -11   54.70    7.43
   1   4 -11   53.03    6.44
   1   4 -11   68.27    8.50
   1  -4 -11   59.90    8.87
   1   4 -11   42.98    6.41
   0   0  13   42.97    5.72
   0   0 -13   44.40    7.31
   0   0 -13   49.59    6.25
   0   0 -13   55.48    7.28
  -3  -1 -10   69.59    8.96
   3  -1  10   71.14    7.54
  -3  -1 -10   68.07    7.17
   3   1  10   72.28    6.69
  -3  -1 -10   77.49    8.60
  -3   1 -10   70.15    8.21
  -3   1 -10   57.48    6.85
   4   0   8   62.91    6.42
  -4   0  -8   59.55    6.71
  -4   0  -8   56.89    7.67
  -4   0  -8   61.34    7.52
   0  -4 -11   31.30    5.98
   0   4 -11   28.70    5.58
   0   4  11   31.30    5.64
   0   4 -11   34.03    6.64
   0  -4 -11   37.81    6.02
   0   4 -11   32.76    4.84
   0  -4 -11   35.05    5.03
   0   4 -11   35.90    5.57
  -1  -1  13   17.47    4.25
  -1   1  13   16.77    4.29
   1  -1 -13   16.21    3.51
   1   1 -13   15.92    3.73
   1   1 -13   19.04    4.74
   1   1 -13   14.38    4.15
   1  -1 -13   17.23    4.15
   1  -1 -13   15.99    3.60
   1   3 -12   21.73    4.40
   1  -3 -12   21.23    4.19
   1   3 -12   15.34    3.96
  -1   3  12   16.87    4.17
   1   3 -12   17.75    3.63
   1   3 -12   17.21    4.03
   4   5  -4   16.14    3.62
   4  -5  -4   13.66    5.52
  -4  -5   4   17.81    3.86
  -2   7   1   45.63   13.31
  -2   7   1   49.53   12.25
  -2  -7   1   55.94    8.09
  -2  -7   0   19.02    5.11
  -2   7   0   12.83    7.63
  -2   7   0   21.83    7.83
   2   5   8    4.17    2.40
  -2   5  -8    5.24    3.25
  -2  -5  -8    4.82    2.60
  -2   5  -8    5.49    2.65
  -2  -5  -8    5.36    2.31
   2  -5   8    3.91    2.86
  -2  -5  -8    4.24    2.69
   0   3 -12   37.69    5.71
   0  -3 -12   45.78    5.67
   0  -3 -12   42.38    6.05
   0  -3  12   41.36    6.01
   0   3  12   41.30    6.16
   0  -3 -12   45.86    6.58
   0   3 -12   43.44    6.19
   0   3 -12   44.71    6.58
   3   5   6   61.67    7.32
  -3   5  -6   68.39    9.32
  -3  -5  -6   66.32    8.23
  -3  -5  -6   58.58    8.30
  -3   5  -6   54.42    9.42
  -3  -5  -6   56.81    7.04
   3  -5   6   50.42    7.71
   3   0 -12  225.02   12.26
   3   0 -12  201.91   15.71
   3   0 -12  199.73   12.63
   3   0 -12  212.65   12.79
  -4   5  -2  115.70   15.10
  -4  -5  -2  145.79   11.19
  -4   5  -2  145.76   17.38
   4   5   2  132.77    9.30
   0  -1 -13   19.50    3.94
   0   1 -13   20.60    4.13
   0   1  13   20.52    3.85
   0  -1 -13   19.21    4.52
   0   1 -13   20.41    4.32
   0   1 -13   23.12    4.15
   2  -6  -7    3.98    2.93
   2   6  -7    2.85    2.59
   2  -6  -7    3.38    3.84
   2   6  -7    4.06    2.59
  -4   4  -5   13.91    3.64
  -4  -4  -5   12.55    3.25
  -4  -4  -5   17.38    4.69
  -4   4  -5   13.41    5.48
   4   4   5   15.23    3.72
   4  -4   5   12.03    3.41
  -4  -4  -5   12.30    3.90
  -4  -1  -8  143.08   12.47
  -4   1  -8  152.41   12.16
   4  -1   8  162.62   10.13
  -4  -1  -8  168.61   12.57
  -4   1  -8  164.70   13.70
  -4  -1  -8  161.48   11.29
  -2   7   2   17.82    8.23
  -2   7   2   18.46    7.11
  -2  -7   2   18.39    5.20
   3   6   3   13.86    3.44
  -3  -6  -3   11.65    3.29
  -3   6  -3    9.57    4.54
  -3   6  -3    9.46    4.38
   3   3   9    8.75    2.59
  -3  -3  -9    8.81    3.13
  -3   3  -9    9.42    3.49
  -3   3  -9    9.41    3.56
  -3  -3  -9    9.63    2.75
   3  -3   9    8.60    2.89
  -3   3  -9    7.80    3.57
  -5  -3  -2   86.82    9.77
  -5  -3  -2  110.46    8.23
  -5   3  -2   74.96    8.83
  -5  -3  -2   87.81    8.29
   5   3   2  106.41    6.98
   5  -3   2   90.69    9.76
  -1  -7  -4    3.39    2.83
  -1  -7  -4    3.23    2.61
  -1  -7  -4    5.41    2.60
  -2  -7  -1   16.37    4.33
  -2   7  -1   13.41    5.84
  -2   7  -1   11.93    6.08
   5  -3  -5   26.94    4.92
  -5  -3   5   30.95    6.42
   5  -3  -5   27.93    8.04
  -5  -3   5   29.38    6.71
   5   3  -5   38.44    4.61
   5  -3  -5   24.50    7.77
   5   3  -5   39.11    4.72
   0  -6  -8    2.87    2.66
   0  -6  -8    1.90    1.94
   0  -6  -8    1.44    3.12
   4   3  -9   19.21    4.14
   4  -3  -9   17.01    5.47
   4  -3  -9   15.54    3.55
   4  -3  -9   17.04    4.05
   4  -3  -9   20.10    5.03
   4   3  -9   19.18    4.25
   0  -7  -5   39.21    5.78
   0  -7  -5   41.68    8.12
   0  -7  -5   42.31    7.00
   1  -6  -8    9.08    4.43
   1  -6  -8    6.84    2.53
   1   6  -8   11.30    3.60
   1  -6  -8    8.94    4.08
   1   6  -8    9.78    3.33
  -2  -6  -6   28.11    5.35
   2   6   6   33.44    6.06
  -2   6  -6   32.16    7.57
  -2  -6  -6   29.88    6.60
  -2  -6  -6   34.22    6.26
  -2   6  -6   28.06    5.46
   3  -1 -12   49.30    6.40
   3  -1 -12   53.76    7.00
   3   1 -12   48.77    6.77
   3  -1 -12   49.57    7.85
   3   1 -12   45.17    6.65
   3  -1 -12   45.90    7.47
   3   6  -5  153.61   11.98
   3  -6  -5  172.01   18.50
   3  -6  -5  162.43   20.34
   3   6  -5  166.16   12.84
   3  -5  -8   22.67    5.33
   3  -5  -8   30.51    6.59
   3   5  -8   32.59    5.95
   3  -5  -8   30.05    7.60
   3   5  -8   30.28    5.77
   3  -5  -8   22.05    5.28
   2   0 -13    3.40    2.63
   2   0 -13    2.98    2.36
   2   0 -13    2.01    2.26
   2   0 -13    1.66    3.12
   5   0   5  141.16   11.55
  -5   0  -5  118.77   12.03
  -5   0  -5  120.54   10.07
  -5   0  -5  142.96   12.93
   3  -4   8   19.77    4.57
  -3   4  -8   21.34    4.88
  -3  -4  -8   24.07    4.72
  -3  -4  -8   21.65    4.24
  -3   4  -8   21.44    4.90
   3   4   8   23.89    4.45
  -3   4  -8   18.84    4.94
  -3  -4  -8   19.52    4.44
   4  -2 -10   37.47    7.02
   4  -2 -10   36.51    7.17
   4   2 -10   44.16    6.49
   4   2 -10   41.11    5.69
   4   2 -10   37.00    6.61
   4  -2 -10   37.70    6.27
   4  -2 -10   40.04    5.67
  -5  -2  -4  153.88   11.26
  -5  -2  -4  184.52   12.60
  -5   2  -4  162.57   13.44
  -5  -2  -4  144.64   11.78
  -5   2  -4  174.57   14.72
   5  -2   4  162.00   11.56
   1  -5 -10   11.27    3.19
   1   5 -10   15.84    4.33
   1  -5 -10   12.72    3.28
   1  -5 -10   13.39    3.98
   1   5 -10   13.26    4.04
   0   5 -10   13.81    3.71
   0  -5 -10   11.10    3.43
   0   5 -10   10.72    2.94
   0  -5 -10   13.11    3.12
   0   5 -10   12.61    3.87
   0   5  10   10.76    3.66
   0   5 -10   11.32    3.53
   0  -5 -10   11.34    4.04
   5   0  -8    9.30    3.93
   5   0  -8    9.19    3.29
   5   0  -8    8.28    3.22
   5   0  -8    7.60    3.34
   4  -5  -5  139.06   15.66
   4   5  -5  207.12   14.53
   4   5  -5  195.97   11.43
   5  -2  -7  130.51   13.06
   5  -2  -7  121.93   11.08
   5  -2  -7  138.17   14.69
   5  -2  -7  133.13   11.00
  -2  -7   3  101.33   11.60
   2  -7  -3  106.77   12.00
   1  -7  -5   24.80    7.36
   1  -7  -5   21.99    5.06
  -2  -7  -2   30.59    5.98
  -2   7  -2   20.64    7.14
  -2   7  -2   21.09    6.38
   3   3 -11   23.46    4.50
   3  -3 -11   23.20    5.84
   3  -3 -11   22.24    4.88
   3  -3 -11   22.15    4.82
   3   3 -11   24.84    4.82
   3   3 -11   18.54    4.23
   3  -3 -11   22.46    4.13
   2  -1 -13   16.15    3.65
   2  -1 -13   16.07    3.71
   2   1 -13   16.35    3.66
   2   1 -13   16.06    3.96
   2   1 -13   15.99    3.89
   2   1 -13   14.40    3.66
   2  -1 -13   17.58    3.78
   2  -1 -13   15.09    4.01
  -5   1  -5   72.11    8.57
  -5  -1  -5   86.69   10.73
  -5   1  -5   78.99    8.59
   5  -1   5   68.72    7.19
  -5  -1  -5   81.34    8.62
   5   1   5   82.16    9.00
  -5  -1  -5   69.03    8.46
  -5   1  -5   75.07    8.52
   3  -2  10   56.45    6.27
  -3   2 -10   53.17    7.66
  -3  -2 -10   57.49    8.07
  -3  -2 -10   56.48    6.34
  -3   2 -10   59.12    7.01
  -3   2 -10   51.48    6.97
  -3  -2 -10   59.93    7.67
   3   2  10   58.79    6.23
   2   4 -11    8.08    2.96
   2  -4 -11    7.07    2.72
   2   4 -11    8.29    2.92
   2  -4 -11    8.23    2.95
   1  -2 -13    2.40    2.45
   1   2 -13    1.33    2.56
   1   2 -13    1.62    2.58
   1  -2 -13    2.51    3.03
   1   2 -13    1.54    2.42
   1  -2 -13    1.52    2.27
  -1   2  13    1.19    2.55
   1   2 -13    1.90    2.21
   2  -3 -12    4.86    3.01
   2   3 -12    5.44    2.67
   2   3 -12    5.44    3.09
   2   3 -12    4.30    2.74
   2  -3 -12    4.86    3.05
  -2   3  12    4.23    2.88
   2   3 -12    4.84    2.24
  -4   5  -3   53.10   11.48
  -4  -5  -3   71.27    8.69
  -4   5  -3   67.42   10.95
   4   5   3   68.73    7.45
   5  -1  -8   21.71    5.19
   5   1  -8   24.17    6.58
   5   1  -8   21.58    4.79
   5  -1  -8   22.95    5.08
   5   1  -8   22.92    4.21
   5  -1  -8   21.69    4.47
   5  -1  -8   23.15    6.10
   5   1  -8   23.80    5.05
  -2   0 -12   34.21    4.56
  -2   0 -12   29.44    5.51
  -4   3  -7   91.16   12.02
   4  -3   7   91.48    9.58
   4   3   7   93.82    8.37
  -4  -3  -7  102.66    8.50
  -4   3  -7  124.29   10.83
  -4  -3  -7   91.66   10.07
  -4   3  -7   88.70   10.29
   3   4 -10   47.45    6.37
   3   4 -10   46.76    6.35
   3  -4 -10   40.48    6.15
   3  -4 -10   39.71    8.44
   3  -4 -10   45.74    6.67
   4  -4  -8   72.19   11.38
   4   4  -8   76.12    7.65
   4   4  -8   66.31    7.90
   4  -4  -8   60.27    8.02
   4  -4  -8   66.06    8.20
   4  -4  -8   60.32   10.47
   0   2 -13   39.84    6.06
   0   2  13   39.49    6.09
   0   2 -13   41.05    5.56
   0  -2 -13   48.71    5.60
   0  -2  13   41.59    5.69
   0   2 -13   45.13    5.89
  -5   3  -3  133.62   11.63
   5  -3   3   98.39    8.92
   5   3   3  103.56    6.73
  -5  -3  -3  113.91   10.63
  -5  -3  -3  126.04    8.81
  -5  -3  -3   94.16   10.64
  -1   4 -11    3.69    2.83
  -1   4 -11    2.98    2.14
   1   4  11    3.53    2.46
   1  -4  11    4.22    3.23
  -1   4 -11    1.95    2.38
  -1  -4 -11    2.58    2.54
  -1  -4 -11    4.53    2.77
  -1  -4 -11    3.12    2.50
  -3   6  -4   61.30   10.08
  -3   6  -4   38.69    9.16
   3   6   4   53.12    6.42
  -3  -6  -4   54.64    7.23
  -4  -2  -8   36.23    5.68
  -4   2  -8   43.37    7.18
  -4  -2  -8   45.74    5.92
   4   2   8   47.61    5.61
  -4  -2  -8   48.42    7.41
   4  -2   8   45.24    5.75
  -4   2  -8   42.54    5.97
   5   3  -6   53.72    5.43
   5  -3  -6   48.53    7.48
   5   3  -6   58.68    6.35
   5  -3  -6   48.73    9.17
   5  -3  -6   51.71    7.66
   5  -3  -6   55.33    9.50
  -5  -3   6   51.85    9.23
  -1   0 -13    5.42    2.92
   1   0  13    5.15    3.15
  -1   0 -13    5.43    2.51
  -1   0 -13    6.67    3.12
  -2  -4 -10    8.42    2.64
  -2   4 -10    9.57    2.92
  -2  -4 -10    9.86    2.73
  -2   4 -10    8.51    3.08
   2  -4  10    7.96    3.15
   2   4  10    9.62    2.71
  -2  -4 -10    9.80    3.43
  -2   4 -10    8.65    3.09
   4   0 -11   87.64   10.52
   4   0 -11   96.77    8.41
   4   0 -11   94.38   10.95
   4   0 -11   99.57    9.17
   2  -7  -4    3.53    3.45
  -2  -7   4    2.67    2.81
   2  -7  -4    3.25    2.84
  -2  -1 -12   48.41    5.87
  -2   1 -12   45.61    5.77
  -2   1 -12   41.49    6.12
  -2  -1 -12   44.71    6.72
  -2  -1 -12   52.23    7.37
   2  -1  12   45.62    5.71
   2   1  12   46.52    5.53
  -2   1 -12   52.79    7.56
  -1  -7  -5   35.18    5.85
  -1  -7  -5   42.17    6.05
  -1  -7  -5   35.16    6.31
   5  -4  -1   18.84    4.26
   5   4  -1   27.79    4.21
  -5   4   1   26.03    5.58
  -5   4   1   16.93    6.91
   5  -4  -2   11.22    3.75
  -5   4   2   14.45    5.22
   5   4  -2   16.48    3.50
  -5   4   2   11.98    5.50
  -2  -3 -11    8.27    3.41
  -2  -3 -11    9.94    3.33
   2   3  11   10.05    3.06
   2  -3  11    8.60    2.96
  -2   3 -11    7.91    2.98
  -2  -3 -11   10.19    3.09
  -2   3 -11   12.54    3.33
  -2   3 -11    9.95    2.88
  -2  -7  -3   25.12    5.16
  -2   7  -3   23.05    6.33
  -2   7  -3   17.84    6.99
   1   3  12    6.92    2.79
  -1  -3 -12    8.62    3.03
   1  -3  12    6.68    2.88
  -1  -3 -12    9.23    2.75
  -1  -3 -12    5.91    3.06
  -1   3 -12    6.23    2.83
  -1   3 -12    6.79    2.58
  -1   3 -12    8.56    2.80
  -1  -6  -8  128.11   10.83
  -1  -6  -8  115.73    9.40
  -1   6  -8  113.91    9.78
  -1   6  -8   94.83   10.32
  -1  -6  -8  122.41   11.88
   1   6   8  102.79    9.90
   3   2 -12   37.50    6.36
   3  -2 -12   37.24    6.01
   3  -2 -12   35.54    5.31
   3   2 -12   36.50    5.62
   3   2 -12   32.64    5.76
   3  -2 -12   35.04    6.63
   3   2 -12   30.23    6.58
   3  -2 -12   33.35    5.67
   3  -6  -6   32.49    7.78
   3   6  -6   30.79    5.08
   3   6  -6   34.43    5.61
   3  -6  -6   31.96    6.33
  -5   4   0   27.56    7.57
  -5   4   0   36.92    8.54
   5  -4   0   32.17    6.00
   5   4   0   38.22    4.77
  -1   1 -13   15.16    3.96
   1   1  13   17.20    3.71
  -1   1 -13   16.33    3.85
  -1   1 -13   18.58    3.95
  -1  -1 -13   19.16    4.31
   5  -4  -3   65.97    8.36
  -5   4   3   77.09   14.87
   5   4  -3  103.87    7.14
   4  -5  -6   33.51    7.67
   4   5  -6   35.60    5.17
   4   5  -6   36.53    5.50
   4   1 -11   43.66    6.39
   4   1 -11   57.25    7.41
   4  -1 -11   51.16    6.34
   4  -1 -11   45.42    8.12
   4   1 -11   52.36    6.18
   4  -1 -11   49.01    6.30
   4   1 -11   41.09    7.82
   4  -1 -11   52.23    8.42
   0  -7  -6    2.84    3.16
   0  -7  -6    3.39    2.81
   0  -7  -6    3.43    1.91
  -4  -4  -6   28.80    5.18
  -4   4  -6   28.29    5.27
  -4   4  -6   20.04    5.88
  -4  -4  -6   21.37    3.99
   4  -4   6   19.52    4.95
   4   4   6   24.76    4.43
  -4  -4  -6   21.46    4.80
   2   6  -8  118.46   10.80
   2   6  -8  129.94   11.80
   2  -6  -8  118.01   11.19
   2  -6  -8  118.82   14.63
   2  -5 -10   21.35    5.80
   2  -5 -10   17.01    3.94
   2   5 -10   21.26    4.15
   2  -5 -10   20.18    4.62
   2   5 -10   17.83    3.88
   2  -5 -10   17.28    4.31
   3  -5   7   81.57    9.98
  -3  -5  -7  100.36    9.62
   3   5   7  100.08    9.18
  -3   5  -7   99.29    9.34
  -3  -5  -7  114.97   10.20
  -3  -5  -7   97.55   11.48
  -3   5  -7   89.38   10.56
   1  -7  -6   32.67    6.07
   1  -7  -6   23.88    5.71
  -1   5 -10   34.56    5.84
   1   5  10   34.03    5.79
  -1   5 -10   33.31    4.89
  -1  -5 -10   33.97    5.46
  -1   5 -10   39.76    6.55
  -1  -5 -10   35.18    5.77
  -1  -5 -10   36.57    6.83
   2  -2 -13    3.44    2.36
   2  -2 -13    4.21    3.35
   2   2 -13    3.68    2.43
   2  -2 -13    3.61    2.79
   2  -2 -13    3.74    2.96
   2   2 -13    2.87    2.16
   2   2 -13    2.50    2.77
   2   2 -13    3.92    2.45
  -5  -2  -5   14.88    3.84
  -5   2  -5   13.66    4.26
  -5   2  -5   12.76    4.87
   5  -2   5   12.58    3.36
  -5  -2  -5   14.05    3.48
  -5  -2  -5   13.36    3.80
  -4  -5  -4    1.49    2.40
   4   5   4    0.36    2.33
  -4   5  -4    0.19    3.03
  -4   5  -4    1.03    2.77
   5   4   1   12.28    3.17
  -5   4  -1    8.67    4.55
  -5   4  -1    9.12    4.21
   5  -4   1    8.35    3.00
  -2  -6  -7   49.76    8.13
  -2  -6  -7   54.01    6.64
  -2   6  -7   52.28    8.53
  -2   6  -7   46.61    6.78
  -2  -6  -7   49.33    8.00
   2   6   7   55.02    6.51
   5  -2  -8   28.68    7.85
   5  -2  -8   34.07    5.36
   5  -2  -8   38.36    8.07
   5  -2  -8   33.65    5.40
   4   0   9   41.73    4.97
  -4   0  -9   45.31    6.14
  -4   0  -9   38.84    6.72
  -4   0  -9   43.76    6.32
   5  -4  -4   30.28    5.88
  -5   4   4   39.69    9.37
   5   4  -4   45.51    4.85
   3   0  11   27.17    4.36
  -3   0 -11   29.05    5.11
  -3   0 -11   23.30    4.79
  -5   0  -6    5.63    2.83
   5   0   6    5.64    3.06
  -5   0  -6    5.46    2.64
  -5   0  -6    5.29    2.82
  -2  -5  -9   14.36    4.64
  -2  -5  -9   15.15    3.59
  -2   5  -9   13.55    3.35
   2   5   9   13.49    3.54
  -2  -5  -9   13.63    3.51
   2  -5   9   11.49    3.44
  -2   5  -9   15.72    4.86
   2  -7  -5   40.28    8.98
   2  -7  -5   38.67    6.61
   3  -5  -9   48.22    8.42
   3   5  -9   47.58    5.83
   3  -5  -9   35.09    6.57
   3  -5  -9   45.13    9.29
   3   5  -9   44.33    6.11
   3  -5  -9   37.20    6.03
   5   0  -9   10.17    3.10
   5   0  -9   10.48    3.75
   5   0  -9   10.59    3.60
   5   0  -9    9.13    3.92
   0  -6  -9   20.58    5.23
   0  -6  -9   18.18    3.97
   0  -6  -9   15.33    3.43
   1  -6  -9    5.61    3.70
   1  -6  -9    5.59    3.12
   1   6  -9    4.79    2.73
   1   6  -9    5.93    2.81
   1  -6  -9    4.06    2.03
   4   3 -10   13.54    3.79
   4  -3 -10   13.42    3.48
   4  -3 -10   11.35    4.46
   4  -3 -10   13.54    5.41
   4   3 -10   13.95    3.58
   4  -3 -10   12.14    3.61
  -5   3  -4    8.15    3.69
   5   3   4    6.83    2.70
  -5  -3  -4    7.40    2.76
   5  -3   4    5.69    2.48
  -5  -3  -4    9.62    3.06
  -5  -3  -4    5.95    2.96
   1  -4 -12   25.14    5.80
   1   4 -12   33.60    5.71
   1   4 -12   28.15    5.17
   1  -4 -12   31.81    5.09
   1   4 -12   30.23    5.30
  -1   4  12   27.25    5.29
   1   4 -12   24.21    4.88
   1  -4 -12   30.34    4.95
   2   2  12    0.44    2.29
  -2   2 -12   -0.54    2.69
  -2   2 -12    0.39    2.52
  -2  -2 -12    0.17    2.43
   2  -2  12    0.30    2.55
  -2   2 -12   -0.05    2.12
  -2  -2 -12   -0.04    2.14
  -2   7  -4   46.93    7.80
  -2   7  -4   44.01    9.18
  -2  -7  -4   63.36    7.53
   5   3  -7   24.81    4.72
   5  -3  -7   20.50    4.84
   5  -3  -7   19.08    4.92
   5  -3  -7   23.21    7.12
   5   3  -7   25.45    4.62
   5  -3  -7   18.28    5.99
   4  -1   9   18.83    3.80
  -4   1  -9   20.51    4.75
  -4  -1  -9   21.11    4.84
  -4  -1  -9   20.31    4.41
  -4  -1  -9   16.31    3.82
  -4   1  -9   18.31    4.40
  -3  -1 -11   27.11    4.36
  -3   1 -11   24.63    4.31
   3   1  11   26.12    4.81
  -3   1 -11   25.79    5.18
  -3  -1 -11   24.48    5.28
   3  -1  11   24.99    4.08
  -3  -1 -11   25.23    4.85
  -5  -1  -6   65.78    7.03
  -5  -1  -6   60.92    9.84
   5  -1   6   69.22    7.13
  -5  -1  -6   62.07    8.29
  -5   1  -6   60.04    7.50
   5   1   6   69.43    7.86
  -5   1  -6   72.23   10.36
  -5   1  -6   69.92    7.37
  -3   6  -5  166.93   18.74
  -3   6  -5  168.41   15.29
  -3  -6  -5  160.64   12.00
   3   6   5  165.05   12.26
   0  -4 -12   80.96    9.65
   0  -4 -12   83.54    8.36
   0   4 -12   83.52    8.96
   0   4 -12   82.91    8.09
   0   4 -12   70.05    7.73
   0   4  12   77.56    8.18
   0   4 -12   83.29    9.38
   0  -4 -12   91.77    9.23
  -6   0   2   66.65    6.37
  -6   0   2   68.78    6.94
  -6   0   2   68.19    6.78
   6   0  -2   65.08    5.65
  -1   0  14    9.21    3.35
   1   0 -14   10.05    3.18
   1   0 -14    8.65    3.27
  -6   0   1    3.81    3.21
   6   0  -1    3.14    2.72
  -6   0   1    5.96    3.24
  -6   0   1    5.21    2.97
   5  -1  -9   75.97    9.89
   5   1  -9   82.37    8.40
   5   1  -9   86.53   10.23
   5  -1  -9   63.48   10.94
   5  -1  -9   91.23    9.31
   5   1  -9   86.44    8.67
   5  -1  -9   83.69    8.52
  -3   3 -10   60.70    8.10
  -3  -3 -10   57.56    7.76
   3  -3  10   57.65    7.29
   3   3  10   62.11    6.60
  -3  -3 -10   62.31    6.97
  -3   3 -10   56.82    7.06
  -3   3 -10   59.02    7.72
  -3  -3 -10   61.01    7.34
   1  -2  13   16.11    3.70
  -1   2 -13   14.23    3.66
  -1   2 -13   16.03    3.43
   1   2  13   15.30    3.82
  -1  -2 -13   18.27    3.95
  -1   2 -13   18.97    4.74
  -1  -2 -13   15.05    3.27
  -1  -2 -13   15.03    3.87
  -1   3  13   54.79    7.09
   1  -3 -13   57.09    7.04
   1   3 -13   70.69    7.42
   1   3 -13   56.16    6.49
   1   3 -13   50.04    6.66
   1   3 -13   56.22    6.82
  -6   0   3    6.37    2.99
   6   0  -3    8.82    3.10
  -6   0   3   10.06    3.88
  -6   0   3    8.23    3.92
  -1  -7  -6   10.01    3.10
  -1  -7  -6    9.31    3.16
  -1  -7  -6    8.98    3.74
   4   2 -11  138.14   10.69
   4  -2 -11  128.95   10.90
   4   2 -11  124.84    9.63
   4  -2 -11  134.59   13.64
   4  -2 -11  124.44   11.29
   4  -2 -11  115.03   12.39
   4   2 -11  114.54   10.01
  -3   4  -9    4.92    2.89
   3   4   9    5.66    2.52
  -3   4  -9    5.07    2.89
  -3  -4  -9    4.96    2.56
  -3  -4  -9    4.62    2.51
  -3  -4  -9    4.47    2.26
   3  -4   9    4.49    2.37
  -5   4  -2   39.82    8.06
   5  -4   2   34.03    5.60
   5   4   2   45.99    5.27
  -5  -4  -2   39.26    5.57
  -5   4  -2   40.71    7.82
   3   0 -13    0.89    2.52
   3   0 -13    1.13    2.69
   3   0 -13    0.29    2.61
   3   0 -13    1.81    2.37
   5  -4  -5  114.81   12.07
   5  -4  -5  109.65   15.38
   5   4  -5  164.92    9.55
   5  -4  -5  129.26   12.37
   3   6  -7   36.12    5.87
   3  -6  -7   36.14    8.25
   3   6  -7   32.53    5.53
   3  -6  -7   33.02    8.18
  -4  -6   1   11.75    3.34
  -4   6   1   13.55    6.56
  -4   6   1    5.28    4.54
   4   6  -1   11.35    3.47
  -6   0   0   17.77    4.25
   6   0   0   17.46    3.52
  -6   0   0   16.08    4.25
  -6   0   0   17.28    3.57
   4   4  -9   84.92    8.67
   4  -4  -9   70.11    8.82
   4  -4  -9   78.71   10.75
   4   4  -9   79.69    7.85
   4  -4  -9   68.27   11.37
   4  -4  -9   67.85    8.69
  -6  -1   2    2.26    2.44
   6  -1  -2    2.25    2.87
  -6   1   2    1.44    3.03
  -6   1   2    2.49    2.72
  -6  -1   2    2.12    2.66
   6   1  -2    0.69    2.94
  -6  -1   2    2.58    2.78
  -6   1   2    2.73    3.62
   0   0 -14    0.36    2.45
   0   0 -14   -0.12    2.17
   0   0 -14    0.56    2.26
   0   0  14    1.09    2.59
   4   5  -7   39.46    5.77
   4  -5  -7   40.32    8.58
   4   5  -7   42.47    6.79
  -4  -6   2   52.35    6.43
  -4   6   2   33.28   10.41
  -4   6   2   35.79   10.33
   4   6  -2   56.55    6.50
   1   1 -14   14.82    3.27
   1   1 -14   11.80    2.95
   1  -1 -14   16.19    3.88
  -1  -1  14   14.72    3.63
   1   1 -14   12.21    3.32
   1  -1 -14   15.51    3.66
   1  -1 -14   16.10    3.80
  -1   1  14   11.95    3.76
   1  -5 -11   33.54    5.67
   1  -5 -11   29.00    4.83
   1   5 -11   30.50    5.23
   1  -5 -11   28.40    6.20
   1   5 -11   31.38    5.15
  -6  -1   1   44.34    5.26
   6   1  -1   44.91    4.81
  -6   1   1   47.42    5.95
  -6  -1   1   47.82    5.66
  -6   1   1   40.62    5.74
   6  -1  -1   41.56    4.97
  -6  -1   1   41.53    5.27
  -6   1   1   43.77    5.82
   0  -3  13   57.68    7.16
   0  -3 -13   55.69    6.70
   0   3  13   58.58    8.47
   0   3 -13   57.67    6.64
   0   3 -13   63.62    7.21
   0  -3 -13   57.62    6.94
   0   3 -13   47.07    6.75
   0  -3 -13   60.79    7.58
   4   6   0  181.06   11.31
  -4   6   0  150.67   22.03
  -4   6   0  165.47   19.12
  -4  -6   0  148.17    9.59
   4  -3   8   88.59    9.34
  -4  -3  -8   86.20    8.92
  -4  -3  -8   84.89    7.30
  -4   3  -8   86.27    9.46
  -4   3  -8   83.47    9.39
   4   3   8   94.14    8.15
  -4   3  -8   83.16    9.88
   0  -5 -11   95.41    9.35
   0  -5 -11   95.58   10.00
   0   5 -11   69.42    7.80
   0   5  11   77.78    8.02
   0   5 -11   85.05    8.69
   0  -5 -11   87.90    8.89
   0   5 -11  109.02    9.86
   0   5 -11   87.19    7.67
   6  -1  -3   79.46    8.52
  -6   1   3   81.91    9.97
  -6  -1   3   80.08    8.01
  -6  -1   3   98.03    8.16
   6   1  -3   88.02    7.13
  -6   1   3   93.51    8.85
  -6   1   3   97.01   10.67
  -6  -1   3   91.76    7.64
  -3  -7   1   83.35   10.38
   3   7  -1   96.25   10.56
  -3   7   1  101.39   19.16
  -3   7   1  104.20   16.53
  -6   0   4  153.93   10.49
  -6   0   4  136.56   10.48
  -6   0   4  138.09   10.54
   6   0  -4  159.13    9.52
   3   1 -13   39.44    5.53
   3  -1 -13   42.97    6.64
   3  -1 -13   41.19    6.04
   3  -1 -13   43.55    7.47
   3   1 -13   40.11    7.20
   3  -1 -13   48.05    6.20
  -3   7   0   82.51   16.36
  -3  -7   0   86.43   10.18
  -3   7   0   88.89   15.13
   3   7   0  101.68   10.19
   0  -7  -7   34.65    7.26
   0  -7  -7   35.43    6.07
  -6  -1   0   18.03    3.53
  -6   1   0   19.85    4.02
  -6  -1   0   20.77    3.93
   6  -1   0   19.42    3.67
   6   1   0   20.96    3.96
  -6   1   0   16.31    3.86
  -6  -1   0   17.44    3.58
  -6   1   0   18.36    4.28
  -4  -6   3   29.28    6.58
  -4   6   3   20.79    8.77
  -4   6   3   33.35   10.75
   4   6  -3   30.42    5.32
  -3  -7   2    9.15    3.73
  -3   7   2    9.78    5.15
  -3   7   2   11.95    7.16
   3   7  -2   12.76    3.83
   0   1 -14   75.76    7.37
   0  -1 -14   77.29    7.85
   0   1 -14   67.27    7.71
   0   1  14   73.95    7.39
   0   1 -14   77.37    7.18
   0  -1 -14   83.26    7.43
   3   3 -12   11.51    3.22
   3  -3 -12   11.65    3.62
   3  -3 -12   11.27    4.19
   3   3 -12   12.99    3.50
   3  -3 -12   13.83    3.93
   3  -3 -12   11.44    3.46
   3   4 -11   33.54    5.02
   3   4 -11   29.45    4.75
   3  -4 -11   25.17    4.75
   3  -4 -11   25.82    4.90
   3  -4 -11   25.14    6.11
   1  -7  -7   30.84    6.43
   1  -7  -7   34.65    6.91
   4   5   5   64.62    7.59
  -4  -5  -5   75.85    8.74
  -4   5  -5   71.54    8.45
  -4   5  -5   59.67   11.05
  -4   6  -1    3.09    4.16
   4   6   1    0.96    2.47
  -4   6  -1    1.14    3.85
  -4  -6  -1    0.48    2.35
   2  -7  -6   79.54   10.87
   2  -7  -6   87.89   11.13
  -6   0  -1    3.91    2.92
  -6   0  -1    3.03    2.62
  -6   0  -1    3.34    2.63
   6   0   1    3.80    2.68
   2  -4 -12   89.13    9.35
   2   4 -12   85.43    8.25
   2  -4 -12   80.20    8.80
   2   4 -12   82.89    8.04
  -6   1   4    2.16    3.88
  -6  -1   4    1.71    2.79
  -6   1   4    2.39    3.39
  -6  -1   4    1.64    2.82
   6   1  -4    1.65    2.73
   6  -1  -4    1.57    2.57
  -6  -1   4    2.25    2.73
  -6   1   4    3.01    3.72
  -4  -4  -7   41.83    6.90
  -4  -4  -7   45.10    6.02
  -4   4  -7   44.22    7.76
  -4   4  -7   56.41    7.30
  -4  -4  -7   57.11    7.34
   4  -4   7   36.48    5.63
   4   4   7   51.04    6.79
   4  -2   9  193.78   12.40
   4   2   9  196.29   11.54
  -4   2  -9  206.89   12.90
  -4  -2  -9  211.27   12.67
  -4  -2  -9  191.87   14.16
  -4  -2  -9  216.38   15.13
  -4   2  -9  178.87   12.85
  -3   7  -1   22.35    7.83
   3   7   1   35.65    6.14
  -3   7  -1   32.70    9.46
  -3  -7  -1   34.56    6.14
   2   0 -14    4.15    2.58
   2   0 -14    3.40    2.74
   2   0 -14    4.54    2.75
   2   0 -14    4.58    2.75
  -3  -2 -11   36.37    5.66
  -3   2 -11   34.00    5.51
  -3   2 -11   32.12    4.94
  -3   2 -11   34.61    5.52
  -3  -2 -11   39.64    5.28
   3  -2  11   34.93    5.59
  -3  -2 -11   33.06    5.78
   3   2  11   36.15    4.68
  -1   6  -9    6.43    2.90
  -1  -6  -9    8.66    2.97
  -1  -6  -9    7.17    2.65
  -1  -6  -9    9.07    4.19
  -5   2  -6    5.47    2.94
   5  -2   6    6.59    2.73
  -5  -2  -6    6.68    2.77
  -5   2  -6    5.22    2.74
  -5  -2  -6    7.33    3.27
  -5  -2  -6    5.59    3.14
   2   6  -9   35.99    5.72
   2  -6  -9   32.34    6.04
   2   6  -9   33.96    5.69
   2  -6  -9   31.09    7.65
  -2  -7  -5   52.51    6.94
  -2   7  -5   57.63    9.92
   3   7  -3   23.18    5.92
  -3  -7   3   22.42    5.57
  -3   7   3   22.48    8.04
  -3   7   3   13.58    6.70
  -5   4  -3    5.44    3.78
   5  -4   3    3.67    2.22
  -5   4  -3    5.63    3.27
   5   4   3    6.14    2.92
  -5  -4  -3    3.87    2.12
   5  -2  -9    0.27    2.27
   5  -2  -9    0.50    3.06
   5  -2  -9   -0.53    3.54
   5  -2  -9    0.04    2.70
   4   0 -12   45.06    6.29
   4   0 -12   37.16    7.33
   4   0 -12   45.01    6.02
   4   0 -12   38.26    6.34
   2  -3 -13   20.94    4.50
   2   3 -13   18.11    3.65
   2  -3 -13   21.98    4.24
   2   3 -13   21.30    4.17
   2  -3 -13   19.71    4.62
   2   3 -13   25.73    4.66
   2   3 -13   16.35    3.78
   5  -3   5   99.26    8.89
  -5  -3  -5  105.03    9.73
  -5   3  -5  115.25   11.82
   5   3   5  120.72   10.03
  -5  -3  -5  108.45    9.29
  -5  -3  -5   97.36   10.43
  -3  -5  -8    7.35    3.00
   3   5   8    6.57    2.62
   3  -5   8    4.59    2.55
  -3   5  -8    7.98    2.94
  -3  -5  -8    7.27    2.88
  -3   5  -8    7.00    3.39
  -3  -5  -8    9.37    3.06
   5  -4  -6    6.41    3.78
   5  -4  -6    4.79    4.29
   5   4  -6    7.76    3.29
   5   4  -6    8.43    3.60
  -6   0   5   32.30    5.00
   6   0  -5   28.11    4.36
  -6   0   5   32.17    5.28
  -6   0   5   32.33    5.75
  -6   1  -1   69.76    7.68
   6  -1   1   68.85    5.79
  -6  -1  -1   68.52    6.85
  -6  -1  -1   68.07    6.31
  -6  -1  -1   68.95    6.64
   6   1   1   77.43    6.25
  -6   1  -1   74.37    8.36
  -6   1  -1   63.37    7.97
  -4  -6   4   69.11    9.89
  -4   6   4   66.00   14.14
   4   6  -4   73.74    8.83
  -4   6   4   58.94   13.73
   5  -3  -8   24.38    6.79
   5  -3  -8   27.23    5.46
   5   3  -8   29.06    5.30
   5  -3  -8   25.41    5.42
   5  -3  -8   28.60    5.56
   5   3  -8   26.00    5.05
  -2   4 -11    9.47    2.93
   2   4  11    8.50    3.18
   2  -4  11    6.99    2.87
  -2   4 -11    7.27    3.06
  -2  -4 -11    8.42    3.16
  -2  -4 -11    9.21    2.72
  -2   4 -11    8.41    3.09
  -2  -4 -11    9.89    3.46
   2  -1 -14    5.80    3.05
   2  -1 -14    6.57    2.89
   2   1 -14    5.91    2.94
   2  -1 -14    6.29    2.68
   2   1 -14    5.54    2.96
   2  -1 -14    5.77    2.59
   2   1 -14    5.64    2.57
   2   1 -14    4.95    2.67
  -2   6  -8    7.13    3.51
  -2  -6  -8    8.32    3.60
   2   6   8    7.23    2.90
  -2  -6  -8    7.37    2.82
  -2   6  -8    5.50    2.36
  -2  -6  -8    6.46    2.61
   6   2  -2  132.16    8.07
  -6   2   2   88.62   11.61
  -6   2   2  111.17   10.40
  -6  -2   2  128.06    8.84
  -6  -2   2  126.70    9.91
   6  -2  -2  126.44    9.66
  -6  -2   2  127.03    8.69
  -1   4 -12    4.30    2.58
   1  -4  12    3.39    3.29
   1   4  12    3.34    2.50
  -1  -4 -12    4.04    2.66
  -1   4 -12    4.35    2.53
  -1  -4 -12    4.04    2.27
  -1  -4 -12    4.94    2.98
  -1   4 -12    3.94    2.91
  -3   6  -6    5.39    3.15
   3   6   6    6.50    2.68
  -3   6  -6    6.27    2.96
  -3  -6  -6    7.21    2.72
  -5   0  -7   54.94    7.08
   5   0   7   51.93    6.55
  -5   0  -7   48.47    7.16
  -5   0  -7   51.91    6.46
   1  -2 -14   37.22    5.23
   1   2 -14   34.86    5.77
  -1   2  14   33.69    6.40
   1   2 -14   38.31    5.53
   1  -2 -14   35.43    6.21
   1   2 -14   38.53    5.21
   1  -2 -14   39.67    5.40
   1   2 -14   39.18    5.54
  -6  -2   1   10.64    3.21
  -6  -2   1   15.32    3.79
  -6   2   1    9.52    4.07
   6   2  -1   10.73    3.11
  -6   2   1   11.85    3.90
   6  -2  -1   12.38    3.37
  -6  -2   1   12.64    3.24
   4   6   2   13.79    3.37
  -4   6  -2   17.67    6.03
  -4   6  -2   10.36    5.48
  -4  -6  -2   14.26    3.78
  -2   0 -13    9.85    3.26
  -2   0 -13    7.76    3.14
  -2   0 -13    9.37    2.96
  -3   7  -2   20.27    7.00
   3   7   2   20.46    4.29
  -3   7  -2   18.10    6.46
  -3  -7  -2   18.69    4.26
   4   1 -12   29.99    5.97
   4  -1 -12   37.54    5.34
   4   1 -12   38.94    5.69
   4   1 -12   35.20    6.63
   4  -1 -12   31.07    6.04
   4  -1 -12   36.87    5.73
   4   1 -12   38.05    5.66
   4  -1 -12   26.96    6.34
   2  -5 -11   21.39    4.35
   2   5 -11   28.96    4.92
   2  -5 -11   24.04    5.81
   2  -5 -11   19.18    4.28
   2   5 -11   25.63    5.10
   2  -5 -11   24.65    6.63
  -6   1   5   72.30    7.99
  -6  -1   5   63.54    6.43
  -6   1   5   56.71    8.12
  -6  -1   5   71.08    7.86
   6   1  -5   68.11    6.69
   6  -1  -5   64.39    6.94
  -6  -1   5   71.35    7.65
  -6   1   5   73.08    8.49
   6   2  -3  121.91    7.62
   6  -2  -3  118.93    9.96
  -6  -2   3  130.01    8.89
  -6   2   3  113.29   11.67
  -6  -2   3  130.42    8.61
  -6  -2   3  125.84    9.21
  -6   2   3   96.91   15.11
   5   0 -10    3.06    2.67
   5   0 -10    3.68    3.13
   5   0 -10    1.61    2.85
   5   0 -10    2.19    2.73
  -6   0  -2  174.62   12.93
  -6   0  -2  164.09   10.03
  -6   0  -2  148.34   10.94
   6   0   2  165.42   10.06
  -2  -3 -12    0.18    2.29
   2   3  12    0.26    2.57
  -2   3 -12    0.28    2.37
  -2   3 -12    0.24    2.05
  -2   3 -12   -0.29    2.42
  -2  -3 -12    0.03    2.06
  -2  -3 -12    0.07    2.92
   2  -3  12    0.32    2.91
   3   2 -13    5.41    3.37
   3   2 -13    6.03    2.76
   3   2 -13    6.45    2.83
   3  -2 -13    6.36    3.09
   3  -2 -13    7.22    3.38
   3  -2 -13    7.84    2.87
   3   2 -13    8.42    2.89
   3  -2 -13    6.99    3.08
   3   7  -4    7.85    3.15
  -3  -7   4   10.75    4.11
   3  -7  -4   10.14    4.40
   3  -5 -10   57.65    7.77
   3  -5 -10   50.60    7.68
   3   5 -10   53.93    7.14
   3  -5 -10   46.17    6.93
   3   5 -10   63.02    7.75
   6   2   0   23.72    3.74
  -6   2   0   19.06    4.94
  -6   2   0   22.30    5.63
   6  -2   0   27.65    4.08
  -6  -2   0   24.12    3.92
  -6  -2   0   23.20    3.83
  -6  -2   0   23.93    4.02
  -1  -7  -7   46.40    7.24
  -1  -7  -7   47.23    8.45
  -1  -7  -7   45.02    5.80
   0  -2 -14   51.23    6.38
   0   2 -14   50.17    6.67
   0  -2  14   42.52    5.66
   0   2 -14   37.37    5.81
   0   2  14   47.18    7.30
   0   2 -14   42.55    5.94
  -5   1  -7   34.92    5.83
  -5   1  -7   35.18    6.40
  -5  -1  -7   36.44    5.95
  -5  -1  -7   30.71    5.23
  -5   1  -7   32.40    6.26
   5  -1   7   33.61    5.42
  -5  -1  -7   36.16    4.95
   5   1   7   34.83    5.19
   4  -5  -8   49.93    8.81
   4   5  -8   54.80    7.52
   4   5  -8   54.07    7.23
   4  -5  -8   38.15    9.30
   3  -6  -8   70.27   10.91
   3   6  -8   71.61    8.23
   3  -6  -8   64.36   10.06
   3   6  -8   73.52    8.18
  -2   1 -13    4.62    3.41
  -2  -1 -13    4.69    3.15
  -2  -1 -13    3.96    2.34
   2   1  13    4.22    3.06
  -2  -1 -13    4.88    2.59
   2  -1  13    4.62    2.75
  -2   1 -13    5.35    2.69
  -2   1 -13    5.42    2.53
  -1   5 -11   23.89    4.60
  -1  -5 -11   26.23    5.01
   1   5  11   23.41    4.41
  -1   5 -11   21.00    4.44
  -1  -5 -11   24.02    5.32
  -1   5 -11   24.46    5.27
  -1  -5 -11   26.27    4.73
   1  -6 -10   32.99    5.60
   1   6 -10   39.63    6.13
   1   6 -10   38.33    6.07
   1  -6 -10   38.23    7.39
   1  -6 -10   44.12    7.09
   1  -3  13   20.73    4.24
  -1   3 -13   20.57    4.33
  -1  -3 -13   26.73    4.47
  -1   3 -13   26.48    4.95
  -1   3 -13   21.91    3.68
  -1  -3 -13   24.99    4.16
   1   3  13   22.34    4.37
  -1  -3 -13   24.53    4.89
   1   0  14   12.63    3.57
  -1   0 -14   11.82    3.46
  -1   0 -14   12.86    3.23
  -1   0 -14   15.42    3.88
   2  -5  10    0.72    2.28
   2   5  10    0.90    2.70
  -2  -5 -10    0.22    1.96
  -2   5 -10    0.64    2.45
  -2  -5 -10    0.75    2.27
  -2   5 -10    0.39    2.91
  -2  -5 -10    0.98    2.76
   4   3 -11    7.72    3.43
   4  -3 -11    8.36    3.23
   4  -3 -11    7.96    4.46
   4  -3 -11    6.89    2.93
   4   3 -11    8.43    2.93
   4  -3 -11    8.06    3.68
   5   1 -10   59.59    8.93
   5  -1 -10   54.10    7.74
   5   1 -10   65.86    7.83
   5  -1 -10   63.18    7.46
   5  -1 -10   52.31    8.57
   5   1 -10   62.49    7.40
   5  -1 -10   58.65    7.17
   0  -6 -10   27.66    6.68
   0  -6 -10   27.53    5.53
   0  -6 -10   22.70    3.86
  -6   1  -2    0.76    2.61
  -6   1  -2   -0.09    2.67
   6  -1   2    0.82    2.75
  -6   1  -2   -0.58    2.51
  -6  -1  -2   -0.01    2.48
  -6  -1  -2    1.14    2.61
  -6  -1  -2    0.17    2.68
   6   1   2   -0.47    2.49
  -6   2   4   73.76   11.12
   6  -2  -4   73.87    8.78
  -6   2   4   91.38    9.39
  -6  -2   4   85.69    8.45
  -6  -2   4   99.49    8.48
  -6  -2   4   95.06    7.54
   6   2  -4   87.00    6.65
  -4  -6   5   36.29    6.60
   4  -6  -5   35.72    8.79
   4  -6  -5   35.55    9.26
   4   6  -5   43.55    6.28
  -5   5   1    6.76    4.80
  -5  -5   1    6.79    2.89
   5   5  -1    8.91    3.12
  -5   5   1    6.19    4.55
  -4   0 -10   24.12    5.62
  -4   0 -10   27.19    5.40
  -4   0 -10   28.19    4.40
   4   0  10   27.59    4.58
  -5  -5   2   59.91    7.69
  -5   5   2   47.57   11.15
   5   5  -2   62.79    6.82
  -5   5   2   57.54   12.21
  -6   0   6   16.98    4.41
  -6   0   6   15.47    4.73
   6   0  -6   13.93    3.57
  -6   0   6   13.55    4.05
   0  -8  -4   48.31    8.01
   2  -7  -7    4.55    3.42
   2  -7  -7    3.81    4.12
  -5  -5   0  182.37    9.93
  -5   5   0  158.65   17.03
  -5   5   0  154.06   17.19
   5   5   0  171.73    9.46
   4   4 -10   13.57    4.09
   4  -4 -10    9.13    3.73
   4  -4 -10    7.77    3.90
   4  -4 -10    9.94    3.48
   4   4 -10   10.49    3.32
   4  -4 -10   11.71    4.24
   5   4   4   14.93    3.17
  -5  -4  -4   13.42    3.33
  -5   4  -4   14.39    4.95
   5  -4   4   10.18    2.87
  -5   4  -4   12.22    5.17
  -5  -5   3   31.27    4.73
  -5   5   3   20.67    8.21
   5   5  -3   27.75    4.34
  -5   5   3   24.52    7.75
   6   2   1   11.67    3.33
   6  -2   1   11.63    3.27
  -6  -2  -1   11.05    3.56
  -6   2  -1   10.11    3.57
  -6  -2  -1   10.54    3.05
  -6   2  -1   10.24    4.59
  -6  -2  -1   10.56    3.00
  -1   1 -14   31.43    5.74
  -1   1 -14   31.93    4.76
  -1   1 -14   34.76    5.22
  -1  -1 -14   32.52    5.67
   1   1  14   31.83    5.87
  -3  -7  -3   16.39    3.95
   3   7   3   16.90    4.18
  -3   7  -3   16.60    5.42
  -3   7  -3   11.36    5.03
   4   6   3   34.32    5.94
  -4  -6  -3   35.65    6.26
  -4   6  -3   28.03    7.40
  -4   6  -3   23.91    7.42
  -4  -5  -6    0.58    2.36
  -4   5  -6   -0.43    2.48
   4   5   6   -0.10    2.18
  -4   5  -6   -0.71    2.99
   5  -4  -7   37.10    9.59
   5   4  -7   44.74    5.62
   5   4  -7   48.99    6.68
   5  -4  -7   44.41    8.90
  -4  -1 -10    4.90    2.58
  -4   1 -10    4.63    2.89
  -4  -1 -10    4.95    2.92
   4  -1  10    5.99    2.62
  -4  -1 -10    6.18    2.56
  -4   1 -10    5.93    3.01
   0  -7  -8   41.36    7.71
   0  -7  -8   39.95    8.27
   2   2 -14    4.78    2.61
   2   2 -14    2.80    2.49
   2  -2 -14    4.99    2.47
   2  -2 -14    4.46    3.06
   2  -2 -14    5.92    3.03
   2   2 -14    4.85    2.98
   2   2 -14    4.21    2.44
   2  -2 -14    3.95    2.58
  -6  -1   6   28.11    4.98
  -6   1   6   32.09    5.53
   6  -1  -6   28.65    6.12
   6   1  -6   32.93    4.79
  -6   1   6   26.96    6.75
  -6  -1   6   34.42    6.03
  -6  -1   6   28.46    5.76
  -6   1   6   39.52    6.35
   3   0  12    0.45    2.40
  -3   0 -12    0.20    2.60
  -3   0 -12   -0.67    2.17
   1  -7  -8    2.83    3.04
   1  -7  -8    2.93    3.23
  -2  -7  -6   61.74    7.55
  -2   7  -6   57.77   10.24
   1  -8  -4   50.56    8.14
   1  -8  -4   58.56    9.13
  -3  -7   5   48.99    8.14
   3  -7  -5   55.22   10.77
   3   7  -5   62.34    7.95
   3  -7  -5   52.92   11.36
   4  -2 -12   22.27    4.34
   4  -2 -12   20.28    5.05
   4  -2 -12   26.01    4.81
   4  -2 -12   21.20    5.39
   4   2 -12   24.79    4.75
   4   2 -12   23.34    4.13
   4   2 -12   20.75    4.97
   3  -4  10    3.23    2.69
  -3  -4 -10    4.20    2.87
   3   4  10    4.72    2.50
  -3  -4 -10    4.22    2.39
  -3   4 -10    4.17    2.46
  -3  -4 -10    3.25    2.63
  -3   4 -10    4.32    3.24
  -6   0  -3    2.14    2.67
  -6   0  -3    3.53    2.73
  -6   0  -3    1.36    2.94
   6   0   3    2.47    2.53
   6  -2  -5    9.02    3.42
  -6  -2   5   11.32    3.72
  -6   2   5   11.24    4.13
  -6  -2   5   10.41    3.40
   6   2  -5   12.11    3.46
  -6   2   5   10.86    4.50
   1   4 -13   46.71    7.01
   1   4 -13   47.79    6.49
   1   4 -13   53.73    6.88
  -1   4  13   54.26    9.27
   1  -4 -13   52.41    6.40
   1  -4 -13   51.93    8.00
   1   4 -13   64.96    7.49
   1  -4 -13   56.66    6.47
  -5   5  -1  100.75   12.22
  -5  -5  -1  100.63    7.84
   5   5   1   93.12    6.73
  -5   5  -1   74.18   11.77
   4  -3   9   29.13    4.80
  -4   3  -9   34.31    5.37
  -4   3  -9   28.67    5.21
  -4  -3  -9   29.36    5.62
  -4  -3  -9   34.15    4.88
   4   3   9   31.31    4.18
  -4   3  -9   28.01    5.69
   5   5  -4   59.08    5.65
  -5   5   4   39.38   10.58
  -5  -5   4   59.56    6.12
  -5   5   4   43.70   10.63
   3   3  11   36.11    5.00
  -3  -3 -11   35.59    5.07
  -3  -3 -11   34.39    5.43
   3  -3  11   32.74    5.86
  -3   3 -11   33.27    5.11
  -3   3 -11   36.09    5.51
  -3  -3 -11   30.00    5.34
  -3   3 -11   29.28    5.62
  -2  -8   1    1.96    2.28
  -2   8   1    2.65    4.21
  -5  -3  -6   18.44    4.36
  -5   3  -6   24.91    4.74
   5  -3   6   17.35    4.16
   5   3   6   20.74    4.21
  -5  -3  -6   21.02    3.94
  -5  -3  -6   23.70    4.73
  -3  -1 -12   11.95    3.81
  -3   1 -12    8.49    3.23
   3  -1  12   10.61    3.02
  -3  -1 -12   10.56    2.87
  -3   1 -12   11.00    2.92
  -3   1 -12   10.55    3.20
   3   1  12    9.76    3.40
  -3  -1 -12    8.86    2.74
  -2  -8   0   76.15    9.03
   5  -2   7   14.84    3.35
  -5  -2  -7   19.58    4.71
  -5  -2  -7   16.06    3.58
  -5   2  -7   16.14    4.36
  -5   2  -7   14.60    4.63
   0   4 -13   38.07    5.50
   0  -4 -13   39.40    6.91
   0   4  13   38.12    7.15
   0   4 -13   36.28    6.08
   0  -4 -13   38.79    5.23
   0   4 -13   44.10    6.48
   0  -4 -13   40.18    5.67
   0   4 -13   34.62    5.77
  -2  -2 -13   50.05    6.19
  -2  -2 -13   42.20    6.30
  -2   2 -13   42.57    6.03
   2  -2  13   44.85    6.52
  -2   2 -13   47.35    6.14
  -2   2 -13   47.16    6.77
   2   2  13   45.38    5.78
   5   3  -9   42.33    6.46
   5  -3  -9   33.97    7.76
   5  -3  -9   40.83    8.11
   5  -3  -9   36.22    5.54
   5   3  -9   41.61    6.11
   5  -3  -9   38.10    6.22
  -6   1  -3    1.76    2.82
  -6  -1  -3    1.45    3.00
  -6  -1  -3    2.99    2.37
  -6   1  -3    2.44    3.16
   6  -1   3    2.46    2.65
   6   1   3    2.17    2.47
  -6   1  -3    2.75    2.73
   4  -4   8    7.46    2.77
  -4   4  -8    8.56    3.90
  -4  -4  -8    8.40    3.57
  -4  -4  -8    7.48    3.11
  -4   4  -8    8.23    2.88
  -4  -4  -8    7.23    2.71
   4   4   8    6.52    3.47
   1   5 -12   23.64    4.58
   1  -5 -12   20.66    4.47
   1   5 -12   19.77    4.25
   1  -5 -12   19.84    5.19
   1  -5 -12   20.14    4.24
  -2   8   2   20.96    8.31
  -2  -8   2   24.58    5.31
   4  -6  -6   68.08   12.39
   4   6  -6   78.75    8.11
   4  -6  -6   74.38   11.85
   4   6  -6   84.13    8.43
   5  -2 -10   11.54    4.61
   5  -2 -10   10.33    3.42
   5  -2 -10   10.80    3.01
   5  -2 -10    7.86    4.88
  -6   2  -2   42.94    6.70
  -6  -2  -2   45.45    5.45
   6   2   2   46.96    5.33
  -6   2  -2   45.10    7.36
  -6  -2  -2   41.69    5.75
  -6  -2  -2   47.32    5.89
  -2  -8  -1   11.61    3.35
   2   6 -10    8.40    3.53
   2  -6 -10    8.05    3.39
   2   6 -10    8.87    3.07
   2  -6 -10    7.40    4.06
  -3  -6  -7   11.65    3.24
  -3   6  -7   10.00    3.03
  -3   6  -7   10.32    3.79
   3   6   7   12.26    3.20
   0  -5 -12    3.80    2.50
   0  -5 -12    4.59    3.09
   0  -5 -12    4.96    2.42
   0   5 -12    4.85    2.85
   0   5  12    4.76    3.08
   0   5 -12    5.04    3.17
   0   5 -12    4.19    2.82
   6  -3  -2   65.14    8.90
   6   3  -2   70.69    6.34
  -6   3   2   56.05    9.99
  -6  -3   2   82.21    6.94
  -6   3   2   72.59    9.74
   6   0  -7   36.42    6.06
   6   0  -7   36.26    5.62
   6   0  -7   33.14    5.28
   0  -8  -5   19.31    5.55
   3   0 -14   37.62    6.23
   3   0 -14   34.51    6.85
   3   0 -14   36.55    5.99
   3   0 -14   32.24    5.07
   1   3 -14    6.34    3.06
   1   3 -14    5.88    2.74
   1  -3 -14    6.09    2.51
  -1   3  14    5.56    3.45
   1   3 -14    4.40    2.58
   1   3 -14    5.58    2.80
   3  -4 -12   14.56    4.84
   3  -4 -12   16.06    4.13
   3   4 -12   18.30    3.91
   3   4 -12   18.82    4.21
   3  -4 -12   14.55    3.94
   6   3  -1   10.98    3.16
  -6  -3   1   11.67    3.23
   6  -3  -1   10.14    2.87
  -6   3   1   12.48    4.25
  -1  -6 -10    7.56    3.04
  -1   6 -10    7.17    3.23
  -1  -6 -10   76.59   42.58
  -3   7  -4   10.20    5.27
   3   7   4   11.59    3.63
  -3   7  -4    8.43    3.31
   1   0 -15    1.97    2.58
  -1   0  15    2.39    2.78
   1   0 -15    3.08    2.58
   6   3  -3    3.56    2.93
   6  -3  -3    3.99    2.66
  -6   3   3    4.88    4.17
  -6   3   3    3.99    3.84
  -6  -3   3    4.18    2.97
  -1   2 -14   15.31    3.45
   1   2  14   13.26    3.48
  -1  -2 -14   13.22    3.71
  -1   2 -14   12.89    3.54
   1  -2  14   13.58    3.62
  -1  -2 -14   16.22    4.06
  -1  -2 -14   16.07    3.95
  -1   2 -14   14.50    3.94
  -3  -5  -9    3.06    2.48
  -3  -5  -9    2.59    2.12
  -3   5  -9    2.14    2.23
  -3  -5  -9    2.18    2.47
  -3   5  -9    2.88    3.32
   3  -5   9    2.58    2.57
   3   5   9    3.06    2.59
   5   5   2   51.87    5.87
  -5   5  -2   44.44    9.92
  -5   5  -2   46.45    9.39
  -5  -5  -2   54.89    6.51
  -4  -6  -4   40.00    6.91
  -4   6  -4   36.00    9.31
   4   6   4   39.56    6.10
  -4   6  -4   33.27    7.34
  -2  -8   3   30.39    5.67
  -2   8   3   29.53   10.19
  -4   2 -10    3.54    2.52
   4  -2  10    5.44    2.58
  -4   2 -10    6.05    2.80
  -4  -2 -10    6.09    2.82
   4   2  10    5.35    2.67
  -4  -2 -10    4.66    2.67
  -4  -2 -10    4.24    3.25
   3  -3 -13    4.65    2.97
   3  -3 -13    5.00    2.89
   3   3 -13    4.77    3.24
   3  -3 -13    3.89    3.10
   3  -3 -13    4.87    2.52
   3   3 -13    6.77    2.92
  -5   5   5   52.61   12.38
  -5   5   5   43.13   11.75
  -5  -5   5   61.16    7.03
   5   5  -5   64.23    6.47
   1  -8  -5   16.11    4.55
   1  -8  -5   18.21    5.54
  -6  -2   6   30.06    5.50
  -6   2   6   30.89    7.09
  -6  -2   6   33.88    6.03
   6  -2  -6   27.86    5.05
  -6   2   6   40.98    7.39
   6   2  -6   31.78    5.10
  -2  -6  -9   12.15    3.30
  -2  -6  -9   14.96    3.94
  -2   6  -9   13.30    3.43
  -2   6  -9   11.89    3.95
  -2  -6  -9   12.89    4.44
   2   6   9   12.93    3.58
  -6  -3   0   35.96    4.40
   6  -3   0   31.78    4.49
  -6   3   0   33.37    7.03
   6   3   0   31.68    4.22
   4   5  -9   35.22    5.82
   4   5  -9   30.61    5.16
   4  -5  -9   30.24    7.57
   4  -5  -9   34.96    7.03
  -5   0  -8    6.43    2.69
   5   0   8    4.96    2.76
  -5   0  -8    5.34    3.14
  -5   0  -8    3.88    3.31
  -6  -1   7   10.99    4.17
   6  -1  -7   11.98    4.30
   6  -1  -7   11.99    3.59
   6  -1  -7   12.66    4.39
   6  -1  -7   12.51    4.15
   6   1  -7   12.51    3.35
   6   1  -7   14.82    4.10
  -2  -8  -2   19.50    4.65
   0   3 -14   19.59    4.18
   0  -3 -14   24.32    4.87
   0  -3 -14   24.46    4.36
   0   3 -14   30.10    5.10
   0  -3 -14   28.42    5.21
   0   3  14   23.15    4.29
   0  -3  14   22.17    4.81
   0   3 -14   27.47    5.24
   3   1 -14   35.12    5.65
   3  -1 -14   35.40    5.65
   3  -1 -14   37.10    5.66
   3  -1 -14   31.26    5.71
   3  -1 -14   40.16    6.12
   3   1 -14   31.37    5.39
  -1  -7  -8    3.24    2.06
  -1  -7  -8    3.02    3.20
  -1  -7  -8    1.78    2.73
   3  -7  -6   14.43    5.07
   3   7  -6   14.48    4.08
   3  -7  -6   13.05    4.78
   3   7  -6   16.90    4.33
   3   6  -9   30.89    5.06
   3  -6  -9   26.06    6.67
   3  -6  -9   30.01    6.36
   3   6  -9   32.05    5.15
   2   4 -13   50.65    6.58
   2  -4 -13   53.30    7.05
   2   4 -13   56.67    6.96
   5   4   5    6.26    2.66
   5  -4   5    3.50    2.13
  -5  -4  -5    4.54    2.34
  -5   4  -5    5.18    3.74
  -5   4  -5    5.79    3.42
   1   1 -15   39.81    5.98
   1  -1 -15   43.34    5.46
   1  -1 -15   37.56    5.71
   1   1 -15   35.26    5.61
  -1  -1  15   36.92    5.69
   1  -1 -15   37.24    5.47
   1   1 -15   45.86    6.03
  -1   1  15   36.79    6.59
   5   0 -11   32.34    7.00
   5   0 -11   39.54    6.02
   5   0 -11   34.65    7.23
   5   0 -11   42.40    6.09
   0   0 -15   23.80    4.33
   0   0 -15   24.28    4.49
   0   0 -15   20.96    4.37
   0   0  15   21.94    4.86
  -6   3   4   19.29    6.26
   6  -3  -4   16.45    4.19
  -6   3   4   21.08    5.30
  -6  -3   4   25.59    4.37
   5  -4  -8   18.36    6.18
   5   4  -8   19.89    4.75
   5  -4  -8   19.71    6.06
   5   4  -8   20.29    4.11
   4   0 -13   67.18    8.19
   4   0 -13   77.34    8.52
   4   0 -13   81.20    7.87
   4   0 -13   78.71    8.92
  -6   0  -4   48.62    6.30
  -6   0  -4   46.38    7.02
  -6   0  -4   42.53    6.85
   6   0   4   48.99    5.67
   2  -7  -8   44.41    7.76
   2  -7  -8   41.27    9.23
  -3   2 -12   59.15    6.41
  -3  -2 -12   56.84    7.31
  -3  -2 -12   62.31    7.21
   3   2  12   59.12    6.30
  -3   2 -12   60.18    7.67
   3  -2  12   60.28    7.85
  -3  -2 -12   59.79    7.52
  -3   2 -12   50.12    6.52
  -5   1  -8   10.73    3.67
  -5   1  -8   10.18    3.05
  -5  -1  -8    7.88    3.07
   5  -1   8   10.70    3.10
  -5  -1  -8   10.64    3.22
  -5   1  -8   10.48    3.57
  -5  -1  -8    9.62    3.39
   5   1   8    9.07    2.83
   3  -5 -11    3.26    2.96
   3   5 -11    2.91    3.00
   3   5 -11    3.67    2.96
  -6  -2  -3   30.67    6.04
   6   2   3   32.74    5.07
  -6   2  -3   31.02    6.19
  -6  -2  -3   38.33    5.48
  -6   2  -3   28.53    6.25
  -6  -2  -3   33.83    5.48
  -6  -3  -1    2.21    2.62
  -6   3  -1    2.51    3.78
   6   3   1    1.46    2.44
   6  -3   1    1.39    2.05
  -6  -3  -1    1.28    2.29
   5   1 -11  140.97   10.38
   5   1 -11  132.37   12.82
   5  -1 -11  139.44   11.25
   5  -1 -11  119.53   14.24
   5  -1 -11  148.22   14.71
   5   1 -11  143.66   11.80
   5  -1 -11  138.06   11.02
   0   1 -15    4.50    2.50
   0   1 -15    6.49    2.62
   0   1 -15    3.12    2.71
   0  -1 -15    3.84    2.88
   0   1  15    4.99    2.96
   0  -1 -15    5.65    2.61
   2  -5 -12   30.22    5.81
   2   5 -12   34.17    5.42
   2  -5 -12   28.30    5.68
   2  -5 -12   25.61    5.09
   2  -5 -12   27.99    5.07
   2   5 -12   34.04    5.56
  -2  -8   4   31.47    6.36
  -2   7  -7    7.15    3.23
   2   4  12   35.94    5.83
  -2   4 -12   38.59    5.66
  -2   4 -12   36.94    5.50
   2  -4  12   33.25    6.35
  -2   4 -12   34.65    6.04
  -2  -4 -12   32.39    5.24
  -2  -4 -12   35.66    5.35
  -2  -4 -12   33.16    5.44
  -4   5  -7    5.07    2.89
   4   5   7    6.46    2.98
  -4   5  -7    8.11    3.79
  -4  -5  -7    8.08    3.21
   4   1 -13    0.73    3.10
   4  -1 -13    1.17    3.45
   4  -1 -13    3.13    3.07
   4   1 -13    2.09    2.67
   4  -1 -13    0.81    2.78
   4   1 -13    2.76    2.55
   4  -1 -13    2.34    2.95
   4   1 -13    3.17    3.06
   2   3 -14   47.64    6.17
   2   3 -14   40.26    5.74
   2  -3 -14   46.29    6.92
   2   3 -14   51.03    6.56
   2  -3 -14   43.54    6.87
   2   3 -14   43.13    6.67
   2  -3 -14   46.68    5.89
  -6   1  -4   12.46    4.32
  -6   1  -4   13.02    3.70
   6   1   4   13.71    3.50
   6  -1   4   12.84    3.59
  -6   1  -4   10.06    4.02
  -6  -1  -4   11.44    3.80
  -6  -1  -4   12.26    3.59
  -6  -1  -4   11.22    3.41
   2   0 -15   12.85    3.48
   2   0 -15   12.35    4.14
   2   0 -15   14.87    3.27
   2   0 -15   11.83    3.74
   4  -6  -7   57.82   10.96
   4  -6  -7   63.64   11.18
   4   6  -7   68.18    8.40
   4   6  -7   66.29    7.42
  -2  -8  -3   49.55    7.06
   1   6 -11   45.19    6.69
   1  -6 -11   47.00    7.66
   1   6 -11   43.78    6.52
   1  -6 -11   46.75    8.54
   1  -6 -11   38.57    6.25
  -5   5  -3   28.30    6.27
  -5   5  -3   30.11    6.95
  -5  -5  -3   33.57    6.51
   5   5   3   33.66    4.79
   4  -3 -12   11.24    3.95
   4   3 -12   16.74    4.17
   4  -3 -12   11.73    3.47
   4  -3 -12   11.40    4.86
   4  -3 -12   12.95    4.01
   4   3 -12   12.52    3.51
   0  -7  -9    3.25    2.68
   0  -7  -9    3.68    3.66
   1  -7  -9   53.50    9.06
   1  -7  -9   56.20    8.86
   5   5  -6  114.54    8.87
  -5  -5   6  119.89   10.05
   5  -5  -6   94.88   13.80
  -6  -3   5   15.00    3.69
  -6   3   5   12.06    4.54
  -6   3   5   14.68    5.42
   6  -3  -5   11.29    3.74
   1  -4  13    3.29    3.38
  -1  -4 -13    4.85    2.84
  -1   4 -13    3.58    2.30
  -1   4 -13    3.80    2.64
  -1  -4 -13    3.75    2.55
   1   4  13    3.55    2.74
  -1  -4 -13    4.16    2.69
  -1   4 -13    4.17    2.93
   0  -6 -11   32.94    4.72
   0  -6 -11   39.14    6.53
   0  -6 -11   36.62    6.84
   4  -4 -11   40.48    8.25
   4   4 -11   44.13    6.33
   4  -4 -11   36.75    5.68
   4  -4 -11   36.95    7.05
   4   4 -11   44.01    6.14
   4  -4 -11   37.01    6.13
   0  -8  -6    3.36    3.05
   6   0  -8    9.42    3.79
   6   0  -8   11.08    3.64
   6   0  -8   10.87    3.61
  -2  -5 -11   29.66    5.46
  -2   5 -11   31.53    4.96
   2   5  11   31.39    5.55
  -2  -5 -11   31.83    5.05
  -2   5 -11   31.62    5.82
  -2  -5 -11   29.44    5.37
   2   1 -15    6.05    2.80
   2  -1 -15    5.68    2.98
   2   1 -15    3.76    2.63
   2   1 -15    3.78    2.64
   2  -1 -15    5.16    3.22
   2  -1 -15    6.97    2.83
   2   1 -15    5.28    2.70
   2  -1 -15    6.72    2.87
  -3   7  -5   70.90   12.38
  -3   7  -5   78.28   11.19
  -3  -7  -5   75.31    8.60
   3   7   5   73.14    8.21
  -6  -2   7    5.60    3.79
   6   2  -7    4.36    3.01
   6  -2  -7    2.79    3.82
   6  -2  -7    3.12    2.64
   6   2  -7    4.09    3.19
   6  -2  -7    3.42    3.57
   3   2 -14   29.01    5.32
   3  -2 -14   34.46    5.85
   3  -2 -14   39.85    5.92
   3  -2 -14   32.85    6.33
   3  -2 -14   35.53    5.84
   3   2 -14   33.74    5.88
   3   2 -14   38.39    6.13
   3   2 -14   38.63    6.03
  -1  -5 -12    8.90    2.82
  -1   5 -12    7.53    3.05
  -1  -5 -12   11.04    3.81
   1   5  12   10.28    3.63
  -1   5 -12    8.89    3.28
  -1  -5 -12   10.72    2.97
  -1   5 -12    8.46    3.38
   5   3   7   96.27    9.18
  -5  -3  -7   91.37    9.66
  -5   3  -7   93.41    9.08
   5  -3   7   75.12    6.84
  -5  -3  -7   83.85    8.83
  -5  -3  -7   75.36    9.37
   1  -8  -6   13.09    4.36
   1  -8  -6   12.89    4.74
  -2  -3 -13   27.08    5.36
  -2   3 -13   26.76    4.39
  -2   3 -13   30.01    5.62
  -2   3 -13   26.31    4.85
   2  -3  13   25.51    5.10
   2   3  13   27.22    4.25
  -2  -3 -13   28.75    4.60
  -2  -3 -13   27.90    4.87
  -4  -6  -5   35.99    5.91
  -4   6  -5   32.25    6.99
  -4   6  -5   32.24    7.57
   4   6   5   32.43    5.54
   4   0  11    6.25    2.67
  -4   0 -11    5.01    2.93
  -4   0 -11    5.25    3.02
  -4   0 -11    5.64    2.79
   1   2 -15    5.42    3.00
   1  -2 -15    4.91    2.95
  -1   2  15    5.71    3.56
   1   2 -15    7.10    3.00
   1   2 -15    5.93    2.52
   1  -2 -15    6.49    3.13
   1  -2 -15    7.29    2.74
   1   2 -15    6.19    2.84
  -2   0 -14    2.68    2.62
  -2   0 -14    0.75    3.07
  -2   0 -14    3.10    2.40
   5  -3 -10   65.67   10.50
   5  -3 -10   76.05    8.89
   5   3 -10   85.54    9.07
   5  -3 -10   82.62   10.75
   5   3 -10   80.84    8.25
   5  -3 -10   73.22    9.61
  -6  -3  -2   33.79    4.65
  -6   3  -2   34.79    8.01
   6  -3   2   29.94    5.42
  -6  -3  -2   34.07    5.24
   6   3   2   33.86    4.79
   6  -1  -8   37.35    7.14
   6  -1  -8   50.21    7.27
   6  -1  -8   46.11    6.46
   6   1  -8   52.55    7.34
   6  -1  -8   50.33    7.94
   6   1  -8   46.78    6.37
   3  -7  -7    6.78    4.05
   3  -7  -7    5.74    4.13
   3   7  -7    6.16    3.40
   3   7  -7    7.24    3.81
  -4   7   1  104.07   13.46
  -4  -7   1  144.52   11.61
   4   7  -1  147.92   10.39
  -4   7   1   96.28   17.23
  -5  -2  -8    7.95    3.04
  -5   2  -8    7.97    3.20
  -5  -2  -8    8.97    3.13
   5  -2   8    7.37    3.14
  -5  -2  -8    9.39    3.63
  -5   2  -8    7.75    3.36
  -4   7   2   11.46    5.68
  -4  -7   2   14.06    4.48
   4   7  -2   15.89    4.02
  -4   7   2    9.22    6.34
   2  -8  -5   61.75   11.13
  -2  -8   5   46.46    7.89
   2  -8  -5   62.64    9.22
   4   7   0    4.10    3.19
  -4   7   0    4.95    4.09
  -4   7   0    3.35    3.90
  -4  -7   0    4.33    2.93
  -4   1 -11   10.50    3.65
  -4  -1 -11   11.69    4.34
  -4   1 -11   11.20    3.34
  -4  -1 -11   12.83    3.25
  -4  -1 -11   12.80    3.76
   4  -1  11   13.48    3.09
  -3   6  -8    6.07    3.36
   3   6   8    5.10    2.82
  -3   6  -8    6.20    2.72
  -3  -6  -8    7.09    3.16
   1  -3  14    4.64    3.36
  -1  -3 -14    4.62    2.94
  -1  -3 -14    6.55    3.04
  -1   3 -14    4.16    2.76
   1   3  14    4.29    2.90
  -1   3 -14    5.41    2.48
  -1   3 -14    7.89    3.12
  -1  -3 -14    6.81    2.60
   5  -2 -11   11.17    4.25
   5  -2 -11    8.38    3.85
   5  -2 -11   10.98    3.26
   5  -2 -11   12.07    3.59
  -2   1 -14    2.42    2.56
   2  -1  14    1.26    2.64
   2   1  14    2.37    3.04
  -2  -1 -14    3.43    2.45
  -2   1 -14    2.73    2.29
  -2   1 -14    2.74    2.73
  -2  -1 -14    1.82    2.38
  -2  -1 -14    2.50    2.69
   0   2 -15   98.08    8.40
   0  -2  15   95.42   11.28
   0   2  15   85.68   11.03
   0   2 -15  106.13   10.22
   0  -2 -15  102.12    8.63
   0   2 -15   87.37    9.32
  -4   3 -10  101.72    9.95
  -4  -3 -10   87.46    9.06
   4   3  10  101.08    8.18
   4  -3  10   82.94    7.98
  -4  -3 -10   95.36    8.02
  -4   3 -10   90.45   10.65
  -4   3 -10   92.70    8.73
   4  -2 -13   73.16    8.44
   4  -2 -13   74.04    9.02
   4   2 -13   71.68    7.40
   4  -2 -13   67.55   10.27
   4  -2 -13   72.50    7.71
  -4  -4  -9   41.87    6.01
   4   4   9   34.32    4.88
  -4   4  -9   39.32    6.04
  -4  -4  -9   34.67    5.00
  -4  -4  -9   30.65    5.41
  -4   4  -9   33.13    5.97
   4  -4   9   26.50    5.88
   3   4  11    0.82    2.43
   3  -4  11    0.70    2.46
  -3  -4 -11    1.13    2.41
  -3   4 -11    1.89    3.08
  -3  -4 -11    1.26    2.57
  -3  -4 -11    1.48    2.18
  -3   4 -11    2.37    2.46
   6  -2   4   45.48    7.07
  -6  -2  -4   52.21    7.66
  -6  -2  -4   55.13    7.13
  -6   2  -4   42.24    7.86
  -6   2  -4   51.77    7.74
  -6  -2  -4   47.19    7.79
   6   2   4   48.96    6.49
   6  -3  -6    4.76    2.80
  -6   3   6    4.65    4.44
  -6   3   6    5.57    4.32
  -6  -3   6    5.24    3.41
  -5  -4  -6    4.98    2.17
   5  -4   6    4.04    2.20
  -5   4  -6    8.91    3.75
   5   4   6    6.25    2.64
  -5   4  -6    5.97    2.91
   6   0   5    3.25    2.89
  -6   0  -5    2.90    2.63
  -6   0  -5    3.37    2.41
  -6   0  -5    4.27    2.84
  -4   7   3   16.49    6.11
  -4   7   3   19.98    8.25
   4   7  -3   20.50    4.71
  -4  -7   3   17.66    5.03
  -1   0 -15    0.77    2.32
  -1   0 -15    0.59    2.43
  -1   0 -15    0.80    2.83
   1   0  15    0.25    3.12
   5  -4  -9   39.85    7.88
   5   4  -9   44.47    6.24
   5   4  -9   42.41    5.94
   5  -4  -9   36.61    8.64
   2   6 -11   61.14    7.35
   2  -6 -11   62.88    7.40
   2   6 -11   61.99    7.71
   2  -6 -11   55.68    8.70
  -4   7  -1   77.11   13.61
   4   7   1  104.70    9.67
  -4   7  -1   88.19   11.87
  -4  -7  -1   92.71    9.41
   4   5 -10   36.35    5.52
   4  -5 -10   29.15    7.78
   4  -5 -10   36.00    7.44
   4   5 -10   35.97    5.85
   5   5   4    5.11    2.61
  -5   5  -4    5.87    3.35
  -5   5  -4    7.00    3.96
  -5  -5  -4    6.86    2.74
   3   0  13    5.18    2.70
  -3   0 -13    5.39    3.39
  -3   0 -13    4.59    2.50
   5  -5  -7   50.99    9.82
   5   5  -7   60.54    7.12
   5   5  -7   58.91    6.77
  -1  -7  -9   10.70    3.39
  -1  -7  -9    8.87    2.82
  -1  -7  -9   11.96    4.27
   3  -6 -10   14.15    5.35
   3   6 -10   20.44    4.73
   3   6 -10   18.69    3.89
   3  -6 -10   18.27    5.25
  -6  -1  -5   -0.14    2.71
   6   1   5    1.33    2.69
   6  -1   5    1.51    2.44
  -6   1  -5    0.22    2.78
  -6  -1  -5    0.67    2.65
  -6   1  -5    0.21    2.44
  -6   1  -5    0.90    2.60
  -6  -1  -5    0.14    2.36
   2   2 -15    6.73    3.05
   2   2 -15    8.99    3.07
   2  -2 -15    6.82    3.73
   2  -2 -15    7.70    3.00
   2   2 -15    7.45    2.90
   2   2 -15    8.17    3.08
   2  -2 -15    7.10    3.07
   3  -3  12   17.84    4.16
  -3   3 -12   18.92    4.48
  -3  -3 -12   16.37    4.15
  -3  -3 -12   22.46    4.76
  -3   3 -12   21.38    4.47
  -3   3 -12   20.95    3.85
  -3  -3 -12   22.04    4.26
   3   3  12   19.58    3.62
  -6   4   2   46.12    8.03
  -6   4   2   52.32    9.07
  -6  -4   2   54.38    5.66
   2  -7  -9   48.72    9.82
   2  -7  -9   52.50    8.00
   1  -4 -14   37.17    5.71
   1  -4 -14   35.01    5.30
   1   4 -14   35.02    5.27
  -1   4  14   32.40    7.19
   1  -4 -14   31.17    5.44
   1   4 -14   38.41    5.99
  -6   4   1    4.49    3.67
  -6  -4   1    5.40    2.83
  -6   4   1    5.11    3.61
   4   6  -8    8.52    3.54
   4   6  -8    8.12    3.54
   4  -6  -8    7.27    3.68
   4  -6  -8    8.71    4.84
  -1  -1 -15   72.54    8.15
  -1   1 -15   72.66    7.90
   1  -1  15   73.20    7.35
  -1   1 -15   85.01    7.42
  -1   1 -15   74.88    7.91
   1   1  15   77.31    8.12
  -1  -6 -11    5.08    2.20
  -1  -6 -11    5.62    3.27
  -1  -6 -11    5.85    2.81
   3   5  10    4.55    2.88
  -3   5 -10    4.54    2.64
  -3  -5 -10    3.73    2.49
   3  -5  10    3.34    2.40
  -3   5 -10    2.15    2.76
  -3  -5 -10    3.75    2.61
  -3  -5 -10    3.97    2.63
   6   3   3   29.17    4.60
   6  -3   3   26.01    4.67
  -6  -3  -3   27.99    4.06
  -6  -3  -3   27.17    4.93
  -6   3  -3   30.45    7.01
   1   5 -13   96.57    9.15
   1   5 -13   90.88    8.89
   1  -5 -13   82.43    8.27
   1  -5 -13   79.76    8.16
   1  -5 -13   83.21   10.14
  -6   4   3    0.89    4.33
  -6   4   3    0.30    4.30
   6   4  -3   -0.03    3.15
  -6  -4   3    0.21    2.72
  -4  -7   4    7.26    3.42
  -4   7   4    7.17    5.19
   4   7  -4   10.01    3.35
  -4   7   4    8.68    7.12
  -5   0  -9   18.09    4.09
  -5   0  -9   15.80    3.97
   5   0   9   19.55    3.69
  -5   0  -9   16.82    4.39
  -2  -6 -10    3.08    3.13
  -2  -6 -10    2.67    2.55
   2   6  10    1.99    2.69
  -2  -6 -10    2.38    2.35
  -2   6 -10    1.78    2.19
  -2   6 -10    1.01    2.52
  -3  -8   1   17.56    4.50
  -3   8   1   20.88    8.77
  -3   1 -13   33.40    4.87
  -3   1 -13   31.41    5.90
  -3  -1 -13   33.51    5.04
  -3   1 -13   32.99    5.71
   3   1  13   30.55    5.21
   3  -1  13   31.24    5.21
  -3  -1 -13   34.93    5.05
  -3  -1 -13   33.03    5.84
  -5  -6   1  105.99    8.01
  -5   6   1  126.62   14.72
  -5   6   1  117.42   15.56
   5   6  -1  115.67    8.50
   3  -4 -13    6.16    2.76
   3   4 -13    7.45    3.16
   3  -4 -13    5.17    2.70
   3   4 -13    6.75    2.92
   3  -4 -13    5.74    3.39
   6  -2  -8   24.34    4.98
   6   2  -8   27.20    4.75
   6   2  -8   25.79    5.09
   6  -2  -8   26.80    5.46
   6  -2  -8   24.81    5.69
   6  -2  -8   19.10    5.38
  -5   6   2   10.70    5.84
  -5   6   2   12.26    5.55
   5   6  -2   15.02    3.66
  -5  -6   2   15.43    3.80
  -3  -8   0   14.01    3.63
  -3   8   0   10.02    5.33
   0  -8  -7   59.20    9.27
  -2  -7  -8   16.93    3.97
  -2   7  -8   13.44    4.18
  -6   4   0    5.76    3.93
  -6  -4   0    8.07    3.16
  -6   4   0    7.87    3.90
  -3  -8   2    9.83    3.77
  -3   8   2    6.24    5.09
   0   4 -14    2.83    2.67
   0   4  14    2.94    2.81
   0   4 -14    2.73    2.51
   0  -4 -14    2.43    2.61
   0   4 -14    3.72    2.43
   0   4 -14    4.79    2.94
   0  -4 -14    2.83    2.61
   0  -4 -14    3.81    2.93
   5   0 -12    1.01    2.90
   5   0 -12    1.18    2.71
   5   0 -12    3.23    3.19
   5   0 -12    2.98    3.24
   0   5  13   13.11    4.66
   0   5 -13   14.55    4.10
   0  -5 -13   13.86    3.48
   0   5 -13   14.97    3.80
   0  -5 -13   14.33    4.44
   0  -5 -13   13.66    4.03
;
_shelx_hkl_checksum              40663
loop_
_symmetry_equiv_pos_site_id
_space_group_symop_operation_xyz
1 +X,+Y,+Z
2 -X,1/2+Y,-Z
loop_
_atom_site_label
_atom_site_type_symbol
_atom_site_fract_x
_atom_site_fract_y
_atom_site_fract_z
_atom_site_U_iso_or_equiv
_atom_site_adp_type
_atom_site_occupancy
_atom_site_site_symmetry_multiplicity
_atom_site_calc_flag
_atom_site_refinement_flags
_atom_site_disorder_assembly
_atom_site_disorder_group
S1 S 0.2418(2) 0.46276(19) 0.73052(10) 0.0262(4) Uani 1 2 d . . .
F1 F 0.5415(5) 0.6288(5) 0.9527(2) 0.0312(8) Uani 1 2 d . . .
F2 F 0.9790(5) 0.7570(5) 0.9091(3) 0.0280(7) Uani 1 2 d . . .
F3 F 1.0515(5) 1.1123(5) 0.8854(2) 0.0321(8) Uani 1 2 d . . .
F4 F 0.9379(5) 0.9208(5) 0.7125(2) 0.0288(8) Uani 1 2 d . . .
F5 F 0.4850(5) 0.8869(5) 0.6190(2) 0.0319(8) Uani 1 2 d . . .
F6 F 0.5186(6) 0.4923(6) 0.5860(3) 0.0419(10) Uani 1 2 d . . .
F7 F 0.1436(7) 0.5544(6) 0.5360(3) 0.0496(10) Uani 1 2 d . . .
F8 F 0.2564(7) 0.2777(6) 0.5650(3) 0.0496(10) Uani 1 2 d . . .
O6 O 0.2844(6) 0.6645(6) 0.7537(3) 0.0256(9) Uani 1 2 d . . .
O7 O 0.4231(7) 0.3532(6) 0.7859(3) 0.0308(9) Uani 1 2 d . . .
O8 O -0.0071(7) 0.4320(6) 0.7339(3) 0.0366(11) Uani 1 2 d . . .
C1 C 0.5537(8) 0.7871(8) 0.8971(4) 0.0250(12) Uani 1 2 d . . .
C2 C 0.7978(9) 0.8770(9) 0.9282(4) 0.0262(12) Uani 1 2 d . . .
C3 C 0.8170(9) 1.0477(9) 0.8650(4) 0.0255(12) Uani 1 2 d . . .
C4 C 0.7599(9) 1.0233(8) 0.7488(4) 0.0248(13) Uani 1 2 d . . .
C5 C 0.5215(8) 0.9206(8) 0.7234(4) 0.0238(12) Uani 1 2 d . . .
C6 C 0.5239(8) 0.7443(8) 0.7822(4) 0.0248(12) Uani 1 2 d . . .
C7 C 0.2932(10) 0.4463(10) 0.5938(4) 0.0351(14) Uani 1 2 d . . .
H1 H 0.42244 0.8703 0.91235 0.0299 Uiso 1 2 calc R . .
H2 H 0.81548 0.90785 1.00316 0.0315 Uiso 1 2 calc R . .
H3 H 0.70511 1.14006 0.88785 0.0306 Uiso 1 2 calc R . .
H4 H 0.7488 1.14344 0.71404 0.0298 Uiso 1 2 calc R . .
H5 H 0.38706 0.99735 0.74227 0.0285 Uiso 1 2 calc R . .
H6 H 0.65415 0.66246 0.76424 0.0298 Uiso 1 2 calc R . .
loop_
_atom_site_aniso_label
_atom_site_aniso_U_11
_atom_site_aniso_U_22
_atom_site_aniso_U_33
_atom_site_aniso_U_12
_atom_site_aniso_U_13
_atom_site_aniso_U_23
S1 0.0136(6) 0.0233(9) 0.0421(7) 0.0003(6) 0.0054(4) 0.0007(6)
F1 0.0216(15) 0.033(2) 0.0393(16) -0.0043(14) 0.0070(12) 0.0067(14)
F2 0.0122(14) 0.032(2) 0.0407(16) 0.0028(14) 0.0056(11) 0.0025(14)
F3 0.0154(15) 0.036(2) 0.0442(18) -0.0095(14) 0.0017(12) -0.0005(15)
F4 0.0137(13) 0.033(2) 0.0415(16) 0.0023(13) 0.0099(11) 0.0027(14)
F5 0.0251(15) 0.034(2) 0.0360(16) -0.0061(15) 0.0016(12) 0.0026(14)
F6 0.0290(17) 0.054(3) 0.0444(18) -0.0064(17) 0.0132(13) -0.0093(17)
F7 0.045(2) 0.054(3) 0.0462(19) 0.007(2) -0.0066(16) 0.0022(19)
F8 0.051(2) 0.040(3) 0.058(2) -0.008(2) 0.0084(17) -0.017(2)
O6 0.0085(15) 0.027(3) 0.041(2) 0.0026(16) 0.0041(14) 0.0021(17)
O7 0.0186(18) 0.027(3) 0.048(2) 0.0042(17) 0.0066(15) 0.0005(18)
O8 0.0162(18) 0.030(3) 0.064(3) -0.0044(18) 0.0076(16) -0.001(2)
C1 0.010(2) 0.027(3) 0.039(3) 0.001(2) 0.0063(17) 0.002(2)
C2 0.012(2) 0.032(3) 0.036(3) 0.001(2) 0.0049(19) -0.002(2)
C3 0.012(2) 0.024(3) 0.042(3) -0.000(2) 0.006(2) -0.002(2)
C4 0.013(2) 0.022(4) 0.040(3) 0.002(2) 0.0053(18) 0.003(2)
C5 0.011(2) 0.023(4) 0.037(3) 0.002(2) 0.0049(17) 0.002(2)
C6 0.009(2) 0.022(3) 0.043(3) -0.003(2) 0.0037(19) -0.003(2)
C7 0.030(3) 0.033(4) 0.042(3) 0.002(3) 0.004(2) -0.002(3)
loop_
_atom_type_symbol
_atom_type_description
_atom_type_scat_dispersion_real
_atom_type_scat_dispersion_imag
_atom_type_scat_source
C C 0.0033 0.0016
;
International Tables for Crystallography
(Vol. C, Tables 4.2.6.8 and 6.1.1.4)
;
H H 0.0000 0.0000
;
International Tables for Crystallography
(Vol. C, Table 6.1.1.4)
;
F F 0.0171 0.0103
;
International Tables for Crystallography
(Vol. C, Tables 4.2.6.8 and 6.1.1.4)
;
O O 0.0106 0.0060
;
International Tables for Crystallography
(Vol. C, Tables 4.2.6.8 and 6.1.1.4)
;
S S 0.1246 0.1234
;
International Tables for Crystallography
(Vol. C, Tables 4.2.6.8 and 6.1.1.4)
;
loop_
_geom_angle_atom_site_label_1
_geom_angle_atom_site_label_2
_geom_angle_atom_site_label_3
_geom_angle
_geom_angle_publ_flag
_geom_angle_site_symmetry_1
_geom_angle_site_symmetry_2
_geom_angle_site_symmetry_3
O6 S1 O7 111.8(2) yes . . .
O6 S1 O8 106.2(2) yes . . .
O6 S1 C7 102.4(3) yes . . .
O7 S1 O8 122.2(3) yes . . .
O7 S1 C7 105.4(3) yes . . .
O8 S1 C7 107.0(3) yes . . .
S1 O6 C6 123.7(3) yes . . .
F1 C1 C2 109.4(4) yes . . .
F1 C1 C6 109.5(5) yes . . .
C2 C1 C6 109.7(4) yes . . .
F2 C2 C1 108.7(5) yes . . .
F2 C2 C3 109.3(4) yes . . .
C1 C2 C3 109.9(4) yes . . .
F3 C3 C2 108.1(4) yes . . .
F3 C3 C4 107.9(4) yes . . .
C2 C3 C4 114.9(5) yes . . .
F4 C4 C3 109.7(4) yes . . .
F4 C4 C5 107.3(4) yes . . .
C3 C4 C5 110.1(4) yes . . .
F5 C5 C4 108.8(4) yes . . .
F5 C5 C6 109.6(4) yes . . .
C4 C5 C6 111.4(4) yes . . .
O6 C6 C1 108.5(4) yes . . .
O6 C6 C5 105.6(4) yes . . .
C1 C6 C5 108.2(5) yes . . .
S1 C7 F6 108.8(4) yes . . .
S1 C7 F7 110.3(4) yes . . .
S1 C7 F8 107.5(4) yes . . .
F6 C7 F7 110.0(5) yes . . .
F6 C7 F8 109.8(5) yes . . .
F7 C7 F8 110.3(5) yes . . .
F1 C1 H1 109.453 no . . .
C2 C1 H1 109.453 no . . .
C6 C1 H1 109.446 no . . .
F2 C2 H2 109.627 no . . .
C1 C2 H2 109.623 no . . .
C3 C2 H2 109.623 no . . .
F3 C3 H3 108.575 no . . .
C2 C3 H3 108.573 no . . .
C4 C3 H3 108.575 no . . .
F4 C4 H4 109.912 no . . .
C3 C4 H4 109.910 no . . .
C5 C4 H4 109.911 no . . .
F5 C5 H5 108.994 no . . .
C4 C5 H5 108.995 no . . .
C6 C5 H5 108.993 no . . .
O6 C6 H6 111.430 no . . .
C1 C6 H6 111.427 no . . .
C5 C6 H6 111.430 no . . .
loop_
_geom_bond_atom_site_label_1
_geom_bond_atom_site_label_2
_geom_bond_distance
_geom_bond_publ_flag
_geom_bond_site_symmetry_1
_geom_bond_site_symmetry_2
S1 O6 1.541(5) yes . .
S1 O7 1.426(4) yes . .
S1 O8 1.420(4) yes . .
S1 C7 1.851(6) yes . .
F1 C1 1.388(7) yes . .
F2 C2 1.397(6) yes . .
F3 C3 1.393(6) yes . .
F4 C4 1.386(6) yes . .
F5 C5 1.377(6) yes . .
F6 C7 1.325(7) yes . .
F7 C7 1.326(7) yes . .
F8 C7 1.316(9) yes . .
O6 C6 1.473(6) yes . .
C1 C2 1.531(7) yes . .
C1 C6 1.524(8) yes . .
C2 C3 1.524(9) yes . .
C3 C4 1.523(8) yes . .
C4 C5 1.539(7) yes . .
C5 C6 1.518(8) yes . .
C1 H1 1.000 no . .
C2 H2 1.000 no . .
C3 H3 1.000 no . .
C4 H4 1.000 no . .
C5 H5 1.000 no . .
C6 H6 1.000 no . .
loop_
_geom_contact_atom_site_label_1
_geom_contact_atom_site_label_2
_geom_contact_distance
_geom_contact_publ_flag
_geom_contact_site_symmetry_1
_geom_contact_site_symmetry_2
S1 F1 3.400(3) no . .
S1 C1 3.556(6) no . .
F1 F2 2.756(4) no . .
F1 O6 2.825(5) no . .
F1 O7 3.003(5) no . .
F2 F3 2.693(5) no . .
F2 F4 2.828(5) no . .
F2 C4 3.027(6) no . .
F2 C5 3.520(6) no . .
F2 C6 2.865(5) no . .
F3 F4 2.680(4) no . .
F4 F5 2.688(4) no . .
F4 C1 3.572(6) no . .
F4 C2 3.039(6) no . .
F4 C6 2.910(6) no . .
F5 F6 2.972(6) no . .
F5 F7 3.228(6) no . .
F5 O6 2.755(5) no . .
F5 C7 3.447(8) no . .
F6 O6 2.981(5) no . .
F6 O7 2.922(6) no . .
F6 C6 3.173(7) no . .
F7 O6 2.972(5) no . .
F7 O8 2.964(6) no . .
F8 O7 2.976(6) no . .
F8 O8 3.032(6) no . .
O7 C1 3.572(7) no . .
O7 C6 2.960(8) no . .
C1 C4 2.955(8) no . .
C2 C5 2.939(7) no . .
C3 C6 2.916(8) no . .
C6 C7 3.441(9) no . .
S1 F3 3.543(4) no . 1_445
F1 F2 3.275(4) no . 1_455
F1 F3 2.915(4) no . 2_747
F1 C1 3.293(7) no . 2_647
F1 C2 3.207(7) no . 2_647
F1 C3 3.360(7) no . 2_647
F2 F1 3.275(4) no . 1_655
F2 F3 2.918(5) no . 2_747
F2 O6 2.899(5) no . 1_655
F2 O8 3.335(6) no . 1_655
F2 C1 3.253(6) no . 1_655
F2 C3 3.406(6) no . 2_747
F3 S1 3.543(4) no . 1_665
F3 F1 2.915(4) no . 2_757
F3 F2 2.918(5) no . 2_757
F3 O7 3.148(5) no . 1_665
F3 O8 3.083(6) no . 1_665
F3 C2 3.163(7) no . 2_757
F4 F5 3.450(4) no . 1_655
F4 F7 3.372(5) no . 2_656
F4 O6 2.724(5) no . 1_655
F4 C5 3.257(5) no . 1_655
F4 C6 3.549(6) no . 1_655
F5 F4 3.450(4) no . 1_455
F5 F6 2.790(5) no . 2_656
F5 F7 3.324(5) no . 2_656
F5 F8 3.215(6) no . 1_565
F5 F8 3.069(5) no . 2_656
F5 C7 3.217(7) no . 2_656
F6 F5 2.790(5) no . 2_646
F6 F8 3.256(6) no . 2_656
F6 O8 3.118(5) no . 1_655
F7 F4 3.372(5) no . 2_646
F7 F5 3.324(5) no . 2_646
F7 F8 2.963(6) no . 2_556
F8 F5 3.215(6) no . 1_545
F8 F5 3.069(5) no . 2_646
F8 F6 3.256(6) no . 2_646
F8 F7 2.963(6) no . 2_546
F8 C5 3.572(7) no . 1_545
O6 F2 2.899(5) no . 1_455
O6 F4 2.724(5) no . 1_455
O7 F3 3.148(5) no . 1_445
O7 O8 3.399(5) no . 1_655
O7 C3 3.243(7) no . 1_545
O7 C4 3.167(7) no . 1_545
O7 C5 3.377(7) no . 1_545
O8 F2 3.335(6) no . 1_455
O8 F3 3.083(6) no . 1_445
O8 F6 3.118(5) no . 1_455
O8 O7 3.399(5) no . 1_455
O8 C3 3.532(8) no . 1_445
O8 C4 3.319(7) no . 1_445
C1 F1 3.293(7) no . 2_657
C1 F2 3.253(6) no . 1_455
C2 F1 3.207(7) no . 2_657
C2 F3 3.163(7) no . 2_747
C3 F1 3.360(7) no . 2_657
C3 F2 3.406(6) no . 2_757
C3 O7 3.243(7) no . 1_565
C3 O8 3.532(8) no . 1_665
C4 O7 3.167(7) no . 1_565
C4 O8 3.319(7) no . 1_665
C5 F4 3.257(5) no . 1_455
C5 F8 3.572(7) no . 1_565
C5 O7 3.377(7) no . 1_565
C6 F4 3.549(6) no . 1_455
C7 F5 3.217(7) no . 2_646
S1 H6 2.7353 no . .
F1 H2 2.6142 no . .
F1 H6 2.6308 no . .
F2 H1 3.2368 no . .
F2 H3 3.2275 no . .
F2 H6 2.5560 no . .
F3 H2 2.6334 no . .
F3 H4 2.6463 no . .
F4 H3 3.2193 no . .
F4 H5 3.2113 no . .
F4 H6 2.6339 no . .
F5 H4 2.6265 no . .
F5 H6 2.6135 no . .
F6 H6 2.6767 no . .
O6 H1 2.6151 no . .
O6 H5 2.5466 no . .
O7 H6 2.6688 no . .
C1 H3 2.7624 no . .
C1 H5 2.6337 no . .
C2 H4 3.4111 no . .
C2 H5 3.2567 no . .
C2 H6 2.7106 no . .
C3 H1 2.7121 no . .
C3 H5 2.7488 no . .
C3 H6 3.2329 no . .
C4 H1 3.2333 no . .
C4 H2 3.4105 no . .
C4 H6 2.7568 no . .
C5 H1 2.6263 no . .
C5 H3 2.7903 no . .
C6 H2 3.3631 no . .
C6 H3 3.3504 no . .
C6 H4 3.3839 no . .
C7 H6 3.2419 no . .
H1 H2 2.3848 no . .
H1 H3 2.5986 no . .
H1 H5 2.4010 no . .
H1 H6 2.9068 no . .
H2 H3 2.3228 no . .
H3 H4 2.3163 no . .
H3 H5 2.6600 no . .
H4 H5 2.3691 no . .
H5 H6 2.8983 no . .
S1 H2 3.5604 no . 2_647
S1 H5 3.5494 no . 1_545
F1 H1 2.5985 no . 2_647
F1 H2 2.7054 no . 2_647
F1 H3 2.6436 no . 2_647
F2 H1 2.6197 no . 1_655
F2 H2 3.0058 no . 2_747
F2 H3 3.1245 no . 2_747
F3 H1 2.7378 no . 1_655
F3 H2 2.6872 no . 2_757
F3 H5 2.9419 no . 1_655
F4 H1 3.5459 no . 1_655
F4 H5 2.5631 no . 1_655
F6 H4 3.2614 no . 1_545
F7 H4 3.4615 no . 2_646
F8 H4 3.3265 no . 1_545
F8 H5 3.1338 no . 1_545
O6 H6 3.5529 no . 1_455
O7 H2 3.2379 no . 2_647
O7 H3 2.5009 no . 1_545
O7 H4 2.6596 no . 1_545
O7 H5 2.7055 no . 1_545
O8 H2 3.4757 no . 2_647
O8 H3 3.4878 no . 1_445
O8 H4 2.5378 no . 1_445
O8 H6 2.6232 no . 1_455
C1 H3 3.4965 no . 2_647
C2 H1 3.5341 no . 1_655
C4 H5 3.5326 no . 1_655
H1 F1 2.5985 no . 2_657
H1 F2 2.6197 no . 1_455
H1 F3 2.7378 no . 1_455
H1 F4 3.5459 no . 1_455
H1 C2 3.5341 no . 1_455
H1 H3 3.2752 no . 2_647
H2 S1 3.5604 no . 2_657
H2 F1 2.7054 no . 2_657
H2 F2 3.0058 no . 2_757
H2 F3 2.6872 no . 2_747
H2 O7 3.2379 no . 2_657
H2 O8 3.4757 no . 2_657
H2 H3 3.4998 no . 2_747
H3 F1 2.6436 no . 2_657
H3 F2 3.1245 no . 2_757
H3 O7 2.5009 no . 1_565
H3 O8 3.4878 no . 1_665
H3 C1 3.4965 no . 2_657
H3 H1 3.2752 no . 2_657
H3 H2 3.4998 no . 2_757
H4 F6 3.2614 no . 1_565
H4 F7 3.4615 no . 2_656
H4 F8 3.3265 no . 1_565
H4 O7 2.6596 no . 1_565
H4 O8 2.5378 no . 1_665
H5 S1 3.5494 no . 1_565
H5 F3 2.9419 no . 1_455
H5 F4 2.5631 no . 1_455
H5 F8 3.1338 no . 1_565
H5 O7 2.7055 no . 1_565
H5 C4 3.5326 no . 1_455
H6 O6 3.5529 no . 1_655
H6 O8 2.6232 no . 1_655
loop_
_geom_torsion_atom_site_label_1
_geom_torsion_atom_site_label_2
_geom_torsion_atom_site_label_3
_geom_torsion_atom_site_label_4
_geom_torsion
_geom_torsion_publ_flag
_geom_torsion_site_symmetry_1
_geom_torsion_site_symmetry_2
_geom_torsion_site_symmetry_3
_geom_torsion_site_symmetry_4
O7 S1 O6 C6 29.1(4) no . . . .
O8 S1 O6 C6 164.7(3) no . . . .
O6 S1 C7 F6 62.3(5) no . . . .
O6 S1 C7 F7 -58.4(4) no . . . .
O6 S1 C7 F8 -178.8(3) no . . . .
C7 S1 O6 C6 -83.3(3) no . . . .
O7 S1 C7 F6 -54.8(5) no . . . .
O7 S1 C7 F7 -175.5(4) no . . . .
O7 S1 C7 F8 64.1(4) no . . . .
O8 S1 C7 F6 173.7(4) no . . . .
O8 S1 C7 F7 53.0(5) no . . . .
O8 S1 C7 F8 -67.3(4) no . . . .
S1 O6 C6 C1 -105.8(4) no . . . .
S1 O6 C6 C5 138.3(3) no . . . .
F1 C1 C2 F2 58.4(5) no . . . .
F1 C1 C2 C3 178.1(4) no . . . .
F1 C1 C6 O6 62.2(5) no . . . .
F1 C1 C6 C5 176.3(3) no . . . .
C2 C1 C6 O6 -177.8(4) no . . . .
C2 C1 C6 C5 -63.7(5) no . . . .
C6 C1 C2 F2 -61.6(6) no . . . .
C6 C1 C2 C3 58.0(6) no . . . .
F2 C2 C3 F3 -53.0(5) no . . . .
F2 C2 C3 C4 67.6(5) no . . . .
C1 C2 C3 F3 -172.3(4) no . . . .
C1 C2 C3 C4 -51.7(6) no . . . .
F3 C3 C4 F4 52.0(6) no . . . .
F3 C3 C4 C5 169.8(4) no . . . .
C2 C3 C4 F4 -68.7(5) no . . . .
C2 C3 C4 C5 49.1(6) no . . . .
F4 C4 C5 F5 -55.5(5) no . . . .
F4 C4 C5 C6 65.4(5) no . . . .
C3 C4 C5 F5 -174.9(4) no . . . .
C3 C4 C5 C6 -53.9(6) no . . . .
F5 C5 C6 O6 -61.5(5) no . . . .
F5 C5 C6 C1 -177.6(3) no . . . .
C4 C5 C6 O6 178.0(4) no . . . .
C4 C5 C6 C1 62.0(5) no . . . .
