#------------------------------------------------------------------------------
#$Date: 2019-05-17 13:57:55 +0300 (Fri, 17 May 2019) $
#$Revision: 215251 $
#$URL: file:///home/coder/svn-repositories/cod/cif/1/55/10/1551069.cif $
#------------------------------------------------------------------------------
#
# This file is available in the Crystallography Open Database (COD),
# http://www.crystallography.net/. The original data for this entry
# were provided by IUCr Journals, http://journals.iucr.org/.
#
# The file may be used within the scientific community so long as
# proper attribution is given to the journal article from which the
# data were obtained.
#
data_1551069
loop_
_publ_author_name
'Tapmeyer, Lukas'
'Prill, Dragica'
_publ_section_title
;
 6-Amino-2-iminiumyl-4-oxo-1,2,3,4-tetrahydropyrimidin-5-aminium sulfate
 monohydrate
;
_journal_coeditor_code           RZ4030
_journal_issue                   5
_journal_name_full               IUCrData
_journal_page_first              x190689
_journal_paper_doi               10.1107/S2414314619006898
_journal_volume                  4
_journal_year                    2019
_chemical_formula_iupac          'C4 H9 N5 O 2+, S O4 2-, H2 O'
_chemical_formula_moiety         'C4 H9 N5 O 2+, O4 S 2-, H2 O'
_chemical_formula_sum            'C4 H11 N5 O6 S'
_chemical_formula_weight         257.24
_chemical_name_systematic
;
6-Amino-2-iminiumyl-4-oxo-1,2,3,4-tetrahydropyrimidin-5-aminium sulfate
monohydrate
;
_space_group_crystal_system      triclinic
_space_group_IT_number           2
_space_group_name_Hall           '-P 1'
_space_group_name_H-M_alt        'P -1'
_symmetry_space_group_name_Hall  '-P 1'
_symmetry_space_group_name_H-M   'P -1'
_atom_sites_solution_hydrogens   mixed
_audit_creation_method           SHELXL-2018/3
_cell_angle_alpha                74.121(4)
_cell_angle_beta                 86.734(4)
_cell_angle_gamma                79.290(4)
_cell_formula_units_Z            2
_cell_length_a                   7.0128(7)
_cell_length_b                   7.9882(8)
_cell_length_c                   9.0732(9)
_cell_measurement_reflns_used    9522
_cell_measurement_temperature    296(2)
_cell_measurement_theta_max      69.4263
_cell_measurement_theta_min      2.5339
_cell_volume                     480.36(8)
_computing_cell_refinement
;
SAINT (Bruker, 2015)
;
_computing_data_collection
;
APEX3 (Bruker, 2012)
;
_computing_data_reduction
;
SAINT (Bruker, 2015)
;
_computing_molecular_graphics
;
Mercury (Macrae <i>et al.</i>,  2008) and ORTEPIII (Burnett & Johnson,
1996)
;
_computing_publication_material
;
publCIF (Westrip, 2010)
;
_computing_structure_refinement
;
SHELXL2018 (Sheldrick, 2015b)
;
_computing_structure_solution
;
SHELXT (Sheldrick, 2015a)
;
_diffrn_ambient_temperature      296(2)
_diffrn_measured_fraction_theta_full 1.000
_diffrn_measured_fraction_theta_max 0.925
_diffrn_measurement_device_type  'Siemens Bruker CCD'
_diffrn_measurement_method       'Omega and Phi scans'
_diffrn_radiation_type           CuK\a
_diffrn_radiation_wavelength     1.54178
_diffrn_reflns_av_R_equivalents  0.0510
_diffrn_reflns_av_unetI/netI     0.0273
_diffrn_reflns_limit_h_max       8
_diffrn_reflns_limit_h_min       -8
_diffrn_reflns_limit_k_max       9
_diffrn_reflns_limit_k_min       -9
_diffrn_reflns_limit_l_max       10
_diffrn_reflns_limit_l_min       -10
_diffrn_reflns_number            20827
_diffrn_reflns_theta_full        71.135
_diffrn_reflns_theta_max         71.135
_diffrn_reflns_theta_min         5.068
_diffrn_source                   'microfocus tube'
_exptl_absorpt_coefficient_mu    3.342
_exptl_absorpt_correction_T_max  0.7532
_exptl_absorpt_correction_T_min  0.5259
_exptl_absorpt_correction_type   multi-scan
_exptl_absorpt_process_details
;
(SADABS; Bruker, 2015)
;
_exptl_crystal_colour            'pale yellow'
_exptl_crystal_density_diffrn    1.778
_exptl_crystal_description       block
_exptl_crystal_F_000             268
_exptl_crystal_size_max          0.2
_exptl_crystal_size_mid          0.15
_exptl_crystal_size_min          0.1
_refine_diff_density_max         0.628
_refine_diff_density_min         -1.041
_refine_ls_extinction_coef       0.081(15)
_refine_ls_extinction_expression Fc^*^=kFc[1+0.001xFc^2^\l^3^/sin(2\q)]^-1/4^
_refine_ls_extinction_method
;
SHELXL2018 (Sheldrick, 2015b)
;
_refine_ls_goodness_of_fit_ref   1.399
_refine_ls_hydrogen_treatment    mixed
_refine_ls_matrix_type           full
_refine_ls_number_parameters     179
_refine_ls_number_reflns         1720
_refine_ls_number_restraints     20
_refine_ls_restrained_S_all      1.397
_refine_ls_R_factor_all          0.0866
_refine_ls_R_factor_gt           0.0797
_refine_ls_shift/su_max          0.002
_refine_ls_shift/su_mean         0.000
_refine_ls_structure_factor_coef Fsqd
_refine_ls_weighting_details
'w=1/[\s^2^(Fo^2^)+(0.2000P)^2^] where P=(Fo^2^+2Fc^2^)/3'
_refine_ls_weighting_scheme      calc
_refine_ls_wR_factor_gt          0.2624
_refine_ls_wR_factor_ref         0.2812
_reflns_number_gt                1599
_reflns_number_total             1720
_reflns_threshold_expression     'I > 2\s(I)'
_cod_data_source_file            rz4030sup1.cif
_cod_data_source_block           I
_cod_database_code               1551069
_shelx_space_group_comment
;
The symmetry employed for this shelxl refinement is uniquely defined
by the following loop, which should always be used as a source of
symmetry information in preference to the above space-group names.
They are only intended as comments.
;
_shelx_hkl_file
;
  -1   0   0   22.86    1.15
  -1   0   0   22.70    1.31
  -1   0   0   21.14    1.19
  -1   0   0   20.72    1.11
  -1   0   0   19.94    1.14
  -1   0   0   20.82    1.13
  -1   0   0   19.84    1.10
  -1   0   0   20.56    1.10
  -1   0   0   20.98    1.14
   1   0   0   21.70    1.10
   1   0   0   19.53    1.10
   1   0   0   22.40    1.21
   1   0   0   20.68    1.11
   1   0   0   20.09    1.14
   1   0   0   20.40    1.13
   1   0   0   20.87    1.15
   1   0   0   19.54    1.14
   1   0   0   20.01    1.29
  -2   0   0  950.81   47.32
  -2   0   0  921.37   47.78
  -2   0   0  987.86   47.35
  -2   0   0 1000.00   47.53
  -2   0   0  802.98   47.29
  -2   0   0  830.48   47.52
  -2   0   0  747.90   47.47
  -2   0   0  907.82   47.85
   2   0   0  921.31   47.30
   2   0   0  898.57   47.81
  -3   0   0   18.15    0.99
  -3   0   0   16.54    1.00
  -3   0   0   17.36    1.00
  -3   0   0   18.24    0.95
  -3   0   0   16.86    1.07
  -3   0   0   17.30    1.03
  -3   0   0   17.71    1.09
  -3   0   0   16.68    1.05
   3   0   0   18.17    0.99
   3   0   0   17.67    0.95
   3   0   0   17.66    0.98
   3   0   0   17.80    0.96
   3   0   0   17.97    0.94
   3   0   0   17.67    1.02
   3   0   0   17.69    0.94
   3   0   0   18.52    1.05
   3   0   0   17.96    0.94
   3   0   0   14.88    1.42
  -4   0   0  211.19   11.37
  -4   0   0  225.57   11.28
  -4   0   0  212.83   11.18
  -4   0   0  212.47   11.27
   4   0   0  202.62   11.23
   4   0   0  213.79   11.18
   4   0   0  204.18   11.18
   4   0   0  205.08   11.19
   4   0   0  221.89   11.26
   4   0   0  206.79   11.30
  -5   0   0    4.79    0.35
  -5   0   0    5.18    0.41
  -5   0   0    5.05    0.39
   5   0   0    4.92    0.39
   5   0   0    4.63    0.42
  -7   0   0    6.26    0.40
  -7   0   0    6.38    0.50
  -7   0   0    6.29    0.42
  -7   0   0    6.40    0.41
  -7   0   0    6.85    0.44
   7   0   0    5.90    0.44
   7   0   0    6.12    0.52
   7   0   0    5.85    0.42
   7   0   0    6.22    0.40
  -8   0   0    0.28    0.09
  -8   0   0    0.13    0.04
  -8   0   0    0.11    0.04
  -8   0   0    0.39    0.51
  -8   0   0    0.19    0.06
   8   0   0    0.07    0.05
   8   0   0    0.21    0.05
   8   0   0    0.12    0.07
   8  -1   0    5.23    0.36
   8  -1   0    6.10    0.35
  -8   1   0    5.69    0.35
  -8   1   0    5.84    0.35
  -8   1   0    6.24    0.36
   7  -1   0    3.29    0.25
   7  -1   0    3.59    0.28
   7  -1   0    3.37    0.28
   7  -1   0    3.58    0.26
  -7   1   0    3.41    0.25
  -7   1   0    3.53    0.26
  -7   1   0    3.73    0.27
  -7   1   0    3.47    0.33
  -7   1   0    3.94    0.29
  -7   1   0    3.56    0.26
   6  -1   0    6.53    0.44
   6  -1   0    6.62    0.41
   6  -1   0    6.19    0.44
  -6   1   0    6.51    0.41
  -6   1   0    6.27    0.41
  -6   1   0    6.64    0.43
  -6   1   0    4.93    0.45
  -6   1   0    6.76    0.45
  -6   1   0    6.09    0.50
  -6   1   0    6.12    0.41
   5  -1   0    3.23    0.30
  -5   1   0    3.55    0.32
  -5   1   0    3.32    0.28
   4  -1   0   34.20    1.93
   4  -1   0   33.39    1.85
   4  -1   0   32.37    1.85
   4  -1   0   31.07    1.89
   4  -1   0   31.48    1.95
   4  -1   0   33.65    1.85
  -4   1   0   36.56    1.95
  -4   1   0   37.53    1.93
  -4   1   0   34.58    1.85
  -4   1   0   36.59    1.94
  -4   1   0   36.22    2.05
   3  -1   0   86.11    4.40
   3  -1   0   77.81    4.34
   3  -1   0   79.95    4.26
   3  -1   0   78.83    4.26
   3  -1   0   80.62    4.25
   3  -1   0   84.92    4.29
   3  -1   0   82.90    4.25
   3  -1   0   84.73    4.32
   3  -1   0   78.82    4.30
   3  -1   0   82.61    4.26
   3  -1   0   70.13    4.86
  -3   1   0   79.27    4.26
  -3   1   0   79.34    4.26
  -3   1   0   83.81    4.32
  -3   1   0   83.67    4.33
  -3   1   0   83.46    4.41
  -3   1   0   76.52    4.35
  -3   1   0   90.43    4.32
  -3   1   0   73.54    4.36
  -3   1   0   70.24    4.44
   2  -1   0   36.51    1.94
   2  -1   0   38.74    1.98
   2  -1   0   36.90    2.38
   2  -1   0   35.28    1.99
   2  -1   0   36.20    1.94
   2  -1   0   37.22    1.94
   2  -1   0   37.72    1.96
   2  -1   0   40.02    2.05
   2  -1   0   30.25    2.03
   2  -1   0   37.37    1.96
  -2   1   0   34.69    2.01
  -2   1   0   31.92    1.94
  -2   1   0   36.24    1.98
  -2   1   0   40.45    1.98
  -2   1   0   39.13    2.04
  -2   1   0   37.42    2.03
  -2   1   0   35.41    2.00
  -2   1   0   37.18    1.98
  -2   1   0   35.86    2.06
  -2   1   0   36.44    1.98
  -2   1   0   36.47    1.94
   1  -1   0    4.26    0.35
   1  -1   0    4.92    0.30
   1  -1   0    4.95    0.26
   1  -1   0    4.52    0.51
   1  -1   0    4.99    0.53
   1  -1   0    4.94    0.28
   1  -1   0    4.29    0.32
   1  -1   0    4.36    0.33
   1  -1   0    4.75    0.45
   1  -1   0    4.83    0.27
   1  -1   0    4.99    0.26
   1  -1   0    4.99    0.28
   1  -1   0    4.61    0.29
  -1   1   0    5.42    0.30
  -1   1   0    4.77    0.34
  -1   1   0    4.90    0.30
  -1   1   0    5.12    0.52
  -1   1   0    4.96    0.51
  -1   1   0    4.44    0.26
  -1   1   0    4.73    0.26
  -1   1   0    5.65    0.29
  -1   1   0    4.96    0.31
  -1   1   0    4.69    0.29
  -1   1   0    4.23    0.31
  -1   1   0    4.67    0.26
  -1   1   0    4.84    0.33
  -1   1   0    4.89    0.47
   0  -1   0   41.96    2.33
   0  -1   0   41.22    2.32
   0  -1   0   43.32    2.50
   0  -1   0   44.30    2.29
   0  -1   0   46.43    2.47
   0  -1   0   45.80    2.30
   0  -1   0   47.02    2.47
   0  -1   0   45.24    2.29
   0  -1   0   40.86    2.31
   0  -1   0   42.18    2.48
   0   1   0   49.53    2.48
   0   1   0   42.23    2.48
   0   1   0   43.90    2.32
   0   1   0   44.54    2.45
   0   1   0   39.62    2.47
   0   1   0   43.42    2.33
   0   1   0   42.94    2.32
   0   1   0   39.03    2.33
   0   1   0   41.00    2.31
   0   1   0   45.09    2.29
   0   1   0   42.80    2.29
  -1  -1   0   23.76    1.22
  -1  -1   0   22.78    1.18
  -1  -1   0   20.43    1.19
  -1  -1   0   21.58    1.43
  -1  -1   0   21.80    1.18
  -1  -1   0   23.66    1.43
  -1  -1   0   20.42    1.22
  -1  -1   0   23.06    1.22
  -1  -1   0   22.38    1.39
  -1  -1   0   20.65    1.46
  -1  -1   0   24.17    1.37
   1   1   0   21.37    1.21
   1   1   0   20.90    1.22
   1   1   0   22.65    1.22
   1   1   0   22.46    1.18
   1   1   0   21.63    1.18
   1   1   0   23.60    1.42
   1   1   0   22.64    1.47
   1   1   0   20.36    1.22
   1   1   0   22.60    1.19
   1   1   0   23.16    1.22
   1   1   0   22.21    1.42
   1   1   0   24.56    1.21
  -2  -1   0   15.87    0.90
  -2  -1   0   15.89    1.13
  -2  -1   0   14.94    0.86
  -2  -1   0   15.17    0.83
  -2  -1   0   14.55    0.82
  -2  -1   0   14.39    0.82
  -2  -1   0   14.85    0.82
  -2  -1   0   16.16    0.89
  -2  -1   0   15.66    0.88
  -2  -1   0   15.36    0.89
   2   1   0   15.25    0.87
   2   1   0   14.76    0.82
   2   1   0   15.15    0.88
   2   1   0   15.66    0.82
   2   1   0   15.15    0.88
   2   1   0   14.07    1.27
   2   1   0   15.78    0.82
   2   1   0   15.60    0.84
   2   1   0   15.82    0.82
   2   1   0   15.34    0.84
   2   1   0   15.54    0.86
   2   1   0   15.78    0.85
   2   1   0   14.78    1.18
   2   1   0   15.16    0.89
  -3  -1   0   37.00    2.11
  -3  -1   0   40.52    2.49
  -3  -1   0   38.41    2.03
  -3  -1   0   34.23    2.09
  -3  -1   0   40.54    2.03
  -3  -1   0   37.56    2.14
  -3  -1   0   38.66    2.10
  -3  -1   0   37.60    2.15
   3   1   0   38.24    2.11
   3   1   0   38.19    2.02
   3   1   0   37.59    2.85
   3   1   0   38.50    2.07
   3   1   0   39.46    2.02
   3   1   0   39.12    2.09
   3   1   0   39.40    2.07
   3   1   0   36.93    2.02
   3   1   0   34.44    2.58
  -4  -1   0    3.15    0.33
  -4  -1   0    3.11    0.27
  -4  -1   0    3.41    0.28
   4   1   0    3.14    0.24
   4   1   0    2.95    0.24
   4   1   0    3.12    0.26
   4   1   0    3.02    0.28
  -5  -1   0   16.07    0.96
  -5  -1   0   14.70    0.88
  -5  -1   0   16.19    0.95
   5   1   0   13.83    0.90
   5   1   0   14.02    0.97
  -6  -1   0   26.72    1.46
  -6  -1   0   26.23    1.44
  -6  -1   0   23.63    1.54
  -6  -1   0   29.32    1.50
  -6  -1   0   25.16    1.46
  -6  -1   0   26.10    1.46
  -6  -1   0   25.39    1.45
   6   1   0   25.89    1.49
   6   1   0   26.66    1.58
  -7  -1   0    5.48    0.36
  -7  -1   0    5.74    0.48
  -7  -1   0    5.72    0.37
  -7  -1   0    5.22    0.39
  -7  -1   0    5.73    0.38
   7   1   0    5.45    0.41
   7   1   0    5.74    0.50
   7   1   0    5.83    0.36
   7   1   0    5.53    0.38
  -8  -1   0    9.09    0.52
  -8  -1   0    8.88    0.58
  -8  -1   0   10.29    1.33
  -8  -1   0    8.97    0.52
   8   1   0    7.60    0.51
   8   1   0    9.04    0.55
   7  -2   0   18.20    1.02
   7  -2   0   18.30    1.05
   7  -2   0   17.10    1.02
  -7   2   0   18.27    1.02
  -7   2   0   18.57    1.04
  -7   2   0   18.02    1.02
  -7   2   0   18.43    1.04
   6  -2   0    2.83    0.25
   6  -2   0    2.66    0.22
  -6   2   0    2.64    0.23
  -6   2   0    2.69    0.28
  -6   2   0    2.67    0.22
  -6   2   0    2.56    0.22
  -6   2   0    2.67    0.27
  -6   2   0    2.67    0.22
  -6   2   0    2.90    0.25
  -6   2   0    2.63    0.23
  -6   2   0    2.67    0.30
  -5   2   0   35.24    2.12
  -5   2   0   38.72    2.10
  -5   2   0   38.53    2.16
  -5   2   0   40.42    2.16
  -5   2   0   38.27    2.08
  -5   2   0   36.14    2.08
   4  -2   0    7.17    0.49
   4  -2   0    8.53    1.68
   4  -2   0    7.81    0.46
   4  -2   0    7.52    0.48
   4  -2   0    7.83    0.54
   4  -2   0    7.75    0.47
   4  -2   0    7.72    0.66
  -4   2   0    9.29    0.75
  -4   2   0    7.34    0.49
  -4   2   0    8.11    0.55
  -4   2   0    8.23    0.55
  -4   2   0    8.43    0.53
  -4   2   0    7.83    0.47
   3  -2   0   24.53    1.40
   3  -2   0   25.45    1.41
   3  -2   0   25.38    1.41
   3  -2   0   26.52    1.58
   3  -2   0   25.43    1.39
   3  -2   0   26.07    1.47
   3  -2   0   26.25    1.44
   3  -2   0   26.29    1.40
   3  -2   0   25.16    1.40
  -3   2   0   25.50    1.48
  -3   2   0   25.11    1.40
  -3   2   0   26.39    1.47
  -3   2   0   29.55    1.49
  -3   2   0   26.26    1.56
  -3   2   0   26.43    1.47
   2  -2   0   13.23    0.71
   2  -2   0   12.88    0.75
   2  -2   0   13.22    0.71
   2  -2   0   13.11    0.73
   2  -2   0   13.52    0.83
   2  -2   0   12.87    0.70
   2  -2   0   13.07    0.70
   2  -2   0   11.69    0.70
  -2   2   0   12.47    0.78
  -2   2   0   13.85    0.77
  -2   2   0   11.72    0.83
  -2   2   0   13.35    0.81
  -2   2   0   11.56    1.12
  -2   2   0   13.18    0.75
  -2   2   0   13.10    0.76
  -2   2   0   12.95    0.75
  -2   2   0   13.99    0.85
   1  -2   0    0.58    0.05
   1  -2   0    0.71    0.05
   1  -2   0    0.52    0.05
   1  -2   0    0.57    0.07
   1  -2   0    0.53    0.12
   1  -2   0    0.56    0.05
   1  -2   0    0.68    0.06
   1  -2   0    0.51    0.24
   1  -2   0    0.61    0.05
   1  -2   0    0.58    0.21
   1  -2   0    0.59    0.07
   1  -2   0    0.56    0.10
   1  -2   0    0.67    0.18
  -1   2   0    0.63    0.10
  -1   2   0    0.60    0.07
  -1   2   0    0.64    0.07
  -1   2   0    0.53    0.10
  -1   2   0    0.67    0.09
  -1   2   0    0.68    0.05
  -1   2   0    0.59    0.14
  -1   2   0    0.72    0.07
  -1   2   0    0.73    0.21
  -1   2   0    0.62    0.07
  -1   2   0    0.62    0.08
  -1   2   0    0.53    0.10
  -1   2   0    0.54    0.05
  -1   2   0    0.66    0.11
   0  -2   0  108.27    5.83
   0  -2   0  102.82    5.88
   0  -2   0  112.94    5.81
   0  -2   0  115.36    5.88
   0  -2   0  104.46    6.14
   0  -2   0  109.63    5.87
   0  -2   0  113.91    6.29
   0  -2   0  122.49    5.86
   0  -2   0  104.39    5.81
   0  -2   0  111.07    5.81
   0   2   0  112.67    5.81
   0   2   0  109.68    5.86
   0   2   0  113.82    5.93
   0   2   0  101.53    5.83
   0   2   0  111.69    5.88
   0   2   0  126.99    6.21
   0   2   0  107.83    5.87
   0   2   0  114.32    5.81
   0   2   0  105.56    5.84
   0   2   0  105.89    5.86
   0   2   0   98.85    6.17
   0   2   0  118.50    5.89
   0   2   0  105.52    5.81
   0   2   0  110.57    5.84
   0   2   0  105.47    5.89
  -1  -2   0    6.11    0.34
  -1  -2   0    5.80    0.39
  -1  -2   0    5.75    0.39
  -1  -2   0    6.41    0.41
  -1  -2   0    6.40    0.66
  -1  -2   0    6.14    0.35
  -1  -2   0    6.79    0.35
  -1  -2   0    6.48    0.40
  -1  -2   0    6.35    0.37
  -1  -2   0    5.88    0.38
  -1  -2   0    6.33    0.38
  -1  -2   0    5.92    0.34
  -1  -2   0    7.08    0.65
  -1  -2   0    6.22    0.34
  -1  -2   0    5.95    0.37
   1   2   0    5.42    0.37
   1   2   0    6.01    0.36
   1   2   0    5.95    0.35
   1   2   0    5.48    0.39
   1   2   0    6.54    0.67
   1   2   0    6.13    0.39
   1   2   0    5.62    0.37
   1   2   0    6.57    0.64
   1   2   0    6.81    0.42
   1   2   0    6.88    0.40
   1   2   0    5.93    0.34
   1   2   0    6.07    0.34
   1   2   0    6.42    0.39
   1   2   0    5.71    0.34
  -2  -2   0  108.40    6.29
  -2  -2   0  119.34    6.30
  -2  -2   0  119.05    6.29
  -2  -2   0  118.97    6.29
  -2  -2   0  103.90    6.34
  -2  -2   0  112.34    6.33
  -2  -2   0  120.06    6.37
  -2  -2   0  112.78    6.32
  -2  -2   0  123.27    6.68
  -2  -2   0  115.52    6.30
  -2  -2   0  129.43    7.02
  -2  -2   0  133.27    6.91
   2   2   0  119.70    6.29
   2   2   0  116.68    6.92
   2   2   0  128.87    6.32
   2   2   0  107.49    6.34
   2   2   0  125.00    6.35
   2   2   0  119.53    6.38
   2   2   0  131.22    6.39
   2   2   0  116.67    6.29
   2   2   0  117.71    6.81
   2   2   0  128.74    6.38
   2   2   0  109.34    6.36
   2   2   0  124.32    6.29
   2   2   0  120.64    6.30
   2   2   0  123.65    6.35
   2   2   0  111.00    6.29
  -3  -2   0    0.19    0.07
  -3  -2   0    0.15    0.09
  -3  -2   0    0.46    0.12
  -3  -2   0    0.34    0.05
  -3  -2   0    0.18    0.07
  -3  -2   0    0.25    0.18
   3   2   0    0.26    0.26
   3   2   0    0.23    0.05
   3   2   0    0.25    0.04
   3   2   0    0.35    0.22
   3   2   0    0.32    0.09
   3   2   0    0.29    0.07
   3   2   0    0.29    0.09
  -4  -2   0   43.73    2.82
  -4  -2   0   46.89    2.74
  -4  -2   0   49.42    2.75
   4   2   0   49.85    2.70
   4   2   0   52.63    2.77
   4   2   0   54.49    2.75
  -5  -2   0   93.14    4.97
  -5  -2   0   93.73    5.06
  -5  -2   0   94.42    5.05
   5   2   0   88.83    5.07
  -6  -2   0    2.33    2.07
  -6  -2   0    0.92    0.12
  -6  -2   0    0.97    0.12
  -6  -2   0    1.02    0.16
  -6  -2   0    1.11    1.42
   6   2   0    1.47    0.39
   6   2   0    1.25    0.21
   6   2   0    0.95    0.15
   6   2   0    1.15    0.22
  -7  -2   0   40.00    2.15
  -7  -2   0   37.12    2.04
  -7  -2   0   39.52    2.07
  -7  -2   0   36.60    2.04
   7   2   0   37.60    2.16
   7   2   0   36.07    2.07
   7   2   0   34.07    2.12
  -8  -2   0    1.13    0.11
  -8  -2   0    1.10    0.11
  -8  -2   0    1.04    0.18
  -8  -2   0    0.42    0.56
  -8  -2   0    1.00    0.81
   8   2   0    1.22    0.20
   8   2   0    1.13    0.14
   7  -3   0    3.76    0.25
   7  -3   0    4.05    0.32
   7  -3   0    4.14    0.28
   7  -3   0    3.84    0.26
  -7   3   0    3.54    0.25
  -7   3   0    3.99    0.27
  -7   3   0    3.89    0.27
  -7   3   0    4.14    0.26
   6  -3   0    2.82    0.21
   6  -3   0    2.82    0.24
   6  -3   0    2.64    0.23
  -6   3   0    2.51    0.21
  -6   3   0    2.47    0.24
  -6   3   0    2.74    0.28
  -6   3   0    2.74    0.22
  -6   3   0    2.65    0.23
  -6   3   0    2.91    0.29
  -6   3   0    2.85    0.24
   5  -3   0    9.73    0.61
   5  -3   0    9.46    0.58
  -5   3   0    9.79    0.59
  -5   3   0    9.35    0.60
  -5   3   0    9.51    0.66
  -5   3   0    9.22    0.58
  -5   3   0   10.40    0.62
  -5   3   0    9.15    0.60
  -5   3   0    9.65    0.65
  -5   3   0    9.53    0.59
  -5   3   0    9.17    0.69
   4  -3   0   16.08    0.91
   4  -3   0   15.12    1.00
   4  -3   0   17.04    1.17
  -4   3   0   16.13    0.95
  -4   3   0   16.72    0.91
  -4   3   0   16.35    1.02
  -4   3   0   16.64    1.00
  -4   3   0   16.33    1.02
   3  -3   0   31.77    1.94
   3  -3   0   31.77    1.70
   3  -3   0   32.08    1.72
   3  -3   0   31.15    1.71
   3  -3   0   31.07    1.72
   3  -3   0   31.19    1.73
   3  -3   0   31.66    1.72
   3  -3   0   30.50    1.79
   3  -3   0   31.47    1.77
  -3   3   0   32.70    1.81
  -3   3   0   30.84    1.78
  -3   3   0   33.74    1.72
  -3   3   0   32.77    1.81
  -3   3   0   32.59    1.79
   2  -3   0   32.10    1.70
   2  -3   0   30.62    1.69
   2  -3   0   31.18    1.72
   2  -3   0   30.61    1.74
   2  -3   0   30.80    1.76
   2  -3   0   33.60    1.90
   2  -3   0   32.26    1.71
   2  -3   0   30.83    1.70
  -2   3   0   32.55    1.78
  -2   3   0   29.80    1.76
  -2   3   0   33.11    1.78
  -2   3   0   30.17    1.70
  -2   3   0   31.53    1.76
  -2   3   0   31.50    1.85
  -2   3   0   36.18    1.94
   1  -3   0  255.26   13.21
   1  -3   0  218.91   14.06
   1  -3   0  247.91   13.22
   1  -3   0  239.14   13.94
   1  -3   0  253.65   13.25
   1  -3   0  251.54   13.22
   1  -3   0  287.10   13.22
   1  -3   0  231.31   13.24
   1  -3   0  253.77   13.22
   1  -3   0  260.63   13.36
  -1   3   0  242.93   13.27
  -1   3   0  264.38   13.25
  -1   3   0  237.05   13.30
  -1   3   0  272.60   13.70
  -1   3   0  247.03   13.26
  -1   3   0  234.49   13.82
  -1   3   0  251.31   13.32
  -1   3   0  278.79   13.42
  -1   3   0  245.91   13.33
  -1   3   0  239.39   13.37
  -1   3   0  249.66   13.24
   0  -3   0  143.40    7.33
   0  -3   0  140.45    7.32
   0  -3   0  131.95    7.32
   0  -3   0  155.88    7.97
   0  -3   0  134.10    7.88
   0  -3   0  148.55    8.14
   0  -3   0  123.79    7.42
   0  -3   0  129.29    7.32
   0  -3   0  139.38    7.31
   0  -3   0  142.43    7.35
   0  -3   0  144.82    7.37
   0   3   0  139.86    7.41
   0   3   0  126.98    7.35
   0   3   0  133.88    7.39
   0   3   0  131.53    7.32
   0   3   0  143.60    7.36
   0   3   0  143.27    7.90
   0   3   0  135.55    7.43
   0   3   0  131.22    7.40
   0   3   0  152.06    7.48
  -1  -3   0  190.02    9.45
  -1  -3   0  195.75    9.50
  -1  -3   0  171.47    9.54
  -1  -3   0  177.04    9.53
  -1  -3   0  182.92    9.46
  -1  -3   0  190.29    9.51
  -1  -3   0  202.52   10.23
  -1  -3   0  182.46    9.44
  -1  -3   0  182.89    9.48
  -1  -3   0  186.09    9.45
   1   3   0  165.71    9.48
   1   3   0  155.42    9.53
   1   3   0  152.04    9.49
   1   3   0  193.17    9.46
   1   3   0  168.59    9.58
   1   3   0  161.51   10.02
   1   3   0  168.81    9.53
   1   3   0  194.51    9.54
   1   3   0  182.02   10.04
  -2  -3   0   92.34    5.01
  -2  -3   0   88.21    5.10
  -2  -3   0   89.87    5.05
  -2  -3   0   93.90    5.00
  -2  -3   0   98.84    5.81
  -2  -3   0  105.85    5.02
  -2  -3   0   97.87    5.08
  -2  -3   0   88.05    5.06
   2   3   0   91.57    5.01
   2   3   0   98.45    5.13
   2   3   0   90.12    5.62
   2   3   0   94.66    5.06
   2   3   0   97.77    4.99
   2   3   0   91.69    5.04
   2   3   0   90.78    5.71
   2   3   0   99.03    5.09
  -3  -3   0  202.61   10.83
  -3  -3   0  181.49   10.91
   3   3   0  213.61   10.86
   3   3   0  214.66   10.91
   3   3   0  216.78   10.92
   3   3   0  200.48   10.82
  -4  -3   0   13.42    0.78
  -4  -3   0   10.00    0.81
  -4  -3   0   10.21    0.73
   4   3   0   12.33    0.76
  -5  -3   0   22.51    1.31
  -5  -3   0   18.00    1.19
  -5  -3   0   21.17    1.28
   5   3   0   21.86    1.29
   5   3   0   21.35    1.30
  -6  -3   0    3.18    0.29
  -6  -3   0    3.23    0.25
   6   3   0    3.35    0.49
   6   3   0    3.28    0.35
   6   3   0    3.51    0.37
   6   3   0    3.19    0.26
  -7  -3   0    2.46    0.32
  -7  -3   0    2.77    0.21
   7   3   0    2.64    0.23
   7   3   0    2.56    0.44
   7   3   0    2.46    0.30
   7   3   0    2.66    0.32
  -8  -3   0    0.09    0.68
  -8  -3   0   -0.03    0.50
  -8  -3   0    0.40    0.12
  -8  -3   0    0.40    0.07
   8   3   0    0.42    0.11
   8   3   0    0.35    0.07
   8   3   0    0.52    0.14
   6  -4   0    2.86    0.22
   6  -4   0    2.75    0.30
   6  -4   0    1.42    1.79
   6  -4   0    2.74    0.22
  -6   4   0    3.04    0.25
  -6   4   0    2.94    0.22
  -6   4   0    2.56    0.22
  -6   4   0    3.03    0.23
  -6   4   0    2.57    0.30
  -6   4   0    3.14    0.29
   5  -4   0   13.77    0.80
   5  -4   0   13.26    0.81
  -5   4   0   12.75    0.89
  -5   4   0   15.03    2.13
  -5   4   0   13.89    0.87
  -5   4   0   13.14    0.81
  -5   4   0   13.98    0.82
  -5   4   0   13.10    0.80
  -5   4   0   13.23    0.79
  -5   4   0   12.61    0.89
   4  -4   0    4.37    0.32
   4  -4   0    4.81    0.46
  -4   4   0    4.38    0.37
  -4   4   0    4.40    0.38
  -4   4   0    4.21    0.30
  -4   4   0    3.79    0.31
  -4   4   0    4.28    0.37
  -4   4   0    4.00    0.42
  -4   4   0    4.40    0.33
  -4   4   0    4.12    0.30
  -4   4   0    4.28    0.31
  -4   4   0    1.12    1.87
  -4   4   0    3.92    0.42
   3  -4   0   47.16    2.93
   3  -4   0   48.89    2.66
   3  -4   0   47.53    2.68
   3  -4   0   54.11    2.81
   3  -4   0   48.14    2.66
  -3   4   0   49.87    2.78
  -3   4   0   50.86    2.78
  -3   4   0   51.66    2.66
  -3   4   0   47.55    2.70
   2  -4   0   64.27    3.47
   2  -4   0   65.09    3.47
   2  -4   0   63.11    3.46
   2  -4   0   65.34    3.58
   2  -4   0   62.53    3.52
   2  -4   0   64.00    3.49
   2  -4   0   64.38    3.46
   2  -4   0   65.33    3.47
   2  -4   0   70.03    3.74
  -2   4   0   61.75    3.53
  -2   4   0   64.00    3.66
  -2   4   0   68.67    3.57
  -2   4   0   62.65    3.47
  -2   4   0   70.17    3.78
   1  -4   0    0.25    0.05
   1  -4   0    0.43    0.11
   1  -4   0    0.41    0.06
   1  -4   0    0.26    0.05
   1  -4   0    0.24    0.05
   1  -4   0    0.06    0.09
   1  -4   0    0.27    0.06
   1  -4   0    0.37    0.05
   1  -4   0    0.28    0.08
  -1   4   0    0.26    0.09
  -1   4   0    0.31    0.08
  -1   4   0    0.25    0.12
  -1   4   0    0.26    0.07
  -1   4   0    0.29    0.05
  -1   4   0    0.28    0.09
   0  -4   0  115.17    6.10
   0  -4   0  110.28    6.20
   0  -4   0  113.86    6.19
   0  -4   0  117.93    6.13
   0  -4   0  113.28    6.04
   0  -4   0  107.78    6.99
   0  -4   0  107.99    6.05
   0  -4   0  113.67    6.06
   0  -4   0  117.93    6.05
   0  -4   0  116.67    6.08
   0   4   0  110.61    6.17
   0   4   0  116.76    6.06
   0   4   0  107.84    6.05
   0   4   0  116.69    6.12
   0   4   0  116.72    6.28
   0   4   0  116.81    6.11
   0   4   0  124.47    6.20
  -1  -4   0   15.04    0.92
  -1  -4   0   15.10    0.88
  -1  -4   0   14.43    0.80
  -1  -4   0   14.99    0.86
  -1  -4   0   14.11    0.79
  -1  -4   0   14.83    0.81
  -1  -4   0   14.83    0.83
  -1  -4   0   13.74    0.78
  -1  -4   0   13.72    0.79
   1   4   0   14.65    0.80
   1   4   0   14.78    0.91
   1   4   0   14.52    0.84
   1   4   0   13.10    0.79
   1   4   0   14.71    0.98
   1   4   0   14.67    0.86
  -2  -4   0  103.61    5.75
  -2  -4   0  108.19    5.68
  -2  -4   0  105.02    5.80
  -2  -4   0   98.96    5.72
  -2  -4   0  105.29    5.69
   2   4   0  108.21    5.66
   2   4   0  115.47    5.88
   2   4   0  111.89    5.80
   2   4   0  104.46    5.74
  -3  -4   0   31.36    1.93
  -3  -4   0   34.80    1.84
   3   4   0   35.30    1.83
  -4  -4   0   60.13    3.53
   4   4   0   66.89    3.53
  -6  -4   0    4.80    0.33
  -6  -4   0    4.85    0.44
   6   4   0    4.60    0.42
   6   4   0    4.93    0.60
   6   4   0    4.83    0.44
  -7  -4   0   15.15    0.89
  -7  -4   0   14.51    0.79
   7   4   0   12.86    0.88
   7   4   0   11.52    0.86
   7   4   0   14.47    1.07
  -8  -4   0    0.78    0.08
  -8  -4   0    0.13    0.52
  -8  -4   0    0.77    0.12
   8   4   0    0.73    0.13
   8   4   0    0.73    0.27
   6  -5   0    8.61    0.48
  -6   5   0    7.86    0.49
  -6   5   0    7.51    0.51
  -6   5   0    8.63    0.48
  -6   5   0    8.43    0.53
   5  -5   0    0.36    0.09
   5  -5   0    0.23    0.17
   5  -5   0   -0.74    2.40
  -5   5   0    0.25    0.07
  -5   5   0    0.27    0.09
  -5   5   0    0.46    0.70
  -5   5   0    0.18    1.69
  -5   5   0    0.56    0.16
  -5   5   0   -0.61    2.05
  -5   5   0    0.43    0.17
  -5   5   0    0.49    0.20
  -5   5   0    0.28    0.07
   4  -5   0   42.40    2.27
   4  -5   0   44.88    2.40
  -4   5   0   41.44    2.28
  -4   5   0   39.80    2.34
  -4   5   0   41.76    2.39
  -4   5   0   40.42    2.29
  -4   5   0   40.65    2.27
  -4   5   0   39.35    2.35
  -4   5   0   41.69    2.38
   3  -5   0    0.69    0.11
   3  -5   0    0.96    0.30
   3  -5   0    0.28    0.17
   3  -5   0    3.16    1.82
   3  -5   0   -0.58    3.35
  -3   5   0    0.68    1.97
  -3   5   0    0.03    0.45
  -3   5   0   -0.90    2.18
  -3   5   0   -0.10    0.49
  -3   5   0    0.31    0.08
  -3   5   0   -0.02    1.86
   2  -5   0   31.96    2.04
   2  -5   0   35.24    1.92
   2  -5   0   30.80    1.79
   2  -5   0   31.58    1.77
  -2   5   0   33.56    1.89
  -2   5   0   32.82    2.12
  -2   5   0   32.06    1.76
   1  -5   0   21.58    1.21
   1  -5   0   20.63    1.21
   1  -5   0   23.66    1.35
   1  -5   0   21.81    1.24
   1  -5   0   24.47    2.72
   1  -5   0   21.08    1.30
  -1   5   0   22.25    1.31
  -1   5   0   20.80    1.20
  -1   5   0   23.59    1.53
   0  -5   0   11.82    0.69
   0  -5   0   12.62    0.70
   0  -5   0   11.04    0.85
   0  -5   0   12.55    0.79
   0  -5   0   12.86    0.72
   0   5   0   11.58    0.69
   0   5   0   12.51    0.77
   0   5   0   12.69    0.95
   0   5   0   12.65    0.86
   0   5   0   13.46    0.70
  -1  -5   0   64.24    3.47
  -1  -5   0   61.82    3.44
  -1  -5   0   60.19    3.35
  -1  -5   0   60.31    3.40
  -1  -5   0   63.66    3.38
   1   5   0   63.47    3.53
   1   5   0   63.31    3.36
   1   5   0   65.89    3.65
  -2  -5   0    1.25    0.12
  -2  -5   0    1.29    0.19
   2   5   0    1.22    0.11
   2   5   0    1.25    0.19
   2   5   0    1.25    0.23
   2   5   0    1.05    0.15
  -3  -5   0   19.40    1.05
  -3  -5   0   16.83    1.15
   3   5   0   19.52    1.04
   3   5   0   18.43    1.14
  -4  -5   0    5.42    0.47
   4   5   0    5.73    0.47
  -5  -5   0   -0.52    1.04
  -5  -5   0    0.63    0.18
  -5  -5   0    0.55    0.10
  -5  -5   0    1.19    1.35
  -5  -5   0   -0.02    0.94
  -5  -5   0   -0.01    0.61
   5   5   0    0.46    0.18
   5   5   0    0.53    0.16
   5   5   0    0.87    0.34
   5   5   0    0.32    0.19
  -6  -5   0    6.89    0.52
  -6  -5   0    6.36    0.41
   6   5   0    6.21    0.51
   6   5   0    5.68    0.53
   6   5   0    6.29    0.67
  -7  -5   0    0.02    0.69
  -7  -5   0    0.63    0.57
  -7  -5   0    0.27    0.06
  -7  -5   0    0.33    0.13
  -7  -5   0    0.11    0.76
   7   5   0    0.36    0.14
   7   5   0    0.27    0.18
   5  -6   0    0.94    0.69
   5  -6   0    1.09    0.11
   5  -6   0    1.10    0.25
   5  -6   0    0.83    0.18
  -5   6   0    0.28    1.07
  -5   6   0    1.20    0.14
  -5   6   0    0.26    1.43
  -5   6   0    1.06    0.10
   4  -6   0    6.68    0.49
   4  -6   0    6.15    0.54
   4  -6   0    8.06    0.68
  -4   6   0    8.38    0.48
  -4   6   0    8.14    0.55
   3  -6   0    4.49    0.45
   3  -6   0    4.95    0.53
   3  -6   0    0.88    3.45
  -3   6   0    1.82    2.29
  -3   6   0    2.53    2.71
  -3   6   0    6.98    3.37
   2  -6   0   17.01    1.15
   2  -6   0   16.06    1.06
  -2   6   0   13.51    1.17
  -2   6   0   17.24    1.02
  -2   6   0   15.08    0.94
  -2   6   0   16.40    1.03
   1  -6   0   17.38    1.09
  -1   6   0   18.83    1.30
  -1   6   0   15.36    1.05
  -1   6   0   15.40    1.04
   0  -6   0    3.47    1.84
   0  -6   0    1.07    0.15
   0  -6   0    1.11    0.26
   0   6   0    0.92    0.23
  -1  -6   0    3.56    0.36
  -1  -6   0    3.66    0.27
  -1  -6   0    3.28    0.34
   1   6   0    3.71    0.46
   1   6   0    3.52    0.25
  -2  -6   0   64.89    3.88
   2   6   0   74.98    3.76
   4   6   0    7.97    0.66
   4   6   0    8.54    0.87
   4   6   0    7.11    0.59
  -5  -6   0    5.32    0.50
   5   6   0    6.66    0.56
   5   6   0    5.53    0.62
   5   6   0    5.64    0.69
  -6  -6   0    4.23    1.13
  -6  -6   0    2.76    0.30
   6   6   0    2.90    0.42
   6   6   0    2.57    0.29
   6   6   0    2.39    0.32
  -7  -6   0    2.00    0.58
  -7  -6   0    1.41    0.49
   7   6   0    2.01    0.29
   7   6   0    2.21    0.21
   4  -7   0   13.86    0.85
   3  -7   0    0.21    0.23
   3  -7   0    0.39    0.96
   3  -7   0    0.26    0.25
   3  -7   0    0.19    0.14
   3  -7   0    0.99    2.58
  -3   7   0    0.02    0.15
  -3   7   0   -0.07    1.74
  -3   7   0    0.27    2.07
  -3   7   0    0.08    0.07
  -3   7   0   -0.01    1.49
  -3   7   0    0.09    0.48
  -3   7   0    0.11    0.11
  -3   7   0    0.02    0.09
  -2   7   0   19.63    5.22
  -2   7   0   23.74    1.61
   1  -7   0    0.51    0.23
   1  -7   0    0.03    3.63
   1  -7   0    0.31    0.30
   1  -7   0    0.32    0.27
   1  -7   0    1.28    1.35
   1  -7   0    0.31    0.19
  -1   7   0    0.17    0.57
  -1   7   0    0.59    0.21
  -1   7   0    0.20    1.87
  -1   7   0   -0.63    2.20
  -1   7   0    0.61    2.67
  -1   7   0    2.09    1.03
  -1   7   0    1.98    1.35
  -1   7   0    0.39    0.25
   0  -7   0  109.75    5.74
   0  -7   0   97.62    5.76
   0   7   0  105.15    5.71
  -1  -7   0   31.99    1.87
   1   7   0   30.97    1.84
   1   7   0   30.00    1.99
   1   7   0   31.06    1.84
   2   7   0   51.04    3.13
   2   7   0   53.48    2.98
  -3  -7   0    4.75    3.13
  -3  -7   0    9.33    2.00
  -4  -7   0    0.37    1.19
   4   7   0    1.80    0.25
  -5  -7   0    0.16    0.80
  -5  -7   0    2.13    0.34
   5   7   0    1.01    0.24
   5   7   0    1.39    0.26
   5   7   0    1.33    0.33
  -6  -7   0    0.21    0.46
  -6  -7   0    0.25    0.39
  -6  -7   0   -0.10    0.49
  -6  -7   0    0.08    0.07
  -6  -7   0    0.15    0.55
   6   7   0    0.02    0.11
   6   7   0    0.01    0.07
   6   7   0    0.05    0.09
  -3   8   0    0.35    0.98
   2  -8   0    0.16    1.81
   2  -8   0   -0.09    0.18
   2  -8   0    0.10    0.19
   2  -8   0    0.15    0.12
   2  -8   0   -0.20    0.64
  -2   8   0   -1.10    1.15
  -2   8   0    0.06    0.09
  -2   8   0    0.00    0.13
  -2   8   0   -0.12    0.30
  -2   8   0   -0.02    0.32
  -2   8   0   -0.37    1.74
   1  -8   0    2.47    3.04
   1  -8   0    0.25    2.32
   1  -8   0    1.82    0.99
  -1   8   0    3.38    1.12
  -1   8   0    0.58    1.88
  -1   8   0   -0.16    1.80
   0  -8   0    0.45    0.18
   0  -8   0   -0.26    0.69
   0  -8   0   -0.09    2.80
   0  -8   0    0.53    2.51
   0   8   0   -1.33    1.86
   0   8   0    0.08    3.34
   0   8   0    0.02    0.17
   0   8   0    0.21    0.16
   0   8   0    0.17    0.53
   0   8   0   -0.01    0.39
   0   8   0    0.38    0.72
  -1  -8   0   12.00    0.76
   1   8   0    8.97    0.82
   1   8   0   11.28    0.76
  -2  -8   0    0.29    1.24
  -2  -8   0    1.49    1.05
  -2  -8   0   -0.39    2.19
   2   8   0    0.58    0.21
   2   8   0   -0.94    1.66
   2   8   0    0.22    0.17
   2   8   0    0.15    0.53
  -3  -8   0    8.57    1.70
   3   8   0    7.87    0.71
   3   8   0    7.67    0.58
   3   8   0    6.71    0.75
  -4  -8   0   -0.22    0.77
  -4  -8   0    0.36    0.70
   4   8   0    0.00    0.09
   4   8   0    0.06    0.11
   4   8   0    0.03    0.11
   4   8   0    0.02    0.13
  -5  -8   0    0.30    0.47
  -5  -8   0    0.12    0.59
   5   8   0    0.20    0.09
   5   8   0    0.05    0.13
   0  -9   0    2.09    0.22
   0  -9   0    0.15    1.33
  -1  -9   0   10.14    0.67
   1   9   0    9.65    0.64
  -2  -9   0   -0.12    0.62
  -2  -9   0    0.00    1.32
  -2  -9   0    0.52    0.55
   2   9   0   -0.03    0.36
   5   8  -1   13.68    1.11
   4   8  -1    1.19    0.18
   4   8  -1    1.11    0.27
   4   8  -1    1.01    0.19
  -4  -8   1    2.33    0.87
  -4  -8   1    0.14    1.11
  -3  -8   1   15.61    2.01
   2   8  -1    3.34    0.37
   2   8  -1    4.45    0.49
   2   8  -1    4.00    0.51
  -2  -8   1    0.45    2.28
  -2  -8   1    4.58    0.37
   1   8  -1   23.44    1.38
   1   8  -1   22.93    2.51
   1   8  -1   22.34    1.36
  -1  -8   1   21.52    1.36
   0   8  -1    0.19    0.55
   0  -8   1   -0.30    2.27
   0  -8   1    0.22    0.73
  -1   8  -1    0.56    1.56
   1  -8   1    1.27    2.14
   1  -8   1    2.64    0.28
  -2   8  -1    0.04    0.28
  -2   8  -1   -0.13    0.25
  -2   8  -1   -0.11    1.35
  -2   8  -1    0.03    0.07
  -2   8  -1   -0.01    0.10
   2  -8   1    0.10    0.95
   2  -8   1   -0.17    0.44
   2  -8   1    0.05    0.08
   2  -8   1    0.02    0.12
   2  -8   1   -0.09    0.13
   6   7  -1    0.19    0.13
  -6  -7   1    0.28    0.50
   5   7  -1    0.57    0.18
  -5  -7   1    0.04    0.56
  -5  -7   1   -0.12    0.76
   4   7  -1    9.02    0.62
   4   7  -1    6.64    0.70
   4   7  -1    7.45    0.83
   4   7  -1    9.25    0.68
  -4  -7   1   10.90    3.29
   3   7  -1    5.79    0.71
  -3  -7   1    5.78    1.58
   2   7  -1   46.02    2.76
   2   7  -1   45.53    2.57
  -2  -7   1   41.81    2.54
   1   7  -1    0.12    0.17
   1   7  -1    0.40    0.71
   1   7  -1    0.18    0.14
   1   7  -1   -0.03    0.12
   1   7  -1   -1.80    2.10
  -1  -7   1    0.12    0.16
  -1  -7   1    0.38    1.10
  -1  -7   1    0.13    0.90
  -1  -7   1   -0.56    3.38
  -1  -7   1    0.27    0.14
  -1  -7   1    0.00    0.22
   0   7  -1    5.50    0.64
   0  -7   1    5.95    0.53
  -1   7  -1    2.85    0.44
  -1   7  -1    0.27    2.19
  -1   7  -1    0.56    2.11
   1  -7   1   -0.10    2.92
   1  -7   1   -0.70    2.51
  -2   7  -1    0.22    1.70
  -2   7  -1   -0.19    0.52
  -2   7  -1    0.23    0.19
  -2   7  -1   -0.11    0.52
  -2   7  -1   -0.17    2.02
   2  -7   1    0.47    2.60
   2  -7   1    0.18    0.88
   2  -7   1    0.13    0.22
   2  -7   1    0.76    0.32
   2  -7   1    0.20    0.16
  -3   7  -1   -0.26    1.86
  -3   7  -1    2.49    0.26
   3  -7   1    2.43    0.26
   3  -7   1    2.31    0.34
   3  -7   1    2.62    0.36
  -4   7  -1    0.20    1.25
  -4   7  -1    0.01    0.08
   4  -7   1    0.13    0.14
   7   6  -1    0.06    0.06
   7   6  -1   -0.02    0.08
   6   6  -1    0.11    0.11
   6   6  -1    0.03    0.13
   6   6  -1    0.07    0.12
  -6  -6   1   -0.07    0.55
  -6  -6   1   -0.08    0.45
  -6  -6   1    0.37    0.61
  -6  -6   1    0.14    0.67
   5   6  -1    0.27    0.22
   5   6  -1    0.05    0.16
   5   6  -1    0.23    0.18
  -5  -6   1    0.28    0.76
  -5  -6   1    1.28    1.15
  -5  -6   1    0.35    1.04
  -5  -6   1    0.78    0.83
   4   6  -1    0.47    0.21
   4   6  -1    0.37    0.17
   4   6  -1    0.79    0.24
   4   6  -1    0.83    0.36
  -4  -6   1   -0.23    0.60
  -4  -6   1    0.03    0.79
  -4  -6   1   -0.46    1.02
  -4  -6   1    0.73    2.79
   3   6  -1    1.01    2.70
   2   6  -1   -0.34    1.81
   2   6  -1    1.27    0.25
   2   6  -1    1.43    0.34
   2   6  -1    0.69    0.74
   2   6  -1    1.49    0.30
  -2  -6   1    0.40    2.79
   1   6  -1   74.94    4.54
  -1  -6   1   80.82    4.30
   0   6  -1   31.85    1.92
   0   6  -1   34.80    2.13
   0   6  -1   28.79    1.90
   0  -6   1   36.71    1.96
  -1   6  -1   13.34    1.04
  -1   6  -1   11.48    0.82
   1  -6   1   12.79    0.86
   1  -6   1   11.87    0.94
   1  -6   1   12.13    0.87
   1  -6   1   10.92    0.89
  -2   6  -1   11.66    1.80
   2  -6   1    9.01    0.73
  -4   6  -1    1.06    1.40
  -4   6  -1   -0.32    1.81
   4  -6   1    0.94    0.87
   4  -6   1    2.51    0.35
   4  -6   1    1.94    0.26
   5  -6   1   12.95    0.77
   5  -6   1   13.78    0.80
   7   5  -1    1.95    0.33
   7   5  -1    2.10    0.24
  -7  -5   1    3.37    0.92
   6   5  -1   -0.11    0.11
   6   5  -1    0.04    0.19
   6   5  -1    0.00    0.11
  -6  -5   1    0.03    0.11
  -6  -5   1    0.61    0.90
  -6  -5   1   -0.06    0.89
  -6  -5   1   -0.18    0.71
  -6  -5   1    0.00    0.48
   5   5  -1    0.87    0.23
   5   5  -1    0.57    0.17
   5   5  -1    0.53    0.26
   5   5  -1    0.75    0.27
  -5  -5   1    0.42    0.16
  -5  -5   1    0.06    1.11
  -5  -5   1   -0.14    0.82
   4   5  -1    9.12    0.77
   4   5  -1    8.59    0.69
   4   5  -1    8.30    0.74
   3   5  -1    5.93    0.35
  -3  -5   1    5.83    0.37
  -3  -5   1    4.87    0.44
   2   5  -1  144.18    7.42
  -2  -5   1  126.43    7.52
  -2  -5   1  144.90    7.44
  -2  -5   1  143.94    7.52
   1   5  -1    3.94    0.26
   1   5  -1    4.27    0.46
  -1  -5   1    4.20    0.29
  -1  -5   1    3.80    0.34
   0   5  -1  159.87    8.17
   0   5  -1  151.54    7.80
   0  -5   1  149.20    7.82
   0  -5   1  127.91    7.99
  -1   5  -1    1.87    0.32
   1  -5   1    1.89    0.32
   1  -5   1    0.79    1.06
   1  -5   1    1.89    0.17
   1  -5   1    2.64    0.33
  -2   5  -1   60.15    3.58
  -2   5  -1   59.86    3.31
   2  -5   1   56.22    3.20
   2  -5   1   60.22    3.52
   2  -5   1   60.11    3.33
  -3   5  -1    8.58    0.70
  -3   5  -1   12.36    0.95
  -3   5  -1   10.82    0.78
  -3   5  -1   10.49    0.76
  -3   5  -1    9.99    0.66
  -3   5  -1   10.55    0.73
   3  -5   1   11.40    0.78
   3  -5   1   10.70    0.64
  -4   5  -1    8.21    0.57
  -4   5  -1    3.99    2.63
  -4   5  -1    5.40    1.29
  -5   5  -1    6.90    0.44
  -5   5  -1    5.59    0.47
  -5   5  -1    6.87    0.41
   5  -5   1    6.92    0.50
   5  -5   1    5.35    0.52
   5  -5   1    6.72    0.41
   5  -5   1    6.29    0.54
  -6   5  -1    0.07    0.07
  -6   5  -1    0.03    0.04
   6  -5   1    0.11    0.04
  -8  -4   1    0.59    0.61
   7   4  -1    2.31    0.38
   7   4  -1    1.86    0.26
   7   4  -1    1.91    0.26
  -7  -4   1    2.14    0.16
  -7  -4   1    2.37    0.25
   6   4  -1    0.44    0.19
   6   4  -1    0.50    0.30
   6   4  -1    0.61    0.20
  -6  -4   1    0.42    0.08
  -6  -4   1   -0.10    0.98
  -6  -4   1    0.00    0.66
  -6  -4   1   -0.26    0.76
  -6  -4   1    0.35    0.16
  -6  -4   1    2.29    1.14
   5   4  -1    4.19    0.44
   5   4  -1    4.58    0.40
   5   4  -1    4.69    0.54
  -5  -4   1    3.82    0.37
   4   4  -1    3.03    0.30
  -4  -4   1    3.11    0.22
  -4  -4   1    2.61    0.29
   3   4  -1  125.18    6.27
   3   4  -1  122.29    6.38
  -3  -4   1  122.64    6.29
  -3  -4   1  102.39    6.36
   2   4  -1   39.38    2.05
   2   4  -1   40.02    2.18
  -2  -4   1   37.21    2.12
  -2  -4   1   33.21    2.12
  -2  -4   1   38.73    2.06
  -2  -4   1   39.34    2.08
   1   4  -1  110.69    5.73
   1   4  -1  113.09    5.81
   1   4  -1  107.49    5.58
   1   4  -1   99.47    5.64
  -1  -4   1  103.46    5.65
  -1  -4   1   99.09    5.65
  -1  -4   1  106.44    5.74
  -1  -4   1  104.04    5.59
  -1  -4   1  103.00    5.61
   0   4  -1    5.26    0.43
   0   4  -1    4.93    0.31
   0   4  -1    5.35    0.49
   0   4  -1    5.14    0.35
   0  -4   1    5.72    0.47
   0  -4   1    4.95    0.35
   0  -4   1    4.82    0.36
   0  -4   1    4.85    0.40
   0  -4   1    5.29    0.33
  -1   4  -1   81.80    4.42
  -1   4  -1   85.76    4.71
  -1   4  -1   84.32    4.59
  -1   4  -1   84.13    4.50
   1  -4   1   82.26    4.44
   1  -4   1   80.29    4.47
   1  -4   1   83.80    4.64
  -2   4  -1   21.54    1.43
  -2   4  -1   21.02    1.22
   2  -4   1   17.53    1.19
   2  -4   1   20.53    1.15
   2  -4   1   21.35    1.38
   2  -4   1   20.99    1.25
  -3   4  -1   57.57    3.27
  -3   4  -1   60.70    3.51
   3  -4   1   58.73    3.28
   3  -4   1   57.92    3.47
  -4   4  -1   50.88    3.09
  -4   4  -1   55.93    3.02
  -4   4  -1   62.28    3.33
  -4   4  -1   55.64    3.04
  -4   4  -1   54.05    3.13
  -4   4  -1   55.79    3.13
   4  -4   1   59.30    3.04
   4  -4   1   51.72    3.11
  -5   4  -1    1.64    0.19
  -5   4  -1    1.33    0.22
  -5   4  -1    1.37    0.15
  -5   4  -1    0.41    1.97
  -5   4  -1    5.13    2.69
  -5   4  -1    1.20    0.14
  -5   4  -1    1.66    0.30
   5  -4   1    1.11    0.23
   5  -4   1    0.25    2.08
   5  -4   1    1.41    0.17
   5  -4   1    1.30    0.16
  -6   4  -1    3.54    0.27
  -6   4  -1    3.81    0.32
  -6   4  -1    3.48    0.24
  -6   4  -1    3.46    0.24
   6  -4   1    2.84    0.31
   6  -4   1    3.33    0.25
   6  -4   1    3.70    0.25
   8   3  -1   14.94    0.82
   8   3  -1   12.19    0.86
   8   3  -1   13.96    0.86
  -8  -3   1   15.37    0.80
  -8  -3   1   15.45    0.86
   7   3  -1    9.17    0.71
   7   3  -1   11.32    0.65
   7   3  -1   11.47    0.72
  -7  -3   1   11.54    0.61
  -7  -3   1    7.93    0.67
   6   3  -1   62.02    3.46
   6   3  -1   56.75    3.45
   6   3  -1   66.14    3.72
  -6  -3   1   62.79    3.46
  -6  -3   1   61.11    3.34
  -6  -3   1   63.67    3.38
   5   3  -1   39.50    2.43
  -5  -3   1   45.17    2.44
   4   3  -1    6.74    0.50
   4   3  -1    6.39    0.44
  -4  -3   1    7.02    0.41
  -4  -3   1    6.21    0.49
   3   3  -1    1.32    0.16
   3   3  -1    1.34    0.18
   3   3  -1    1.36    0.13
   3   3  -1    1.53    0.11
  -3  -3   1    1.47    0.12
  -3  -3   1    1.43    0.12
  -3  -3   1    1.12    0.16
   2   3  -1   15.26    0.89
   2   3  -1   16.05    0.91
   2   3  -1   14.42    0.83
   2   3  -1   14.43    0.87
   2   3  -1   15.41    0.81
  -2  -3   1   14.98    0.84
  -2  -3   1   15.18    0.83
  -2  -3   1   13.11    0.87
  -2  -3   1   14.53    0.91
   1   3  -1    5.49    0.30
   1   3  -1    5.95    0.43
   1   3  -1    5.37    0.38
   1   3  -1    4.57    0.39
   1   3  -1    4.83    0.35
   1   3  -1    5.06    0.68
  -1  -3   1    4.91    0.39
  -1  -3   1    5.33    0.77
  -1  -3   1    5.13    0.32
  -1  -3   1    4.87    0.69
  -1  -3   1    5.05    0.31
  -1  -3   1    4.63    0.34
   0   3  -1  140.59    7.84
   0   3  -1  146.48    8.30
   0   3  -1  162.58    7.73
   0   3  -1  138.66    7.85
   0   3  -1  160.14    7.81
   0   3  -1  152.47    7.69
   0  -3   1  142.86    7.73
   0  -3   1  132.90    8.35
   0  -3   1  148.38    7.72
   0  -3   1  147.63    7.70
   0  -3   1  127.84    7.68
  -1   3  -1   21.84    1.30
  -1   3  -1   21.27    1.73
  -1   3  -1   23.52    1.27
  -1   3  -1   22.55    1.21
  -1   3  -1   25.04    1.34
  -1   3  -1   19.96    1.25
  -1   3  -1   23.99    1.42
   1  -3   1   22.29    1.22
   1  -3   1   23.81    1.38
   1  -3   1   22.49    1.25
   1  -3   1   22.33    1.26
   1  -3   1   20.87    1.25
  -2   3  -1    5.42    0.37
  -2   3  -1    5.72    0.51
  -2   3  -1    5.56    0.38
  -2   3  -1    4.69    0.31
  -2   3  -1    5.38    0.43
  -2   3  -1    6.00    0.43
   2  -3   1    5.45    0.48
   2  -3   1    4.89    0.39
   2  -3   1    5.24    0.35
   2  -3   1    5.12    0.37
   2  -3   1    5.41    0.33
  -3   3  -1   46.45    2.71
  -3   3  -1   46.38    2.52
  -3   3  -1   45.35    2.52
  -3   3  -1   43.69    2.83
   3  -3   1   47.19    2.69
   3  -3   1   44.81    2.51
   3  -3   1   42.09    2.47
  -4   3  -1    9.28    0.63
  -4   3  -1    9.59    0.58
  -4   3  -1    9.08    0.63
   4  -3   1    8.20    0.65
   4  -3   1    8.75    0.62
   4  -3   1    8.81    0.76
  -5   3  -1   47.18    2.66
  -5   3  -1   47.58    2.67
  -5   3  -1   47.45    2.65
  -5   3  -1   48.19    2.73
  -5   3  -1   51.13    2.68
   5  -3   1   49.32    2.67
   5  -3   1   50.04    2.68
   5  -3   1   48.99    2.64
  -6   3  -1    0.04    0.05
  -6   3  -1   -0.01    0.05
  -6   3  -1    0.27    1.81
  -6   3  -1    0.06    0.06
  -6   3  -1   -0.02    0.10
  -6   3  -1    0.03    0.08
   6  -3   1   -0.17    0.13
   6  -3   1    0.14    0.07
   6  -3   1    0.11    0.06
   6  -3   1    0.10    0.09
  -7   3  -1    4.23    0.26
  -7   3  -1    4.33    0.26
  -7   3  -1    4.22    0.30
  -7   3  -1    3.92    0.27
   7  -3   1    3.80    0.30
   7  -3   1    3.26    0.24
   7  -3   1    3.91    0.27
   7  -3   1    3.67    0.26
   8   2  -1    0.46    0.09
   8   2  -1    0.50    0.15
  -8  -2   1    0.61    0.13
  -8  -2   1    0.07    0.54
  -8  -2   1    0.04    0.57
  -8  -2   1    0.43    0.07
   7   2  -1   13.77    0.91
   7   2  -1   13.20    0.87
   7   2  -1   13.64    0.82
  -7  -2   1   12.34    0.87
  -7  -2   1   13.19    0.76
  -7  -2   1   14.04    0.78
   6   2  -1   13.80    2.95
  -6  -2   1   15.60    2.19
   5   2  -1    0.07    0.06
   5   2  -1    0.05    0.06
   5   2  -1   -0.04    1.02
  -5  -2   1    0.09    0.08
  -5  -2   1   -0.06    0.05
  -5  -2   1    0.10    0.06
   4   2  -1    8.11    0.53
   4   2  -1    8.65    0.58
   4   2  -1    8.55    0.60
   4   2  -1    8.55    0.53
   4   2  -1    8.14    0.48
  -4  -2   1    9.37    0.50
  -4  -2   1    8.38    0.49
  -4  -2   1    7.81    0.55
  -4  -2   1    8.33    0.58
  -4  -2   1    8.50    0.64
   3   2  -1  283.37   14.00
   3   2  -1  260.59   14.95
   3   2  -1  275.19   14.05
   3   2  -1  271.71   14.01
   3   2  -1  294.54   14.10
   3   2  -1  281.54   14.11
   3   2  -1  265.77   14.00
   3   2  -1  265.41   14.00
  -3  -2   1  267.84   14.84
  -3  -2   1  255.82   14.02
  -3  -2   1  225.59   14.12
  -3  -2   1  253.39   14.09
  -3  -2   1  270.62   14.01
  -3  -2   1  261.33   14.10
  -3  -2   1  249.02   14.01
   2   2  -1   43.63    2.30
   2   2  -1   43.63    2.36
   2   2  -1   39.52    2.86
   2   2  -1   44.54    2.33
   2   2  -1   43.74    2.84
   2   2  -1   42.28    2.29
   2   2  -1   46.23    2.30
   2   2  -1   48.00    2.36
   2   2  -1   41.83    2.29
   2   2  -1   39.67    2.42
  -2  -2   1   43.72    2.38
  -2  -2   1   44.73    2.93
  -2  -2   1   46.86    2.41
  -2  -2   1   42.73    2.38
  -2  -2   1   36.86    2.35
  -2  -2   1   43.88    2.32
  -2  -2   1   42.93    2.32
  -2  -2   1   43.40    2.31
   1   2  -1  413.62   20.32
   1   2  -1  413.81   20.69
   1   2  -1  361.26   20.32
   1   2  -1  402.73   22.18
   1   2  -1  361.54   20.49
   1   2  -1  381.87   20.51
   1   2  -1  420.01   20.90
   1   2  -1  432.01   20.72
   1   2  -1  415.17   21.92
   1   2  -1  413.93   20.33
   1   2  -1  400.17   20.37
  -1  -2   1  358.85   20.40
  -1  -2   1  392.26   20.64
  -1  -2   1  327.88   20.38
  -1  -2   1  353.60   20.31
  -1  -2   1  348.05   20.52
  -1  -2   1  411.30   20.66
  -1  -2   1  381.48   22.67
  -1  -2   1  401.80   20.34
  -1  -2   1  351.38   20.54
  -1  -2   1  401.33   20.63
  -1  -2   1  355.70   20.42
  -1  -2   1  354.03   20.32
   0   2  -1    2.46    0.23
   0   2  -1    2.98    0.17
   0   2  -1    2.68    0.20
   0   2  -1    2.77    0.17
   0   2  -1    2.98    0.20
   0   2  -1    2.90    0.22
   0   2  -1    3.25    0.23
   0   2  -1    2.61    0.20
   0   2  -1    2.88    0.21
   0   2  -1    2.89    0.25
   0   2  -1    2.97    0.41
   0   2  -1    3.04    0.19
   0   2  -1    2.82    0.17
   0   2  -1    3.05    0.26
   0  -2   1    2.91    0.19
   0  -2   1    2.84    0.24
   0  -2   1    2.97    0.17
   0  -2   1    2.84    0.17
   0  -2   1    2.62    0.45
   0  -2   1    2.66    0.17
   0  -2   1    2.67    0.43
   0  -2   1    2.61    0.18
   0  -2   1    2.90    0.19
   0  -2   1    2.94    0.17
   0  -2   1    2.77    0.23
   0  -2   1    2.93    0.38
  -1   2  -1  273.30   14.84
  -1   2  -1  313.72   15.33
  -1   2  -1  278.73   14.73
  -1   2  -1  311.67   14.88
  -1   2  -1  253.40   14.62
  -1   2  -1  241.99   14.72
  -1   2  -1  297.09   14.84
  -1   2  -1  291.89   14.67
  -1   2  -1  268.96   15.54
  -1   2  -1  278.36   14.85
  -1   2  -1  275.32   14.74
   1  -2   1  304.82   14.74
   1  -2   1  273.61   14.69
   1  -2   1  270.18   14.61
   1  -2   1  302.85   14.84
   1  -2   1  282.10   14.63
   1  -2   1  286.61   14.68
   1  -2   1  256.21   16.05
   1  -2   1  272.65   14.62
   1  -2   1  236.67   15.54
   1  -2   1  255.67   14.74
  -2   2  -1    8.30    0.60
  -2   2  -1    8.45    0.52
  -2   2  -1    6.74    0.78
  -2   2  -1    7.33    0.58
  -2   2  -1    8.57    0.63
  -2   2  -1    7.93    0.48
  -2   2  -1    8.12    0.49
  -2   2  -1    8.05    0.54
   2  -2   1    7.81    0.44
   2  -2   1    7.48    0.48
   2  -2   1    7.93    0.46
   2  -2   1    8.31    0.58
   2  -2   1    7.38    0.43
   2  -2   1    6.82    0.43
   2  -2   1    7.43    0.44
   2  -2   1    7.59    0.43
  -3   2  -1  149.16    8.33
  -3   2  -1  153.85    8.25
  -3   2  -1  144.43    8.21
  -3   2  -1  160.67    8.18
  -3   2  -1  168.00    8.41
   3  -2   1  149.65    8.20
   3  -2   1  149.37    8.24
   3  -2   1  160.39    8.38
  -4   2  -1   31.26    1.73
  -4   2  -1   31.42    1.73
  -4   2  -1   29.42    1.66
   4  -2   1   28.73    1.85
   4  -2   1   28.54    1.71
  -5   2  -1   25.92    1.41
  -5   2  -1   23.50    1.38
  -5   2  -1   23.55    1.39
  -5   2  -1   23.14    1.39
  -5   2  -1   24.58    1.44
  -5   2  -1   24.79    1.37
  -5   2  -1   24.50    1.44
   5  -2   1   25.85    1.41
   5  -2   1   25.93    1.38
  -6   2  -1    5.86    0.41
  -6   2  -1    6.17    0.47
  -6   2  -1    6.43    0.43
  -6   2  -1    5.93    0.42
  -6   2  -1    6.06    0.40
   6  -2   1    6.06    0.40
   6  -2   1    5.72    0.40
   6  -2   1    5.84    0.43
  -7   2  -1    0.45    0.08
  -7   2  -1    0.60    0.11
  -7   2  -1    0.50    0.13
  -7   2  -1    0.46    0.09
  -7   2  -1    0.59    0.10
   7  -2   1    0.42    0.11
   7  -2   1    0.45    0.08
   7  -2   1    0.45    0.08
   8   1  -1   10.98    0.62
   8   1  -1   11.49    0.66
   8   1  -1    9.63    0.69
  -8  -1   1   11.21    0.62
  -8  -1   1   10.96    0.68
   7   1  -1    2.44    0.33
   7   1  -1    2.71    0.20
   7   1  -1    4.06    2.36
   7   1  -1    2.37    0.23
  -7  -1   1    2.23    0.20
  -7  -1   1    2.48    0.19
  -7  -1   1    2.44    0.20
  -7  -1   1    2.44    0.20
  -7  -1   1    2.35    0.22
   6   1  -1   26.55    1.56
  -6  -1   1   27.59    1.46
  -6  -1   1   24.81    1.47
  -6  -1   1   25.60    1.44
  -6  -1   1   25.07    1.44
  -6  -1   1   24.95    1.43
  -6  -1   1   25.40    1.42
   5   1  -1    1.07    0.19
   5   1  -1    1.16    0.16
   5   1  -1    1.07    0.11
  -5  -1   1    1.32    0.18
  -5  -1   1    1.26    0.15
  -5  -1   1    1.66    0.19
   4   1  -1    0.24    0.05
   4   1  -1    0.29    0.08
   4   1  -1    0.33    0.05
   4   1  -1    0.33    0.06
   4   1  -1    0.30    0.05
   4   1  -1    0.36    0.09
   4   1  -1    0.28    0.10
   4   1  -1    0.23    0.05
   4   1  -1    0.29    0.08
  -4  -1   1    0.32    0.12
  -4  -1   1    0.30    0.09
  -4  -1   1    0.26    0.06
  -4  -1   1    0.29    0.06
  -4  -1   1    0.26    0.09
  -4  -1   1    0.27    0.05
  -4  -1   1    0.37    0.12
   3   1  -1    0.30    0.07
   3   1  -1    0.31    0.04
   3   1  -1    0.33    0.04
   3   1  -1    0.32    0.07
   3   1  -1    0.30    0.23
   3   1  -1    0.36    0.09
   3   1  -1    0.28    0.27
   3   1  -1    0.30    0.04
   3   1  -1    0.41    0.04
  -3  -1   1    0.30    0.09
  -3  -1   1    0.33    0.10
  -3  -1   1    0.39    0.06
  -3  -1   1    0.29    0.08
  -3  -1   1    0.32    0.05
  -3  -1   1    0.28    0.05
  -3  -1   1    0.23    0.06
  -3  -1   1    0.30    0.10
  -3  -1   1    0.42    0.11
   2   1  -1   66.60    3.37
   2   1  -1   63.36    3.37
   2   1  -1   57.34    3.90
   2   1  -1   65.94    3.37
   2   1  -1   54.35    3.86
   2   1  -1   63.89    3.42
   2   1  -1   63.92    3.49
   2   1  -1   62.75    3.45
   2   1  -1   64.80    3.43
   2   1  -1   64.55    3.37
   2   1  -1   68.45    3.40
   2   1  -1   64.67    3.37
   2   1  -1   67.32    3.40
  -2  -1   1   63.55    3.39
  -2  -1   1   65.65    3.44
  -2  -1   1   60.31    3.37
  -2  -1   1   61.68    3.38
  -2  -1   1   66.19    3.40
  -2  -1   1   63.35    3.44
  -2  -1   1   65.50    3.83
  -2  -1   1   63.93    3.44
  -2  -1   1   65.01    3.47
   1   1  -1   96.04    5.63
   1   1  -1   98.28    6.24
   1   1  -1  116.11    5.71
   1   1  -1  101.21    5.55
   1   1  -1  103.33    5.60
   1   1  -1  108.59    5.60
   1   1  -1   98.38    5.58
   1   1  -1   94.31    5.60
   1   1  -1  103.46    5.57
   1   1  -1  111.69    5.55
   1   1  -1  111.17    6.26
   1   1  -1  108.26    5.94
   1   1  -1  102.70    5.55
  -1  -1   1  111.83    5.56
  -1  -1   1  106.94    5.60
  -1  -1   1  120.01    5.55
  -1  -1   1   92.99    6.21
  -1  -1   1   98.41    5.58
  -1  -1   1  110.56    5.60
  -1  -1   1  101.84    5.90
  -1  -1   1  111.83    5.61
  -1  -1   1  104.32    5.61
  -1  -1   1  116.30    5.64
  -1  -1   1  109.41    5.59
  -1  -1   1   97.96    5.57
  -1  -1   1  100.30    5.57
   0   1  -1  285.83   13.87
   0   1  -1  247.47   13.69
   0   1  -1  231.70   13.51
   0   1  -1  263.92   13.51
   0   1  -1  246.84   13.72
   0   1  -1  265.62   13.76
   0   1  -1  273.15   13.60
   0   1  -1  239.76   13.69
   0   1  -1  258.27   14.58
   0   1  -1  278.08   13.71
   0   1  -1  260.70   15.22
   0  -1   1  260.64   13.57
   0  -1   1  265.01   13.51
   0  -1   1  258.16   14.68
   0  -1   1  223.51   13.54
   0  -1   1  233.69   14.97
   0  -1   1  255.67   14.25
   0  -1   1  241.73   13.65
   0  -1   1  248.28   13.50
   0  -1   1  264.42   13.69
   0  -1   1  267.28   13.72
  -1   1  -1   81.05    4.59
  -1   1  -1   83.25    4.54
  -1   1  -1   88.47    4.64
  -1   1  -1   88.70    4.57
  -1   1  -1   82.34    4.59
  -1   1  -1   89.02    4.65
  -1   1  -1   87.11    4.56
  -1   1  -1   97.47    4.94
  -1   1  -1   82.39    4.85
  -1   1  -1   88.91    4.59
  -1   1  -1   88.72    4.54
  -1   1  -1   91.79    4.61
  -1   1  -1   81.62    4.54
   1  -1   1   85.23    4.63
   1  -1   1   77.34    4.57
   1  -1   1   88.89    4.54
   1  -1   1   89.24    4.54
   1  -1   1   80.88    4.74
   1  -1   1   84.84    4.59
   1  -1   1   90.99    4.61
   1  -1   1   82.43    4.55
   1  -1   1   94.99    4.62
   1  -1   1   73.82    4.82
   1  -1   1   82.33    4.55
   1  -1   1   83.58    4.54
   1  -1   1   90.26    4.57
  -2   1  -1  130.19    6.80
  -2   1  -1  132.76    6.89
  -2   1  -1  115.02    6.75
  -2   1  -1  129.78    6.82
  -2   1  -1  128.64    6.79
  -2   1  -1  130.67    6.77
  -2   1  -1  122.29    6.82
  -2   1  -1  114.47    6.81
  -2   1  -1  125.86    6.88
  -2   1  -1  135.13    6.85
   2  -1   1  117.53    6.87
   2  -1   1  134.99    6.85
   2  -1   1  125.53    6.75
   2  -1   1  127.30    6.74
   2  -1   1  133.36    6.79
   2  -1   1  137.78    6.75
   2  -1   1  136.14    6.76
   2  -1   1  132.81    6.74
   2  -1   1  121.99    6.80
   2  -1   1  123.24    6.77
  -3   1  -1   11.05    0.65
  -3   1  -1   11.00    0.66
  -3   1  -1   11.07    0.64
  -3   1  -1   11.23    0.73
  -3   1  -1   11.21    0.74
  -3   1  -1    9.47    0.68
   3  -1   1   10.51    0.64
   3  -1   1   10.12    0.71
   3  -1   1   10.93    0.61
   3  -1   1    9.86    0.66
   3  -1   1   10.15    0.62
  -4   1  -1   46.77    2.44
  -4   1  -1   47.62    2.56
  -4   1  -1   46.72    2.43
   4  -1   1   38.02    2.48
   4  -1   1   42.40    2.42
   4  -1   1   40.24    2.45
  -5   1  -1   13.58    0.84
  -5   1  -1   12.50    0.81
   5  -1   1   11.90    0.81
  -6   1  -1   60.21    3.28
  -6   1  -1   58.81    3.23
  -6   1  -1   64.05    3.26
  -6   1  -1   58.20    3.21
  -6   1  -1   56.57    3.22
  -6   1  -1   58.74    3.21
  -6   1  -1   58.71    3.22
   6  -1   1   59.11    3.26
   6  -1   1   60.47    3.21
   6  -1   1   60.05    3.25
  -7   1  -1    0.05    0.05
  -7   1  -1    0.18    0.08
  -7   1  -1    0.19    0.08
  -7   1  -1    0.09    0.07
  -7   1  -1    0.10    0.05
   7  -1   1    0.14    0.08
   7  -1   1    0.02    0.08
   7  -1   1    0.08    0.06
  -8   1  -1    3.39    0.20
  -8   1  -1    2.60    0.20
   8  -1   1    2.97    0.20
   8  -1   1    2.62    0.19
   8   0  -1    5.92    0.38
   8   0  -1    6.25    0.37
   8   0  -1    6.50    0.40
  -8   0   1    6.67    0.38
  -8   0   1    5.47    0.37
  -8   0   1    6.49    0.44
   6   0  -1   16.00    1.03
   6   0  -1   15.52    0.95
  -6   0   1   15.91    0.95
  -6   0   1   15.79    0.90
  -6   0   1   16.17    0.92
  -6   0   1   15.93    0.92
  -6   0   1   16.11    0.94
  -6   0   1   15.87    0.91
  -6   0   1   14.87    0.90
   5   0  -1    4.29    0.28
   5   0  -1    4.24    0.28
   5   0  -1    4.11    0.35
   5   0  -1    4.01    0.39
  -5   0   1    4.60    0.37
  -5   0   1    4.88    0.38
  -5   0   1    4.46    0.29
   4   0  -1    8.03    0.47
   4   0  -1    8.23    0.48
   4   0  -1    8.69    0.46
   4   0  -1    8.01    0.47
   4   0  -1    8.13    0.50
   4   0  -1    7.97    0.52
   4   0  -1    8.25    0.54
   4   0  -1    8.03    0.47
   4   0  -1    8.37    0.58
  -4   0   1    8.76    0.55
  -4   0   1    7.97    0.49
  -4   0   1    8.77    0.64
  -4   0   1    8.49    0.48
  -4   0   1    8.14    0.52
  -4   0   1    8.82    0.56
  -4   0   1    8.26    0.48
   3   0  -1   19.41    1.08
   3   0  -1   20.12    1.07
   3   0  -1   19.99    1.12
   3   0  -1   17.11    1.66
   3   0  -1   20.09    1.08
   3   0  -1   18.87    1.12
   3   0  -1   20.59    1.07
   3   0  -1   20.58    1.08
   3   0  -1   20.47    1.16
   3   0  -1   20.68    1.13
  -3   0   1   19.86    1.16
  -3   0   1   21.11    1.14
  -3   0   1   21.43    1.21
  -3   0   1   21.45    1.19
  -3   0   1   19.35    1.22
  -3   0   1   18.73    1.19
  -3   0   1   19.63    1.08
  -3   0   1   20.39    1.10
  -3   0   1   19.89    1.14
  -3   0   1   20.42    1.09
   2   0  -1    8.81    0.57
   2   0  -1    9.54    0.53
   2   0  -1    8.70    0.91
   2   0  -1    9.21    0.55
   2   0  -1    8.83    0.67
   2   0  -1    9.05    0.50
   2   0  -1    7.80    0.64
   2   0  -1    9.83    0.53
   2   0  -1    8.86    0.53
   2   0  -1    9.98    0.50
   2   0  -1    9.22    0.49
   2   0  -1    9.48    0.50
  -2   0   1    9.38    0.58
  -2   0   1    9.43    0.57
  -2   0   1    9.44    0.51
  -2   0   1    8.80    0.53
  -2   0   1    8.78    0.50
  -2   0   1    9.63    0.55
  -2   0   1    9.58    0.60
  -2   0   1    9.04    0.56
  -2   0   1    9.66    0.52
  -2   0   1    8.62    0.54
  -2   0   1    8.63    0.71
  -2   0   1   10.48    0.52
  -2   0   1    9.25    0.57
  -2   0   1    9.39    0.61
   1   0  -1   32.56    1.70
   1   0  -1   32.11    1.74
   1   0  -1   31.21    1.73
   1   0  -1   30.87    1.75
   1   0  -1   29.73    1.87
   1   0  -1   33.21    1.70
   1   0  -1   30.62    2.01
   1   0  -1   32.71    1.72
   1   0  -1   31.84    1.92
   1   0  -1   31.06    1.89
   1   0  -1   33.67    1.77
  -1   0   1   31.50    1.70
  -1   0   1   32.76    1.70
  -1   0   1   31.29    1.75
  -1   0   1   33.73    1.96
  -1   0   1   33.10    1.77
  -1   0   1   32.62    1.74
  -1   0   1   33.47    2.01
  -1   0   1   32.53    1.72
  -1   0   1   34.91    1.73
  -1   0   1   31.67    1.73
   0   0  -1    0.74    0.06
   0   0  -1    0.82    0.08
   0   0  -1    0.92    0.06
   0   0  -1    0.67    0.14
   0   0  -1    0.86    0.05
   0   0  -1    0.89    0.06
   0   0  -1    0.94    0.09
   0   0  -1    0.86    0.12
   0   0  -1    0.77    0.15
   0   0  -1    0.82    0.08
   0   0  -1    0.91    0.10
   0   0  -1    0.86    0.05
   0   0   1    0.91    0.10
   0   0   1    0.83    0.05
   0   0   1    0.83    0.16
   0   0   1    0.86    0.05
   0   0   1    0.83    0.07
   0   0   1    0.86    0.06
   0   0   1    0.86    0.12
   0   0   1    0.77    0.05
   0   0   1    0.78    0.15
   0   0   1    0.72    0.06
  -1   0  -1  141.86    7.40
  -1   0  -1  148.59    7.55
  -1   0  -1  127.14    8.27
  -1   0  -1  140.93    8.36
  -1   0  -1  122.81    7.44
  -1   0  -1  138.38    7.41
  -1   0  -1  151.48    7.63
   1   0   1  140.75    7.51
   1   0   1  140.07    7.59
   1   0   1  147.31    7.50
   1   0   1  141.25    7.45
   1   0   1  125.09    8.06
   1   0   1  154.32    7.44
   1   0   1  132.23    7.91
   1   0   1  155.35    7.42
   1   0   1  137.85    7.53
  -2   0  -1  601.19   30.41
  -2   0  -1  485.73   28.34
  -2   0  -1  495.85   30.19
  -2   0  -1  559.86   28.69
  -2   0  -1  559.18   28.67
  -2   0  -1  491.69   28.34
   2   0   1  525.89   28.68
   2   0   1  537.46   28.53
   2   0   1  463.93   28.33
   2   0   1  518.70   29.69
   2   0   1  610.40   28.67
   2   0   1  594.77   28.36
  -3   0  -1    8.92    0.62
  -3   0  -1    9.62    0.65
  -3   0  -1    9.94    0.57
  -3   0  -1    9.10    0.58
  -3   0  -1    9.09    0.64
  -3   0  -1    8.53    0.56
   3   0   1    9.55    0.56
   3   0   1    8.67    1.08
   3   0   1    9.67    0.56
   3   0   1    8.71    0.56
   3   0   1    9.94    0.61
   3   0   1    9.69    0.60
  -4   0  -1  345.08   18.15
  -4   0  -1  329.26   18.01
  -4   0  -1  319.06   18.01
  -4   0  -1  349.34   18.04
   4   0   1  335.74   18.06
   4   0   1  364.69   18.02
   4   0   1  336.82   18.00
  -5   0  -1    4.08    0.33
  -5   0  -1    4.02    0.31
  -5   0  -1    4.14    0.35
   5   0   1    3.56    0.35
   5   0   1    3.64    0.32
  -6   0  -1  103.43    6.19
  -6   0  -1  110.47    6.11
  -6   0  -1  119.69    6.16
  -6   0  -1  113.28    6.11
  -6   0  -1  114.12    6.13
  -6   0  -1  130.59    6.23
   6   0   1  111.79    6.16
   6   0   1  116.33    6.24
   6   0   1  113.55    6.14
   6   0   1  113.12    6.11
  -7   0  -1    8.09    0.62
  -7   0  -1    9.22    0.56
  -7   0  -1    9.46    0.57
  -7   0  -1   10.02    0.59
  -7   0  -1    9.16    0.55
   7   0   1    8.94    0.55
   7   0   1    8.89    0.59
   7   0   1    8.92    0.65
   7   0   1    8.86    0.57
  -8   0  -1   53.82    2.80
  -8   0  -1   56.64    2.81
  -8   0  -1   52.19    2.79
   8   0   1   55.12    2.82
   8   0   1   49.69    2.79
   8   0   1   45.39    2.80
   8  -1  -1   14.43    0.76
   8  -1  -1   13.12    0.74
  -8   1   1   11.65    0.73
  -8   1   1   13.81    0.76
  -7   1   1   53.96    4.28
  -7   1   1   44.67    4.57
   6  -1  -1   16.93    2.44
   5  -1  -1    4.21    0.28
   5  -1  -1    3.93    0.35
   5  -1  -1    3.41    0.44
   5  -1  -1    4.04    0.28
   5  -1  -1    4.47    0.28
  -5   1   1    4.33    0.28
  -5   1   1    4.22    0.32
  -5   1   1    4.58    0.37
  -5   1   1    4.52    0.37
   4  -1  -1    3.71    0.40
   4  -1  -1    4.00    0.24
   4  -1  -1    3.74    0.28
   4  -1  -1    3.97    0.25
   4  -1  -1    4.20    0.25
   4  -1  -1    3.62    0.28
   4  -1  -1    4.06    0.25
   4  -1  -1    4.30    0.24
   4  -1  -1    4.08    0.32
   4  -1  -1    3.77    0.33
  -4   1   1    4.00    0.26
  -4   1   1    3.79    0.30
  -4   1   1    4.12    0.39
  -4   1   1    3.68    0.25
  -4   1   1    4.28    0.33
  -4   1   1    4.49    0.33
   3  -1  -1    3.72    0.22
   3  -1  -1    3.57    0.25
   3  -1  -1    3.66    0.21
   3  -1  -1    3.72    0.34
   3  -1  -1    3.56    0.27
   3  -1  -1    3.62    0.24
   3  -1  -1    3.07    0.58
   3  -1  -1    3.48    0.28
   3  -1  -1    3.58    0.22
   3  -1  -1    3.77    0.21
  -3   1   1    3.68    0.27
  -3   1   1    3.47    0.22
  -3   1   1    3.78    0.26
  -3   1   1    3.33    0.22
  -3   1   1    3.32    0.30
  -3   1   1    3.79    0.28
  -3   1   1    3.82    0.32
   2  -1  -1   33.21    2.29
   2  -1  -1   34.69    1.83
   2  -1  -1   33.40    1.78
   2  -1  -1   32.56    1.78
   2  -1  -1   32.89    1.84
   2  -1  -1   35.70    1.81
   2  -1  -1   34.18    1.78
   2  -1  -1   33.31    1.81
  -2   1   1   33.86    1.87
  -2   1   1   33.72    1.84
  -2   1   1   33.55    1.83
  -2   1   1   33.81    1.79
  -2   1   1   30.79    1.85
  -2   1   1   33.62    1.92
  -2   1   1   34.21    1.81
  -2   1   1   33.33    1.84
  -2   1   1   34.36    1.82
   1  -1  -1  240.65   12.63
   1  -1  -1  268.00   14.30
   1  -1  -1  239.61   12.71
   1  -1  -1  231.43   13.10
   1  -1  -1  228.07   14.04
   1  -1  -1  255.43   12.58
   1  -1  -1  225.69   12.50
   1  -1  -1  266.72   12.51
  -1   1   1  219.71   12.52
  -1   1   1  235.42   12.77
  -1   1   1  265.11   12.69
  -1   1   1  202.71   12.57
  -1   1   1  220.57   12.60
  -1   1   1  249.48   12.68
  -1   1   1  210.92   13.39
  -1   1   1  227.17   12.66
  -1   1   1  240.83   12.57
  -1   1   1  238.85   12.61
  -1   1   1  235.10   12.50
   0  -1  -1   43.91    2.20
   0  -1  -1   38.03    2.21
   0  -1  -1   45.53    2.46
   0  -1  -1   38.83    2.39
   0  -1  -1   38.75    2.22
   0  -1  -1   44.64    2.22
   0  -1  -1   41.28    2.44
   0  -1  -1   42.96    2.37
   0  -1  -1   36.85    2.22
   0  -1  -1   39.74    2.23
   0  -1  -1   42.60    2.19
   0  -1  -1   42.19    2.19
   0  -1  -1   42.60    2.50
   0   1   1   45.91    2.23
   0   1   1   39.84    2.19
   0   1   1   37.73    2.20
   0   1   1   40.78    2.20
   0   1   1   44.93    2.23
   0   1   1   39.66    2.24
   0   1   1   39.89    2.19
   0   1   1   40.37    2.40
   0   1   1   46.45    2.38
   0   1   1   41.86    2.45
  -1  -1  -1  172.62    9.30
  -1  -1  -1  177.08    9.12
  -1  -1  -1  153.26    9.13
  -1  -1  -1  177.25    9.27
  -1  -1  -1  164.88    9.92
  -1  -1  -1  195.69    9.21
  -1  -1  -1  182.50    9.13
  -1  -1  -1  170.90   10.22
  -1  -1  -1  170.98    9.26
  -1  -1  -1  171.04    9.89
  -1  -1  -1  173.09    9.35
   1   1   1  186.69    9.91
   1   1   1  167.93    9.28
   1   1   1  171.06    9.12
   1   1   1  169.49    9.25
   1   1   1  168.41    9.20
   1   1   1  164.19    9.17
   1   1   1  189.20    9.35
   1   1   1  164.44    9.24
   1   1   1  183.88   10.62
   1   1   1  165.90    9.84
   1   1   1  154.50    9.17
   1   1   1  177.62   10.81
  -2  -1  -1    0.33    0.15
  -2  -1  -1    0.34    0.03
  -2  -1  -1    0.25    0.06
  -2  -1  -1    0.21    0.06
  -2  -1  -1    0.18    0.05
  -2  -1  -1    0.22    0.06
  -2  -1  -1    0.16    0.07
  -2  -1  -1    0.28    0.06
  -2  -1  -1    0.23    0.03
  -2  -1  -1    0.28    0.15
  -2  -1  -1    0.23    0.03
  -2  -1  -1    0.24    0.03
   2   1   1    0.23    0.19
   2   1   1    0.32    0.06
   2   1   1    0.31    0.07
   2   1   1    0.23    0.06
   2   1   1    0.24    0.13
   2   1   1    0.28    0.05
   2   1   1    0.22    0.07
   2   1   1    0.25    0.19
   2   1   1    0.27    0.03
   2   1   1    0.28    0.05
   2   1   1    0.28    0.03
   2   1   1    0.27    0.03
   2   1   1    0.26    0.06
   2   1   1    0.29    0.07
  -3  -1  -1   13.99    0.82
  -3  -1  -1   11.90    0.76
  -3  -1  -1   13.21    0.83
  -3  -1  -1   10.77    1.04
   3   1   1   12.39    1.35
   3   1   1   13.63    0.79
   3   1   1   13.40    1.31
   3   1   1   13.83    0.75
   3   1   1   13.48    0.75
  -4  -1  -1    3.62    0.29
  -4  -1  -1    3.29    0.28
  -4  -1  -1    3.36    0.29
  -4  -1  -1    3.32    0.36
   4   1   1    3.38    0.26
   4   1   1    3.47    0.26
   4   1   1    3.63    0.31
   4   1   1    3.69    0.29
  -5  -1  -1    3.23    0.30
  -5  -1  -1    3.10    0.26
   5   1   1    2.89    0.26
   5   1   1    2.99    0.31
  -6  -1  -1    3.76    0.28
  -6  -1  -1    3.42    0.28
  -6  -1  -1    3.53    0.36
  -6  -1  -1    3.62    0.26
  -6  -1  -1    4.26    0.33
   6   1   1    3.60    0.26
   6   1   1    3.74    0.28
   6   1   1    3.65    0.30
   6   1   1    3.98    0.40
  -7  -1  -1    0.12    0.90
  -7  -1  -1    0.12    0.07
  -7  -1  -1    0.17    0.06
  -7  -1  -1    0.12    0.10
  -7  -1  -1    0.16    0.15
  -7  -1  -1    0.06    0.06
   7   1   1    0.09    0.06
   7   1   1    0.14    0.08
   7   1   1   -0.01    0.15
   7   1   1    0.01    0.05
  -8  -1  -1    0.07    0.08
  -8  -1  -1    0.15    0.05
  -8  -1  -1    0.18    0.05
  -8  -1  -1    0.11    0.04
   8   1   1    0.20    0.05
   8   1   1    0.14    0.09
   8   1   1    0.08    0.06
   6  -2  -1    9.45    0.56
  -6   2   1    9.02    0.57
  -6   2   1    8.89    0.62
  -6   2   1    8.84    0.59
  -6   2   1    8.87    0.56
  -6   2   1    9.23    0.56
  -6   2   1    9.17    0.57
  -6   2   1    8.99    0.56
   5  -2  -1   20.81    1.19
   5  -2  -1   21.43    1.20
  -5   2   1   20.70    1.26
  -5   2   1   23.01    1.25
  -5   2   1   22.21    1.30
  -5   2   1   20.52    1.22
  -5   2   1   21.33    1.30
  -5   2   1   21.67    1.20
  -5   2   1   23.42    1.39
  -5   2   1   20.96    1.22
   4  -2  -1    2.27    0.17
   4  -2  -1    0.30    1.31
   4  -2  -1    2.18    0.20
   4  -2  -1    2.35    0.24
   4  -2  -1    2.54    0.35
   4  -2  -1    2.48    0.16
   4  -2  -1    2.45    0.17
   4  -2  -1    2.21    0.16
   4  -2  -1    2.28    0.17
  -4   2   1    2.03    0.20
  -4   2   1    2.61    0.18
  -4   2   1    2.21    0.17
  -4   2   1    2.42    0.22
  -4   2   1    2.53    0.24
  -4   2   1    2.40    0.23
  -4   2   1    2.54    0.24
  -4   2   1    2.14    0.42
   3  -2  -1    0.08    0.03
   3  -2  -1    0.05    0.03
   3  -2  -1    0.09    0.06
   3  -2  -1    0.07    0.06
   3  -2  -1    0.05    0.03
   3  -2  -1    0.14    0.04
   3  -2  -1    0.20    0.15
   3  -2  -1    0.05    0.03
  -3   2   1    0.04    0.04
  -3   2   1    0.07    0.03
  -3   2   1    0.09    0.06
  -3   2   1    0.09    0.06
  -3   2   1    0.06    0.04
  -3   2   1    0.05    0.06
   2  -2  -1   25.07    2.20
   2  -2  -1   29.57    1.54
   2  -2  -1   30.84    1.60
   2  -2  -1   24.47    2.09
   2  -2  -1   29.83    1.54
   2  -2  -1   29.77    1.58
   2  -2  -1   25.65    1.54
   2  -2  -1   30.93    1.55
  -2   2   1   30.02    1.66
  -2   2   1   27.54    1.69
  -2   2   1   28.33    2.11
  -2   2   1   29.52    1.62
  -2   2   1   30.53    1.60
  -2   2   1   30.76    1.61
  -2   2   1   29.90    1.56
  -2   2   1   30.33    1.67
  -2   2   1   29.73    1.60
   1  -2  -1  157.55    7.44
   1  -2  -1  134.15    8.08
   1  -2  -1  139.49    7.34
   1  -2  -1  139.03    7.36
   1  -2  -1  141.07    7.89
   1  -2  -1  150.45    7.34
   1  -2  -1  135.46    7.37
   1  -2  -1  136.41    7.91
   1  -2  -1  136.97    7.36
   1  -2  -1  131.16    7.33
  -1   2   1  156.72    7.86
  -1   2   1  133.05    7.37
  -1   2   1  127.99    7.37
  -1   2   1  141.89    7.43
  -1   2   1  131.38    7.34
  -1   2   1  154.18    7.38
  -1   2   1  127.23    7.40
  -1   2   1  135.00    7.96
  -1   2   1  154.01    7.45
  -1   2   1  125.56    7.37
  -1   2   1  132.15    7.33
   0  -2  -1  116.76    6.24
   0  -2  -1  109.01    5.76
   0  -2  -1  111.24    5.75
   0  -2  -1   98.35    5.78
   0  -2  -1  118.23    5.77
   0  -2  -1  117.26    5.77
   0  -2  -1  112.02    5.74
   0  -2  -1  111.50    6.08
   0  -2  -1  102.65    5.80
   0  -2  -1  105.56    5.75
   0   2   1  107.16    5.80
   0   2   1  104.27    5.74
   0   2   1  103.37    5.83
   0   2   1   97.26    6.18
   0   2   1  108.45    5.78
   0   2   1  104.46    6.07
   0   2   1  107.08    5.78
   0   2   1  105.55    5.84
   0   2   1  127.55    5.87
   0   2   1  101.03    5.75
   0   2   1  113.68    5.78
   0   2   1  114.05    6.08
  -1  -2  -1  167.53    8.28
  -1  -2  -1  156.33    8.20
  -1  -2  -1  167.88    8.38
  -1  -2  -1  155.14    8.23
  -1  -2  -1  153.86    8.20
  -1  -2  -1  153.90    8.23
  -1  -2  -1  158.58    8.34
  -1  -2  -1  158.62    9.29
  -1  -2  -1  156.15    8.23
  -1  -2  -1  150.25    8.19
  -1  -2  -1  147.12    8.19
  -1  -2  -1  159.33    8.20
  -1  -2  -1  155.75    9.29
   1   2   1  160.23    8.37
   1   2   1  164.90    8.19
   1   2   1  157.47    8.30
   1   2   1  147.76    8.24
   1   2   1  153.07    8.70
   1   2   1  174.62    8.23
   1   2   1  133.66    8.22
   1   2   1  146.43    8.20
   1   2   1  152.47    8.95
   1   2   1  151.93    8.23
   1   2   1  139.56    8.26
   1   2   1  161.14    8.33
  -2  -2  -1  108.63    5.80
  -2  -2  -1   92.88    5.75
  -2  -2  -1  117.66    5.85
  -2  -2  -1  104.22    5.76
  -2  -2  -1   98.35    5.75
  -2  -2  -1  105.39    5.75
  -2  -2  -1   98.49    5.81
  -2  -2  -1   99.31    6.22
  -2  -2  -1   99.14    5.80
  -2  -2  -1  109.90    5.75
  -2  -2  -1  122.27    6.38
  -2  -2  -1  100.73    5.86
  -2  -2  -1  111.11    5.83
   2   2   1  110.80    5.81
   2   2   1  102.71    5.75
   2   2   1  117.13    5.76
   2   2   1  110.75    6.45
   2   2   1  113.14    5.84
   2   2   1  115.74    6.19
   2   2   1  112.12    5.78
   2   2   1  124.00    6.02
   2   2   1  110.23    5.88
   2   2   1  117.89    5.84
   2   2   1  113.50    5.81
  -3  -2  -1  116.82    6.11
  -3  -2  -1  120.38    6.69
  -3  -2  -1  100.52    6.04
   3   2   1  117.71    6.05
   3   2   1  103.18    6.85
   3   2   1  114.71    6.05
   3   2   1  118.62    6.01
   3   2   1  114.84    5.97
   3   2   1  109.32    6.50
  -4  -2  -1    1.07    0.14
  -4  -2  -1    0.82    0.19
  -4  -2  -1    0.78    0.16
   4   2   1    1.03    0.12
   4   2   1    1.01    0.15
   4   2   1    1.02    0.15
  -5  -2  -1   74.49    3.92
  -5  -2  -1   74.21    4.00
   5   2   1   72.12    4.01
   5   2   1   68.59    3.97
  -6  -2  -1   23.02    1.20
  -6  -2  -1   19.73    1.15
  -6  -2  -1   20.68    1.26
  -6  -2  -1   19.94    1.16
  -6  -2  -1   19.02    1.14
   6   2   1   21.11    1.27
   6   2   1   19.09    1.24
   6   2   1   19.62    1.43
   6   2   1   20.13    1.18
  -7  -2  -1    6.15    0.40
  -7  -2  -1    6.57    0.51
  -7  -2  -1    6.44    0.40
  -7  -2  -1    5.88    0.39
  -7  -2  -1    5.24    0.42
   7   2   1    6.12    0.51
   7   2   1    6.15    0.43
   7   2   1    5.52    0.47
  -8  -2  -1    1.15    0.18
  -8  -2  -1    1.86    0.86
  -8  -2  -1    1.43    0.12
  -8  -2  -1    1.29    0.13
   8   2   1    1.47    0.15
   8   2   1    1.20    0.20
   7  -3  -1    4.30    0.27
   7  -3  -1    4.18    0.29
   7  -3  -1    4.14    0.28
   7  -3  -1    3.40    0.33
  -7   3   1    4.44    0.29
  -7   3   1    4.25    0.27
  -7   3   1    4.47    0.28
  -7   3   1    4.22    0.32
   6  -3  -1    2.51    0.24
   6  -3  -1    2.48    0.20
  -6   3   1    2.84    0.28
  -6   3   1    2.23    0.20
  -6   3   1    2.31    0.21
  -6   3   1    2.47    0.27
  -6   3   1    2.14    0.29
  -6   3   1    4.12    1.60
  -6   3   1    2.42    0.24
  -6   3   1    2.43    0.21
  -6   3   1    2.19    0.30
  -6   3   1    2.42    0.20
  -6   3   1    2.34    0.22
   5  -3  -1   18.20    1.03
   5  -3  -1   18.13    1.02
  -5   3   1   18.24    1.10
  -5   3   1   17.74    1.04
  -5   3   1   19.15    1.12
  -5   3   1   17.75    1.01
  -5   3   1   17.69    1.15
  -5   3   1   17.89    1.04
  -5   3   1   17.65    1.15
  -5   3   1   18.68    1.11
  -5   3   1   17.90    1.05
  -5   3   1   18.57    1.04
  -5   3   1   18.07    1.06
  -5   3   1   19.02    1.07
  -5   3   1   17.55    1.04
   4  -3  -1    1.05    0.11
   4  -3  -1    1.01    0.10
   4  -3  -1    1.00    0.11
   4  -3  -1    1.09    0.11
   4  -3  -1    0.82    0.24
   4  -3  -1    0.24    1.00
   4  -3  -1    1.00    0.09
   4  -3  -1    0.83    0.12
  -4   3   1    1.13    0.12
  -4   3   1    1.32    0.16
  -4   3   1    0.99    0.17
  -4   3   1    0.95    0.13
   3  -3  -1  126.14    6.58
   3  -3  -1  125.44    6.59
   3  -3  -1  126.18    6.59
   3  -3  -1  128.12    6.67
   3  -3  -1  122.39    6.58
   3  -3  -1  116.97    6.64
   3  -3  -1  124.03    6.59
   3  -3  -1  125.62    6.82
   3  -3  -1  123.91    6.61
  -3   3   1  119.45    6.79
  -3   3   1  124.74    6.59
  -3   3   1  121.41    6.66
  -3   3   1  136.79    6.69
  -3   3   1  120.31    6.68
   2  -3  -1  164.75    8.51
   2  -3  -1  157.88    8.45
   2  -3  -1  157.85    8.47
   2  -3  -1  165.78    8.46
   2  -3  -1  162.54    8.48
   2  -3  -1  154.30    8.51
   2  -3  -1  165.93    8.46
  -2   3   1  168.72    8.66
  -2   3   1  153.32    8.46
  -2   3   1  157.93    8.53
  -2   3   1  166.55    8.54
  -2   3   1  156.66    8.53
  -2   3   1  160.98    8.62
  -2   3   1  149.73    8.54
   1  -3  -1  129.96    6.62
   1  -3  -1  120.60    6.62
   1  -3  -1  132.45    6.61
   1  -3  -1  107.68    6.62
   1  -3  -1  130.93    7.52
   1  -3  -1  128.15    6.62
   1  -3  -1  130.17    6.64
   1  -3  -1  132.88    6.76
   1  -3  -1  129.07    6.66
   1  -3  -1  125.24    7.43
  -1   3   1  112.83    6.68
  -1   3   1  126.68    6.74
  -1   3   1  129.32    6.68
  -1   3   1  136.20    6.80
  -1   3   1  132.77    6.72
  -1   3   1  130.99    6.68
  -1   3   1  120.55    7.25
  -1   3   1  126.15    6.68
  -1   3   1  105.64    6.62
  -1   3   1  118.91    6.75
   0  -3  -1  120.29    6.07
   0  -3  -1  116.57    6.08
   0  -3  -1  110.37    6.16
   0  -3  -1  117.86    6.60
   0  -3  -1  125.49    6.87
   0  -3  -1  123.48    6.14
   0  -3  -1  101.74    6.07
   0  -3  -1  114.53    6.09
   0  -3  -1  124.00    6.80
   0  -3  -1  115.39    6.10
   0  -3  -1  114.50    6.07
   0   3   1  115.35    6.16
   0   3   1  115.88    6.12
   0   3   1  117.79    6.22
   0   3   1  111.70    6.08
   0   3   1  109.46    6.13
   0   3   1  113.19    6.12
   0   3   1  111.98    6.17
   0   3   1  106.48    6.57
  -1  -3  -1  146.86    7.78
  -1  -3  -1  140.85    8.43
  -1  -3  -1  144.75    7.77
  -1  -3  -1  146.72    7.79
  -1  -3  -1  137.17    7.77
  -1  -3  -1  143.07    7.77
  -1  -3  -1  148.41    7.77
  -1  -3  -1  156.00    7.89
  -1  -3  -1  153.77    8.44
  -1  -3  -1  151.61    7.83
   1   3   1  154.79    7.87
   1   3   1  145.39    7.78
   1   3   1  151.69    7.82
   1   3   1  151.12    7.92
   1   3   1  135.02    7.82
   1   3   1  146.62    8.50
   1   3   1  143.97    7.84
   1   3   1  147.93    8.29
   1   3   1  152.09    7.82
  -2  -3  -1   21.82    1.20
  -2  -3  -1   22.42    1.72
  -2  -3  -1   20.73    1.18
  -2  -3  -1   20.09    1.18
  -2  -3  -1   20.15    1.11
  -2  -3  -1   20.56    1.11
  -2  -3  -1   22.40    1.78
  -2  -3  -1   20.05    1.10
  -2  -3  -1   22.24    1.25
  -2  -3  -1   19.99    1.11
  -2  -3  -1   19.80    1.12
   2   3   1   19.31    1.17
   2   3   1   20.01    1.16
   2   3   1   21.04    1.26
   2   3   1   19.86    1.77
   2   3   1   21.01    1.61
   2   3   1   21.05    1.21
   2   3   1   20.14    1.13
   2   3   1   19.89    1.20
   2   3   1   22.08    1.12
   2   3   1   19.37    1.16
  -3  -3  -1  113.20    6.75
  -3  -3  -1  118.04    6.78
   3   3   1  134.35    6.81
   3   3   1  104.66    6.69
   3   3   1  136.95    6.70
   3   3   1  131.69    6.73
   3   3   1  136.12    6.79
   3   3   1  141.74    6.79
   3   3   1  122.12    7.37
  -4  -3  -1   15.28    0.98
   4   3   1   16.21    0.92
  -5  -3  -1    8.19    0.58
  -5  -3  -1    7.29    0.52
  -5  -3  -1    6.99    0.56
   5   3   1    7.48    0.57
   5   3   1    8.18    0.59
  -6  -3  -1    6.84    0.46
  -6  -3  -1    6.79    0.46
  -6  -3  -1    7.93    0.51
   6   3   1    7.06    0.47
   6   3   1    7.24    0.74
   6   3   1    6.38    0.54
   6   3   1    7.45    0.56
  -7  -3  -1   16.36    0.94
  -7  -3  -1   16.64    0.93
  -7  -3  -1   16.46    1.03
  -7  -3  -1   17.14    0.96
   7   3   1   15.12    0.95
   7   3   1   15.09    1.02
   7   3   1   16.60    1.04
  -8  -3  -1   -0.06    0.58
  -8  -3  -1   -0.06    0.44
  -8  -3  -1   -0.02    0.09
  -8  -3  -1    0.01    0.04
  -8  -3  -1   -0.01    0.03
   8   3   1    0.01    0.05
   8   3   1   -0.09    0.07
   8   3   1    0.02    0.07
   6  -4  -1    6.10    0.40
   6  -4  -1    6.18    0.40
  -6   4   1    6.20    0.41
  -6   4   1    6.14    0.48
  -6   4   1    6.21    0.41
  -6   4   1    6.04    0.38
  -6   4   1    6.34    0.39
  -6   4   1    6.57    0.45
  -6   4   1    5.40    0.45
  -6   4   1    6.27    0.41
  -5   4   1   29.51    1.59
  -5   4   1   27.93    1.56
  -5   4   1   23.04    2.69
  -5   4   1   28.09    1.57
  -5   4   1   28.60    1.56
  -5   4   1   28.28    1.68
  -5   4   1   26.92    1.63
  -5   4   1   27.97    1.58
  -5   4   1   29.93    1.65
  -5   4   1   27.51    1.67
  -5   4   1   27.31    1.64
  -5   4   1   28.76    1.56
  -5   4   1   28.22    1.63
   4  -4  -1    0.05    0.05
   4  -4  -1    0.27    1.31
   4  -4  -1    0.10    0.06
   4  -4  -1    2.02    3.27
  -4   4   1    0.07    0.06
  -4   4   1    0.92    0.88
  -4   4   1    0.22    0.07
  -4   4   1    0.20    0.16
  -4   4   1    0.14    0.06
  -4   4   1    0.08    1.47
  -4   4   1    0.15    0.06
  -4   4   1    0.13    0.06
  -4   4   1    0.04    0.12
  -4   4   1    0.01    0.08
  -4   4   1    0.05    0.16
  -4   4   1    0.59    0.93
  -4   4   1    0.14    0.11
  -4   4   1    0.21    0.10
  -4   4   1    0.12    0.08
  -4   4   1    0.11    0.07
   3  -4  -1    3.27    0.22
   3  -4  -1    3.23    0.23
   3  -4  -1    3.12    0.21
   3  -4  -1    3.21    0.22
   3  -4  -1    3.01    0.24
   3  -4  -1    3.23    0.21
  -3   4   1    3.00    0.26
  -3   4   1    3.24    0.30
  -3   4   1    3.32    0.30
  -3   4   1    3.14    0.22
  -3   4   1    3.49    0.30
  -3   4   1    3.20    0.29
   2  -4  -1   30.03    1.65
   2  -4  -1   29.44    1.59
   2  -4  -1   29.03    1.59
   2  -4  -1   29.54    1.60
   2  -4  -1   28.64    1.58
   2  -4  -1   29.53    1.60
   2  -4  -1   28.56    1.62
  -2   4   1   32.39    1.87
  -2   4   1   28.99    1.68
  -2   4   1   28.36    1.78
  -2   4   1   28.99    1.67
  -2   4   1   29.70    1.67
  -2   4   1   30.05    1.59
  -2   4   1   29.65    1.69
   1  -4  -1  122.39    6.50
   1  -4  -1  118.71    6.40
   1  -4  -1  122.88    6.41
   1  -4  -1  117.33    6.45
   1  -4  -1  116.53    6.57
   1  -4  -1  120.67    6.43
   1  -4  -1  119.86    6.40
   1  -4  -1  124.61    6.41
   1  -4  -1  113.39    6.41
  -1   4   1  120.22    6.48
  -1   4   1  125.18    6.49
  -1   4   1  117.24    6.41
  -1   4   1  122.08    6.48
  -1   4   1  128.13    6.66
  -1   4   1  125.18    6.55
  -1   4   1  123.27    6.57
   0  -4  -1    9.03    0.50
   0  -4  -1    9.22    0.52
   0  -4  -1    9.02    0.54
   0  -4  -1    9.02    0.49
   0  -4  -1    9.04    0.51
   0  -4  -1    9.49    0.58
   0  -4  -1    9.16    0.50
   0   4   1    9.02    0.56
   0   4   1    8.99    0.61
   0   4   1    8.91    0.68
   0   4   1    8.90    0.51
   0   4   1    8.61    0.50
   0   4   1    8.98    0.62
   0   4   1    8.74    0.56
  -1  -4  -1   15.52    0.83
  -1  -4  -1   15.09    0.84
  -1  -4  -1   14.89    0.83
  -1  -4  -1   15.78    0.98
  -1  -4  -1   15.91    0.92
  -1  -4  -1   15.10    0.86
  -1  -4  -1   15.49    0.85
  -1  -4  -1   16.14    0.91
  -1  -4  -1   15.36    0.83
   1   4   1   15.49    1.02
   1   4   1   15.50    0.89
   1   4   1   15.56    0.95
   1   4   1   14.93    0.84
   1   4   1   15.27    0.89
   1   4   1   14.32    0.89
   1   4   1   14.74    0.83
  -2  -4  -1   90.91    4.63
  -2  -4  -1   80.89    4.44
  -2  -4  -1   83.74    4.54
  -2  -4  -1   86.90    4.54
  -2  -4  -1   85.04    4.46
  -2  -4  -1   84.11    4.44
  -2  -4  -1   80.39    4.44
  -2  -4  -1   80.54    4.45
   2   4   1   79.37    4.50
   2   4   1   87.65    4.67
   2   4   1   92.23    4.60
   2   4   1   80.77    4.52
   2   4   1   81.53    4.45
   2   4   1   79.79    4.44
  -3  -4  -1    7.08    0.62
  -3  -4  -1    8.07    0.57
  -3  -4  -1    7.36    0.55
  -3  -4  -1    7.85    0.48
   3   4   1    8.70    0.59
   3   4   1    8.55    0.56
   3   4   1    8.49    0.47
  -4  -4  -1   10.05    0.67
   4   4   1    8.39    0.64
  -5  -4  -1   25.71    1.50
  -5  -4  -1   23.24    1.40
  -5  -4  -1   21.48    1.46
   5   4   1   27.50    1.52
  -6  -4  -1   10.79    0.66
  -6  -4  -1   10.15    0.65
  -6  -4  -1    9.54    0.75
   6   4   1   10.94    0.75
   6   4   1   11.81    0.97
   6   4   1   11.68    0.75
  -7  -4  -1    6.85    0.41
  -7  -4  -1    6.54    0.41
  -7  -4  -1    6.64    0.51
   7   4   1    5.87    0.49
   7   4   1    5.99    0.64
   7   4   1    6.19    0.49
  -8  -4  -1    0.88    0.69
   8   4   1    1.62    0.17
   6  -5  -1    8.43    0.57
   6  -5  -1    8.52    0.51
  -6   5   1    8.43    0.55
  -6   5   1    9.04    0.51
  -6   5   1    8.12    0.51
  -6   5   1    8.96    0.52
   5  -5  -1    0.17    0.07
   5  -5  -1   -1.22    2.87
   5  -5  -1    0.18    0.15
   5  -5  -1    0.12    0.72
  -5   5   1    0.23    0.08
  -5   5   1    0.16    0.08
  -5   5   1    0.21    0.16
  -5   5   1    0.08    0.05
  -5   5   1    0.08    0.06
  -5   5   1    0.24    0.56
  -5   5   1    0.13    0.12
  -5   5   1    0.42    0.13
  -5   5   1    0.58    2.61
  -5   5   1    0.20    0.17
  -5   5   1    0.11    0.06
   4  -5  -1   12.62    0.76
   4  -5  -1   12.99    0.90
   4  -5  -1   13.65    0.79
  -4   5   1   12.74    0.90
  -4   5   1   13.71    0.78
  -4   5   1   13.06    0.84
  -4   5   1   13.17    0.78
  -4   5   1   13.02    0.90
  -4   5   1   13.10    0.79
  -4   5   1   12.92    0.87
  -4   5   1   12.94    0.80
  -4   5   1   18.18    3.50
   3  -5  -1    0.12    3.73
   3  -5  -1    3.99    0.27
   3  -5  -1    3.78    0.27
   3  -5  -1    4.70    0.46
   3  -5  -1    3.86    0.26
  -3   5   1    3.78    0.26
  -3   5   1    3.66    0.27
  -3   5   1    3.46    0.38
  -3   5   1    3.61    0.27
  -3   5   1    4.40    0.48
  -3   5   1    4.39    0.38
  -3   5   1    3.58    0.29
  -3   5   1    3.70    0.30
  -3   5   1    3.40    0.29
  -3   5   1    3.16    0.33
  -3   5   1    3.58    0.38
  -3   5   1    3.49    0.32
   2  -5  -1   13.61    0.76
   2  -5  -1   13.61    0.76
   2  -5  -1    9.66    2.21
   2  -5  -1   12.84    0.99
   2  -5  -1   12.37    0.78
   2  -5  -1   13.78    0.76
   2  -5  -1   14.77    0.91
   2  -5  -1   13.33    0.74
   2  -5  -1   13.49    0.88
  -2   5   1   14.33    1.07
  -2   5   1   13.66    0.86
  -2   5   1   13.13    0.80
  -2   5   1   13.70    0.75
  -2   5   1   12.80    0.85
   1  -5  -1    8.56    0.50
   1  -5  -1    8.66    0.50
   1  -5  -1    8.48    0.69
   1  -5  -1    8.83    0.63
   1  -5  -1    8.30    0.52
   1  -5  -1    8.37    0.50
   1  -5  -1   10.75    2.60
   1  -5  -1    8.73    0.60
   1  -5  -1    9.30    0.69
   1  -5  -1    8.50    0.48
   1  -5  -1    8.65    0.49
  -1   5   1    8.36    0.66
  -1   5   1    8.43    0.49
  -1   5   1    8.53    0.74
  -1   5   1    8.49    0.58
   0  -5  -1   86.59    4.64
   0  -5  -1   91.63    4.73
   0  -5  -1   88.76    4.61
   0  -5  -1   84.56    4.81
   0  -5  -1   84.81    4.71
   0  -5  -1   82.61    4.66
   0  -5  -1   88.54    4.62
   0  -5  -1   87.79    4.61
   0  -5  -1   87.38    4.60
   0  -5  -1   86.05    4.62
   0   5   1   84.83    4.69
   0   5   1   86.24    4.79
   0   5   1   87.74    4.70
   0   5   1   88.22    4.62
   0   5   1   86.66    4.90
   0   5   1   86.96    4.61
  -1  -5  -1   21.46    1.37
  -1  -5  -1   22.05    1.19
  -1  -5  -1   21.58    1.18
  -1  -5  -1   23.82    1.30
  -1  -5  -1   20.88    1.19
  -1  -5  -1   21.80    1.21
  -1  -5  -1   22.14    1.18
  -1  -5  -1   21.99    1.30
  -1  -5  -1   21.36    1.19
   1   5   1   21.65    1.44
   1   5   1   21.32    1.26
   1   5   1   21.31    1.18
   1   5   1   21.10    1.34
   1   5   1   22.74    1.20
  -2  -5  -1   69.08    3.71
  -2  -5  -1   68.90    3.92
  -2  -5  -1   70.01    3.82
  -2  -5  -1   70.33    3.72
  -2  -5  -1   67.52    3.72
  -2  -5  -1   69.47    3.73
  -2  -5  -1   71.97    3.85
   2   5   1   68.42    3.81
   2   5   1   68.26    3.71
   2   5   1   71.20    3.72
   2   5   1   69.12    3.89
   2   5   1   72.13    4.00
  -3  -5  -1    2.01    0.24
  -3  -5  -1    1.80    0.29
  -3  -5  -1    2.02    0.24
   3   5   1    2.14    0.16
   3   5   1    2.15    0.24
  -4  -5  -1   25.03    1.57
  -4  -5  -1   22.05    1.49
   4   5   1   28.03    1.43
   4   5   1   27.98    1.57
  -5  -5  -1    3.70    0.40
  -5  -5  -1    3.40    0.30
   5   5   1    4.45    0.58
   5   5   1    4.53    0.39
   5   5   1    4.83    0.54
   5   5   1    4.13    0.44
  -6  -5  -1   10.68    0.68
  -6  -5  -1   12.25    0.80
   6   5   1   10.70    0.82
   6   5   1   10.86    0.77
   6   5   1   12.36    0.98
  -7  -5  -1    0.11    0.96
  -7  -5  -1   -0.19    0.62
   7   5   1    0.74    0.24
   5  -6  -1   14.25    0.94
   5  -6  -1   14.92    0.82
  -5   6   1   15.09    0.83
  -5   6   1   14.92    0.87
  -5   6   1   12.05    0.87
  -5   6   1   15.36    0.83
  -5   6   1   15.56    0.85
  -4   6   1    8.99    0.54
  -4   6   1    8.84    0.54
  -4   6   1    8.72    0.64
  -4   6   1    8.80    0.65
  -4   6   1    8.48    0.55
  -4   6   1    8.66    0.60
  -4   6   1    7.61    0.54
   3  -6  -1   14.00    0.94
   3  -6  -1   13.48    0.78
  -3   6   1   13.74    0.83
  -3   6   1   13.03    1.07
  -3   6   1   13.83    0.82
  -3   6   1   13.99    0.83
  -3   6   1   13.64    0.90
  -3   6   1   13.37    0.92
  -3   6   1   13.44    0.93
  -3   6   1   13.85    0.81
   2  -6  -1   16.99    1.09
   2  -6  -1   16.58    0.93
   2  -6  -1   17.72    0.94
  -2   6   1   16.17    1.06
  -2   6   1   16.18    1.04
  -2   6   1   15.77    1.05
  -2   6   1   16.95    0.92
  -2   6   1   13.86    0.96
  -2   6   1   16.94    0.96
  -2   6   1   19.26    1.29
  -2   6   1   15.03    1.05
   1  -6  -1   22.45    1.22
   1  -6  -1   21.12    1.34
   1  -6  -1   22.05    1.22
   1  -6  -1   23.49    1.37
   1  -6  -1   19.63    1.24
   1  -6  -1   22.47    1.21
  -1   6   1   21.59    1.33
  -1   6   1   21.95    1.57
  -1   6   1   21.98    1.21
   0  -6  -1  157.43    8.51
   0  -6  -1  161.06    8.53
   0  -6  -1  160.12    8.38
   0  -6  -1  153.62    8.42
   0  -6  -1  158.30    8.39
   0  -6  -1  162.35    8.39
   0   6   1  155.81    8.50
   0   6   1  156.83    8.38
  -1  -6  -1    3.34    0.26
  -1  -6  -1    3.38    0.34
  -1  -6  -1    3.85    0.24
  -1  -6  -1    1.23    1.51
   1   6   1    3.74    0.24
   1   6   1    3.63    0.45
   1   6   1    3.53    0.24
  -2  -6  -1  181.44   10.18
  -2  -6  -1  191.38   10.06
   2   6   1  187.34   10.04
   2   6   1  197.54   10.41
  -3  -6  -1    0.35    0.14
  -3  -6  -1    0.16    1.03
  -3  -6  -1    1.87    2.20
   3   6   1    0.18    0.12
   3   6   1   -0.02    0.11
   3   6   1   -0.07    0.85
   4   6   1   20.88    1.52
   4   6   1   18.63    1.17
   4   6   1   19.35    1.20
   4   6   1   18.10    1.08
   4   6   1   18.96    1.26
  -5  -6  -1   12.62    0.90
  -5  -6  -1   11.68    0.78
   5   6   1   14.84    0.97
   5   6   1   13.85    1.03
  -6  -6  -1    5.52    0.34
  -6  -6  -1    5.10    0.43
  -6  -6  -1    3.27    1.32
   6   6   1    5.53    0.48
   6   6   1    3.90    0.52
   6   6   1    5.13    0.40
  -7  -6  -1    0.07    0.45
  -7  -6  -1    0.02    0.68
   7   6   1    0.48    0.11
   7   6   1    0.33    0.16
  -4   7   1    0.60    1.61
   3  -7  -1   -0.31    3.08
  -3   7   1    0.93    0.27
  -3   7   1    0.63    2.28
  -3   7   1    0.26    1.85
  -3   7   1   -0.42    1.89
   2  -7  -1   47.96    2.59
   2  -7  -1   45.18    2.54
  -2   7   1   43.07    2.45
  -2   7   1   36.17    3.79
  -2   7   1   44.56    2.37
  -2   7   1   35.32    3.62
  -2   7   1   43.65    2.43
   1  -7  -1   11.10    0.82
   1  -7  -1    8.68    2.40
  -1   7   1   11.98    0.80
  -1   7   1   11.78    0.74
  -1   7   1   12.19    0.84
  -1   7   1   15.10    2.40
   0  -7  -1   35.69    1.93
   0  -7  -1   25.72    3.53
   1   7   1   96.15    5.64
   1   7   1  102.82    5.49
   1   7   1  101.05    5.48
   2   7   1  141.15    7.64
   3   7   1   23.06    1.59
  -4  -7  -1   55.49    3.56
   4   7   1   64.35    3.45
   4   7   1   72.81    3.67
  -5  -7  -1    1.67    0.29
  -5  -7  -1    1.84    1.30
  -5  -7  -1    1.67    0.17
   5   7   1    2.00    0.28
   5   7   1    1.99    0.32
   5   7   1    2.40    0.42
  -6  -7  -1   21.17    1.23
  -6  -7  -1   20.90    1.15
  -6  -7  -1   21.11    2.33
   6   7   1   20.51    1.29
   3  -8  -1    2.83    0.94
   3  -8  -1    4.04    0.35
   3  -8  -1    4.87    0.38
  -3   8   1    3.48    0.29
   2  -8  -1   -0.12    2.47
   2  -8  -1    0.85    0.20
  -2   8   1    0.19    1.76
  -2   8   1   -0.34    1.40
  -2   8   1   -1.58    1.78
   1  -8  -1   -0.06    0.85
   1  -8  -1   -0.36    3.01
  -1   8   1    0.29    0.64
  -1   8   1    0.33    2.03
  -1   8   1    1.25    0.75
  -1   8   1    0.07    2.30
   0  -8  -1   -1.18    2.94
   0  -8  -1    1.57    3.43
   0  -8  -1    0.65    0.97
   0  -8  -1    0.27    0.15
   0   8   1    0.29    0.15
   0   8   1    0.13    0.19
   0   8   1   -1.04    2.18
   0   8   1    0.09    0.46
   0   8   1   -1.16    2.09
   0   8   1   -0.30    0.67
   0   8   1    0.20    0.59
   0   8   1    0.12    0.49
  -1  -8  -1   -1.15    2.92
  -1  -8  -1   -1.02    3.23
   1   8   1   -0.01    0.41
   1   8   1    0.52    0.83
   1   8   1   -0.17    0.62
   1   8   1   -1.14    2.08
   1   8   1   -0.32    0.40
   1   8   1   -0.13    0.15
   1   8   1   -0.10    0.13
  -2  -8  -1    0.77    1.50
  -2  -8  -1    0.60    0.99
  -2  -8  -1    1.38    2.80
  -2  -8  -1   -0.26    2.82
   2   8   1    0.17    0.75
   2   8   1   -1.14    2.32
  -3  -8  -1   -0.19    0.74
  -3  -8  -1    0.94    1.42
  -3  -8  -1   -0.46    2.91
   3   8   1   -2.18    2.07
   3   8   1    0.19    0.46
   3   8   1   -0.07    0.79
   3   8   1    0.67    0.24
   4   8   1    4.36    0.55
   4   8   1    4.39    0.39
   4   8   1    3.60    0.38
  -5  -8  -1    2.36    0.23
   5   8   1    2.45    0.27
   5   8   1    1.90    0.35
   5   8   1    2.42    0.23
   1  -9  -1   -0.03    1.40
  -1   9   1    0.41    1.23
   0  -9  -1    0.29    0.54
   0  -9  -1    0.76    2.03
   0  -9  -1    0.27    0.71
   0   9   1    0.19    0.40
   0   9   1    0.00    0.27
   0   9   1    0.48    2.08
   0   9   1    0.00    1.20
  -1  -9  -1    0.64    2.00
   3   9   1    5.55    0.55
   3   9   1    6.00    0.54
   3   9   1    6.65    0.47
  -4  -9  -1   -0.17    0.50
  -4  -8   2    0.02    1.14
   3   8  -2    0.24    0.16
   3   8  -2    0.42    0.14
   3   8  -2    0.36    0.17
  -3  -8   2    0.04    1.70
  -3  -8   2    0.73    0.49
   2   8  -2    1.03    0.20
  -2  -8   2   -0.17    1.74
  -2  -8   2    0.98    0.16
   1   8  -2    1.25    0.22
   1   8  -2    1.56    0.21
  -1  -8   2    1.31    0.71
  -1  -8   2    1.55    0.23
  -1  -8   2   -0.35    1.68
  -1  -8   2    1.80    0.22
   0   8  -2    7.06    0.51
   0  -8   2    7.40    0.55
   0  -8   2    5.66    0.50
   1  -8   2    2.00    0.22
   1  -8   2    0.74    1.16
   5   7  -2    0.23    0.18
   5   7  -2    0.38    0.13
  -5  -7   2    0.47    1.39
  -5  -7   2   -0.07    0.46
  -5  -7   2    0.95    0.79
   4   7  -2    6.51    0.74
   4   7  -2    7.16    0.59
   4   7  -2    6.83    0.52
  -4  -7   2    7.82    1.61
   3   7  -2    0.05    0.14
   3   7  -2    0.23    0.17
   3   7  -2    0.09    0.14
   3   7  -2   -0.03    0.18
  -3  -7   2    0.08    0.09
  -3  -7   2    0.16    0.92
  -3  -7   2   -0.05    2.20
   2   7  -2    7.87    0.74
   2   7  -2    7.70    0.83
  -2  -7   2    7.54    0.59
   1   7  -2    8.89    0.73
   1   7  -2   10.37    0.88
   1   7  -2    9.69    0.72
   1   7  -2   13.07    1.99
  -1  -7   2   10.32    0.74
  -1  -7   2   10.28    0.79
   0   7  -2    4.23    0.40
   0  -7   2    4.62    0.41
   0  -7   2    2.44    3.08
  -1   7  -2    5.63    0.62
   1  -7   2    3.19    2.83
   1  -7   2    5.32    0.51
  -2   7  -2   -0.13    1.99
  -2   7  -2    1.48    0.81
   2  -7   2    2.81    1.17
   2  -7   2    1.46    0.29
  -3   7  -2    4.64    0.39
   3  -7   2    5.79    0.45
   3  -7   2    5.93    0.44
   3  -7   2    5.34    0.38
   6   6  -2    1.26    0.17
   6   6  -2    1.08    0.25
  -6  -6   2    1.30    0.76
  -6  -6   2    0.61    0.58
   5   6  -2    3.65    0.41
   5   6  -2    4.38    0.57
   5   6  -2    3.39    0.47
  -5  -6   2    3.82    1.28
  -5  -6   2    7.32    2.72
   4   6  -2    5.31    0.73
   4   6  -2    7.87    0.69
   4   6  -2    7.20    0.62
   3   6  -2   29.54    2.02
   3   6  -2   29.42    1.88
   3   6  -2   27.20    1.67
   3   6  -2   25.82    1.72
  -3  -6   2   28.29    3.36
  -3  -6   2   26.33    1.66
   2   6  -2    1.48    0.28
   2   6  -2    1.40    0.32
   2   6  -2    1.53    0.37
   2   6  -2    1.63    0.29
  -2  -6   2   -0.52    2.13
  -2  -6   2    1.50    0.25
  -2  -6   2    3.08    1.36
  -2  -6   2    1.09    0.91
   1   6  -2    3.98    0.40
   1   6  -2    4.36    0.58
   1   6  -2    6.12    1.46
   1   6  -2    4.85    0.54
  -1  -6   2    3.75    0.46
  -1  -6   2    4.65    0.43
  -1  -6   2    4.54    0.45
   0   6  -2    6.03    0.72
  -1   6  -2   25.31    1.59
   1  -6   2   27.90    1.71
   1  -6   2   25.76    1.65
   1  -6   2   26.18    1.59
   1  -6   2   25.82    1.61
  -2   6  -2    8.56    0.80
  -2   6  -2    7.33    0.59
   2  -6   2    7.27    0.60
   2  -6   2    6.58    0.68
  -3   6  -2    4.09    0.37
  -3   6  -2    3.92    0.50
  -3   6  -2   -0.37    2.51
   3  -6   2    2.68    0.33
   3  -6   2    4.15    0.27
   3  -6   2    4.29    0.49
   3  -6   2    3.41    0.43
   4  -6   2    3.91    0.34
   7   5  -2    0.15    0.13
   7   5  -2    0.09    0.09
  -7  -5   2   -0.10    0.34
  -7  -5   2   -0.07    0.47
  -7  -5   2   -0.16    0.55
  -7  -5   2    0.14    0.35
   6   5  -2    4.47    0.44
   6   5  -2    5.71    0.44
   5   5  -2    0.02    0.14
   5   5  -2    0.04    0.15
   5   5  -2   -0.03    0.20
   5   5  -2   -0.04    0.14
  -5  -5   2    0.13    0.57
  -5  -5   2   -0.12    2.11
  -5  -5   2    0.01    0.72
  -5  -5   2   -0.04    0.79
   4   5  -2   17.73    1.18
   4   5  -2   16.80    1.23
   3   5  -2    4.20    0.40
   3   5  -2    4.13    0.45
   3   5  -2    5.38    0.32
  -3  -5   2    5.58    0.42
   2   5  -2   60.83    3.27
  -2  -5   2   58.32    3.28
  -2  -5   2   63.25    3.39
   1   5  -2    4.64    0.50
   1   5  -2    4.32    0.29
  -1  -5   2    3.95    0.43
  -1  -5   2    4.28    0.41
  -1  -5   2    4.35    0.30
   0   5  -2    0.11    0.10
   0   5  -2    0.16    0.04
   0  -5   2    0.10    0.06
   0  -5   2    0.14    0.20
   0  -5   2    0.18    0.13
  -1   5  -2   20.11    1.41
   1  -5   2   18.04    1.04
   1  -5   2   16.48    1.25
  -2   5  -2   16.26    1.20
  -2   5  -2   14.38    1.00
   2  -5   2   13.97    1.01
   2  -5   2   15.81    0.91
   2  -5   2   17.32    1.06
   2  -5   2   15.96    1.01
  -3   5  -2   21.57    1.68
  -3   5  -2   25.16    1.45
  -3   5  -2   23.82    1.52
   3  -5   2   27.44    1.56
   3  -5   2   26.69    1.44
   3  -5   2   28.95    1.67
  -4   5  -2   10.02    0.62
  -4   5  -2   10.47    0.85
   4  -5   2   10.36    0.71
   4  -5   2    7.87    0.73
   4  -5   2    9.56    0.60
   4  -5   2   10.25    0.79
  -5   5  -2    9.16    0.66
  -5   5  -2   11.18    0.63
   5  -5   2    9.64    0.69
   5  -5   2   10.65    0.61
   5  -5   2   10.66    0.68
   7   4  -2    3.68    0.34
  -7  -4   2    3.48    0.30
   6   4  -2    3.21    0.33
   6   4  -2    2.15    0.44
   6   4  -2    3.03    0.33
  -6  -4   2    3.02    0.29
  -6  -4   2    2.24    1.31
  -5  -4   2   33.73    3.46
   4   4  -2    0.06    0.08
  -4  -4   2    0.06    0.04
  -4  -4   2    0.09    0.07
   3   4  -2   33.97    1.98
   3   4  -2   36.10    1.85
  -3  -4   2   34.94    1.95
  -3  -4   2   36.23    1.87
  -3  -4   2   29.38    1.94
   2   4  -2    0.14    0.07
   2   4  -2    0.14    0.09
   2   4  -2    0.13    0.04
  -2  -4   2    0.07    0.04
  -2  -4   2    0.20    0.12
  -2  -4   2    0.13    0.12
  -2  -4   2    0.00    0.05
  -2  -4   2    0.12    0.06
   1   4  -2    0.84    0.14
   1   4  -2    0.90    0.18
   1   4  -2    0.84    0.09
   1   4  -2    0.94    0.16
  -1  -4   2    1.31    0.22
  -1  -4   2    1.34    0.13
  -1  -4   2    0.73    0.10
  -1  -4   2    0.86    0.19
   0   4  -2   21.10    1.36
   0   4  -2   19.56    1.09
   0   4  -2   21.16    1.26
   0  -4   2   19.50    1.27
   0  -4   2   18.50    1.10
   0  -4   2   18.49    1.12
  -1   4  -2    2.05    0.15
  -1   4  -2    2.14    0.26
  -1   4  -2    2.25    0.34
   1  -4   2    2.26    0.33
   1  -4   2    1.93    0.16
   1  -4   2    2.09    0.19
   1  -4   2    2.04    0.29
  -2   4  -2    4.93    0.39
  -2   4  -2    4.89    0.54
   2  -4   2    4.80    0.51
  -3   4  -2   15.48    1.20
  -3   4  -2   14.05    0.90
  -3   4  -2   15.13    1.20
   3  -4   2   16.85    1.02
  -4   4  -2   12.38    0.98
  -4   4  -2   13.56    1.84
  -4   4  -2   11.16    0.75
   4  -4   2   12.01    0.76
   4  -4   2   12.06    0.74
   4  -4   2   12.72    0.93
   4  -4   2   13.09    0.87
  -5   4  -2   18.56    1.12
  -5   4  -2   16.27    1.27
  -5   4  -2   18.25    1.06
   5  -4   2   17.97    1.05
   5  -4   2   19.53    1.22
   5  -4   2   18.26    1.04
  -6   4  -2    1.07    0.10
  -6   4  -2    0.69    0.15
  -6   4  -2    0.33    1.45
  -6   4  -2    1.08    0.14
   6  -4   2    1.03    0.11
   6  -4   2    0.90    0.11
   6  -4   2    1.26    0.19
   8   3  -2    0.13    0.09
   7   3  -2   19.71    1.29
   7   3  -2   21.03    1.29
   7   3  -2   21.15    1.22
   7   3  -2   20.97    1.45
  -7  -3   2   24.73    2.61
  -7  -3   2   21.97    2.47
  -7  -3   2   22.19    1.27
   6   3  -2    3.83    0.38
   6   3  -2    3.69    0.40
   6   3  -2    0.77    1.85
   6   3  -2    3.37    0.52
  -6  -3   2    5.35    1.44
  -6  -3   2    3.70    0.30
  -6  -3   2    6.40    1.82
  -6  -3   2    3.55    0.35
  -6  -3   2    2.13    2.05
   5   3  -2   20.95    1.51
  -5  -3   2   28.65    5.03
  -5  -3   2   21.16    1.32
  -5  -3   2   21.62    1.34
   4   3  -2   94.10    5.14
   4   3  -2   98.01    5.14
  -4  -3   2   86.78    5.10
  -4  -3   2   96.16    5.01
   3   3  -2   16.39    0.84
   3   3  -2   14.72    0.88
   3   3  -2   15.51    0.95
  -3  -3   2   15.13    0.97
  -3  -3   2   15.75    0.86
  -3  -3   2   13.96    0.84
  -3  -3   2   15.30    0.87
  -3  -3   2   14.07    0.92
   2   3  -2   67.65    3.39
   2   3  -2   60.89    3.30
   2   3  -2   60.82    3.35
   2   3  -2   63.41    3.37
   2   3  -2   65.83    3.28
  -2  -3   2   61.74    3.29
  -2  -3   2   64.20    3.42
  -2  -3   2   51.94    3.33
  -2  -3   2   54.24    3.27
  -2  -3   2   63.76    3.31
   1   3  -2    0.97    0.16
   1   3  -2    0.90    0.14
   1   3  -2    0.73    0.15
   1   3  -2    0.91    0.08
  -1  -3   2    0.96    0.11
  -1  -3   2    0.93    0.11
  -1  -3   2    1.26    0.14
  -1  -3   2    0.87    0.09
  -1  -3   2    0.82    0.16
   0   3  -2   61.69    3.22
   0   3  -2   56.25    3.82
   0   3  -2   66.94    3.45
   0   3  -2   66.36    3.37
   0   3  -2   55.98    3.27
   0  -3   2   59.60    3.25
   0  -3   2   58.54    3.22
   0  -3   2   55.45    3.25
   0  -3   2   63.04    3.38
  -1   3  -2    2.81    0.28
  -1   3  -2    2.68    0.21
  -1   3  -2    2.77    0.33
  -1   3  -2    2.66    0.17
   1  -3   2    2.27    0.20
   1  -3   2    2.42    0.21
   1  -3   2    2.49    0.30
   1  -3   2    2.45    0.18
  -2   3  -2  100.25    5.32
  -2   3  -2  105.08    5.47
  -2   3  -2  100.19    5.24
   2  -3   2   88.62    5.21
   2  -3   2   99.00    5.37
   2  -3   2   89.12    5.19
  -3   3  -2  167.95    8.60
  -3   3  -2  169.65    8.84
   3  -3   2  156.49    8.75
   3  -3   2  146.25    8.56
  -4   3  -2    1.66    0.19
  -4   3  -2    1.05    2.27
  -4   3  -2    1.48    0.50
  -4   3  -2    1.40    0.21
   4  -3   2    1.67    0.26
   4  -3   2    1.52    0.15
   4  -3   2    1.37    0.17
  -5   3  -2   46.57    2.65
  -5   3  -2   45.74    2.57
  -5   3  -2   45.76    2.59
   5  -3   2   48.20    2.58
   5  -3   2   46.76    2.56
   5  -3   2   48.98    2.69
   5  -3   2   48.34    2.60
  -6   3  -2    0.25    0.13
  -6   3  -2    0.27    0.07
  -6   3  -2    0.76    1.87
  -6   3  -2    0.34    0.10
   6  -3   2    0.29    0.10
   6  -3   2    0.32    0.08
   6  -3   2    0.24    0.14
   6  -3   2    0.26    0.07
  -7   3  -2    1.22    0.13
  -7   3  -2    1.19    0.11
  -7   3  -2    1.13    0.14
   7  -3   2    1.17    0.13
   7  -3   2    1.20    0.12
   8   2  -2    3.16    0.28
   7   2  -2    4.07    0.40
   7   2  -2    3.99    0.31
   7   2  -2    3.79    0.35
  -7  -2   2    4.00    0.26
  -7  -2   2    2.77    1.05
  -7  -2   2    3.90    0.36
  -7  -2   2    3.61    1.40
  -7  -2   2    3.92    0.26
   6   2  -2   27.49    1.65
   6   2  -2   27.15    1.83
  -6  -2   2   26.99    1.53
  -6  -2   2   25.71    3.09
  -6  -2   2   28.13    1.58
  -6  -2   2   28.24    1.52
  -6  -2   2   30.42    1.67
   5   2  -2    7.28    0.46
   5   2  -2    6.68    0.56
  -5  -2   2    7.45    0.55
  -5  -2   2    7.17    0.44
   4   2  -2    1.85    0.23
   4   2  -2    1.98    0.24
   4   2  -2    1.76    0.18
   4   2  -2    1.84    0.14
   4   2  -2    1.91    0.18
   4   2  -2    1.91    0.14
   4   2  -2    1.97    0.15
  -4  -2   2    1.76    0.20
  -4  -2   2    2.06    0.15
  -4  -2   2    1.80    0.16
  -4  -2   2    1.79    0.21
  -4  -2   2    1.92    0.17
   3   2  -2   69.03    3.62
   3   2  -2   62.08    3.50
   3   2  -2   65.40    3.50
   3   2  -2   63.59    3.51
   3   2  -2   66.47    3.56
   3   2  -2   64.78    3.51
  -3  -2   2   66.90    3.54
  -3  -2   2   70.73    3.56
  -3  -2   2   67.06    3.52
  -3  -2   2   70.14    3.65
  -3  -2   2   59.79    3.59
   2   2  -2  128.96    6.23
   2   2  -2  103.81    6.95
   2   2  -2  106.57    6.40
   2   2  -2  122.19    6.31
   2   2  -2  112.84    6.22
   2   2  -2  117.70    6.22
   2   2  -2  127.45    6.31
   2   2  -2  123.01    6.27
   2   2  -2  118.09    6.22
   2   2  -2  114.19    6.23
  -2  -2   2  122.16    6.26
  -2  -2   2  136.76    6.38
  -2  -2   2  122.56    6.36
  -2  -2   2  110.16    6.23
  -2  -2   2  120.45    6.27
  -2  -2   2  114.16    7.05
  -2  -2   2  113.92    6.33
  -2  -2   2  104.66    6.29
  -2  -2   2  118.76    6.24
   1   2  -2    1.02    0.08
   1   2  -2    1.18    0.15
   1   2  -2    1.03    0.07
   1   2  -2    1.01    0.08
   1   2  -2    0.97    0.07
   1   2  -2    1.06    0.09
   1   2  -2    1.13    0.13
   1   2  -2    0.93    0.15
   1   2  -2    1.01    0.31
  -1  -2   2    0.96    0.31
  -1  -2   2    1.09    0.16
  -1  -2   2    1.01    0.10
  -1  -2   2    1.10    0.09
  -1  -2   2    1.06    0.10
  -1  -2   2    1.06    0.13
  -1  -2   2    1.03    0.13
  -1  -2   2    1.13    0.14
   0   2  -2    4.86    0.58
   0   2  -2    5.43    0.41
   0   2  -2    4.84    0.28
   0   2  -2    4.82    0.33
   0   2  -2    5.20    0.41
   0   2  -2    4.53    0.35
   0   2  -2    5.15    0.37
   0   2  -2    4.31    0.27
   0   2  -2    4.43    0.26
   0   2  -2    5.22    0.27
   0   2  -2    4.89    0.29
   0  -2   2    4.81    0.28
   0  -2   2    4.38    0.29
   0  -2   2    4.36    0.32
   0  -2   2    4.15    0.64
   0  -2   2    4.65    0.30
   0  -2   2    4.75    0.30
   0  -2   2    4.32    0.35
  -1   2  -2    9.54    0.67
  -1   2  -2    8.81    0.49
  -1   2  -2    8.31    0.48
  -1   2  -2    8.82    0.81
  -1   2  -2    8.67    0.64
  -1   2  -2    8.63    0.57
  -1   2  -2    9.39    0.53
   1  -2   2    8.84    0.51
   1  -2   2    8.71    0.53
   1  -2   2    8.87    0.51
   1  -2   2    7.99    0.93
   1  -2   2    8.96    0.49
   1  -2   2    8.36    0.54
  -2   2  -2   50.73    2.74
  -2   2  -2   49.89    2.63
  -2   2  -2   48.47    2.56
   2  -2   2   44.57    2.55
   2  -2   2   46.03    2.52
   2  -2   2   40.57    2.63
  -3   2  -2   28.13    1.72
  -3   2  -2   28.10    1.55
   3  -2   2   25.55    1.63
   3  -2   2   25.46    1.53
  -4   2  -2   69.16    3.51
   4  -2   2   62.72    3.49
   4  -2   2   58.02    3.59
  -5   2  -2   18.76    1.08
  -5   2  -2   18.66    1.15
  -5   2  -2   18.79    1.09
  -5   2  -2   18.07    1.10
   5  -2   2   18.70    1.08
   5  -2   2   19.19    1.18
   5  -2   2   20.41    1.12
  -6   2  -2   10.79    0.66
  -6   2  -2   10.64    0.71
  -6   2  -2   10.44    0.64
  -6   2  -2   10.77    0.64
  -6   2  -2   10.60    0.65
   6  -2   2   10.07    0.63
   6  -2   2   10.09    0.71
   6  -2   2   10.55    0.66
   6  -2   2   10.71    0.63
  -7   2  -2    5.52    0.36
  -7   2  -2    5.87    0.37
  -7   2  -2    5.40    0.40
  -7   2  -2    5.86    0.36
   7  -2   2    5.81    0.37
   7  -2   2    5.56    0.35
   7  -2   2    5.08    0.34
   8   1  -2    0.21    0.07
   8   1  -2    0.09    0.04
   8   1  -2    0.11    0.09
  -8  -1   2    0.04    0.03
  -8  -1   2    0.05    0.08
  -8  -1   2    0.18    0.58
  -8  -1   2    0.00    0.44
   7   1  -2   11.23    0.77
   7   1  -2   14.40    2.62
   7   1  -2   10.57    0.68
  -7  -1   2   11.05    0.73
  -7  -1   2   10.38    0.64
  -7  -1   2   10.43    0.64
  -7  -1   2   10.39    0.63
   6   1  -2    0.48    3.04
  -6  -1   2    1.11    0.13
  -6  -1   2    1.31    2.37
  -6  -1   2    0.71    1.13
  -6  -1   2    0.11    0.71
  -6  -1   2    1.57    0.15
  -6  -1   2    0.11    0.83
   5   1  -2    2.25    0.24
   5   1  -2    2.28    0.28
   5   1  -2    2.38    0.18
   5   1  -2    2.40    0.18
   5   1  -2    2.22    0.18
  -5  -1   2    2.69    0.27
  -5  -1   2    2.39    0.19
  -5  -1   2    2.50    0.18
   4   1  -2   35.23    1.93
   4   1  -2   35.59    1.93
   4   1  -2   36.45    2.07
   4   1  -2   35.75    2.00
   4   1  -2   35.48    1.92
   4   1  -2   36.91    1.93
   4   1  -2   35.96    1.91
   4   1  -2   36.90    2.03
   4   1  -2   33.66    1.99
  -4  -1   2   36.62    1.94
  -4  -1   2   37.00    2.04
  -4  -1   2   36.15    2.08
  -4  -1   2   35.61    1.96
  -4  -1   2   37.77    2.01
  -4  -1   2   36.44    1.94
  -4  -1   2   32.08    1.98
   3   1  -2   20.94    1.15
   3   1  -2   21.26    1.26
   3   1  -2   21.76    1.21
   3   1  -2   22.04    1.15
   3   1  -2   20.48    1.16
   3   1  -2   20.36    1.16
   3   1  -2   21.31    1.21
  -3  -1   2   21.73    1.21
  -3  -1   2   21.59    1.17
  -3  -1   2   22.27    1.27
  -3  -1   2   22.10    1.29
  -3  -1   2   22.58    1.19
  -3  -1   2   20.57    1.23
  -3  -1   2   21.74    1.21
   2   1  -2  174.59   10.46
   2   1  -2  193.82    9.73
   2   1  -2  181.59    9.81
   2   1  -2  184.96    9.74
   2   1  -2  190.26    9.91
   2   1  -2  180.47    9.73
   2   1  -2  191.18    9.81
   2   1  -2  182.52    9.74
   2   1  -2  180.90    9.73
  -2  -1   2  198.60   10.44
  -2  -1   2  178.56    9.79
  -2  -1   2  179.84    9.84
  -2  -1   2  207.13    9.86
  -2  -1   2  172.99    9.76
  -2  -1   2  173.44    9.77
  -2  -1   2  183.14    9.80
  -2  -1   2  176.23    9.81
  -2  -1   2  189.48    9.75
  -2  -1   2  186.80    9.79
   1   1  -2    4.88    0.27
   1   1  -2    4.96    0.39
   1   1  -2    4.79    0.27
   1   1  -2    4.90    0.28
   1   1  -2    5.07    0.32
   1   1  -2    4.62    0.59
   1   1  -2    5.06    0.27
   1   1  -2    5.42    0.41
   1   1  -2    4.73    0.27
   1   1  -2    4.86    0.30
   1   1  -2    5.15    0.48
   1   1  -2    4.86    0.34
   1   1  -2    5.33    0.34
  -1  -1   2    4.75    0.28
  -1  -1   2    4.91    0.35
  -1  -1   2    4.64    0.62
  -1  -1   2    4.51    0.30
  -1  -1   2    4.93    0.33
  -1  -1   2    4.92    0.36
  -1  -1   2    5.12    0.34
  -1  -1   2    4.85    0.27
  -1  -1   2    5.02    0.30
  -1  -1   2    5.10    0.38
  -1  -1   2    5.55    0.32
   0   1  -2  262.84   13.94
   0   1  -2  227.94   13.89
   0   1  -2  293.88   13.94
   0   1  -2  233.39   13.66
   0   1  -2  242.49   13.65
   0   1  -2  247.68   13.92
   0   1  -2  243.64   13.95
   0   1  -2  246.56   13.64
   0   1  -2  272.06   13.64
   0  -1   2  275.31   13.96
   0  -1   2  252.62   13.72
   0  -1   2  267.05   13.66
   0  -1   2  278.41   13.64
   0  -1   2  227.61   14.80
   0  -1   2  262.24   14.52
   0  -1   2  279.65   13.90
   0  -1   2  241.68   13.72
   0  -1   2  284.38   13.86
   0  -1   2  255.58   13.73
   0  -1   2  274.03   13.73
  -1   1  -2   21.65    1.30
  -1   1  -2   22.87    1.29
  -1   1  -2   20.61    1.20
  -1   1  -2   20.61    1.19
  -1   1  -2   25.10    1.55
  -1   1  -2   23.17    1.20
  -1   1  -2   21.46    1.20
  -1   1  -2   24.54    1.43
  -1   1  -2   22.20    1.25
  -1   1  -2   24.98    1.25
  -1   1  -2   21.37    1.35
  -1   1  -2   21.50    1.24
  -1   1  -2   23.11    1.33
  -1   1  -2   20.89    1.21
   1  -1   2   23.42    1.31
   1  -1   2   22.93    1.20
   1  -1   2   22.20    1.23
   1  -1   2   21.22    1.22
   1  -1   2   23.25    1.20
   1  -1   2   23.47    1.69
   1  -1   2   23.17    1.22
   1  -1   2   22.77    1.43
   1  -1   2   21.90    1.26
   1  -1   2   24.51    1.30
   1  -1   2   20.02    1.25
   1  -1   2   19.95    1.25
  -2   1  -2   17.10    1.00
  -2   1  -2   20.20    1.06
  -2   1  -2   15.01    1.00
  -2   1  -2   20.40    1.10
  -2   1  -2   17.88    1.10
  -2   1  -2   18.55    1.15
  -2   1  -2   18.34    1.00
  -2   1  -2   17.76    1.10
  -2   1  -2   20.09    1.04
  -2   1  -2   18.54    1.18
   2  -1   2   17.63    1.06
   2  -1   2   18.74    1.14
   2  -1   2   19.26    1.05
   2  -1   2   18.85    1.01
   2  -1   2   19.88    1.51
   2  -1   2   17.27    1.03
  -3   1  -2   35.71    1.94
  -3   1  -2   36.21    2.02
  -3   1  -2   37.11    2.10
  -3   1  -2   37.98    1.94
   3  -1   2   31.64    1.95
   3  -1   2   30.36    1.89
   3  -1   2   33.64    1.92
  -4   1  -2    1.00    0.15
  -4   1  -2    1.10    0.15
   4  -1   2    0.95    0.14
   4  -1   2    1.31    0.14
   4  -1   2    0.96    0.16
  -5   1  -2   28.80    1.62
  -5   1  -2   27.78    1.61
  -5   1  -2   28.06    1.54
   5  -1   2   24.21    1.58
  -6   1  -2    0.55    0.10
  -6   1  -2    0.54    0.15
  -6   1  -2    0.65    0.14
  -6   1  -2    0.54    0.11
  -6   1  -2    0.73    0.13
   6  -1   2    0.60    0.13
   6  -1   2    0.73    0.15
   6  -1   2    0.60    0.11
   6  -1   2    0.88    0.12
  -7   1  -2   15.41    0.90
  -7   1  -2   14.97    0.86
  -7   1  -2   14.78    0.85
  -7   1  -2   14.49    0.85
  -7   1  -2   14.92    0.85
   7  -1   2   13.70    0.87
   7  -1   2   14.45    0.86
   7  -1   2   14.43    0.84
   8   0  -2   18.20    0.97
   8   0  -2   15.01    0.93
  -8   0   2   16.66    0.99
  -8   0   2   18.21    0.94
   7   0  -2    2.68    2.37
   7   0  -2    1.08    0.25
   7   0  -2    0.71    0.14
  -7   0   2    0.67    0.12
  -7   0   2    0.76    0.11
  -7   0   2    1.12    0.77
  -7   0   2    5.12    2.60
  -7   0   2    0.14    0.52
  -7   0   2    0.69    0.18
  -7   0   2    0.89    0.11
  -6   0   2   38.79    3.81
   5   0  -2    1.73    0.13
   5   0  -2    1.56    0.13
   5   0  -2    1.85    0.15
   5   0  -2    1.64    0.21
   5   0  -2    1.74    0.15
   5   0  -2    1.47    0.21
   5   0  -2    1.70    0.14
  -5   0   2    1.69    0.19
  -5   0   2    1.45    0.17
  -5   0   2    1.69    0.16
  -5   0   2    1.67    0.19
  -5   0   2    1.72    0.14
  -5   0   2    1.80    0.21
   4   0  -2    0.09    0.04
   4   0  -2    0.17    0.08
   4   0  -2    0.04    0.04
   4   0  -2    0.09    0.07
   4   0  -2    0.11    0.04
   4   0  -2    0.05    0.04
   4   0  -2    0.10    0.03
   4   0  -2    0.33    0.06
  -4   0   2    0.09    0.05
  -4   0   2    0.08    0.10
  -4   0   2    0.17    0.07
  -4   0   2    0.17    0.08
  -4   0   2    0.07    0.03
  -4   0   2    0.09    0.04
  -4   0   2    0.15    0.08
  -4   0   2    0.10    0.05
   3   0  -2    0.72    0.13
   3   0  -2    0.69    0.10
   3   0  -2    0.68    0.07
   3   0  -2    0.98    0.12
   3   0  -2    0.64    0.07
   3   0  -2    0.68    0.06
   3   0  -2    0.76    0.06
  -3   0   2    0.70    0.08
  -3   0   2    0.85    0.13
  -3   0   2    0.76    0.07
  -3   0   2    0.80    0.10
  -3   0   2    0.76    0.14
  -3   0   2    0.72    0.11
   2   0  -2   30.04    1.62
   2   0  -2   31.26    1.62
   2   0  -2   30.86    1.66
   2   0  -2   31.18    1.68
   2   0  -2   32.04    1.79
   2   0  -2   30.46    1.62
   2   0  -2   27.00    2.19
   2   0  -2   30.71    1.70
  -2   0   2   31.40    1.65
  -2   0   2   31.93    1.73
  -2   0   2   29.42    1.72
  -2   0   2   30.97    1.76
  -2   0   2   32.16    1.70
  -2   0   2   31.05    1.66
  -2   0   2   26.81    1.99
  -2   0   2   30.68    1.64
  -2   0   2   32.63    1.68
  -2   0   2   29.56    1.68
  -2   0   2   30.94    1.67
   1   0  -2  192.70   11.20
   1   0  -2  214.24   11.26
   1   0  -2  208.26   11.25
   1   0  -2  227.96   11.08
   1   0  -2  208.69   11.15
   1   0  -2  213.39   11.54
   1   0  -2  223.91   11.08
   1   0  -2  200.43   11.17
   1   0  -2  210.40   11.07
  -1   0   2  222.01   11.29
  -1   0   2  209.72   11.23
  -1   0   2  180.24   11.07
  -1   0   2  216.24   11.17
  -1   0   2  215.13   12.13
  -1   0   2  216.22   11.26
  -1   0   2  207.13   11.24
  -1   0   2  177.17   11.12
  -1   0   2  208.76   11.14
  -1   0   2  227.70   11.26
  -1   0   2  218.60   11.07
  -1   0   2  206.67   12.20
   0   0  -2   32.66    1.78
   0   0  -2   34.83    1.72
   0   0  -2   31.38    1.91
   0   0  -2   34.25    1.71
   0   0  -2   33.99    1.69
   0   0  -2   35.24    1.84
   0   0  -2   32.48    1.70
   0   0  -2   32.47    1.79
   0   0   2   31.42    1.71
   0   0   2   33.95    1.69
   0   0   2   31.09    1.69
   0   0   2   31.06    1.82
   0   0   2   33.41    1.72
   0   0   2   29.49    1.74
   0   0   2   32.45    1.74
   0   0   2   26.47    1.71
   0   0   2   33.04    2.12
   0   0   2   33.65    1.91
   0   0   2   31.07    1.72
   0   0   2   31.32    1.75
   0   0   2   27.47    1.74
   0   0   2   30.66    1.72
   0   0   2   33.27    2.11
  -1   0  -2   48.91    2.56
  -1   0  -2   50.86    2.51
  -1   0  -2   49.34    2.46
  -1   0  -2   47.21    2.47
  -1   0  -2   48.11    2.56
   1   0   2   50.28    2.47
   1   0   2   46.90    2.49
   1   0   2   43.82    3.02
   1   0   2   48.37    2.52
   1   0   2   40.52    2.50
   1   0   2   44.23    2.49
   1   0   2   41.98    2.51
   1   0   2   48.13    2.47
   1   0   2   39.88    2.47
   1   0   2   49.64    2.54
   1   0   2   47.26    2.51
  -2   0  -2  122.54    7.22
  -2   0  -2  129.12    7.72
  -2   0  -2  119.74    7.31
  -2   0  -2  142.88    7.34
  -2   0  -2  158.16    7.22
  -2   0  -2  116.51    7.26
  -2   0  -2  157.06    7.35
  -2   0  -2  125.14    7.22
  -2   0  -2  119.60    7.31
   2   0   2  132.14    7.23
   2   0   2  155.24    7.26
   2   0   2  142.52    7.22
   2   0   2  150.64    7.36
   2   0   2  149.40    7.30
   2   0   2  122.37    7.27
   2   0   2  142.68    8.11
   2   0   2  139.81    7.29
  -3   0  -2   48.73    2.65
  -3   0  -2   39.33    2.66
  -3   0  -2   48.57    2.56
  -3   0  -2   50.27    2.66
  -3   0  -2   42.03    2.56
   3   0   2   46.36    3.48
   3   0   2   44.36    3.32
   3   0   2   48.99    2.54
   3   0   2   50.28    2.59
   3   0   2   51.59    2.55
   3   0   2   43.71    2.55
  -4   0  -2    4.85    0.45
  -4   0  -2    5.11    0.38
  -4   0  -2    5.02    0.38
   4   0   2    4.90    0.40
   4   0   2    4.44    0.34
   4   0   2    4.51    0.35
  -5   0  -2    2.87    0.25
  -5   0  -2    2.98    0.28
  -5   0  -2    2.89    0.27
   5   0   2    2.47    0.25
   5   0   2    2.22    0.27
  -6   0  -2    5.37    0.42
  -6   0  -2    5.42    0.37
  -6   0  -2    5.84    0.39
  -6   0  -2    6.38    0.42
  -6   0  -2    5.21    0.36
  -6   0  -2    5.12    0.38
   6   0   2    5.18    0.47
   6   0   2    5.56    0.39
   6   0   2    5.38    0.41
   6   0   2    5.51    0.36
  -7   0  -2    0.85    0.18
  -7   0  -2    0.65    0.13
  -7   0  -2    1.02    0.12
  -7   0  -2    0.58    0.10
  -7   0  -2    0.64    0.12
  -7   0  -2    0.50    0.08
   7   0   2    0.48    0.12
   7   0   2    0.73    0.18
   7   0   2    0.48    0.09
   7   0   2    0.53    0.11
  -8   0  -2    0.10    0.04
  -8   0  -2    0.09    0.04
   8   0   2    0.11    0.06
   8   0   2    0.04    0.04
   8   0   2    0.03    0.04
   8  -1  -2    2.10    0.20
  -8   1   2    2.95    0.20
  -7   1   2  113.49    9.27
  -7   1   2  156.22    9.14
   6  -1  -2    1.66    1.79
   6  -1  -2    4.20    3.45
  -6   1   2    0.30    0.59
  -6   1   2    1.70    3.25
  -6   1   2    0.98    0.91
  -6   1   2    1.04    1.13
  -6   1   2    1.56    1.30
   5  -1  -2    2.62    0.20
   5  -1  -2    2.70    0.18
   5  -1  -2    2.72    0.20
   5  -1  -2    2.57    0.27
   5  -1  -2    2.87    0.21
  -5   1   2    3.02    0.29
  -5   1   2    2.99    0.28
  -5   1   2    2.72    0.27
  -5   1   2    2.73    0.21
   4  -1  -2   16.22    0.91
   4  -1  -2   14.81    0.96
   4  -1  -2   16.44    0.90
   4  -1  -2   15.86    0.91
   4  -1  -2   16.81    1.12
   4  -1  -2   16.55    0.91
   4  -1  -2   15.31    0.95
   4  -1  -2   16.31    0.90
   4  -1  -2   16.57    1.00
   4  -1  -2   15.77    1.02
  -4   1   2   17.67    1.00
  -4   1   2   16.78    0.91
  -4   1   2   17.78    1.10
  -4   1   2   17.98    1.02
  -4   1   2   16.18    0.98
  -4   1   2   17.05    0.92
   3  -1  -2    0.94    0.07
   3  -1  -2    0.88    0.11
   3  -1  -2    1.21    0.08
   3  -1  -2    0.86    0.10
   3  -1  -2    1.04    0.07
   3  -1  -2    0.81    0.07
   3  -1  -2    1.08    0.14
  -3   1   2    0.86    0.16
  -3   1   2    0.86    0.11
  -3   1   2    0.88    0.08
  -3   1   2    0.90    0.10
  -3   1   2    1.05    0.09
  -3   1   2    0.89    0.12
  -3   1   2    0.80    0.14
   2  -1  -2    0.96    0.09
   2  -1  -2    1.10    0.11
   2  -1  -2    0.77    0.31
   2  -1  -2    0.98    0.06
   2  -1  -2    0.97    0.07
   2  -1  -2    0.92    0.29
   2  -1  -2    1.03    0.12
   2  -1  -2    0.92    0.06
  -2   1   2    1.01    0.09
  -2   1   2    0.93    0.08
  -2   1   2    1.05    0.16
  -2   1   2    1.01    0.13
  -2   1   2    0.86    0.12
  -2   1   2    0.91    0.08
  -2   1   2    0.94    0.10
  -2   1   2    0.98    0.10
  -2   1   2    0.98    0.14
  -2   1   2    0.94    0.11
   1  -1  -2    5.52    0.59
   1  -1  -2    6.75    0.69
   1  -1  -2    6.77    0.60
   1  -1  -2    7.16    0.70
   1  -1  -2    6.60    0.66
   1  -1  -2    6.53    0.37
   1  -1  -2    6.13    0.35
  -1   1   2    6.54    0.37
  -1   1   2    6.31    0.38
  -1   1   2    6.25    0.40
  -1   1   2    6.35    0.38
  -1   1   2    6.59    0.41
  -1   1   2    6.58    0.37
  -1   1   2    6.13    0.41
  -1   1   2    6.49    0.38
  -1   1   2    7.34    0.37
  -1   1   2    6.46    0.42
  -1   1   2    6.48    0.39
  -1   1   2    6.77    0.64
  -1   1   2    6.59    0.44
  -1   1   2    6.62    0.37
   0  -1  -2  192.63   11.31
   0  -1  -2  166.61   10.78
   0  -1  -2  186.02    9.98
   0  -1  -2  191.02   10.85
   0  -1  -2  208.76   10.02
   0  -1  -2  179.65   10.44
   0  -1  -2  194.44   10.90
   0   1   2  158.86    9.93
   0   1   2  173.13    9.99
   0   1   2  191.60   11.22
   0   1   2  180.38    9.88
   0   1   2  198.21    9.85
   0   1   2  187.00    9.89
   0   1   2  202.95   10.03
   0   1   2  178.08   10.69
   0   1   2  196.33   11.18
   0   1   2  186.63    9.86
   0   1   2  173.27    9.88
   0   1   2  182.39    9.84
  -1  -1  -2  148.67    7.34
  -1  -1  -2  137.88    7.36
  -1  -1  -2  149.67    7.88
  -1  -1  -2  152.36    7.47
  -1  -1  -2  141.54    7.37
  -1  -1  -2  142.64    7.41
  -1  -1  -2  129.93    7.78
  -1  -1  -2  132.90    7.50
   1   1   2  122.14    7.33
   1   1   2  155.40    7.35
   1   1   2  119.77    7.39
   1   1   2  140.57    7.43
   1   1   2  163.66    7.45
   1   1   2  137.47    7.46
   1   1   2  130.10    7.35
   1   1   2  125.22    7.37
   1   1   2  133.90    7.34
   1   1   2  137.76    7.95
   1   1   2  139.26    7.46
  -2  -1  -2    2.10    0.14
  -2  -1  -2    1.98    0.14
  -2  -1  -2    1.86    0.16
  -2  -1  -2    2.38    0.14
  -2  -1  -2    2.40    0.42
  -2  -1  -2    2.51    0.22
   2   1   2    2.42    0.17
   2   1   2    2.33    0.19
   2   1   2    2.85    0.51
   2   1   2    2.27    0.21
   2   1   2    2.40    0.21
   2   1   2    2.71    0.54
   2   1   2    2.24    0.19
   2   1   2    2.28    0.17
   2   1   2    2.35    0.19
   2   1   2    2.36    0.15
   2   1   2    1.96    0.24
   2   1   2    2.59    0.24
  -3  -1  -2  129.36    7.14
  -3  -1  -2  102.21    6.47
  -3  -1  -2  124.51    6.47
  -3  -1  -2  109.62    6.58
   3   1   2  129.23    6.52
   3   1   2  133.07    6.56
   3   1   2  127.36    7.46
   3   1   2  124.38    7.55
   3   1   2  113.98    6.47
   3   1   2  130.70    6.57
  -4  -1  -2    1.07    0.16
  -4  -1  -2    1.20    0.22
  -4  -1  -2    1.22    0.18
   4   1   2    1.47    0.15
   4   1   2    1.35    0.16
   4   1   2    1.30    0.14
   4   1   2    1.64    0.19
  -5  -1  -2   69.98    3.65
  -5  -1  -2   70.57    3.68
   5   1   2   61.97    3.69
   5   1   2   62.09    3.60
  -6  -1  -2    9.95    0.60
  -6  -1  -2    8.83    0.57
  -6  -1  -2    8.43    0.57
  -6  -1  -2    8.89    0.60
  -6  -1  -2    8.74    0.55
  -6  -1  -2    9.28    0.55
   6   1   2    9.04    0.59
   6   1   2    9.22    0.54
   6   1   2    8.73    0.56
   6   1   2    8.94    0.67
  -7  -1  -2   32.70    1.80
  -7  -1  -2   33.07    1.82
  -7  -1  -2   33.19    1.81
  -7  -1  -2   35.63    1.84
   7   1   2   31.44    1.79
   7   1   2   32.16    1.92
   7   1   2   31.71    1.84
  -8  -1  -2    0.04    0.04
  -8  -1  -2    0.02    0.05
  -8  -1  -2    0.04    0.03
   8   1   2    0.03    0.06
   8   1   2    0.05    0.03
   8   1   2   -0.01    0.07
   7  -2  -2    0.47    0.11
   7  -2  -2    0.64    0.10
  -7   2   2    0.56    0.10
  -7   2   2    0.72    0.10
  -7   2   2    0.65    0.14
  -7   2   2    0.68    0.10
  -7   2   2    0.72    0.09
  -7   2   2    0.57    0.09
  -7   2   2    1.03    0.18
   6  -2  -2   10.38    0.63
  -6   2   2   11.02    0.65
  -6   2   2   10.84    0.65
  -6   2   2   10.87    0.72
  -6   2   2   10.79    0.66
  -6   2   2   10.49    0.68
  -6   2   2   10.00    0.75
  -6   2   2   11.43    0.67
  -6   2   2   10.84    0.63
  -6   2   2   11.81    0.76
  -6   2   2    9.83    0.74
  -6   2   2   11.20    0.65
   5  -2  -2    0.39    0.08
   5  -2  -2    0.41    0.08
   5  -2  -2    0.77    1.32
   5  -2  -2    0.38    0.06
   5  -2  -2    0.41    0.08
  -5   2   2    0.48    0.09
  -5   2   2    0.44    0.19
  -5   2   2    2.48    1.46
  -5   2   2    1.45    1.04
  -5   2   2    1.25    1.10
  -5   2   2    0.57    0.09
  -5   2   2    0.50    0.09
  -5   2   2    2.29    1.30
  -5   2   2    0.44    0.08
  -5   2   2    0.32    1.62
  -5   2   2    0.31    0.12
  -5   2   2    0.54    0.09
  -5   2   2    0.35    0.08
  -5   2   2    0.44    0.09
  -5   2   2    2.63    1.50
  -5   2   2    0.43    0.14
  -5   2   2    0.45    0.15
  -5   2   2    0.49    0.12
   4  -2  -2    7.00    0.42
   4  -2  -2    6.83    0.41
   4  -2  -2    6.99    0.42
   4  -2  -2    7.07    0.42
   4  -2  -2    6.92    0.50
   4  -2  -2    7.39    0.40
   4  -2  -2    7.03    0.62
  -4   2   2    7.41    0.51
  -4   2   2    7.07    0.43
  -4   2   2    7.17    0.42
  -4   2   2    7.36    0.52
  -4   2   2    6.78    0.45
  -4   2   2    7.03    0.49
   3  -2  -2   17.04    0.90
   3  -2  -2   17.34    0.91
   3  -2  -2   15.86    0.91
   3  -2  -2   17.12    0.91
   3  -2  -2   17.59    0.96
   3  -2  -2   16.78    0.98
   3  -2  -2   16.72    0.91
  -3   2   2   15.55    0.97
  -3   2   2   17.08    1.00
  -3   2   2   16.86    0.97
  -3   2   2   16.66    0.91
  -3   2   2   16.61    0.98
  -3   2   2   16.89    1.07
  -3   2   2   16.52    0.93
   2  -2  -2   63.49    3.25
   2  -2  -2   52.25    4.01
   2  -2  -2   61.74    3.99
   2  -2  -2   61.97    3.25
   2  -2  -2   62.85    3.24
   2  -2  -2   61.54    3.29
   2  -2  -2   63.43    3.30
  -2   2   2   61.48    3.30
  -2   2   2   62.81    3.32
  -2   2   2   62.28    3.27
  -2   2   2   62.14    3.31
  -2   2   2   62.39    3.37
  -2   2   2   59.71    3.42
   1  -2  -2  330.44   18.75
   1  -2  -2  284.80   16.27
   1  -2  -2  301.79   16.24
   1  -2  -2  322.65   16.13
   1  -2  -2  329.78   16.12
   1  -2  -2  325.93   16.13
   1  -2  -2  295.94   17.93
   1  -2  -2  274.38   16.30
   1  -2  -2  315.99   16.22
   1  -2  -2  264.24   17.67
  -1   2   2  345.11   16.39
  -1   2   2  307.97   16.28
  -1   2   2  295.76   16.30
  -1   2   2  308.66   16.44
  -1   2   2  328.70   16.49
  -1   2   2  267.07   16.27
  -1   2   2  340.06   16.19
  -1   2   2  303.28   16.29
  -1   2   2  277.84   16.30
  -1   2   2  308.72   16.51
  -1   2   2  282.67   17.26
  -1   2   2  306.20   16.51
  -1   2   2  314.77   16.65
   0  -2  -2  132.49    7.50
   0  -2  -2  137.40    7.62
   0  -2  -2  147.04    7.07
   0  -2  -2  131.12    7.09
   0  -2  -2  136.55    7.08
   0  -2  -2  128.70    7.13
   0   2   2  136.58    7.19
   0   2   2  135.35    7.11
   0   2   2  135.81    7.45
   0   2   2  130.01    7.08
   0   2   2  137.00    7.11
   0   2   2  135.41    7.07
   0   2   2  114.05    7.08
   0   2   2  136.77    7.17
   0   2   2  129.72    7.17
   0   2   2  126.61    7.08
   0   2   2  136.22    7.11
   0   2   2  136.95    7.15
   0   2   2  140.97    7.20
   0   2   2  137.92    7.15
  -1  -2  -2  366.24   18.27
  -1  -2  -2  314.97   18.00
  -1  -2  -2  314.77   18.11
  -1  -2  -2  348.56   17.82
  -1  -2  -2  320.53   19.84
  -1  -2  -2  355.79   17.99
  -1  -2  -2  390.27   20.59
  -1  -2  -2  335.19   17.84
  -1  -2  -2  370.14   17.83
   1   2   2  325.55   18.20
   1   2   2  330.87   18.34
   1   2   2  310.09   17.86
   1   2   2  329.84   18.08
   1   2   2  349.31   17.87
   1   2   2  356.49   18.10
   1   2   2  324.14   17.97
   1   2   2  323.78   17.81
   1   2   2  359.68   20.26
   1   2   2  289.09   17.94
  -2  -2  -2   88.08    4.79
  -2  -2  -2   89.57    4.80
  -2  -2  -2   85.44    4.86
  -2  -2  -2   96.54    5.47
  -2  -2  -2   93.58    4.80
  -2  -2  -2   91.90    4.86
  -2  -2  -2   97.62    4.91
  -2  -2  -2   82.07    4.80
  -2  -2  -2   84.54    4.85
  -2  -2  -2   88.37    4.93
   2   2   2   90.08    5.65
   2   2   2   85.88    4.83
   2   2   2   94.46    4.89
   2   2   2   94.25    4.91
   2   2   2   95.34    4.81
   2   2   2   94.39    5.56
   2   2   2   91.75    4.87
   2   2   2   96.49    5.11
   2   2   2   86.76    4.96
   2   2   2   89.38    4.86
  -3  -2  -2  106.50    5.87
  -3  -2  -2  111.91    5.87
  -3  -2  -2   95.28    5.87
  -3  -2  -2  101.30    5.88
  -3  -2  -2  122.85    5.87
  -3  -2  -2  102.68    5.93
   3   2   2  123.36    5.89
   3   2   2  121.65    5.92
   3   2   2  104.95    6.07
   3   2   2  106.89    5.99
   3   2   2  121.53    7.02
   3   2   2  121.68    5.98
   3   2   2   95.36    5.87
   3   2   2  119.25    6.03
   4   2   2   90.33    4.85
  -5  -2  -2   11.87    0.74
  -5  -2  -2   12.05    0.81
   5   2   2   11.53    0.81
  -6  -2  -2   36.26    2.00
  -6  -2  -2   36.03    2.02
  -6  -2  -2   34.74    2.00
  -6  -2  -2   35.28    2.09
  -6  -2  -2   41.05    2.05
   6   2   2   35.15    2.10
   6   2   2   38.08    2.12
   6   2   2   35.37    2.31
   6   2   2   35.96    2.03
  -7  -2  -2    0.58    0.10
  -7  -2  -2    0.60    0.11
  -7  -2  -2    0.57    0.13
  -7  -2  -2    0.50    0.15
   7   2   2    0.52    0.15
   7   2   2    0.39    0.10
   7   2   2    0.78    0.21
  -8  -2  -2   -0.03    0.04
  -8  -2  -2   -0.02    0.03
  -8  -2  -2    0.02    0.03
   8   2   2   -0.07    0.05
   8   2   2    0.05    0.08
   7  -3  -2   10.20    0.59
   7  -3  -2    8.70    0.55
  -7   3   2   10.10    0.61
  -7   3   2   10.05    0.58
  -7   3   2   10.14    0.57
  -7   3   2    9.77    0.62
  -7   3   2    9.66    0.56
   6  -3  -2    9.22    0.57
   6  -3  -2    8.72    0.53
  -6   3   2    8.77    0.54
  -6   3   2    7.35    0.60
  -6   3   2    8.92    0.66
  -6   3   2    9.06    0.64
  -6   3   2   10.54    1.61
  -6   3   2    9.18    0.56
  -6   3   2    8.88    0.54
  -6   3   2    9.00    0.57
  -6   3   2    8.33    0.63
  -6   3   2    8.74    0.54
  -6   3   2    9.20    0.61
   5  -3  -2   11.67    0.71
   5  -3  -2   12.03    0.71
   5  -3  -2   12.16    0.71
  -5   3   2   12.34    0.73
  -5   3   2   12.23    0.80
  -5   3   2   15.62    2.33
  -5   3   2   12.71    0.83
  -5   3   2   11.72    0.85
  -5   3   2   13.15    0.77
  -5   3   2   12.74    1.93
  -5   3   2   11.85    0.74
  -5   3   2   12.28    0.71
  -5   3   2   11.32    0.79
  -5   3   2   15.69    2.67
  -5   3   2   12.68    0.72
  -5   3   2   11.77    0.73
  -5   3   2   12.14    0.73
  -5   3   2   11.71    0.84
  -5   3   2   12.06    0.73
   4  -3  -2   11.63    0.64
   4  -3  -2   10.45    0.87
   4  -3  -2   11.36    0.64
   4  -3  -2   11.50    0.64
   4  -3  -2   10.76    0.62
   4  -3  -2   10.77    0.66
   4  -3  -2   11.22    0.62
   4  -3  -2   10.50    0.72
  -4   3   2   11.41    0.73
  -4   3   2   11.10    0.74
  -4   3   2   11.22    0.75
  -4   3   2   10.82    0.68
  -4   3   2   11.19    0.64
   3  -3  -2    2.06    0.32
   3  -3  -2    2.10    0.15
   3  -3  -2    2.10    0.15
   3  -3  -2    2.13    0.20
   3  -3  -2    2.13    0.14
   3  -3  -2    2.04    0.15
   3  -3  -2    2.19    0.16
   3  -3  -2    2.11    0.21
  -3   3   2    2.73    0.17
  -3   3   2    2.01    0.26
  -3   3   2    1.99    0.21
  -3   3   2    2.17    0.22
  -3   3   2    2.11    0.16
  -3   3   2    2.20    0.21
  -3   3   2    2.26    0.21
   2  -3  -2    4.27    0.30
   2  -3  -2    4.63    0.25
   2  -3  -2    4.37    0.30
   2  -3  -2    4.38    0.26
   2  -3  -2    4.12    0.25
   2  -3  -2    4.41    0.25
  -2   3   2    4.76    0.33
  -2   3   2    4.37    0.31
  -2   3   2    3.92    0.31
  -2   3   2    5.23    0.40
  -2   3   2    4.10    0.25
  -2   3   2    4.23    0.32
  -2   3   2    4.51    0.27
   1  -3  -2  224.75   10.32
   1  -3  -2  192.84   10.32
   1  -3  -2  213.75   11.26
   1  -3  -2  205.31   11.28
   1  -3  -2  207.94   10.36
   1  -3  -2  204.02   10.45
   1  -3  -2  213.34   10.34
   1  -3  -2  192.61   10.32
  -1   3   2  181.37   10.38
  -1   3   2  191.83   10.45
  -1   3   2  175.94   10.40
  -1   3   2  191.17   11.01
  -1   3   2  199.08   10.45
  -1   3   2  182.04   10.38
  -1   3   2  175.39   10.47
  -1   3   2  178.55   10.37
   0  -3  -2   32.12    1.88
   0  -3  -2   35.09    1.82
   0  -3  -2   35.33    1.80
   0  -3  -2   34.56    2.31
   0  -3  -2   35.87    2.52
   0  -3  -2   34.29    1.83
   0  -3  -2   34.37    1.80
   0  -3  -2   33.40    1.80
   0  -3  -2   31.88    1.80
   0   3   2   34.01    1.82
   0   3   2   32.57    2.28
   0   3   2   34.27    1.91
   0   3   2   36.05    1.98
   0   3   2   32.49    2.51
   0   3   2   32.30    1.88
   0   3   2   31.69    1.85
   0   3   2   34.78    1.86
   0   3   2   35.22    1.86
   0   3   2   35.27    1.86
   0   3   2   34.99    1.92
  -1  -3  -2   70.41    3.76
  -1  -3  -2   75.94    3.88
  -1  -3  -2   69.01    3.76
  -1  -3  -2   72.67    4.50
  -1  -3  -2   71.26    4.40
  -1  -3  -2   66.63    3.74
  -1  -3  -2   71.89    3.75
  -1  -3  -2   72.26    3.81
  -1  -3  -2   72.68    3.74
  -1  -3  -2   70.84    3.74
   1   3   2   69.18    3.80
   1   3   2   69.41    4.19
   1   3   2   72.95    3.86
   1   3   2   63.91    3.80
   1   3   2   68.40    4.50
   1   3   2   73.37    3.80
   1   3   2   78.51    3.94
   1   3   2   68.49    3.80
   1   3   2   67.90    3.76
  -2  -3  -2   22.68    1.35
  -2  -3  -2   21.79    1.19
  -2  -3  -2   22.88    1.19
  -2  -3  -2   22.47    1.29
  -2  -3  -2   21.69    1.20
  -2  -3  -2   22.13    1.27
  -2  -3  -2   22.63    1.28
  -2  -3  -2   21.73    1.20
  -2  -3  -2   21.71    1.19
  -2  -3  -2   23.23    1.88
  -2  -3  -2   22.96    1.89
   2   3   2   22.65    1.29
   2   3   2   23.31    1.32
   2   3   2   20.85    1.26
   2   3   2   22.30    1.38
   2   3   2   21.22    1.20
   2   3   2   20.98    1.26
   2   3   2   20.69    1.25
   2   3   2   23.22    1.21
   2   3   2   23.88    1.64
   2   3   2   24.42    1.99
   2   3   2   21.53    1.22
  -3  -3  -2   40.37    2.19
  -3  -3  -2   42.16    2.18
  -3  -3  -2   36.04    2.27
  -3  -3  -2   40.87    2.18
  -3  -3  -2   36.35    2.36
  -3  -3  -2   38.76    2.19
  -3  -3  -2   37.87    2.27
  -3  -3  -2   39.55    2.26
   3   3   2   39.19    2.19
   3   3   2   45.51    2.20
   3   3   2   43.51    2.33
   3   3   2   42.75    2.28
   3   3   2   42.28    2.41
   3   3   2   43.89    2.29
   3   3   2   44.53    2.23
  -4  -3  -2    6.01    0.47
   4   3   2    7.08    0.50
   4   3   2    6.77    0.44
   4   3   2    6.52    0.49
  -5  -3  -2  111.10    6.46
  -5  -3  -2  109.83    6.55
   5   3   2  134.05    6.57
   5   3   2  127.55    6.57
  -6  -3  -2    1.63    0.17
  -6  -3  -2    1.61    0.18
  -6  -3  -2    1.78    0.28
  -6  -3  -2    1.75    0.17
  -6  -3  -2    2.12    0.25
  -6  -3  -2    2.76    1.52
   6   3   2    1.93    0.27
   6   3   2    1.60    0.27
   6   3   2    1.91    0.18
   6   3   2    1.69    0.41
  -7  -3  -2   25.40    1.36
  -7  -3  -2   24.43    1.34
  -7  -3  -2   26.98    1.39
  -7  -3  -2   25.57    1.35
  -7  -3  -2   24.32    1.44
   7   3   2   22.30    1.60
   7   3   2   23.54    1.37
   7   3   2   21.96    1.43
   7   3   2   22.93    1.45
  -8  -3  -2    0.72    0.10
  -8  -3  -2    0.22    0.71
  -8  -3  -2    0.67    0.07
  -8  -3  -2    0.72    0.08
  -8  -3  -2    0.77    0.12
   8   3   2    0.43    0.11
   8   3   2    0.45    0.08
   6  -4  -2   32.13    1.83
  -6   4   2   33.18    1.80
  -6   4   2   30.65    1.84
  -6   4   2   33.82    1.80
  -6   4   2   32.96    1.86
  -6   4   2   33.28    1.82
  -6   4   2   33.85    1.80
  -6   4   2   33.36    1.81
  -6   4   2   31.15    1.88
  -6   4   2   33.77    1.87
  -6   4   2   33.27    1.89
   5  -4  -2   12.80    0.77
  -5   4   2   13.28    0.80
  -5   4   2   15.99    2.65
  -5   4   2   13.53    0.79
  -5   4   2   13.68    0.89
  -5   4   2   13.18    0.86
  -5   4   2   13.35    0.80
  -5   4   2   13.25    0.91
  -5   4   2   12.78    0.87
  -5   4   2   13.94    0.82
  -5   4   2   13.43    0.79
  -5   4   2   13.13    0.79
  -5   4   2   13.22    0.91
  -5   4   2   14.34    0.87
  -5   4   2   12.72    0.76
  -5   4   2   13.44    0.86
   4  -4  -2  128.76    7.15
   4  -4  -2  134.66    7.17
   4  -4  -2  142.61    7.17
   4  -4  -2  139.10    7.17
  -4   4   2  147.23    7.36
  -4   4   2  137.21    7.22
  -4   4   2  137.33    7.17
  -4   4   2  134.51    7.19
  -4   4   2  124.65    7.19
  -4   4   2  133.66    7.30
  -4   4   2  142.21    7.28
  -4   4   2  131.95    7.29
  -4   4   2  126.87    7.19
  -4   4   2  140.41    7.28
  -4   4   2  133.94    7.26
  -4   4   2  129.11    7.20
  -4   4   2  137.86    7.33
  -4   4   2  127.87    7.20
   3  -4  -2    2.63    0.22
   3  -4  -2    2.76    0.20
   3  -4  -2    3.05    0.20
   3  -4  -2    2.80    0.20
   3  -4  -2    2.69    0.19
   3  -4  -2    2.80    0.41
   3  -4  -2    2.80    0.19
  -3   4   2    2.86    0.28
  -3   4   2    2.97    0.28
  -3   4   2    2.83    0.24
  -3   4   2    2.76    0.20
  -3   4   2    2.68    0.27
  -3   4   2    2.79    0.27
   2  -4  -2   77.79    4.30
   2  -4  -2   81.52    4.23
   2  -4  -2   78.87    4.27
   2  -4  -2   78.08    4.24
   2  -4  -2   82.22    4.24
   2  -4  -2   83.93    4.49
   2  -4  -2   83.91    4.24
   2  -4  -2   81.58    4.23
  -2   4   2   74.61    4.43
  -2   4   2   76.09    4.31
  -2   4   2   80.85    4.34
  -2   4   2   78.46    4.24
  -2   4   2   79.29    4.33
  -2   4   2   80.10    4.34
   1  -4  -2   41.23    2.08
   1  -4  -2   38.20    2.25
   1  -4  -2   40.10    2.09
   1  -4  -2   40.38    2.12
   1  -4  -2   39.70    2.08
   1  -4  -2   40.27    2.09
   1  -4  -2   39.00    2.13
   1  -4  -2   37.14    2.08
  -1   4   2   37.88    2.25
  -1   4   2   42.28    2.18
  -1   4   2   39.63    2.32
  -1   4   2   36.87    2.08
  -1   4   2   36.05    2.14
  -1   4   2   39.70    2.17
  -1   4   2   38.02    2.21
  -1   4   2   39.38    2.17
   0  -4  -2    7.91    0.44
   0  -4  -2    7.77    0.44
   0  -4  -2    7.70    0.46
   0  -4  -2    7.63    0.44
   0  -4  -2    7.75    0.52
   0  -4  -2    7.67    0.43
   0  -4  -2    9.14    0.48
   0   4   2    7.86    0.57
   0   4   2    7.64    0.50
   0   4   2    8.42    0.56
   0   4   2    7.45    0.44
   0   4   2    8.42    0.51
   0   4   2    7.32    0.45
   0   4   2    8.12    0.63
  -1  -4  -2    0.96    0.08
  -1  -4  -2    1.07    0.14
  -1  -4  -2    0.98    0.08
  -1  -4  -2    0.98    0.08
  -1  -4  -2    1.04    0.08
  -1  -4  -2    1.00    0.09
  -1  -4  -2    1.06    0.18
   1   4   2    1.00    0.08
   1   4   2    0.93    0.12
   1   4   2    1.09    0.16
   1   4   2    1.11    0.13
   1   4   2    1.10    0.19
   1   4   2    0.98    0.12
   1   4   2    1.04    0.09
  -2  -4  -2   40.87    2.26
  -2  -4  -2   41.90    2.26
  -2  -4  -2   42.89    2.25
  -2  -4  -2   43.29    2.36
  -2  -4  -2   41.68    2.25
  -2  -4  -2   43.80    2.36
  -2  -4  -2   41.71    2.26
  -2  -4  -2   43.93    2.45
   2   4   2   41.64    2.27
   2   4   2   40.88    2.34
   2   4   2   41.97    2.40
   2   4   2   42.09    2.26
   2   4   2   43.08    2.34
   2   4   2   43.16    2.50
  -3  -4  -2   13.47    0.76
  -3  -4  -2   12.85    0.87
  -3  -4  -2   14.43    0.85
  -3  -4  -2   12.85    0.96
  -3  -4  -2   13.82    0.75
  -3  -4  -2   13.48    0.76
  -3  -4  -2   13.34    0.77
  -3  -4  -2   13.62    0.75
  -3  -4  -2   13.16    0.86
   3   4   2   14.18    0.77
   3   4   2   13.90    0.99
   3   4   2   13.70    0.76
   3   4   2   14.69    0.87
   3   4   2   14.32    0.92
  -4  -4  -2   13.55    0.96
  -4  -4  -2   17.29    0.98
  -4  -4  -2   14.21    0.90
  -5  -4  -2    3.13    0.34
  -5  -4  -2    4.10    0.35
   5   4   2    2.73    0.34
  -6  -4  -2   39.35    2.30
  -6  -4  -2   39.28    2.30
  -6  -4  -2   37.02    2.28
  -6  -4  -2   44.01    2.34
   6   4   2   44.94    2.40
   6   4   2   45.18    2.67
   6   4   2   44.39    2.41
  -7  -4  -2    0.25    0.11
  -7  -4  -2    0.05    0.70
  -7  -4  -2    0.42    0.15
  -7  -4  -2    0.24    0.06
  -7  -4  -2    0.32    0.08
  -7  -4  -2    0.35    0.08
  -7  -4  -2    0.50    1.00
   7   4   2    0.11    0.12
   7   4   2    0.38    0.22
   7   4   2    0.10    0.11
  -8  -4  -2    5.12    0.33
  -8  -4  -2    4.41    0.28
  -8  -4  -2    4.90    0.28
   8   4   2    3.69    0.33
   6  -5  -2    3.90    0.26
   6  -5  -2    1.91    1.66
  -6   5   2    3.65    0.29
  -6   5   2    3.76    0.25
  -6   5   2    3.65    0.28
  -6   5   2    3.87    0.26
  -6   5   2    3.80    0.26
  -6   5   2    4.04    0.32
  -6   5   2    4.11    0.33
  -6   5   2    3.96    0.25
   5  -5  -2   -0.20    3.00
   5  -5  -2    1.64    0.17
  -5   5   2    1.61    0.19
  -5   5   2    0.22    1.55
  -5   5   2    1.31    0.22
  -5   5   2    1.66    0.15
  -5   5   2    1.52    0.27
  -5   5   2    5.38    2.63
  -5   5   2    1.74    0.22
  -5   5   2    1.92    0.31
  -5   5   2    1.48    0.15
  -5   5   2    1.99    1.15
  -5   5   2    1.64    0.17
  -5   5   2    1.48    0.22
  -5   5   2    1.81    0.22
  -5   5   2    1.64    0.18
   4  -5  -2    4.23    0.28
   4  -5  -2    4.42    0.29
   4  -5  -2    5.22    3.93
   4  -5  -2    4.15    0.29
   4  -5  -2    4.47    0.45
  -4   5   2    4.20    0.33
  -4   5   2    4.27    0.40
  -4   5   2    4.06    0.30
  -4   5   2    4.22    0.43
  -4   5   2    4.34    0.31
  -4   5   2    3.96    0.36
  -4   5   2    4.18    0.40
  -4   5   2    4.21    0.38
  -4   5   2    4.10    0.32
  -4   5   2    4.24    0.28
  -4   5   2    4.39    0.44
  -4   5   2    3.91    0.29
  -4   5   2    4.20    0.32
   3  -5  -2    0.12    0.04
   3  -5  -2    0.10    0.07
   3  -5  -2    0.07    0.06
   3  -5  -2    0.13    0.06
   3  -5  -2    0.33    0.27
   3  -5  -2    0.14    1.34
  -3   5   2    0.16    0.13
  -3   5   2    0.45    0.92
  -3   5   2    0.08    0.10
  -3   5   2   -0.12    0.42
  -3   5   2    0.18    0.12
  -3   5   2    0.14    0.07
  -3   5   2    1.54    1.72
  -3   5   2    0.15    0.05
  -3   5   2    0.10    0.06
  -3   5   2    0.13    0.06
  -3   5   2    0.07    0.07
  -3   5   2   -0.30    1.97
  -3   5   2    0.39    0.97
  -3   5   2    0.16    0.11
  -3   5   2    0.08    0.07
  -3   5   2    0.06    0.05
  -3   5   2    0.42    0.74
  -3   5   2    0.14    0.15
   2  -5  -2   17.14    0.98
   2  -5  -2   17.62    1.01
   2  -5  -2   18.54    1.14
   2  -5  -2   17.83    0.98
   2  -5  -2   17.63    0.97
   2  -5  -2   19.85    0.96
   2  -5  -2   17.66    0.98
  -2   5   2   16.50    1.07
  -2   5   2   17.69    0.97
  -2   5   2   17.24    1.08
  -2   5   2   16.51    1.02
  -2   5   2   16.53    1.08
   1  -5  -2   52.64    2.78
   1  -5  -2   55.66    2.78
   1  -5  -2   53.22    2.91
   1  -5  -2   51.68    2.77
   1  -5  -2   49.49    2.83
   1  -5  -2   53.67    2.76
   1  -5  -2   53.06    2.78
   1  -5  -2   52.75    2.81
  -1   5   2   53.11    2.77
  -1   5   2   52.56    3.09
  -1   5   2   51.64    2.87
  -1   5   2   43.82    2.98
  -1   5   2   50.96    2.82
   0  -5  -2   43.50    2.07
   0  -5  -2   38.95    2.07
   0  -5  -2   39.18    2.19
   0  -5  -2   36.12    2.28
   0  -5  -2   38.40    2.10
   0  -5  -2   35.86    2.11
   0  -5  -2   39.92    2.07
   0  -5  -2   37.82    2.06
   0  -5  -2   38.97    2.06
   0   5   2   38.14    2.24
   0   5   2   40.76    2.17
   0   5   2   35.97    2.07
   0   5   2   37.69    2.06
   0   5   2   37.38    2.34
   0   5   2   39.48    2.16
  -1  -5  -2   52.91    2.84
  -1  -5  -2   53.47    2.84
  -1  -5  -2   50.37    2.93
  -1  -5  -2   52.32    2.72
  -1  -5  -2   50.08    2.72
  -1  -5  -2   51.82    2.72
  -1  -5  -2   49.72    2.74
  -1  -5  -2   51.51    2.71
  -1  -5  -2   51.38    2.71
   1   5   2   48.67    2.73
   1   5   2   50.22    3.00
   1   5   2   47.89    2.88
   1   5   2   52.30    2.72
   1   5   2   50.43    2.81
  -2  -5  -2   30.50    1.65
  -2  -5  -2   30.82    1.66
  -2  -5  -2   30.64    1.66
  -2  -5  -2   31.76    1.78
  -2  -5  -2   30.76    1.66
  -2  -5  -2   30.99    1.88
  -2  -5  -2   32.12    1.79
  -2  -5  -2   30.67    1.64
   2   5   2   29.53    1.82
   2   5   2   31.26    1.77
   2   5   2   28.61    1.74
   2   5   2   31.45    1.94
   2   5   2   30.17    1.65
   2   5   2   30.01    1.67
  -3  -5  -2   29.34    1.76
  -3  -5  -2   28.28    1.62
  -3  -5  -2   28.53    1.75
  -3  -5  -2   33.12    1.66
  -3  -5  -2   30.21    1.63
   3   5   2   30.91    1.93
   3   5   2   27.39    1.65
   3   5   2   29.55    1.62
   3   5   2   30.96    1.63
   3   5   2   30.74    1.75
  -4  -5  -2    5.80    0.53
  -4  -5  -2    5.87    0.50
  -4  -5  -2    6.94    0.55
   4   5   2    7.68    0.55
   4   5   2    7.21    0.46
   4   5   2    7.69    0.43
  -5  -5  -2   13.04    0.91
  -5  -5  -2   12.31    0.78
   5   5   2   12.09    1.04
   5   5   2   14.66    0.79
  -6  -5  -2    2.82    0.34
  -6  -5  -2    1.52    1.56
  -6  -5  -2    2.93    0.23
  -6  -5  -2    2.68    0.23
  -6  -5  -2    2.09    0.26
   6   5   2    3.04    0.32
   6   5   2    2.49    0.44
   6   5   2    2.25    0.33
   7   5   2    1.46    0.32
   5  -6  -2    0.84    2.13
  -5   6   2    1.09    0.14
  -5   6   2    1.64    1.56
  -5   6   2    0.16    1.19
  -5   6   2    0.73    0.14
  -5   6   2    0.98    0.63
  -5   6   2    1.02    0.10
  -5   6   2    1.09    0.20
  -5   6   2    0.99    0.11
  -5   6   2    0.96    0.11
  -5   6   2    1.21    0.22
  -5   6   2    1.11    0.17
  -4   6   2    5.91    0.49
  -4   6   2    6.81    0.44
  -4   6   2    6.89    0.42
  -4   6   2    4.99    1.55
  -4   6   2    6.68    0.55
  -4   6   2    6.85    0.42
  -4   6   2    6.61    0.50
  -4   6   2    6.51    0.43
  -4   6   2    5.40    0.47
  -4   6   2    7.16    0.55
  -4   6   2    6.15    0.44
  -4   6   2    6.97    1.45
   3  -6  -2    0.24    0.07
   3  -6  -2    0.81    4.08
   3  -6  -2    0.23    0.22
   3  -6  -2    0.21    0.06
   3  -6  -2    0.07    1.18
  -3   6   2    1.56    1.39
  -3   6   2    0.41    0.16
  -3   6   2    0.43    0.24
  -3   6   2    0.16    0.06
  -3   6   2    0.33    0.17
  -3   6   2   -0.07    0.58
  -3   6   2    0.09    2.18
  -3   6   2    0.21    0.13
  -3   6   2    0.35    0.77
  -3   6   2   -0.23    0.44
  -3   6   2    0.43    0.78
  -3   6   2    0.29    0.08
  -3   6   2   -0.99    1.65
  -3   6   2    0.49    0.79
  -3   6   2    0.20    0.07
  -3   6   2    0.25    0.17
  -3   6   2    0.14    0.08
  -3   6   2    0.22    0.09
   2  -6  -2    1.86    0.16
   2  -6  -2    1.74    0.15
   2  -6  -2    1.65    0.32
   2  -6  -2    1.66    0.13
   2  -6  -2    0.10    1.36
   2  -6  -2    1.67    0.16
  -2   6   2    0.67    0.82
  -2   6   2    1.55    0.17
  -2   6   2    1.44    0.15
  -2   6   2    1.41    0.18
  -2   6   2    1.44    0.24
  -2   6   2    1.57    0.16
  -2   6   2    1.70    0.18
  -2   6   2    4.90    2.24
  -2   6   2    1.47    0.25
  -2   6   2    1.77    0.23
  -2   6   2    1.61    0.24
  -2   6   2    1.68    0.15
  -2   6   2    1.34    0.31
   1  -6  -2   16.49    1.09
   1  -6  -2   17.42    0.96
   1  -6  -2   17.54    1.10
   1  -6  -2   17.06    0.94
   1  -6  -2   17.93    0.95
   1  -6  -2   17.18    0.93
   1  -6  -2   16.01    0.98
   1  -6  -2   17.74    0.96
  -1   6   2   15.72    1.05
  -1   6   2   17.72    0.95
  -1   6   2   16.64    1.28
  -1   6   2   16.36    0.99
  -1   6   2   16.16    1.06
   0  -6  -2    9.90    0.56
   0  -6  -2    9.21    0.54
   0  -6  -2    9.01    0.58
   0  -6  -2    9.91    0.56
   0  -6  -2    9.87    0.69
   0  -6  -2    9.79    0.54
   0  -6  -2    9.87    2.21
   0  -6  -2    9.68    0.56
   0   6   2    9.03    0.64
   0   6   2    9.43    0.65
   0   6   2    9.38    0.84
   0   6   2   10.03    0.55
   0   6   2    8.72    0.58
  -1  -6  -2  124.65    6.54
  -1  -6  -2  119.43    6.53
  -1  -6  -2  119.60    6.56
  -1  -6  -2  124.22    6.69
  -1  -6  -2  120.63    6.52
  -1  -6  -2  125.74    6.54
  -1  -6  -2  133.29    6.55
  -1  -6  -2  128.57    6.69
   1   6   2  121.09    6.90
   1   6   2  119.92    6.65
   1   6   2  113.97    6.57
   1   6   2  127.05    6.54
  -2  -6  -2    5.93    0.48
  -2  -6  -2    6.39    0.36
  -2  -6  -2    5.86    0.36
  -2  -6  -2    5.69    0.48
  -2  -6  -2    5.51    0.35
   2   6   2    5.56    0.35
   2   6   2    5.38    0.36
   2   6   2    5.00    0.37
   2   6   2    5.56    0.59
  -3  -6  -2   68.60    3.45
  -3  -6  -2   62.61    3.60
  -3  -6  -2   60.64    3.58
   3   6   2   62.30    3.47
   3   6   2   66.43    3.45
   4   6   2   41.26    2.41
   4   6   2   46.30    2.74
   4   6   2   43.80    2.60
   4   6   2   46.56    2.88
   5   6   2   11.74    1.02
   5   6   2   13.74    0.97
   5   6   2   15.70    1.12
   5   6   2   14.26    1.19
  -6  -6  -2   19.08    1.12
  -6  -6  -2   18.27    1.01
   6   6   2   18.13    1.08
   6   6   2   14.20    1.22
   6   6   2   18.72    1.17
   7   6   2   12.72    0.88
   7   6   2   10.70    0.91
   4  -7  -2   -0.09    0.19
   4  -7  -2   -0.19    1.96
  -4   7   2    0.07    0.04
  -4   7   2   -0.01    0.07
  -4   7   2    0.06    1.56
  -4   7   2   -0.01    0.06
  -4   7   2   -0.27    1.66
  -4   7   2    0.21    0.51
  -4   7   2    0.18    0.05
  -4   7   2    0.20    1.33
  -4   7   2    0.12    0.10
   3  -7  -2   -0.35    2.96
   3  -7  -2    4.00    1.74
  -3   7   2    1.61    2.19
  -3   7   2    1.12    2.37
  -3   7   2    0.23    1.77
  -3   7   2    2.33    0.92
   2  -7  -2    0.95    3.32
   2  -7  -2    6.16    0.39
  -2   7   2    5.96    0.51
  -2   7   2    6.38    0.40
  -2   7   2    6.11    0.42
  -2   7   2    6.08    0.47
  -2   7   2    6.19    0.41
  -2   7   2    6.40    0.43
  -2   7   2    5.65    0.49
  -2   7   2    5.92    0.39
  -2   7   2    6.20    0.49
  -2   7   2    5.10    1.41
  -2   7   2    5.05    0.62
   1  -7  -2    9.67    0.57
   1  -7  -2    9.90    0.58
   1  -7  -2    9.48    0.57
  -1   7   2    9.69    0.61
  -1   7   2    9.94    0.60
  -1   7   2    9.29    0.62
  -1   7   2    9.41    0.87
  -1   7   2    8.93    0.66
  -1   7   2    9.77    0.59
  -1   7   2    9.43    0.70
  -1   7   2    9.61    0.58
  -1   7   2    9.06    0.66
   0  -7  -2    3.19    0.23
   0  -7  -2    3.48    0.23
   0  -7  -2    2.82    0.22
   0  -7  -2    0.17    3.92
   0   7   2    2.57    0.26
   0   7   2    3.16    0.22
   0   7   2    2.91    0.31
   0   7   2    2.98    0.23
   0   7   2    2.86    0.26
   0   7   2    2.88    0.34
   0   7   2    5.87    3.05
   0   7   2    3.06    0.31
   0   7   2    2.84    0.30
   0   7   2    3.15    0.25
  -1  -7  -2   11.57    0.64
  -1  -7  -2   10.77    0.63
   1   7   2   10.00    0.66
   1   7   2   10.66    0.64
   1   7   2   10.59    0.77
   1   7   2   11.22    0.63
   1   7   2   10.39    0.72
  -2  -7  -2    0.25    0.08
  -2  -7  -2   -0.15    1.35
  -2  -7  -2    1.27    3.87
   2   7   2    0.45    0.08
   2   7   2    0.14    0.15
   2   7   2    0.07    0.95
   2   7   2    1.02    0.90
   2   7   2    1.31    1.00
   2   7   2   -0.03    0.17
   2   7   2    0.12    0.16
   2   7   2   -0.39    0.39
   2   7   2    0.07    0.16
   2   7   2    0.32    0.13
   2   7   2   -0.18    0.50
   2   7   2    0.18    0.96
  -3  -7  -2    8.74    2.54
   3   7   2   12.47    0.85
   3   7   2   13.45    1.02
   3   7   2   10.93    0.86
   3   7   2   11.88    0.71
   3   7   2   12.30    0.80
   3   7   2   12.32    1.10
  -4  -7  -2   26.01    2.96
   4   7   2   22.90    1.46
   4   7   2   22.13    1.28
   4   7   2   23.35    1.38
   4   7   2   25.13    1.43
   4   7   2   19.55    1.54
  -5  -7  -2   12.04    0.81
  -5  -7  -2   11.98    0.69
   5   7   2   12.85    0.79
   5   7   2   10.09    0.88
   5   7   2    9.94    0.97
  -6  -7  -2   15.81    0.84
  -6  -7  -2   16.11    0.92
   6   7   2   13.86    0.96
   6   7   2   13.15    1.00
   3  -8  -2    0.71    0.77
   3  -8  -2    0.56    0.23
   3  -8  -2    0.26    2.00
   3  -8  -2    0.19    0.17
   3  -8  -2    0.25    0.12
  -3   8   2    0.40    0.10
  -3   8   2    0.41    0.06
  -3   8   2    0.40    0.08
  -3   8   2   -0.81    1.53
  -3   8   2   -0.04    0.22
  -3   8   2   -0.38    1.13
  -3   8   2   -0.20    1.39
   2  -8  -2    2.23    1.31
   2  -8  -2   -0.38    0.81
   2  -8  -2    0.09    3.03
   2  -8  -2    0.75    0.29
  -2   8   2    0.71    0.15
  -2   8   2    0.87    0.12
  -2   8   2   -0.04    0.38
  -2   8   2    0.22    1.66
  -2   8   2    0.15    0.61
  -2   8   2   -1.19    1.97
  -2   8   2   -0.17    1.71
  -2   8   2    0.46    0.12
  -2   8   2    0.19    0.55
   1  -8  -2    0.01    0.86
   1  -8  -2    0.05    0.16
   1  -8  -2    0.20    1.19
  -1   8   2    0.12    0.42
  -1   8   2    0.05    0.13
  -1   8   2    0.09    0.08
  -1   8   2    0.01    0.10
  -1   8   2    0.10    0.62
  -1   8   2    0.07    0.46
  -1   8   2    0.35    0.69
  -1   8   2    0.02    0.53
  -1   8   2   -0.04    2.21
  -1   8   2   -0.03    1.77
  -1   8   2   -0.03    0.16
  -1   8   2    0.72    1.92
   0  -8  -2    7.39    2.21
   0   8   2    7.37    0.54
   0   8   2    6.12    1.80
   0   8   2    7.17    0.54
   0   8   2    7.97    0.60
   0   8   2    5.57    3.02
   1   8   2   19.61    1.18
   1   8   2   17.52    1.11
   1   8   2   22.35    2.46
   1   8   2   18.28    1.03
   1   8   2   16.08    1.13
  -2  -8  -2   10.65    6.07
  -2  -8  -2    1.68    1.65
  -2  -8  -2   -0.67    3.62
   2   8   2    1.39    0.86
   2   8   2    1.33    1.23
   2   8   2    0.28    0.95
   2   8   2   -0.95    2.39
  -3  -8  -2   23.51    3.29
   3   8   2   22.43    1.44
   3   8   2   23.70    1.61
   3   8   2   26.33    1.76
   3   8   2   22.66    1.38
   3   8   2   23.60    1.31
  -4  -8  -2    0.10    1.06
  -4  -8  -2   -0.14    0.76
  -4  -8  -2    0.17    1.18
  -4  -8  -2    0.66    2.62
  -4  -8  -2   -0.12    0.72
  -4  -8  -2    0.00    0.17
   4   8   2    0.07    0.12
   4   8   2    0.02    0.05
   4   8   2    0.03    0.12
   4   8   2    0.00    0.15
   4   8   2    0.12    0.14
   4   8   2   -0.65    1.92
  -5  -8  -2   11.10    1.52
  -5  -8  -2   13.29    0.74
  -5  -8  -2   13.60    0.82
   5   8   2   11.86    0.81
   5   8   2   14.98    0.98
   1  -9  -2    1.22    1.82
   1  -9  -2    1.04    2.30
  -1   9   2    0.06    1.27
  -1   9   2    0.71    1.24
   0  -9  -2    2.91    2.47
   0  -9  -2    0.19    2.38
   0   9   2    0.92    1.56
   0   9   2    2.34    0.77
   0   9   2   -0.13    1.74
  -1  -9  -2   -1.72    2.57
  -1  -9  -2   -0.65    1.96
   1   9   2   -0.03    0.39
   1   9   2    0.43    0.34
   1   9   2   -0.12    0.47
   1   9   2   -0.17    1.97
   1   9   2    0.09    0.14
  -3  -9  -2   -0.35    0.59
  -3  -9  -2   -0.09    0.88
  -3  -9  -2    0.77    0.17
   3   9   2    0.71    0.15
   3   9   2   -0.51    1.26
   3   9   2    0.69    0.19
   3   9   2    0.13    0.36
   3   8  -3   -0.02    0.08
   2   8  -3    0.02    0.09
   2   8  -3    0.12    0.11
   2   8  -3    0.02    0.10
  -2  -8   3   -0.03    0.36
  -2  -8   3   -0.81    0.88
  -2  -8   3    0.08    0.07
   1   8  -3   -0.09    0.08
   1   8  -3   -0.15    0.33
   1   8  -3    0.01    0.09
  -1  -8   3   -0.08    0.11
  -1  -8   3    0.07    0.07
  -1  -8   3    0.06    0.43
  -1  -8   3   -0.02    1.22
   0   8  -3    0.05    0.10
   0   8  -3    0.05    0.36
   0  -8   3   -0.13    0.32
   0  -8   3    0.09    0.06
   5   7  -3    3.89    0.35
   4   7  -3   13.12    1.07
   4   7  -3   12.31    0.87
   4   7  -3   11.76    0.81
  -4  -7   3   15.07    1.63
  -4  -7   3   13.11    0.79
   3   7  -3   14.63    1.05
   3   7  -3   16.15    1.03
   3   7  -3   16.64    1.31
  -3  -7   3   16.47    1.00
   2   7  -3    2.79    0.33
   2   7  -3    1.86    0.42
   2   7  -3    2.09    0.37
  -2  -7   3    2.01    2.55
  -2  -7   3    2.89    0.34
  -2  -7   3    2.32    0.28
   1   7  -3   11.07    0.76
  -1  -7   3    6.80    3.34
  -1  -7   3    9.45    0.71
  -1  -7   3   10.28    0.72
   0   7  -3    9.14    0.67
   0   7  -3   10.30    0.69
   0  -7   3    9.90    0.68
   0  -7   3    8.37    0.68
  -1   7  -3   -0.01    0.14
  -1   7  -3    0.12    0.11
  -1   7  -3    0.07    0.57
   1  -7   3    0.10    0.17
   1  -7   3    0.04    0.12
   1  -7   3   -0.25    0.55
   1  -7   3    0.02    0.16
  -2   7  -3    2.87    0.37
  -3   7  -3   -0.03    0.08
   6   6  -3    3.30    0.36
  -6  -6   3    2.68    0.71
   5   6  -3    2.84    0.44
   5   6  -3    4.06    0.44
   4   6  -3   25.51    1.50
   4   6  -3   23.68    1.54
  -4  -6   3   19.56    1.36
   3   6  -3    0.57    0.25
   3   6  -3    0.53    0.32
   3   6  -3    0.43    0.21
   3   6  -3    0.50    0.20
  -3  -6   3    0.37    0.63
  -3  -6   3    0.16    0.13
  -3  -6   3    0.18    0.13
  -3  -6   3    0.23    2.24
  -3  -6   3    0.87    0.67
   2   6  -3   71.65    4.08
   2   6  -3   75.06    4.30
   2   6  -3   68.81    4.13
   2   6  -3   76.99    4.46
  -2  -6   3   72.77    4.08
  -2  -6   3   68.54    4.10
  -2  -6   3   71.43    4.04
  -2  -6   3   80.15    4.25
   1   6  -3   28.85    1.91
   1   6  -3   28.11    1.99
  -1  -6   3   25.75    1.70
  -1  -6   3   29.73    1.78
   0   6  -3   24.98    1.55
   0   6  -3   25.87    1.55
   0  -6   3   24.55    1.59
  -1   6  -3   49.95    2.59
   1  -6   3   48.19    2.62
   1  -6   3   43.92    2.56
   1  -6   3   36.18    2.51
   1  -6   3   44.16    2.52
  -2   6  -3    2.12    0.29
  -2   6  -3    1.99    0.39
  -2   6  -3   -0.77    2.07
   2  -6   3    2.42    1.30
   2  -6   3    1.87    0.27
   2  -6   3    3.25    0.49
   2  -6   3    1.80    0.35
  -3   6  -3    4.48    0.55
  -3   6  -3    5.96    0.46
   3  -6   3    5.69    0.43
   3  -6   3    5.74    0.35
   3  -6   3    5.87    0.52
   3  -6   3    5.45    0.50
  -4   6  -3    3.19    0.34
  -4   6  -3    3.48    0.39
   4  -6   3    4.57    0.31
   4  -6   3    4.18    0.33
   7   5  -3    0.05    0.05
  -7  -5   3   -0.06    0.17
   6   5  -3    3.44    0.43
   6   5  -3    3.36    0.33
  -6  -5   3    3.07    0.95
  -6  -5   3    1.07    1.60
   5   5  -3    0.09    0.15
   5   5  -3   -0.01    0.17
   5   5  -3   -0.05    0.19
   5   5  -3    0.11    0.14
  -5  -5   3   -0.22    0.73
  -5  -5   3   -0.14    0.40
  -5  -5   3    0.12    2.23
   4   5  -3   19.67    1.43
   4   5  -3   17.41    1.34
   4   5  -3   19.93    1.32
   4   5  -3   20.20    1.52
  -4  -5   3   20.00    1.23
   3   5  -3    4.42    0.64
   3   5  -3    4.21    0.51
   3   5  -3    3.91    0.46
  -3  -5   3    3.08    0.34
  -3  -5   3    3.92    0.43
   2   5  -3   16.54    1.36
   2   5  -3   16.17    1.10
   2   5  -3   17.80    1.29
   2   5  -3   16.06    1.15
  -2  -5   3   18.11    1.22
  -2  -5   3   18.15    1.24
  -2  -5   3   16.63    1.09
  -1  -5   3   20.44    1.19
  -1  -5   3   16.85    1.05
   0  -5   3   22.42    1.35
   0  -5   3   21.33    1.27
  -1   5  -3    0.05    0.56
  -1   5  -3    2.27    1.26
  -1   5  -3    0.18    0.15
  -1   5  -3    0.29    0.16
  -1   5  -3    0.00    0.12
   1  -5   3    0.39    0.21
   1  -5   3   -0.01    0.10
   1  -5   3    0.36    0.32
   1  -5   3    0.10    0.75
  -2   5  -3   39.16    2.35
  -2   5  -3   35.01    2.11
   2  -5   3   37.37    2.10
   2  -5   3   33.41    2.08
   2  -5   3   36.94    2.18
   2  -5   3   34.18    1.98
  -3   5  -3   -0.22    0.69
  -3   5  -3   -0.21    2.06
  -3   5  -3    0.17    0.16
  -3   5  -3    0.21    0.66
  -3   5  -3    0.14    0.18
   3  -5   3    0.21    0.18
   3  -5   3    0.08    0.20
   3  -5   3   -0.09    0.30
   3  -5   3    0.67    0.87
   3  -5   3    0.11    0.14
   3  -5   3    0.36    0.09
  -4   5  -3    2.18    2.61
  -4   5  -3    5.48    0.59
  -4   5  -3    6.76    0.47
   4  -5   3    6.76    0.50
  -5   5  -3    0.10    0.11
  -5   5  -3   -0.06    0.33
  -5   5  -3   -0.95    1.38
  -5   5  -3    0.11    0.07
  -5   5  -3    0.11    0.05
   5  -5   3    0.08    0.05
   5  -5   3    0.12    0.08
   7   4  -3    3.24    0.28
  -7  -4   3    2.59    0.85
  -7  -4   3    4.61    0.98
   6   4  -3    1.21    0.22
   6   4  -3    1.07    0.21
   6   4  -3    1.18    0.38
  -6  -4   3    3.92    2.14
  -6  -4   3    2.27    0.97
   5   4  -3   18.93    1.36
   5   4  -3   22.45    1.56
   5   4  -3   20.75    1.32
  -5  -4   3   23.56    1.46
  -5  -4   3   22.33    1.35
   4   4  -3    2.46    0.36
  -4  -4   3    1.92    0.27
  -4  -4   3    2.67    0.27
  -4  -4   3    4.10    1.08
  -4  -4   3   -0.18    1.86
  -4  -4   3    2.04    0.46
  -4  -4   3    0.10    2.01
  -4  -4   3    2.34    0.33
   3   4  -3   10.71    0.77
   2   4  -3    0.26    0.12
   2   4  -3   -0.45    0.86
   2   4  -3    0.39    0.07
  -2  -4   3    0.16    0.06
  -2  -4   3    0.36    0.15
  -2  -4   3    0.38    0.18
   1   4  -3    0.29    0.12
   1   4  -3    0.35    0.07
  -1  -4   3    0.27    0.14
  -1  -4   3    0.48    0.19
  -1  -4   3    0.24    0.06
   0   4  -3   10.25    0.59
   0   4  -3   10.80    0.87
   0  -4   3    9.24    0.59
   0  -4   3   10.04    0.69
   0  -4   3    9.90    0.79
  -1   4  -3   23.13    1.29
  -1   4  -3   25.49    1.67
   1  -4   3   25.49    1.42
   1  -4   3   19.35    1.50
  -2   4  -3    2.86    0.43
   2  -4   3    2.62    0.32
   2  -4   3    2.67    0.37
  -3   4  -3   62.68    3.60
  -3   4  -3   57.01    3.38
   3  -4   3   62.43    3.29
  -4   4  -3    1.98    0.36
  -4   4  -3    1.53    0.86
  -4   4  -3    1.48    0.19
  -4   4  -3    0.46    2.84
  -4   4  -3    1.29    0.22
  -4   4  -3    1.52    0.23
   4  -4   3    1.71    0.34
   4  -4   3    1.66    0.17
   4  -4   3    1.53    0.17
   4  -4   3    1.56    0.28
  -5   4  -3   22.64    2.17
  -5   4  -3   18.81    1.08
  -5   4  -3   18.00    1.13
  -5   4  -3   19.27    1.29
   5  -4   3   18.15    1.07
   5  -4   3   18.75    1.15
   5  -4   3   17.60    1.07
  -6   4  -3    0.62    1.42
  -6   4  -3    0.11    0.05
  -6   4  -3    0.09    0.09
   6  -4   3    0.13    0.05
   6  -4   3    0.18    0.07
   6  -4   3    0.10    0.05
   7   3  -3    2.31    0.36
   7   3  -3    3.23    0.31
   7   3  -3    3.37    0.24
  -7  -3   3    3.09    0.97
   6   3  -3    8.04    0.64
   6   3  -3    9.07    0.83
  -6  -3   3   10.11    1.93
  -6  -3   3    9.29    0.65
  -6  -3   3   10.98    2.70
  -6  -3   3    8.67    0.57
   5   3  -3    0.48    2.33
   5   3  -3    2.72    0.49
  -5  -3   3    3.39    0.34
  -5  -3   3    2.77    0.26
  -5  -3   3    5.22    3.14
  -5  -3   3    2.82    0.35
  -5  -3   3    2.60    2.33
  -5  -3   3    3.89    0.44
   4   3  -3    7.20    0.58
   4   3  -3    7.41    0.45
   4   3  -3    7.33    0.58
  -4  -3   3    7.30    0.55
  -4  -3   3    7.98    0.47
  -4  -3   3    7.09    0.52
  -4  -3   3    7.57    0.54
   3   3  -3   60.99    3.23
   3   3  -3   61.05    3.37
   3   3  -3   64.62    3.39
   3   3  -3   57.94    3.22
   3   3  -3   57.45    3.28
  -3  -3   3   62.17    3.25
  -3  -3   3   54.67    3.31
  -3  -3   3   64.54    3.33
  -3  -3   3   59.96    3.41
   2   3  -3   25.16    1.41
   2   3  -3   21.61    1.32
   2   3  -3   23.28    1.38
   2   3  -3   25.41    1.29
   2   3  -3   22.53    1.27
   2   3  -3   22.95    1.27
  -2  -3   3   23.40    1.29
  -2  -3   3   22.80    1.29
  -2  -3   3   24.25    1.46
  -2  -3   3   23.33    1.32
   1   3  -3    2.11    0.15
   1   3  -3    2.38    0.25
   1   3  -3    2.51    0.27
   1   3  -3    2.09    0.15
   1   3  -3    2.50    0.17
   1   3  -3    2.48    0.29
  -1  -3   3    2.46    0.24
  -1  -3   3    1.81    0.21
  -1  -3   3    2.28    0.17
  -1  -3   3    2.38    0.29
  -1  -3   3    2.23    0.19
  -1  -3   3    2.08    0.19
   0   3  -3   18.12    1.16
   0   3  -3   20.19    1.09
   0   3  -3   20.95    1.26
   0   3  -3   21.37    1.34
   0  -3   3   17.96    1.08
   0  -3   3   18.79    1.11
   0  -3   3   19.94    1.27
  -1   3  -3   25.38    1.59
  -1   3  -3   24.34    1.28
  -1   3  -3   24.53    1.46
   1  -3   3   20.58    1.32
   1  -3   3   21.22    1.30
  -2   3  -3   76.98    4.25
  -2   3  -3   85.24    4.45
   2  -3   3   70.64    4.26
   2  -3   3   74.62    4.12
   2  -3   3   71.29    4.12
  -3   3  -3   62.64    3.22
  -3   3  -3   62.12    3.50
   3  -3   3   52.68    3.17
   3  -3   3   52.48    3.32
  -4   3  -3  127.06    6.64
  -4   3  -3  111.52   11.76
  -4   3  -3  112.24    6.40
  -4   3  -3  115.36    6.34
   4  -3   3  117.06    6.33
   4  -3   3  124.72    6.45
   4  -3   3  118.34    6.31
   4  -3   3  118.41    6.35
  -5   3  -3    0.60    0.82
  -5   3  -3    0.90    2.61
  -5   3  -3    0.26    0.19
  -5   3  -3    0.20    0.09
  -5   3  -3    0.07    0.12
   5  -3   3    0.14    0.07
   5  -3   3    0.10    0.06
   5  -3   3    0.17    0.15
   5  -3   3    0.09    0.08
  -6   3  -3   14.59    0.84
  -6   3  -3   13.55    0.79
  -6   3  -3   12.59    3.33
   6  -3   3   12.99    0.76
   6  -3   3   11.90    0.75
   6  -3   3   13.82    0.78
   6  -3   3   12.82    0.82
   7   2  -3    7.29    0.56
   7   2  -3    7.01    0.47
   7   2  -3    6.74    0.51
  -7  -2   3    7.37    0.49
  -7  -2   3    6.74    0.42
   6   2  -3    1.92    0.29
   6   2  -3    1.91    0.40
  -6  -2   3    2.05    0.28
  -6  -2   3    1.77    0.24
  -6  -2   3    0.19    1.78
  -6  -2   3    1.97    0.16
  -6  -2   3    1.90    0.21
  -5  -2   3  174.66   10.19
  -5  -2   3  123.77    9.88
   4   2  -3   54.14    2.92
   4   2  -3   52.07    2.90
   4   2  -3   54.11    3.09
   4   2  -3   53.57    2.92
   4   2  -3   51.78    2.90
   4   2  -3   52.32    2.99
   4   2  -3   57.19    3.07
   4   2  -3   54.63    2.92
  -4  -2   3   55.91    3.01
  -4  -2   3   55.64    3.04
  -4  -2   3   56.28    2.93
  -4  -2   3   54.22    3.11
  -4  -2   3   55.51    2.93
   3   2  -3   27.60    1.64
   3   2  -3   28.35    1.50
   3   2  -3   27.53    1.50
   3   2  -3   27.46    1.51
   3   2  -3   26.39    1.50
   3   2  -3   27.07    1.57
   3   2  -3   29.22    1.64
  -3  -2   3   28.23    1.52
  -3  -2   3   27.51    1.56
  -3  -2   3   28.96    1.69
  -3  -2   3   26.90    1.60
  -3  -2   3   28.85    1.60
  -3  -2   3   27.76    1.55
  -3  -2   3   28.88    1.53
   2   2  -3   32.94    1.82
   2   2  -3   34.36    1.83
   2   2  -3   33.12    1.87
   2   2  -3   35.94    1.94
   2   2  -3   34.48    1.82
   2   2  -3   33.62    1.83
   2   2  -3   35.26    1.94
   2   2  -3   35.42    1.84
   2   2  -3   33.44    1.82
  -2  -2   3   30.88    1.89
  -2  -2   3   32.96    1.88
  -2  -2   3   34.59    1.85
  -2  -2   3   32.15    1.84
  -2  -2   3   34.25    1.87
  -2  -2   3   35.41    1.91
  -2  -2   3   37.24    2.01
   1   2  -3    0.36    0.05
   1   2  -3    0.41    0.05
   1   2  -3    0.38    0.06
   1   2  -3    0.38    0.12
   1   2  -3    0.41    0.11
   1   2  -3    0.34    0.04
   1   2  -3    0.35    0.05
   1   2  -3    0.37    0.08
   1   2  -3    0.44    0.11
   1   2  -3    0.36    0.23
  -1  -2   3    0.48    0.10
  -1  -2   3    0.35    0.07
  -1  -2   3    0.61    0.16
  -1  -2   3    0.35    0.07
  -1  -2   3    0.41    0.06
  -1  -2   3    0.39    0.11
   0   2  -3   30.99    1.66
   0   2  -3   35.72    1.83
   0   2  -3   30.13    1.66
   0   2  -3   30.14    1.65
   0   2  -3   29.31    1.65
   0   2  -3   30.46    1.65
   0   2  -3   29.49    1.80
   0   2  -3   35.65    1.90
   0   2  -3   32.95    1.68
   0  -2   3   26.80    1.67
   0  -2   3   29.79    1.70
   0  -2   3   32.27    1.69
   0  -2   3   30.41    1.75
   0  -2   3   28.81    1.78
   0  -2   3   32.15    1.67
   0  -2   3   30.34    1.71
  -1   2  -3    0.15    0.04
  -1   2  -3    0.21    0.11
  -1   2  -3    0.21    0.05
  -1   2  -3    0.20    0.04
  -1   2  -3    0.18    0.10
  -1   2  -3    0.21    0.06
  -1   2  -3    0.18    0.04
  -1   2  -3    0.15    0.04
   1  -2   3    0.17    0.06
   1  -2   3    0.23    0.10
   1  -2   3    0.14    0.05
  -2   2  -3    4.01    0.31
  -2   2  -3    3.66    0.24
  -2   2  -3    4.24    0.46
  -2   2  -3    4.05    0.38
   2  -2   3    3.50    0.26
   2  -2   3    3.58    0.29
   2  -2   3    3.57    0.37
  -3   2  -3   45.77    2.65
  -3   2  -3   45.40    2.41
   3  -2   3   39.34    2.48
   3  -2   3   40.29    2.38
  -4   2  -3    7.67    0.55
   4  -2   3    6.78    0.52
  -6   2  -3    0.02    0.08
  -6   2  -3   -0.02    0.04
  -6   2  -3    0.02    0.11
  -6   2  -3    0.21    2.10
   6  -2   3    0.09    0.07
   6  -2   3   -0.01    0.05
   6  -2   3    0.07    0.06
  -7   2  -3   -0.10    0.07
  -7   2  -3    0.07    0.03
  -7   2  -3    0.00    0.05
   7  -2   3    0.15    0.05
   7  -2   3    0.09    0.05
   7  -2   3    0.11    0.05
   8   1  -3    6.15    0.39
   7   1  -3    1.47    0.27
   7   1  -3    1.68    0.18
   7   1  -3   -0.98    2.09
  -7  -1   3    1.31    0.20
  -7  -1   3    1.51    0.13
  -7  -1   3    0.65    0.66
  -7  -1   3    0.44    0.79
  -7  -1   3    5.45    2.60
  -7  -1   3    1.33    0.12
  -7  -1   3    1.61    0.15
   6   1  -3   32.56    1.90
   6   1  -3   31.14    1.75
  -6  -1   3   32.39    1.86
  -6  -1   3   32.25    1.78
  -6  -1   3   32.30    1.75
  -6  -1   3   33.22    1.88
  -6  -1   3   32.02    1.81
  -6  -1   3   30.77    1.76
   5   1  -3    0.04    0.04
   5   1  -3    0.27    1.12
   5   1  -3    0.08    0.05
   5   1  -3    0.08    0.05
   5   1  -3    0.06    0.07
   5   1  -3    0.21    0.11
   5   1  -3    0.08    0.06
   5   1  -3    0.01    0.04
  -5  -1   3    0.10    0.06
  -5  -1   3    0.12    0.10
  -5  -1   3   -0.02    0.07
  -5  -1   3    0.05    0.06
  -5  -1   3    0.38    0.07
   4   1  -3   90.84    4.86
   4   1  -3   93.40    4.86
   4   1  -3   91.08    4.96
   4   1  -3   92.14    4.87
   4   1  -3   90.68    4.88
   4   1  -3   91.87    4.87
   4   1  -3   93.42    5.04
   4   1  -3   85.87    4.98
  -4  -1   3   97.98    5.00
  -4  -1   3   90.94    4.89
  -4  -1   3   88.51    5.06
  -4  -1   3   93.49    4.88
  -4  -1   3   91.62    4.96
   3   1  -3    0.52    0.06
   3   1  -3    0.43    0.09
   3   1  -3    0.42    0.06
   3   1  -3    0.74    0.13
   3   1  -3    0.46    0.06
   3   1  -3    0.50    0.06
  -3  -1   3    0.44    0.07
  -3  -1   3    0.41    0.08
  -3  -1   3    0.64    0.17
  -3  -1   3    0.56    0.12
  -3  -1   3    0.52    0.10
  -3  -1   3    0.54    0.10
  -3  -1   3    0.68    0.14
   2   1  -3   95.71    6.68
   2   1  -3  111.25    5.58
   2   1  -3  104.80    5.47
   2   1  -3  105.82    5.46
   2   1  -3  101.91    5.46
   2   1  -3  105.15    5.51
   2   1  -3  107.66    5.57
   2   1  -3  104.60    5.47
  -2  -1   3  105.80    5.52
  -2  -1   3   97.88    6.29
  -2  -1   3  101.13    5.50
  -2  -1   3  110.55    5.62
  -2  -1   3  104.69    5.48
  -2  -1   3  100.08    5.52
  -2  -1   3   93.17    5.47
   1   1  -3   70.33    3.96
   1   1  -3   73.44    4.56
   1   1  -3   75.34    3.95
   1   1  -3   75.42    4.00
   1   1  -3   74.64    3.95
   1   1  -3   71.46    4.14
   1   1  -3   71.45    4.08
   1   1  -3   78.36    4.07
   1   1  -3   76.81    3.96
   1   1  -3   77.05    3.97
  -1  -1   3   80.81    3.99
  -1  -1   3   68.58    4.66
  -1  -1   3   78.78    4.09
  -1  -1   3   75.16    4.07
  -1  -1   3   74.13    4.04
  -1  -1   3   73.88    4.06
  -1  -1   3   76.24    3.97
  -1  -1   3   74.12    4.01
  -1  -1   3   75.45    4.01
   0   1  -3   11.55    0.66
   0   1  -3   12.11    0.78
   0   1  -3   11.67    0.64
   0   1  -3   12.51    0.83
   0   1  -3   11.42    0.65
   0   1  -3   11.58    0.77
   0   1  -3   11.46    0.80
   0   1  -3   11.45    0.64
   0   1  -3   11.91    0.64
   0   1  -3   12.21    0.97
   0  -1   3   12.07    0.67
   0  -1   3   11.55    0.68
   0  -1   3   12.05    0.65
   0  -1   3   12.28    0.69
   0  -1   3   11.58    1.19
   0  -1   3   12.82    0.77
   0  -1   3   12.56    1.24
   0  -1   3   11.56    0.73
  -1   1  -3   80.60    4.31
  -1   1  -3   82.25    4.32
  -1   1  -3   87.65    4.31
  -1   1  -3   81.72    4.50
  -1   1  -3   78.25    4.37
  -1   1  -3   80.77    4.31
  -1   1  -3   80.24    4.47
  -1   1  -3   81.57    4.33
  -1   1  -3   80.41    4.46
  -1   1  -3   74.77    4.53
   1  -1   3   85.13    4.34
   1  -1   3   78.13    4.40
   1  -1   3   88.12    4.45
   1  -1   3   84.87    4.45
   1  -1   3   85.48    5.11
   1  -1   3   85.69    4.37
   1  -1   3   71.64    5.17
   1  -1   3   80.59    4.36
  -2   1  -3  118.84    6.37
  -2   1  -3  125.33    6.29
  -2   1  -3  114.03    6.20
  -2   1  -3  122.51    6.50
  -2   1  -3  116.81    6.22
  -2   1  -3  120.81    6.21
  -2   1  -3  112.14    6.20
  -2   1  -3  114.06    6.20
  -2   1  -3  117.91    6.21
   2  -1   3  122.52    7.05
   2  -1   3  127.39    6.35
   2  -1   3  109.95    6.29
   2  -1   3  122.66    6.27
   2  -1   3  116.04    6.29
   2  -1   3  103.93    6.21
   2  -1   3  111.12    6.25
  -3   1  -3    8.63    0.65
  -3   1  -3    9.75    0.78
  -3   1  -3   10.56    0.62
   3  -1   3    8.58    0.64
   3  -1   3    8.29    0.61
   3  -1   3    9.12    0.58
   3  -1   3    8.23    0.56
  -4   1  -3   96.46    4.74
   4  -1   3   84.94    4.69
   4  -1   3   77.72    4.73
  -5   1  -3   10.30    1.54
  -7   1  -3    0.17    0.08
  -7   1  -3    0.14    0.11
  -7   1  -3    0.18    0.06
  -7   1  -3    0.21    0.06
   7  -1   3    0.12    0.06
   7  -1   3    0.08    0.06
   7  -1   3    0.17    0.07
   8   0  -3   17.09    0.95
   7   0  -3   10.96    0.68
   7   0  -3   12.10    2.69
   7   0  -3   10.66    0.74
  -7   0   3   10.69    0.65
  -7   0   3    9.99    0.63
  -7   0   3   11.17    0.73
  -7   0   3   11.11    0.63
  -7   0   3   10.92    0.64
  -7   0   3   13.44    1.91
   5   0  -3    7.50    0.57
   5   0  -3    7.72    0.46
   5   0  -3    8.36    0.48
   5   0  -3    7.71    0.46
   5   0  -3    7.54    0.62
   5   0  -3    8.09    0.48
   5   0  -3    8.30    0.48
  -5   0   3    8.50    0.49
  -5   0   3    8.03    0.56
  -5   0   3    7.19    0.65
  -5   0   3    7.81    0.54
  -5   0   3    7.83    0.49
  -5   0   3    8.65    0.59
   4   0  -3    9.03    0.52
   4   0  -3    9.49    0.53
   4   0  -3    9.10    0.67
   4   0  -3    9.19    0.54
   4   0  -3    8.55    0.59
   4   0  -3    9.64    0.54
   4   0  -3    9.29    0.54
   4   0  -3    9.61    0.62
  -4   0   3    9.67    0.62
  -4   0   3    9.65    0.63
  -4   0   3    9.69    0.55
  -4   0   3    9.49    0.54
  -4   0   3    9.15    0.57
  -4   0   3    9.65    0.71
   3   0  -3   13.08    0.80
   3   0  -3   13.19    0.78
   3   0  -3   12.93    0.71
   3   0  -3   13.44    0.84
   3   0  -3   11.53    0.71
   3   0  -3   13.06    0.71
  -3   0   3   13.15    0.76
  -3   0   3   13.41    0.80
  -3   0   3   13.49    0.78
  -3   0   3   13.64    0.80
  -3   0   3   13.06    0.74
  -3   0   3   13.38    0.88
   2   0  -3   15.28    0.90
   2   0  -3   14.27    1.43
   2   0  -3   14.50    0.81
   2   0  -3   15.46    0.86
   2   0  -3   15.26    0.81
   2   0  -3   15.94    1.02
   2   0  -3   15.85    0.91
  -2   0   3   15.45    0.85
  -2   0   3   13.98    1.32
  -2   0   3   15.48    0.83
  -2   0   3   15.06    0.87
  -2   0   3   15.75    0.87
  -2   0   3   15.74    0.95
  -2   0   3   14.09    0.93
   1   0  -3   55.43    3.06
   1   0  -3   57.64    3.06
   1   0  -3   50.74    3.08
   1   0  -3   58.73    3.06
   1   0  -3   58.42    3.23
   1   0  -3   57.00    3.07
   1   0  -3   58.59    3.64
  -1   0   3   59.52    3.10
  -1   0   3   59.54    3.09
  -1   0   3   56.47    3.68
  -1   0   3   57.01    3.08
  -1   0   3   59.37    3.16
  -1   0   3   58.52    3.48
  -1   0   3   58.99    3.11
  -1   0   3   61.82    3.18
  -1   0   3   57.19    3.17
  -1   0   3   56.76    3.11
  -1   0   3   61.70    3.12
   0   0  -3   45.89    2.78
   0   0  -3   53.44    2.93
   0   0  -3   54.24    3.12
   0   0  -3   54.20    2.92
   0   0  -3   51.66    2.92
   0   0  -3   50.34    2.78
   0   0  -3   44.22    2.78
   0   0  -3   55.06    2.81
   0   0   3   57.35    3.11
   0   0   3   47.35    2.80
   0   0   3   52.82    2.83
   0   0   3   54.32    3.41
   0   0   3   56.68    2.85
   0   0   3   55.63    3.45
   0   0   3   50.13    2.79
   0   0   3   54.64    2.88
   0   0   3   56.04    2.83
   0   0   3   53.00    2.80
   0   0   3   54.05    2.82
   0   0   3   54.03    2.78
   0   0   3   50.72    2.86
  -1   0  -3  164.14    8.38
  -1   0  -3  163.97    8.38
  -1   0  -3  129.01    8.23
  -1   0  -3  130.02    8.23
  -1   0  -3  148.95    8.23
   1   0   3  146.99    8.30
   1   0   3  148.83    8.25
   1   0   3  154.29    8.31
   1   0   3  156.76    9.09
   1   0   3  164.12    8.80
   1   0   3  166.51    8.32
   1   0   3  158.11    8.28
   1   0   3  166.66    8.28
   1   0   3  170.04    9.02
   1   0   3  172.61    8.34
  -2   0  -3    7.91    0.55
  -2   0  -3    6.78    0.50
  -2   0  -3    6.50    0.42
  -2   0  -3    6.57    0.54
  -2   0  -3    6.46    0.42
  -2   0  -3    8.35    0.41
  -2   0  -3    6.57    0.45
  -2   0  -3    7.91    0.94
  -2   0  -3    7.24    0.41
  -2   0  -3    7.01    0.41
  -2   0  -3    7.92    0.55
   2   0   3    7.57    0.46
   2   0   3    7.82    0.43
   2   0   3    8.14    0.55
   2   0   3    8.48    0.51
   2   0   3    7.83    1.08
   2   0   3    7.99    0.46
   2   0   3    6.62    0.43
   2   0   3    6.57    0.48
   2   0   3    7.49    0.50
  -3   0  -3  177.25   10.44
  -3   0  -3  216.10   10.47
  -3   0  -3  169.65   10.54
  -3   0  -3  183.75   10.38
  -3   0  -3  223.41   10.37
  -3   0  -3  178.47   10.29
   3   0   3  208.26   10.42
   3   0   3  190.60   10.37
   3   0   3  176.22   10.29
   3   0   3  204.97   10.35
   3   0   3  213.31   10.36
  -4   0  -3    2.37    0.29
  -4   0  -3    2.31    0.24
  -4   0  -3    2.61    0.24
   4   0   3    2.12    0.21
   4   0   3    2.01    0.25
   4   0   3    2.09    0.21
  -5   0  -3   19.64    1.21
  -5   0  -3   19.36    1.20
  -5   0  -3   19.67    1.13
  -6   0  -3   22.49    1.30
  -6   0  -3   23.62    1.26
  -6   0  -3   21.83    1.23
  -6   0  -3   21.64    1.25
  -6   0  -3   22.04    1.24
   6   0   3   21.01    1.27
   6   0   3   20.06    1.33
   6   0   3   22.17    1.23
   6   0   3   21.30    1.25
  -7   0  -3   10.60    0.63
  -7   0  -3   10.48    0.63
  -7   0  -3   10.80    0.67
  -7   0  -3   10.58    0.62
  -7   0  -3   10.77    0.62
   7   0   3   10.12    0.65
   7   0   3   10.22    0.61
   7   0   3    9.73    0.69
   7   0   3    9.61    0.62
  -8   0  -3    0.09    0.04
   8   0   3   -0.03    0.05
   8   0   3    0.04    0.04
   7  -1  -3    3.79    2.52
   7  -1  -3    0.35    0.90
   7  -1  -3    1.39    0.16
  -7   1   3    2.83    1.35
  -7   1   3    1.30    0.20
  -7   1   3    1.13    0.12
  -7   1   3    1.05    0.13
  -7   1   3    1.05    0.17
  -7   1   3    0.41    0.57
  -7   1   3    0.59    0.66
  -7   1   3    1.18    0.12
  -7   1   3    1.00    0.12
   6  -1  -3   31.98    1.81
   6  -1  -3   33.28    1.81
  -6   1   3   33.49    1.83
  -6   1   3   32.57    1.93
  -6   1   3   32.89    1.86
  -6   1   3   32.19    1.89
  -6   1   3   30.28    1.90
  -6   1   3   36.86    1.94
  -6   1   3   34.28    1.84
  -6   1   3   33.47    1.95
  -6   1   3   33.41    1.89
  -6   1   3   34.15    1.81
  -6   1   3   32.33    1.81
  -6   1   3   33.48    1.83
  -5   1   3   49.51    6.18
   4  -1  -3    2.28    0.21
   4  -1  -3    2.26    0.24
   4  -1  -3    2.29    0.15
   4  -1  -3    2.32    0.17
   4  -1  -3    2.24    0.17
   4  -1  -3    2.27    0.26
   4  -1  -3    2.31    0.17
   4  -1  -3    2.45    0.16
  -4   1   3    2.46    0.24
  -4   1   3    2.29    0.24
  -4   1   3    2.53    0.32
  -4   1   3    2.42    0.18
  -4   1   3    2.40    0.22
  -4   1   3    2.49    0.28
  -4   1   3    2.52    0.18
   3  -1  -3    7.53    0.44
   3  -1  -3    8.09    0.52
   3  -1  -3    7.69    0.43
   3  -1  -3    8.39    0.44
   3  -1  -3    7.71    0.44
   3  -1  -3    8.04    0.55
   3  -1  -3    7.65    0.50
  -3   1   3    8.05    0.56
  -3   1   3    8.28    0.52
  -3   1   3    7.63    0.51
  -3   1   3    7.67    0.50
  -3   1   3    7.74    0.48
  -3   1   3    8.31    0.60
  -3   1   3    8.04    0.46
   2  -1  -3  102.35    5.91
   2  -1  -3  105.00    6.70
   2  -1  -3  108.27    5.98
   2  -1  -3  106.91    5.91
   2  -1  -3  116.52    5.97
   2  -1  -3  111.40    6.13
   2  -1  -3  116.07    6.01
  -2   1   3  116.63    5.96
  -2   1   3  113.24    5.96
  -2   1   3  118.82    6.02
  -2   1   3  114.17    5.98
  -2   1   3  114.51    5.98
  -2   1   3  101.88    6.02
  -2   1   3  107.12    6.09
  -2   1   3  116.16    5.94
  -2   1   3  124.91    6.08
   1  -1  -3   30.45    1.96
   1  -1  -3   28.70    1.54
   1  -1  -3   25.37    1.62
   1  -1  -3   29.96    1.58
   1  -1  -3   30.50    2.09
   1  -1  -3   30.76    2.04
   1  -1  -3   29.86    1.70
  -1   1   3   28.57    1.58
  -1   1   3   24.27    1.64
  -1   1   3   28.13    1.63
  -1   1   3   30.82    1.59
  -1   1   3   30.07    1.57
  -1   1   3   30.51    1.58
  -1   1   3   29.87    1.59
  -1   1   3   29.17    1.56
  -1   1   3   25.69    1.60
  -1   1   3   28.69    1.62
  -1   1   3   28.76    1.56
  -1   1   3   29.00    2.09
  -1   1   3   31.69    1.62
  -1   1   3   29.63    1.58
  -1   1   3   30.02    1.56
   0  -1  -3  138.43    6.84
   0  -1  -3  136.32    6.90
   0  -1  -3  121.15    6.78
   0  -1  -3  125.85    6.89
   0   1   3  144.87    7.53
   0   1   3  114.64    6.79
   0   1   3  125.04    6.85
   0   1   3  132.53    6.80
   0   1   3  123.66    6.84
   0   1   3  139.65    6.81
   0   1   3  119.01    6.78
   0   1   3  134.41    6.81
   0   1   3  135.82    6.81
   0   1   3  110.49    6.86
   0   1   3  129.19    6.90
   0   1   3  141.46    6.87
   0   1   3  119.20    6.79
   0   1   3  119.30    6.91
   0   1   3  126.94    7.43
   0   1   3  125.00    6.79
   0   1   3  133.95    6.85
  -1  -1  -3   92.26    4.98
  -1  -1  -3  107.39    5.13
  -1  -1  -3   98.54    5.02
  -1  -1  -3   97.02    4.98
  -1  -1  -3   90.96    4.98
  -1  -1  -3   96.36    5.04
  -1  -1  -3   98.79    5.11
  -1  -1  -3   92.20    5.70
  -1  -1  -3   95.38    5.08
  -1  -1  -3   89.04    4.98
  -1  -1  -3  102.64    5.07
   1   1   3   85.68    5.15
   1   1   3   99.06    5.05
   1   1   3   93.87    5.05
   1   1   3   98.27    5.02
   1   1   3   92.40    5.05
   1   1   3   85.69    5.00
   1   1   3   84.28    5.09
   1   1   3   96.72    5.02
   1   1   3   85.87    5.02
   1   1   3   94.91    5.03
   1   1   3   98.43    5.83
  -2  -1  -3   63.50    3.58
  -2  -1  -3   58.90    3.59
  -2  -1  -3   74.33    3.74
  -2  -1  -3   62.94    3.58
  -2  -1  -3   69.26    3.74
  -2  -1  -3   58.58    3.79
  -2  -1  -3   68.38    4.34
   2   1   3   70.76    3.63
   2   1   3   73.57    3.71
   2   1   3   69.80    3.67
   2   1   3   70.02    4.61
   2   1   3   75.73    3.63
   2   1   3   64.69    3.60
  -3  -1  -3    3.26    0.19
  -3  -1  -3    3.38    0.19
  -3  -1  -3    3.12    0.21
  -3  -1  -3    2.99    0.69
  -3  -1  -3    2.60    0.35
  -3  -1  -3    2.42    0.30
  -3  -1  -3    2.78    0.20
  -3  -1  -3    3.21    0.32
  -3  -1  -3    2.58    0.25
   3   1   3    3.01    0.21
   3   1   3    3.82    0.29
   3   1   3    3.77    0.25
  -4  -1  -3   26.03    1.63
  -4  -1  -3   22.59    1.50
  -4  -1  -3   26.14    1.52
   4   1   3   26.65    1.52
   4   1   3   26.87    1.55
   4   1   3   27.96    1.48
   4   1   3   25.19    1.47
  -5  -1  -3   16.74    1.00
  -5  -1  -3   16.11    0.92
  -5  -1  -3   16.07    0.99
   5   1   3   13.82    0.93
   5   1   3   14.32    1.01
  -6  -1  -3    6.36    0.48
  -6  -1  -3    5.99    0.41
  -6  -1  -3    7.05    0.45
  -6  -1  -3    5.92    0.44
  -6  -1  -3    6.14    0.42
   6   1   3    6.42    0.40
   6   1   3    6.03    0.51
   6   1   3    6.00    0.44
  -7  -1  -3    4.08    0.34
  -7  -1  -3    4.22    0.30
  -7  -1  -3    4.17    0.29
  -7  -1  -3    4.12    0.31
  -7  -1  -3    4.29    0.31
   7   1   3    3.64    0.31
   7   1   3    3.47    0.38
   7   1   3    3.86    0.27
  -8  -1  -3    3.68    0.23
  -8  -1  -3    3.59    0.23
   8   1   3    2.87    0.21
   8   1   3    3.60    0.25
   7  -2  -3   17.93    0.97
  -7   2   3   17.75    1.02
  -7   2   3   17.13    0.97
  -7   2   3   18.51    0.97
  -7   2   3   17.30    1.04
  -7   2   3   15.35    1.04
  -7   2   3   17.60    0.97
   6  -2  -3    0.48    0.08
  -6   2   3    0.37    0.19
  -6   2   3    0.52    0.18
  -6   2   3    0.47    0.08
  -6   2   3    0.53    0.16
  -6   2   3    0.46    0.09
  -6   2   3    0.49    0.11
  -6   2   3    0.82    0.12
  -6   2   3    0.39    0.11
  -6   2   3    0.78    0.20
  -6   2   3    0.57    0.16
  -6   2   3    1.20    2.05
  -6   2   3   -0.22    0.70
  -6   2   3    0.90    0.87
  -6   2   3    0.46    0.09
  -6   2   3    0.42    0.10
  -6   2   3    1.91    1.04
   5  -2  -3   36.41    1.98
   5  -2  -3   40.42    1.99
   5  -2  -3   36.20    1.98
  -5   2   3   35.79    1.98
  -5   2   3   35.87    2.01
  -5   2   3   35.43    2.00
  -5   2   3   35.77    2.00
  -5   2   3   34.91    2.12
  -5   2   3   35.78    2.07
  -5   2   3   36.01    2.10
  -5   2   3   36.69    2.01
  -5   2   3   36.69    2.14
  -5   2   3   37.48    1.98
  -5   2   3   36.51    2.08
   4  -2  -3    1.73    0.12
   4  -2  -3    1.71    0.14
   4  -2  -3    1.58    0.19
   4  -2  -3    1.72    0.14
   4  -2  -3    1.58    0.32
   4  -2  -3    1.62    0.13
   4  -2  -3    1.57    0.12
  -4   2   3    1.63    0.21
  -4   2   3    1.76    0.15
  -4   2   3    1.53    0.16
  -4   2   3    1.67    0.14
  -4   2   3    1.66    0.19
  -4   2   3    1.71    0.20
   3  -2  -3  108.22    5.70
   3  -2  -3  106.48    5.69
   3  -2  -3  106.06    5.78
   3  -2  -3  109.27    5.70
   3  -2  -3  108.87    5.76
   3  -2  -3  110.78    5.69
  -3   2   3  109.08    5.73
  -3   2   3  103.48    5.78
  -3   2   3  113.99    5.91
  -3   2   3  100.92    5.70
  -3   2   3  106.96    5.80
  -3   2   3  111.18    5.78
  -3   2   3  104.98    5.87
   2  -2  -3    0.93    0.11
   2  -2  -3    0.99    0.06
   2  -2  -3    1.05    0.07
   2  -2  -3    1.04    0.12
   2  -2  -3    0.98    0.06
  -2   2   3    0.99    0.10
  -2   2   3    0.93    0.14
  -2   2   3    1.01    0.10
  -2   2   3    0.93    0.11
  -2   2   3    0.98    0.09
  -2   2   3    1.11    0.12
  -2   2   3    0.69    0.15
   1  -2  -3  278.82   17.23
   1  -2  -3  343.44   18.28
   1  -2  -3  334.14   18.82
   1  -2  -3  308.75   18.23
   1  -2  -3  345.48   19.38
   1  -2  -3  326.78   17.22
  -1   2   3  330.87   17.22
  -1   2   3  318.10   17.60
  -1   2   3  360.71   17.42
  -1   2   3  331.32   17.28
  -1   2   3  322.49   17.23
  -1   2   3  319.71   17.34
  -1   2   3  324.89   17.49
  -1   2   3  347.66   17.26
  -1   2   3  273.96   17.30
  -1   2   3  320.64   17.19
  -1   2   3  332.90   17.29
  -1   2   3  328.39   17.35
   0  -2  -3    8.68    0.93
   0  -2  -3    8.82    0.94
   0  -2  -3    7.99    0.55
   0  -2  -3    9.11    0.49
   0  -2  -3    8.60    0.55
   0   2   3    8.31    0.49
   0   2   3    8.53    0.48
   0   2   3   10.11    0.52
   0   2   3    8.77    0.55
   0   2   3    8.35    0.49
   0   2   3    8.99    0.50
   0   2   3    7.92    0.52
   0   2   3    8.74    0.61
   0   2   3    8.31    0.52
   0   2   3    8.75    0.47
   0   2   3    8.29    0.92
   0   2   3    8.91    0.81
   0   2   3    9.03    0.51
   0   2   3    8.92    0.47
   0   2   3    7.34    0.51
   0   2   3    8.40    0.56
   0   2   3    7.69    0.48
  -1  -2  -3   58.66    3.02
  -1  -2  -3   57.50    2.98
  -1  -2  -3   58.21    3.10
  -1  -2  -3   59.59    2.98
  -1  -2  -3   56.38    3.68
  -1  -2  -3   61.10    3.04
  -1  -2  -3   58.31    2.97
  -1  -2  -3   61.51    3.10
   1   2   3   55.77    3.04
   1   2   3   59.38    3.04
   1   2   3   51.88    3.01
   1   2   3   53.36    3.81
   1   2   3   48.99    3.00
   1   2   3   53.47    3.10
   1   2   3   54.44    3.16
   1   2   3   53.88    3.00
   1   2   3   59.16    3.27
   1   2   3   49.28    3.04
   1   2   3   59.50    3.65
  -2  -2  -3   36.74    1.97
  -2  -2  -3   34.98    1.98
  -2  -2  -3   42.06    2.79
  -2  -2  -3   38.70    2.12
  -2  -2  -3   37.55    1.97
  -2  -2  -3   35.65    2.05
  -2  -2  -3   38.28    1.97
  -2  -2  -3   37.51    2.06
  -2  -2  -3   36.80    2.12
  -2  -2  -3   34.96    1.98
   2   2   3   35.11    2.05
   2   2   3   36.03    2.02
   2   2   3   39.86    2.09
   2   2   3   40.72    2.78
   2   2   3   37.84    2.97
   2   2   3   34.64    2.18
   2   2   3   34.47    2.10
   2   2   3   37.35    1.99
  -3  -2  -3   38.35    2.42
  -3  -2  -3   42.67    2.43
  -3  -2  -3   46.65    2.42
  -3  -2  -3   42.79    2.42
  -3  -2  -3   46.95    2.41
   3   2   3   45.14    2.42
   3   2   3   45.71    2.68
   3   2   3   49.88    2.44
   3   2   3   49.17    2.53
   3   2   3   43.81    2.57
   3   2   3   48.13    2.47
  -4  -2  -3    0.10    0.08
  -4  -2  -3    0.21    0.10
  -4  -2  -3    0.07    0.08
  -4  -2  -3    0.13    0.06
   4   2   3    0.13    0.06
   4   2   3    0.12    0.06
   4   2   3    0.08    0.07
   4   2   3    0.12    0.09
  -5  -2  -3   82.58    4.31
  -5  -2  -3   82.82    4.40
  -5  -2  -3   73.64    4.37
   5   2   3   79.42    4.41
  -6  -2  -3    0.41    0.13
  -6  -2  -3    0.27    0.08
  -6  -2  -3    0.30    0.08
  -6  -2  -3    0.19    0.14
  -6  -2  -3    0.33    0.13
  -6  -2  -3    0.30    0.09
   6   2   3    0.23    0.20
   6   2   3    0.15    0.14
   6   2   3    0.31    0.14
   6   2   3   -0.21    2.34
   6   2   3    0.42    0.10
  -7  -2  -3   34.28    1.75
  -7  -2  -3   32.02    1.72
  -7  -2  -3   31.69    1.71
  -7  -2  -3   30.83    1.72
  -7  -2  -3   32.68    1.73
   7   2   3   30.48    1.75
   7   2   3   29.26    1.81
   7   2   3   27.78    1.78
  -8  -2  -3    2.09    0.16
  -8  -2  -3    2.00    0.15
   8   2   3    1.96    0.17
   8   2   3    1.98    0.21
   7  -3  -3    8.49    0.55
   7  -3  -3    9.58    0.57
  -7   3   3   10.53    0.56
  -7   3   3    9.05    0.56
  -7   3   3    9.91    0.61
  -7   3   3    9.55    0.56
  -7   3   3   10.49    0.60
  -7   3   3   10.03    0.62
   6  -3  -3    9.06    0.54
   6  -3  -3    7.79    0.53
  -6   3   3    9.48    0.56
  -6   3   3    9.02    0.56
  -6   3   3    9.17    0.55
  -6   3   3    9.51    0.56
  -6   3   3    9.18    0.63
  -6   3   3    9.03    0.56
  -6   3   3    8.90    0.66
  -6   3   3    9.47    0.65
  -6   3   3   12.41    2.21
  -6   3   3    8.87    0.57
  -6   3   3    9.02    0.67
  -6   3   3    9.14    0.63
   5  -3  -3   12.64    0.74
   5  -3  -3   12.75    0.74
   5  -3  -3   13.47    0.74
  -5   3   3   12.42    0.76
  -5   3   3   12.62    0.76
  -5   3   3   13.18    0.84
  -5   3   3   12.99    0.76
  -5   3   3   13.22    0.77
  -5   3   3   13.01    0.86
  -5   3   3   12.87    0.76
  -5   3   3   13.35    0.74
  -5   3   3   12.44    0.89
  -5   3   3   11.35    0.78
  -5   3   3   13.15    0.84
  -5   3   3   13.47    0.91
   4  -3  -3   25.69    1.35
   4  -3  -3   24.89    1.65
   4  -3  -3   25.43    1.35
   4  -3  -3   23.17    1.44
   4  -3  -3   25.89    1.35
   4  -3  -3   23.18    1.33
   4  -3  -3   23.70    1.33
  -4   3   3   25.27    1.37
  -4   3   3   23.35    1.44
  -4   3   3   24.00    1.46
  -4   3   3   24.95    1.40
  -4   3   3   26.05    1.35
  -4   3   3   24.01    1.47
   3  -3  -3    0.25    0.10
   3  -3  -3    0.27    0.05
   3  -3  -3    0.27    0.05
   3  -3  -3    0.28    0.05
   3  -3  -3    0.33    0.09
   3  -3  -3    0.29    0.05
   3  -3  -3    0.51    0.23
   3  -3  -3    0.45    0.06
  -3   3   3    0.22    0.05
  -3   3   3    0.29    0.06
  -3   3   3    0.30    0.10
  -3   3   3    0.23    0.10
  -3   3   3    0.24    0.09
  -3   3   3    0.27    0.10
  -3   3   3    0.28    0.09
  -3   3   3    0.25    0.07
   2  -3  -3   42.35    2.38
   2  -3  -3   43.83    2.31
   2  -3  -3   44.19    2.32
   2  -3  -3   41.47    2.31
   2  -3  -3   46.75    2.38
   2  -3  -3   44.25    2.32
   2  -3  -3   46.69    2.54
  -2   3   3   43.18    2.40
  -2   3   3   40.99    2.48
  -2   3   3   42.51    2.39
  -2   3   3   44.21    2.42
  -2   3   3   44.77    2.35
  -2   3   3   42.14    2.39
   1  -3  -3    0.15    0.05
   1  -3  -3    0.13    0.02
   1  -3  -3    0.08    0.02
   1  -3  -3    0.11    0.14
   1  -3  -3    0.04    0.10
  -1   3   3    0.07    0.06
  -1   3   3    0.12    0.03
  -1   3   3    0.06    0.06
  -1   3   3    0.25    0.07
  -1   3   3    0.11    0.05
  -1   3   3    0.10    0.05
   0  -3  -3    0.17    0.15
   0  -3  -3    0.14    0.04
   0  -3  -3    0.18    0.17
   0  -3  -3    0.13    0.02
   0  -3  -3    0.13    0.04
   0  -3  -3    0.18    0.02
   0  -3  -3    0.16    0.17
   0   3   3    0.15    0.05
   0   3   3    0.14    0.07
   0   3   3    0.13    0.08
   0   3   3    0.11    0.04
   0   3   3    0.12    0.05
   0   3   3    0.24    0.06
   0   3   3    0.17    0.03
   0   3   3    0.15    0.07
   0   3   3    0.14    0.20
  -1  -3  -3  132.22    6.79
  -1  -3  -3  136.76    6.72
  -1  -3  -3  114.66    6.63
  -1  -3  -3  113.43    6.63
  -1  -3  -3  123.35    7.43
  -1  -3  -3  130.59    6.70
  -1  -3  -3  123.38    7.55
  -1  -3  -3  118.73    6.63
   1   3   3  134.12    6.79
   1   3   3  132.11    7.59
   1   3   3  127.17    6.71
   1   3   3  124.81    6.66
   1   3   3  129.61    6.87
   1   3   3  119.72    7.07
  -2  -3  -3    5.34    0.29
  -2  -3  -3    5.28    0.30
  -2  -3  -3    5.28    0.44
  -2  -3  -3    5.23    0.30
  -2  -3  -3    5.39    0.29
  -2  -3  -3    5.11    0.40
  -2  -3  -3    5.43    0.36
  -2  -3  -3    5.58    0.39
   2   3   3    4.90    0.36
   2   3   3    4.75    0.36
   2   3   3    5.32    0.43
   2   3   3    5.43    0.32
   2   3   3    4.76    0.33
   2   3   3    5.39    0.38
   2   3   3    5.14    0.48
   2   3   3    4.95    0.30
  -3  -3  -3    3.92    0.36
  -3  -3  -3    4.38    0.36
  -3  -3  -3    4.17    0.34
  -3  -3  -3    4.87    0.27
  -3  -3  -3    4.54    0.28
  -3  -3  -3    4.49    0.28
  -3  -3  -3    4.80    0.27
  -3  -3  -3    4.37    0.28
  -3  -3  -3    3.91    0.42
   3   3   3    4.60    0.36
   3   3   3    4.43    0.46
   3   3   3    5.08    0.38
   3   3   3    4.72    0.31
   3   3   3    5.06    0.29
   3   3   3    4.39    0.28
   3   3   3    4.64    0.40
  -4  -3  -3    1.77    0.29
  -4  -3  -3    1.92    0.24
  -4  -3  -3    2.12    0.19
  -4  -3  -3    2.28    0.18
  -4  -3  -3    2.33    0.27
   4   3   3    2.84    0.27
   4   3   3    3.10    0.29
   4   3   3    2.43    0.19
   4   3   3    2.79    0.20
   4   3   3    2.81    0.22
  -5  -3  -3   14.63    1.01
  -5  -3  -3   13.77    0.94
   5   3   3   16.53    1.03
   5   3   3   17.24    1.03
  -6  -3  -3   17.04    1.02
  -6  -3  -3   18.44    1.01
  -6  -3  -3   16.74    1.01
  -6  -3  -3   17.37    1.05
  -6  -3  -3   16.82    1.09
   6   3   3   17.03    1.10
   6   3   3   19.08    1.12
   6   3   3   17.94    1.03
   6   3   3   17.04    1.30
  -7  -3  -3    0.15    0.09
  -7  -3  -3    0.05    0.05
  -7  -3  -3    0.17    0.06
  -7  -3  -3    0.15    0.07
   7   3   3    0.18    0.16
   7   3   3    0.00    0.10
   7   3   3    0.10    0.07
   7   3   3    0.02    0.10
  -8  -3  -3    0.14    0.04
  -8  -3  -3    0.08    0.04
  -8  -3  -3    0.12    0.03
   8   3   3    0.15    0.05
   8   3   3    0.10    0.07
   8   3   3    0.15    0.07
  -6   4   3    7.17    0.43
  -6   4   3    7.44    0.54
  -6   4   3    6.50    0.44
  -6   4   3    5.74    0.48
  -6   4   3    7.22    0.45
  -6   4   3    7.25    0.53
  -6   4   3    7.56    0.50
  -6   4   3    7.21    0.43
  -6   4   3    7.01    0.49
  -6   4   3    7.01    0.43
   5  -4  -3    0.72    0.10
   5  -4  -3    0.75    0.10
   5  -4  -3    0.14    1.30
  -5   4   3    0.90    0.21
  -5   4   3    0.08    0.78
  -5   4   3    2.33    1.18
  -5   4   3    0.73    0.11
  -5   4   3    0.62    0.10
  -5   4   3    0.47    0.09
  -5   4   3    0.75    0.11
  -5   4   3    1.03    0.27
  -5   4   3    0.72    0.12
  -5   4   3    0.64    0.17
  -5   4   3    1.26    2.58
  -5   4   3    0.87    0.15
  -5   4   3    0.75    0.17
  -5   4   3    0.33    0.89
  -5   4   3    0.74    0.20
  -5   4   3    0.66    0.22
   4  -4  -3    2.45    0.17
   4  -4  -3    2.54    0.19
   4  -4  -3    2.52    0.19
   4  -4  -3    2.70    0.20
  -4   4   3    2.19    0.28
  -4   4   3    2.50    0.24
  -4   4   3    2.83    0.20
  -4   4   3    2.72    0.30
  -4   4   3    2.37    0.20
  -4   4   3    2.29    0.20
  -4   4   3    2.70    0.27
  -4   4   3    2.74    0.35
  -4   4   3    2.24    0.20
  -4   4   3    2.48    0.33
  -4   4   3    2.25    0.21
  -4   4   3    3.05    2.92
  -4   4   3    2.47    0.21
  -4   4   3    2.59    0.31
   3  -4  -3   40.75    2.26
   3  -4  -3   42.32    2.21
   3  -4  -3   43.04    2.22
   3  -4  -3   43.09    2.22
   3  -4  -3   42.47    2.22
   3  -4  -3   41.68    2.20
  -3   4   3   38.51    2.31
  -3   4   3   41.22    2.21
  -3   4   3   39.06    2.32
  -3   4   3   41.93    2.32
  -3   4   3   40.79    2.34
  -3   4   3   39.21    2.26
   2  -4  -3  152.66    7.88
   2  -4  -3  157.79    7.84
   2  -4  -3  148.57    7.91
   2  -4  -3  148.01    7.84
   2  -4  -3  136.88    8.06
   2  -4  -3  151.27    7.83
   2  -4  -3  157.29    7.83
   2  -4  -3  152.50    7.84
  -2   4   3  146.63    7.93
  -2   4   3  145.69    7.93
  -2   4   3  146.52    7.94
  -2   4   3  151.57    7.96
  -2   4   3  134.95    8.03
  -2   4   3  144.49    7.83
   1  -4  -3   11.54    0.61
   1  -4  -3   11.04    0.78
   1  -4  -3   11.23    0.67
   1  -4  -3   11.75    0.62
   1  -4  -3   11.77    0.61
   1  -4  -3   11.42    0.65
   1  -4  -3   11.37    0.61
  -1   4   3   11.05    0.70
  -1   4   3   11.85    0.71
  -1   4   3   10.82    0.77
  -1   4   3   10.06    0.67
  -1   4   3   10.81    0.82
  -1   4   3   10.98    0.70
   0  -4  -3  263.65   12.16
   0  -4  -3  236.75   12.18
   0  -4  -3  214.98   12.15
   0  -4  -3  241.41   12.26
   0  -4  -3  207.78   12.15
   0  -4  -3  227.62   12.35
   0  -4  -3  239.76   12.15
   0   4   3  233.38   12.24
   0   4   3  213.56   12.17
   0   4   3  231.44   12.33
   0   4   3  229.22   12.41
   0   4   3  218.06   12.30
   0   4   3  238.10   12.24
  -1  -4  -3    0.73    0.12
  -1  -4  -3    0.49    0.15
  -1  -4  -3    0.62    0.05
  -1  -4  -3    0.68    0.14
  -1  -4  -3    0.60    0.05
  -1  -4  -3    0.60    0.06
  -1  -4  -3    0.52    0.05
   1   4   3    0.52    0.12
   1   4   3    0.52    0.09
   1   4   3    0.53    0.05
   1   4   3    0.56    0.14
   1   4   3    0.53    0.10
   1   4   3    0.55    0.06
  -2  -4  -3   98.82    5.22
  -2  -4  -3   96.20    5.22
  -2  -4  -3  104.53    5.34
  -2  -4  -3  100.55    5.21
  -2  -4  -3   97.51    5.22
  -2  -4  -3  101.40    5.21
  -2  -4  -3  100.02    5.32
  -2  -4  -3  101.66    5.43
   2   4   3   99.04    5.51
   2   4   3   93.36    5.31
   2   4   3   99.77    5.24
   2   4   3   96.60    5.39
   2   4   3   99.42    5.22
   2   4   3   90.68    5.31
  -3  -4  -3    0.45    0.07
  -3  -4  -3    0.45    0.12
  -3  -4  -3    0.47    0.06
  -3  -4  -3    0.58    0.08
  -3  -4  -3    0.40    0.12
  -3  -4  -3    0.46    0.07
  -3  -4  -3    0.43    0.16
  -3  -4  -3    0.44    0.12
  -3  -4  -3    0.45    0.06
   3   4   3    0.42    0.16
   3   4   3    0.61    0.14
   3   4   3    0.47    0.07
   3   4   3    0.50    0.07
   3   4   3    0.50    0.14
  -4  -4  -3  157.33    7.93
  -4  -4  -3  130.34    8.02
  -4  -4  -3  159.70    7.94
  -4  -4  -3  132.17    8.05
  -4  -4  -3  132.57    7.97
   4   4   3  167.82    7.96
   4   4   3  165.13    7.92
  -5  -4  -3   16.21    1.12
  -5  -4  -3   18.36    1.21
   5   4   3   19.70    1.25
   5   4   3   21.95    1.20
   5   4   3   19.04    1.10
   5   4   3   18.95    1.09
  -6  -4  -3   60.77    3.50
  -6  -4  -3   64.13    3.59
  -6  -4  -3   57.15    3.48
  -6  -4  -3   62.02    3.48
  -6  -4  -3   70.37    3.54
   6   4   3   65.95    3.59
   6   4   3   67.31    3.83
   6   4   3   69.11    3.59
  -7  -4  -3   10.41    0.61
  -7  -4  -3   10.14    0.59
  -7  -4  -3   10.72    0.67
  -7  -4  -3   10.47    0.60
  -7  -4  -3   12.68    2.08
   7   4   3    8.56    0.80
   7   4   3    9.50    0.67
   7   4   3    9.02    0.67
  -8  -4  -3    5.12    0.32
  -8  -4  -3    6.28    0.35
  -8  -4  -3    5.68    0.32
   8   4   3    4.37    0.36
   6  -5  -3    0.85    0.10
   6  -5  -3    0.03    1.74
  -6   5   3    0.25    0.54
  -6   5   3    0.90    0.10
  -6   5   3    0.91    0.09
  -6   5   3    0.85    0.13
  -6   5   3    1.12    0.17
  -6   5   3    0.88    0.14
  -6   5   3    1.10    1.33
  -6   5   3    0.97    0.18
  -5   5   3    6.49    0.41
  -5   5   3    6.62    0.43
  -5   5   3    6.96    0.54
  -5   5   3    6.61    0.49
  -5   5   3    6.64    0.53
  -5   5   3    6.26    0.43
  -5   5   3    6.32    0.49
  -5   5   3    6.25    0.43
  -5   5   3    2.83    2.36
  -5   5   3    6.48    0.41
  -5   5   3    6.55    0.47
  -5   5   3    6.31    0.41
   4  -5  -3   15.14    0.85
   4  -5  -3   15.26    0.85
  -4   5   3   15.37    0.96
  -4   5   3   14.10    0.87
  -4   5   3   13.89    0.89
  -4   5   3   14.96    0.87
  -4   5   3   14.56    0.84
  -4   5   3   16.82    2.30
  -4   5   3   14.37    0.89
  -4   5   3   15.54    1.01
  -4   5   3   15.11    1.00
  -4   5   3   14.79    0.93
  -4   5   3   14.76    0.97
  -4   5   3   14.28    0.88
  -4   5   3   15.40    0.98
   3  -5  -3    0.07    0.04
   3  -5  -3    0.02    0.05
   3  -5  -3    0.00    0.05
   3  -5  -3    0.05    0.05
   3  -5  -3    0.39    1.28
  -3   5   3   -0.18    0.74
  -3   5   3   -0.07    0.62
  -3   5   3   -0.06    0.07
  -3   5   3    0.12    0.05
  -3   5   3    0.05    0.10
  -3   5   3   -0.01    0.07
  -3   5   3   -0.05    0.11
  -3   5   3   -0.01    0.12
  -3   5   3    0.01    0.05
  -3   5   3   -0.09    0.68
  -3   5   3   -0.02    0.03
  -3   5   3   -0.17    0.80
  -3   5   3    0.01    0.05
  -3   5   3    0.03    0.11
  -3   5   3   -0.11    0.58
  -3   5   3   -0.07    0.11
  -3   5   3    0.20    2.26
  -3   5   3    0.13    0.06
   2  -5  -3   66.44    3.37
   2  -5  -3   63.84    3.35
   2  -5  -3   60.87    3.41
   2  -5  -3   65.62    3.37
   2  -5  -3   65.98    3.37
   2  -5  -3   60.29    3.36
  -2   5   3   63.61    3.47
  -2   5   3   63.74    3.50
  -2   5   3   64.17    3.36
  -2   5   3   59.52    3.41
  -2   5   3   58.64    3.48
   1  -5  -3   23.71    1.25
   1  -5  -3   22.11    1.24
   1  -5  -3   23.74    1.40
   1  -5  -3   23.72    1.25
   1  -5  -3   23.12    1.28
   1  -5  -3   24.04    1.23
   1  -5  -3   23.33    1.25
  -1   5   3   21.35    1.34
  -1   5   3   23.07    1.24
  -1   5   3   21.84    1.29
  -1   5   3   22.59    1.32
  -1   5   3   22.25    1.34
  -1   5   3   22.56    1.54
   0  -5  -3   36.23    1.89
   0  -5  -3   36.88    1.90
   0  -5  -3   36.94    2.03
   0  -5  -3   34.67    1.89
   0  -5  -3   35.83    1.92
   0  -5  -3   35.32    1.88
   0  -5  -3   33.85    2.13
   0  -5  -3   36.30    1.88
   0   5   3   34.72    2.19
   0   5   3   32.63    2.06
   0   5   3   35.31    1.99
   0   5   3   34.59    1.99
   0   5   3   34.73    1.88
  -1  -5  -3    0.43    0.16
  -1  -5  -3    0.55    0.15
  -1  -5  -3    0.40    0.06
  -1  -5  -3    0.62    0.07
  -1  -5  -3    0.46    0.06
  -1  -5  -3    0.45    0.07
  -1  -5  -3    0.36    0.06
   1   5   3    0.44    0.10
   1   5   3    0.45    0.13
   1   5   3    0.44    0.07
   1   5   3    0.63    0.17
   1   5   3    0.50    0.06
  -2  -5  -3   14.48    0.78
  -2  -5  -3   14.26    0.76
  -2  -5  -3   14.98    0.91
  -2  -5  -3   14.11    0.78
  -2  -5  -3   14.58    0.90
  -2  -5  -3   13.64    1.00
  -2  -5  -3   14.66    0.77
  -2  -5  -3   14.60    0.78
   2   5   3   12.80    0.82
   2   5   3   14.57    0.88
   2   5   3   13.42    0.79
   2   5   3   13.25    0.88
   2   5   3   13.04    0.95
   2   5   3   14.03    0.78
   2   5   3   13.60    1.05
  -3  -5  -3    0.95    0.20
  -3  -5  -3    0.96    0.09
  -3  -5  -3    0.99    0.09
  -3  -5  -3    1.05    0.18
  -3  -5  -3    1.19    0.18
  -3  -5  -3    1.01    0.11
  -3  -5  -3    0.30    1.37
  -3  -5  -3    1.03    0.11
  -3  -5  -3    1.06    0.12
   3   5   3    0.93    0.12
   3   5   3    0.93    0.17
   3   5   3    1.02    0.10
   3   5   3    0.91    0.11
  -4  -5  -3    2.73    0.29
  -4  -5  -3    2.70    0.22
  -4  -5  -3    2.20    0.30
   4   5   3    2.98    0.25
   4   5   3    2.93    0.22
   4   5   3    3.19    0.22
   4   5   3    2.99    0.31
  -5  -5  -3    0.38    0.19
  -5  -5  -3    0.44    0.19
  -5  -5  -3    0.46    0.11
  -5  -5  -3   -0.04    1.18
  -5  -5  -3    1.08    3.22
  -5  -5  -3    0.04    1.37
   5   5   3    1.03    0.34
   5   5   3   -0.33    2.39
   5   5   3    0.64    0.12
   5   5   3    0.71    0.19
   5   5   3    0.97    0.36
   5   5   3    0.55    0.10
   5   5   3    0.54    0.20
  -6  -5  -3    6.92    0.47
  -6  -5  -3    6.90    0.55
  -6  -5  -3    6.24    0.44
  -6  -5  -3    7.17    0.46
  -6  -5  -3    6.58    0.49
   6   5   3    7.44    0.54
   6   5   3    7.56    0.72
   6   5   3    6.69    0.59
  -7  -5  -3   -0.14    0.74
  -7  -5  -3    0.83    0.10
  -7  -5  -3    1.16    0.19
  -7  -5  -3    0.90    0.11
  -7  -5  -3    0.85    0.11
   7   5   3    0.77    0.16
   7   5   3    0.91    0.26
  -5   6   3    5.71    1.00
  -5   6   3    3.26    1.08
  -5   6   3    4.90    0.31
  -5   6   3    4.59    0.30
  -5   6   3    5.02    0.37
  -5   6   3    5.12    0.40
  -5   6   3    4.62    0.32
  -5   6   3    7.46    1.61
  -5   6   3    4.96    0.33
  -5   6   3    5.24    0.40
  -5   6   3    4.48    0.35
  -4   6   3    6.29    1.43
  -4   6   3    7.14    0.46
  -4   6   3    7.68    0.58
  -4   6   3    7.12    0.44
  -4   6   3    7.15    0.56
  -4   6   3    6.97    0.45
  -4   6   3    7.07    0.44
  -4   6   3    7.19    0.53
  -4   6   3    5.61    0.49
  -4   6   3    6.80    0.52
  -4   6   3    7.02    0.47
   3  -6  -3    7.71    0.48
   3  -6  -3    8.39    0.49
   3  -6  -3    7.09    0.63
  -3   6   3    7.71    0.49
  -3   6   3    7.56    0.62
  -3   6   3   10.79    2.46
  -3   6   3    7.39    0.49
  -3   6   3    8.03    0.53
  -3   6   3    8.16    0.63
  -3   6   3    8.00    0.60
  -3   6   3    7.71    0.51
  -3   6   3    7.93    0.47
  -3   6   3    3.77    3.21
  -3   6   3    7.82    0.52
   2  -6  -3    1.02    0.12
   2  -6  -3    0.77    0.11
   2  -6  -3    0.01    1.12
   2  -6  -3    0.77    0.27
   2  -6  -3    0.83    0.11
  -2   6   3   -0.06    0.84
  -2   6   3    0.74    0.16
  -2   6   3    5.41    3.52
  -2   6   3    0.59    0.12
  -2   6   3    0.75    0.12
  -2   6   3    0.62    0.11
  -2   6   3    0.76    0.10
  -2   6   3   -0.13    0.56
  -2   6   3    0.78    0.73
  -2   6   3    0.68    0.27
  -2   6   3    0.92    0.14
  -2   6   3    0.90    0.15
  -2   6   3   -0.50    1.60
  -2   6   3    1.00    0.24
  -2   6   3    0.71    0.84
   1  -6  -3   20.00    1.07
   1  -6  -3   16.05    1.18
   1  -6  -3   17.66    1.04
   1  -6  -3   18.75    1.04
   1  -6  -3   21.17    1.06
   1  -6  -3   20.88    1.07
   1  -6  -3   15.51    1.10
  -1   6   3   19.76    1.11
  -1   6   3   19.22    1.41
  -1   6   3   23.10    1.40
  -1   6   3   16.97    1.10
  -1   6   3   18.54    1.09
  -1   6   3   20.29    1.05
   0  -6  -3    0.16    0.05
   0  -6  -3    0.05    0.05
   0  -6  -3    0.17    0.05
   0  -6  -3    0.11    0.06
   0  -6  -3    0.33    0.07
   0  -6  -3    0.16    0.12
   0  -6  -3   -0.01    0.88
   0  -6  -3    0.14    0.05
   0   6   3    0.16    0.07
   0   6   3    0.12    0.07
   0   6   3    0.10    0.09
   0   6   3    0.09    0.06
   0   6   3    0.10    0.05
  -1  -6  -3   27.11    1.43
  -1  -6  -3   26.59    1.43
  -1  -6  -3   25.86    1.41
  -1  -6  -3   26.41    1.58
  -1  -6  -3   26.36    1.58
  -1  -6  -3   26.79    1.43
  -1  -6  -3   26.03    1.42
   1   6   3   25.46    1.44
   1   6   3   26.79    1.42
   1   6   3   25.32    1.47
   1   6   3   25.90    1.54
   1   6   3   25.25    1.76
  -2  -6  -3   21.47    1.13
  -2  -6  -3   20.01    1.11
  -2  -6  -3   20.60    1.28
  -2  -6  -3   20.78    1.13
  -2  -6  -3   20.16    1.27
  -2  -6  -3   20.63    1.11
  -2  -6  -3   21.51    1.13
   2   6   3   19.32    1.16
   2   6   3   19.56    1.14
   2   6   3   19.70    1.46
   2   6   3   19.61    1.23
   2   6   3   21.12    1.13
  -3  -6  -3    7.81    0.44
  -3  -6  -3    7.06    0.43
  -3  -6  -3    7.16    0.43
   3   6   3    6.73    0.69
   3   6   3    6.39    0.45
   3   6   3    6.30    0.57
   3   6   3    6.91    0.46
   3   6   3    7.36    0.43
   4   6   3   10.02    0.66
   4   6   3   10.30    0.67
   4   6   3   11.16    0.69
   4   6   3   11.27    0.84
   4   6   3   12.29    1.06
   4   6   3   10.92    0.66
   4   6   3   11.78    0.95
  -5  -6  -3   15.81    1.07
  -5  -6  -3   17.29    1.19
   5   6   3   20.38    1.09
   5   6   3   20.49    1.26
   5   6   3   20.01    1.07
   5   6   3   17.70    1.34
  -6  -6  -3    3.41    0.26
  -6  -6  -3    3.39    0.26
  -6  -6  -3    3.18    0.36
   6   6   3    3.36    0.31
   6   6   3    3.33    0.37
   6   6   3    3.27    0.44
   7   6   3    2.70    0.30
   4  -7  -3    0.53    2.01
  -4   7   3    0.27    1.55
  -4   7   3    0.06    0.47
  -4   7   3    0.47    0.48
  -4   7   3    0.21    0.43
  -4   7   3   -0.01    0.38
  -4   7   3    0.15    0.43
  -4   7   3    0.50    1.33
   3  -7  -3    0.80    1.47
   3  -7  -3    0.24    2.73
  -3   7   3    0.15    0.07
  -3   7   3    0.03    0.59
  -3   7   3    0.07    0.07
  -3   7   3    0.11    0.13
  -3   7   3    0.02    0.10
  -3   7   3    0.27    0.65
  -3   7   3    0.19    0.06
  -3   7   3    0.11    0.06
  -3   7   3   -0.03    0.63
  -3   7   3   -0.13    0.65
  -3   7   3    0.05    0.12
  -3   7   3    0.35    1.94
  -3   7   3    0.07    0.43
  -3   7   3   -0.14    1.60
  -3   7   3   -0.02    0.58
  -3   7   3    0.22    0.08
  -3   7   3    0.17    0.13
  -3   7   3    0.20    0.17
   2  -7  -3    0.45    0.23
   2  -7  -3    0.49    1.38
  -2   7   3   -0.02    0.40
  -2   7   3   -0.09    0.57
  -2   7   3    1.56    0.74
  -2   7   3    0.05    0.80
  -2   7   3   -0.80    1.50
  -2   7   3   -0.74    1.79
  -2   7   3    0.92    0.21
  -2   7   3    1.21    1.26
  -2   7   3    0.39    0.75
  -2   7   3    0.55    0.24
   1  -7  -3    0.29    0.08
   1  -7  -3    0.17    0.06
   1  -7  -3    1.36    1.78
   1  -7  -3    0.17    0.06
  -1   7   3    0.04    0.14
  -1   7   3    0.16    0.07
  -1   7   3    0.25    0.79
  -1   7   3    0.18    0.07
  -1   7   3   -0.05    1.74
  -1   7   3    0.13    0.08
  -1   7   3    0.07    0.09
  -1   7   3   -0.20    0.76
  -1   7   3   -0.15    0.47
  -1   7   3    0.08    0.07
  -1   7   3    0.10    0.14
  -1   7   3   -0.03    0.44
  -1   7   3   -0.14    0.71
  -1   7   3   -0.07    0.10
  -1   7   3    0.20    0.19
  -1   7   3    0.32    0.07
  -1   7   3    0.55    1.04
  -1   7   3    0.16    0.06
  -1   7   3    0.02    2.27
   0  -7  -3    8.32    0.48
   0  -7  -3    7.80    0.48
   0  -7  -3    8.27    0.49
   0   7   3    8.07    0.53
   0   7   3    7.80    0.51
   0   7   3    7.82    0.50
   0   7   3    7.29    0.57
   0   7   3    8.53    0.47
   0   7   3    7.75    0.58
   0   7   3    7.74    0.52
   0   7   3    7.32    0.60
   0   7   3    7.12    2.09
   0   7   3    7.67    0.49
  -1  -7  -3   18.01    0.96
  -1  -7  -3   19.84    0.98
  -1  -7  -3   17.20    0.97
   1   7   3   16.46    1.01
   1   7   3   15.56    1.10
   1   7   3   16.61    1.11
   1   7   3   12.82    2.66
   1   7   3   16.52    0.99
   1   7   3   17.23    1.00
   1   7   3   16.50    0.97
   1   7   3   17.03    0.99
   1   7   3   17.99    1.07
   1   7   3   18.26    0.96
   1   7   3   16.79    1.06
  -2  -7  -3    5.93    0.38
  -2  -7  -3    6.21    0.39
  -2  -7  -3    6.42    0.38
   2   7   3    5.81    0.39
   2   7   3    5.49    0.50
   2   7   3    5.96    0.41
   2   7   3    6.40    0.44
   2   7   3    5.76    0.39
   2   7   3    5.71    0.40
   2   7   3    5.87    0.48
   2   7   3    6.17    0.51
   2   7   3    6.23    0.52
   2   7   3    5.35    1.04
  -3  -7  -3   48.85    2.53
   3   7   3   46.38    2.55
   3   7   3   40.96    2.64
   3   7   3   48.30    2.56
   3   7   3   43.49    2.70
   3   7   3   44.58    2.53
   3   7   3   51.12    2.64
   3   7   3   49.40    2.54
  -4  -7  -3    3.34    0.35
  -4  -7  -3    0.02    3.45
   4   7   3    0.32    2.44
   4   7   3    2.67    1.50
  -5  -7  -3    2.40    2.81
   5   7   3    0.41    2.25
   5   7   3    3.95    0.47
  -6  -7  -3   -0.03    0.82
  -6  -7  -3    0.03    0.62
  -6  -7  -3    0.17    0.13
  -6  -7  -3    0.09    0.06
   6   7   3    0.04    0.10
   6   7   3    0.02    0.08
   6   7   3   -0.09    0.09
   3  -8  -3    0.07    2.19
  -3   8   3   -0.26    1.24
  -3   8   3    0.53    1.30
   2  -8  -3   -0.49    2.71
  -2   8   3    0.09    0.63
  -2   8   3    0.14    0.59
  -2   8   3    0.85    0.11
  -2   8   3    0.85    0.11
  -2   8   3    0.61    0.11
  -2   8   3   -1.03    1.40
  -2   8   3    1.10    0.18
  -2   8   3    0.90    0.17
  -2   8   3    0.31    1.88
  -2   8   3    0.85    0.17
  -2   8   3    0.84    0.16
  -2   8   3    0.90    0.10
  -1   8   3    5.58    1.41
   0  -8  -3    0.85    1.66
   0  -8  -3    1.71    0.16
   0  -8  -3    0.16    3.18
   0   8   3    0.44    0.90
   0   8   3    1.81    0.16
   0   8   3    1.72    0.18
   0   8   3    1.72    0.17
   0   8   3    1.77    0.27
   0   8   3    1.81    1.01
   0   8   3    1.93    0.19
   0   8   3    1.54    0.24
   0   8   3    0.06    1.68
   0   8   3    1.95    0.17
   0   8   3    1.78    0.25
   0   8   3   -0.14    1.82
  -1  -8  -3   37.99    1.97
   1   8   3   34.79    2.00
   1   8   3   35.55    1.97
   1   8   3   37.62    2.07
   1   8   3   36.45    3.43
   1   8   3   34.64    1.99
   1   8   3   37.83    2.13
   1   8   3   34.53    1.99
   1   8   3   38.03    2.07
   1   8   3   35.36    2.10
   1   8   3   34.52    1.98
   2   8   3   16.30    0.90
   2   8   3   16.42    1.04
   2   8   3   16.82    1.19
   2   8   3   17.15    1.00
   2   8   3   14.44    2.36
   2   8   3   13.15    1.13
   2   8   3   15.90    0.92
   2   8   3   19.33    2.20
   2   8   3   15.00    0.91
   2   8   3   14.90    1.03
   3   8   3    7.92    0.49
   3   8   3    7.64    0.50
   3   8   3    9.57    0.79
   3   8   3    7.19    0.59
   3   8   3    8.06    0.58
  -4  -8  -3    4.32    1.27
  -4  -8  -3    0.15    3.03
  -5  -8  -3    0.03    0.53
  -5  -8  -3   -0.39    0.66
  -5  -8  -3    0.05    0.05
  -5  -8  -3   -0.02    0.13
   5   8   3    0.06    0.08
   5   8   3    0.02    0.09
   5   8   3   -0.03    0.09
   5   8   3   -0.25    1.19
   5   8   3   -0.03    0.12
   1  -9  -3   -0.39    1.98
   1  -9  -3    0.14    2.27
  -1   9   3    0.30    1.34
  -1   9   3   -0.08    0.41
  -1   9   3   -0.54    0.99
  -1   9   3    0.15    0.52
   0  -9  -3   -0.02    2.31
   0  -9  -3   -0.09    2.24
   0   9   3    0.58    1.47
   0   9   3   -0.47    1.63
   0   9   3    1.74    0.93
  -1  -9  -3   -0.08    2.58
   1   9   3    3.66    0.68
  -2  -9  -3   -0.27    1.05
  -2  -9  -3   -0.39    2.96
  -2  -9  -3    0.28    0.89
   2   9   3    0.27    0.06
   2   9   3    0.13    0.66
   2   9   3    0.21    0.13
   2   9   3    0.27    0.11
   2   9   3   -0.14    0.51
   2   9   3    0.09    0.11
   2   9   3   -0.08    0.37
   2   9   3    0.17    0.11
   2   9   3    0.41    0.15
   3   9   3    3.02    0.39
  -4  -9  -3   -0.02    0.03
  -4  -9  -3    0.04    0.09
  -4  -9  -3   -0.16    0.58
  -4  -9  -3   -0.41    0.56
  -4  -9  -3    0.17    0.38
   4   9   3   -0.22    0.96
   4   9   3   -0.03    0.07
   4   9   3   -0.05    0.06
   4   9   3   -0.04    0.08
   4   7  -4    5.05    0.47
   4   7  -4    6.25    0.59
   3   7  -4    2.25    0.37
  -3  -7   4    2.84    0.25
   2   7  -4   21.80    1.49
   2   7  -4   21.44    1.41
  -2  -7   4   18.64    1.99
  -2  -7   4   20.09    1.23
   1   7  -4   -0.04    0.11
   1   7  -4    0.05    0.39
   1   7  -4    0.13    0.11
  -1  -7   4    0.19    0.60
  -1  -7   4    0.06    0.14
  -1  -7   4    0.12    0.10
  -1  -7   4    0.07    0.15
  -1  -7   4    0.99    1.55
   0   7  -4   25.58    1.54
   0   7  -4   25.32    1.52
   0  -7   4   29.69    1.57
   0  -7   4   26.03    1.55
   0  -7   4   24.74    1.51
  -1   7  -4    4.89    0.41
   1  -7   4    6.03    0.40
   1  -7   4    6.53    0.43
   1  -7   4    5.24    0.92
   1  -7   4    4.56    0.41
   5   6  -4    1.02    0.18
  -5  -6   4    1.39    0.54
  -5  -6   4    0.01    1.27
   4   6  -4   21.34    1.56
   4   6  -4   22.54    1.39
   3   6  -4   20.56    1.35
   3   6  -4   17.70    1.26
   3   6  -4   21.84    1.61
   3   6  -4   22.41    1.48
  -3  -6   4   21.92    1.29
  -3  -6   4   19.32    1.27
   2   6  -4   14.57    1.33
   2   6  -4   16.99    1.10
   2   6  -4   17.39    1.29
   2   6  -4   16.26    1.14
  -2  -6   4   18.45    1.14
  -2  -6   4   15.97    1.08
   1   6  -4    5.31    0.51
  -1  -6   4    5.77    0.56
  -1  -6   4    5.68    0.49
  -1  -6   4    2.68    2.74
  -1  -6   4    5.43    0.50
   0   6  -4   15.15    1.01
   0   6  -4   14.94    0.98
   0  -6   4   14.46    1.02
   0  -6   4   14.41    0.97
   0  -6   4   15.10    1.05
  -1   6  -4    6.33    0.55
   1  -6   4    8.00    0.55
   1  -6   4    8.98    0.66
  -2   6  -4   25.21    1.38
   2  -6   4   19.54    1.35
   2  -6   4   21.38    1.37
   2  -6   4   22.16    1.31
   2  -6   4   22.78    1.23
  -3   6  -4    2.18    0.73
   3  -6   4    3.46    0.27
   6   5  -4    1.42    0.18
  -6  -5   4    0.73    1.18
   5   5  -4   22.05    1.37
   5   5  -4   23.49    1.51
  -5  -5   4   19.15    2.26
   4   5  -4    0.26    0.21
   4   5  -4    0.23    0.19
   4   5  -4    0.23    0.21
  -4  -5   4    0.13    0.12
  -4  -5   4    0.35    0.53
  -4  -5   4    0.26    0.13
  -4  -5   4    1.13    2.26
  -4  -5   4    0.54    2.11
  -4  -5   4    0.67    0.73
  -4  -5   4    0.48    0.19
   3   5  -4   86.84    4.51
   3   5  -4   77.74    4.37
   3   5  -4   76.16    4.57
  -3  -5   4   75.71    4.33
   2   5  -4    2.27    0.38
   2   5  -4    1.47    0.44
   2   5  -4    2.24    0.43
  -2  -5   4    1.66    0.32
  -2  -5   4    2.24    0.32
  -2  -5   4    2.30    0.37
  -2  -5   4    2.35    2.46
  -2  -5   4   -1.38    2.59
  -2  -5   4    2.26    0.30
   1   5  -4   30.98    2.03
   1   5  -4   26.59    1.85
   1   5  -4   30.82    2.14
   1   5  -4   31.51    1.83
  -1  -5   4   30.35    1.84
  -1  -5   4   30.03    1.80
  -1  -5   4   27.14    1.76
  -1  -5   4   39.21    5.76
   0   5  -4   21.32    1.33
   0   5  -4   22.15    1.37
   0  -5   4   18.28    1.36
   0  -5   4   23.33    1.32
   0  -5   4   21.38    1.38
   0  -5   4   21.09    1.33
  -1   5  -4    4.07    0.42
  -1   5  -4    4.53    0.54
   1  -5   4    4.43    0.39
   1  -5   4    3.46    0.38
   1  -5   4    3.87    0.50
   1  -5   4    3.89    0.29
   1  -5   4    4.14    0.38
   1  -5   4    3.38    0.44
  -2   5  -4    4.76    0.61
  -2   5  -4    6.90    0.54
  -2   5  -4    4.50    1.64
  -2   5  -4   -0.15    4.69
   2  -5   4    6.48    0.39
   2  -5   4    7.02    0.61
   2  -5   4    5.73    0.57
   2  -5   4    5.58    0.46
   2  -5   4    4.47    0.46
  -3   5  -4    0.32    0.83
  -3   5  -4    2.10    0.28
  -3   5  -4    0.68    2.35
   3  -5   4    1.81    0.35
   3  -5   4    1.96    0.17
   3  -5   4    1.35    0.23
   3  -5   4    1.86    0.30
  -4   5  -4    1.37    0.28
  -4   5  -4   -0.31    1.69
  -4   5  -4    1.43    0.19
   4  -5   4    1.84    0.15
   4  -5   4    1.48    0.21
   4  -5   4    1.52    0.22
   7   4  -4    0.29    0.10
   6   4  -4    6.08    0.46
   5   4  -4    6.25    0.55
  -5  -4   4    6.47    0.53
  -5  -4   4    7.54    1.55
  -5  -4   4    5.03    0.47
  -5  -4   4    6.29    0.49
   4   4  -4   35.11    2.12
   4   4  -4   29.73    2.26
  -4  -4   4   35.25    3.37
  -4  -4   4   37.74    2.05
  -4  -4   4   33.16    1.99
  -4  -4   4   38.20    2.37
  -4  -4   4   36.98    2.06
  -4  -4   4   31.78    2.05
   3   4  -4   10.50    0.84
   3   4  -4   10.43    1.00
   3   4  -4   10.97    0.90
  -3  -4   4   11.16    1.02
  -3  -4   4    9.57    0.75
  -3  -4   4   11.04    0.74
  -3  -4   4    9.89    0.77
   2   4  -4   22.84    1.51
   2   4  -4   27.07    1.38
  -2  -4   4   24.05    1.58
  -2  -4   4   24.53    1.37
   1   4  -4   19.97    1.12
  -1  -4   4   21.55    1.23
  -1  -4   4   20.07    1.35
  -1  -4   4   17.50    1.10
   0   4  -4    0.70    0.20
   0   4  -4    0.57    0.09
   0  -4   4    0.65    0.20
   0  -4   4    0.38    0.18
  -1   4  -4   27.25    1.58
   1  -4   4   28.52    1.68
   1  -4   4   30.11    1.70
  -2   4  -4    1.02    0.26
  -2   4  -4    0.35    0.22
  -2   4  -4    0.19    0.78
  -2   4  -4   -0.37    0.85
  -2   4  -4   -1.42    2.66
   2  -4   4    0.83    0.13
   2  -4   4    0.41    0.18
   2  -4   4    0.91    0.25
   2  -4   4    0.49    0.21
   2  -4   4    0.95    0.22
  -3   4  -4   30.62    1.99
  -3   4  -4   29.79    1.79
   3  -4   4   30.63    1.68
   3  -4   4   29.30    1.67
   3  -4   4   32.09    1.79
   3  -4   4   27.54    1.80
  -4   4  -4    5.84    1.33
  -4   4  -4    6.91    0.65
  -4   4  -4    5.74    0.48
  -4   4  -4    2.05    2.79
   4  -4   4    6.46    0.51
   4  -4   4    6.08    0.41
   4  -4   4    6.30    0.42
  -5   4  -4    1.88    0.81
  -5   4  -4    0.00    1.83
  -5   4  -4    1.39    0.18
  -5   4  -4    1.44    0.26
  -5   4  -4    1.52    0.15
   5  -4   4    1.45    0.14
   5  -4   4    1.39    0.14
   5  -4   4    1.70    0.21
   7   3  -4    1.80    0.27
  -7  -3   4    1.13    1.33
  -7  -3   4    1.02    0.58
   6   3  -4    4.26    0.54
   6   3  -4    4.14    0.40
  -6  -3   4    4.35    0.36
  -6  -3   4    4.03    1.16
  -6  -3   4    0.52    2.15
  -6  -3   4    4.46    0.39
  -6  -3   4    4.03    0.31
  -5  -3   4   63.86    3.59
  -5  -3   4   67.23    3.61
  -5  -3   4   63.98    3.62
  -5  -3   4   70.01    3.93
  -5  -3   4   61.77    3.55
  -5  -3   4   60.86    3.51
   4   3  -4   16.12    1.13
   4   3  -4   16.20    0.94
  -4  -3   4   16.93    1.10
  -4  -3   4   17.07    1.06
  -4  -3   4   16.89    1.06
  -4  -3   4   18.01    1.36
  -4  -3   4   16.10    0.95
   3   3  -4  119.78    6.52
   3   3  -4  119.33    6.69
   3   3  -4  121.17    6.70
   3   3  -4  120.59    6.52
  -3  -3   4  125.13    6.54
  -3  -3   4  117.93    6.74
  -3  -3   4  135.75    6.65
   2   3  -4    5.97    0.37
   2   3  -4    6.19    0.37
   2   3  -4    6.57    0.39
   2   3  -4    5.63    0.49
   2   3  -4    6.21    0.51
  -2  -3   4    6.38    0.42
  -2  -3   4    6.08    0.39
  -2  -3   4    6.06    0.48
  -2  -3   4    6.65    0.57
   1   3  -4   26.63    1.45
   1   3  -4   25.28    1.45
   1   3  -4   28.33    1.66
   1   3  -4   26.83    1.60
   1   3  -4   27.54    1.47
   1   3  -4   24.83    1.45
  -1  -3   4   25.31    1.46
  -1  -3   4   28.69    1.56
  -1  -3   4   27.96    1.48
  -1  -3   4   25.36    1.51
  -1  -3   4   26.68    1.66
   0   3  -4   18.54    0.95
   0   3  -4   16.44    0.92
   0  -3   4   16.13    0.99
   0  -3   4   16.83    0.96
   0  -3   4   14.65    0.96
   0  -3   4   17.23    1.14
  -1   3  -4   20.58    1.39
  -1   3  -4   18.44    1.01
   1  -3   4   17.72    1.08
   1  -3   4   17.05    1.06
   1  -3   4   15.83    1.19
  -2   3  -4    7.02    0.71
   2  -3   4    5.98    0.45
   2  -3   4    5.09    0.54
  -3   3  -4    1.71    1.10
  -3   3  -4    1.13    0.36
  -3   3  -4    2.83    1.37
  -3   3  -4    0.71    0.21
  -3   3  -4    0.78    3.65
   3  -3   4    0.99    0.21
   3  -3   4    0.78    0.12
   3  -3   4    0.74    0.11
   3  -3   4    0.89    0.15
   3  -3   4    1.07    2.24
  -4   3  -4    7.92    4.79
  -4   3  -4    6.01    0.53
  -4   3  -4    7.50    0.71
  -4   3  -4    7.01    0.52
  -4   3  -4    7.16    0.47
   4  -3   4    6.67    0.46
   4  -3   4    7.05    0.56
   4  -3   4    6.75    0.45
   4  -3   4    6.49    0.43
  -5   3  -4   17.09    1.07
  -5   3  -4   22.81    4.96
  -5   3  -4   18.04    1.03
  -5   3  -4   17.93    1.25
   5  -3   4   17.31    1.01
   5  -3   4   17.72    1.00
   5  -3   4   16.74    1.08
   5  -3   4   17.78    1.03
  -6   3  -4    3.85    0.32
  -6   3  -4    4.22    2.32
  -6   3  -4    4.83    0.30
   6  -3   4    4.38    0.28
   6  -3   4    4.41    0.29
   6  -3   4    3.93    0.27
   7   2  -4    4.26    0.38
   6   2  -4    8.84    0.63
   6   2  -4    7.01    0.75
  -6  -2   4    9.34    2.55
  -6  -2   4    8.51    0.55
  -6  -2   4    8.71    0.62
  -6  -2   4    8.81    0.50
  -6  -2   4    8.59    0.60
   5   2  -4    8.09    0.50
   5   2  -4    7.68    0.49
  -5  -2   4    8.74    0.63
  -5  -2   4    8.15    0.51
  -5  -2   4    7.94    0.63
  -5  -2   4    8.28    0.59
  -5  -2   4    8.10    0.55
  -5  -2   4    7.88    0.49
  -5  -2   4    8.64    0.83
  -5  -2   4    7.91    0.51
  -5  -2   4    8.85    0.63
  -5  -2   4    8.41    0.68
   4   2  -4  121.17    6.76
   4   2  -4  130.82    6.67
   4   2  -4  125.72    6.87
   4   2  -4  119.38    8.66
   4   2  -4  122.34    6.65
   4   2  -4  124.72    6.67
  -4  -2   4  135.39    6.79
  -4  -2   4  123.41    6.69
  -4  -2   4  126.30    6.68
   3   2  -4   13.43    0.76
   3   2  -4   13.66    0.77
   3   2  -4   13.47    0.92
   3   2  -4   13.53    0.75
   3   2  -4   14.08    0.92
   3   2  -4   13.68    0.76
  -3  -2   4   13.08    0.83
  -3  -2   4   14.45    0.79
  -3  -2   4   13.59    0.78
  -3  -2   4   13.84    0.96
   2   2  -4   30.15    1.66
   2   2  -4   30.80    1.66
   2   2  -4   30.10    1.66
   2   2  -4   31.84    1.67
   2   2  -4   30.52    1.80
   2   2  -4   28.80    1.72
   2   2  -4   32.55    1.68
   2   2  -4   31.76    1.81
  -2  -2   4   30.52    1.71
  -2  -2   4   31.98    1.87
  -2  -2   4   31.47    1.69
  -2  -2   4   31.09    1.68
  -2  -2   4   30.22    1.73
   1   2  -4    0.60    0.07
   1   2  -4    0.57    0.07
   1   2  -4    0.76    0.19
   1   2  -4    0.58    0.07
   1   2  -4    0.49    0.07
   1   2  -4    0.60    0.09
   1   2  -4    0.63    0.07
   1   2  -4    0.52    0.11
   1   2  -4    0.69    0.14
  -1  -2   4    0.54    0.08
  -1  -2   4    1.13    0.19
  -1  -2   4    0.69    0.19
  -1  -2   4    0.82    0.12
  -1  -2   4    0.61    0.15
  -1  -2   4    0.72    0.09
  -1  -2   4    0.55    0.11
   0   2  -4    2.19    0.27
   0   2  -4    2.02    0.14
   0   2  -4    2.08    0.14
   0   2  -4    2.39    0.29
   0   2  -4    2.33    0.17
   0   2  -4    2.64    0.34
   0   2  -4    2.09    0.15
   0   2  -4    2.11    0.15
   0   2  -4    2.16    0.16
   0  -2   4    2.07    0.27
   0  -2   4    1.95    0.19
   0  -2   4    2.07    0.19
   0  -2   4    2.22    0.21
   0  -2   4    2.33    0.23
   0  -2   4    2.10    0.18
   0  -2   4    2.08    0.23
  -1   2  -4    2.15    0.16
  -1   2  -4    2.47    0.18
  -1   2  -4    2.56    0.36
  -1   2  -4    2.29    0.30
  -1   2  -4    2.24    0.15
  -1   2  -4    1.97    0.26
  -1   2  -4    2.40    0.16
  -1   2  -4    2.23    0.17
  -1   2  -4    2.06    0.15
   1  -2   4    2.36    0.30
   1  -2   4    2.00    0.22
   1  -2   4    2.33    0.21
   1  -2   4    2.15    0.23
   1  -2   4    2.20    0.18
   1  -2   4    2.06    0.23
   1  -2   4    2.02    0.19
  -2   2  -4    0.57    0.22
  -2   2  -4    0.49    0.16
  -2   2  -4    0.82    0.12
  -2   2  -4    0.56    0.09
   2  -2   4    0.48    0.11
   2  -2   4    0.41    0.16
  -3   2  -4   40.54    2.21
  -3   2  -4   41.40    2.52
   3  -2   4   37.73    2.38
   3  -2   4   34.58    2.17
  -4   2  -4   59.82    4.93
   4  -2   4   75.42    5.65
  -6   2  -4   40.32    3.19
  -7   2  -4    0.06    0.08
   7  -2   4    0.01    0.04
   7   1  -4   -2.11    1.93
   7   1  -4   -0.18    0.14
  -7  -1   4   -0.14    0.54
  -7  -1   4    0.03    0.05
  -7  -1   4   -0.05    0.07
  -7  -1   4    0.02    0.04
  -7  -1   4   -0.20    1.10
  -7  -1   4    0.06    0.08
  -7  -1   4   -0.06    0.46
  -7  -1   4    0.22    0.57
  -7  -1   4    0.03    0.46
   6   1  -4    7.21    0.46
   6   1  -4    7.53    0.57
  -6  -1   4    7.46    0.48
  -6  -1   4    7.89    0.56
  -6  -1   4    7.52    0.51
  -6  -1   4    8.70    0.58
  -6  -1   4    6.92    0.57
  -6  -1   4    7.85    0.58
  -6  -1   4    7.68    0.46
  -6  -1   4    6.67    0.51
  -6  -1   4    8.55    1.75
  -6  -1   4    7.30    0.46
   5   1  -4   13.61    0.76
   5   1  -4   13.12    0.77
   5   1  -4   12.47    0.74
   5   1  -4   13.76    0.77
  -5  -1   4   11.97    0.90
  -5  -1   4   13.87    0.89
  -5  -1   4   13.32    1.07
  -5  -1   4   13.69    0.89
  -5  -1   4   13.45    0.76
  -5  -1   4   13.01    0.78
  -5  -1   4   14.20    0.87
  -5  -1   4   13.40    0.84
  -5  -1   4   13.36    0.82
  -5  -1   4   14.32    0.77
  -5  -1   4   13.09    0.77
  -5  -1   4   11.63    0.87
   4   1  -4    0.10    0.09
   4   1  -4    0.23    1.20
   4   1  -4    0.10    0.09
   4   1  -4    0.17    0.10
   4   1  -4    0.24    0.06
   4   1  -4    0.09    0.04
   4   1  -4    0.16    0.05
   4   1  -4    0.09    0.04
  -4  -1   4    0.12    0.12
  -4  -1   4    0.14    0.05
  -4  -1   4    0.33    0.10
  -4  -1   4    0.37    0.17
   3   1  -4   40.99    2.14
   3   1  -4   38.72    2.15
   3   1  -4   38.04    2.23
   3   1  -4   40.46    2.15
   3   1  -4   40.78    2.29
   3   1  -4   41.57    2.32
   3   1  -4   40.31    2.15
   3   1  -4   40.02    2.16
  -3  -1   4   40.18    2.17
  -3  -1   4   38.86    2.20
  -3  -1   4   41.17    2.24
  -3  -1   4   40.72    2.23
  -3  -1   4   39.55    2.16
  -3  -1   4   40.93    2.36
   2   1  -4    1.64    0.12
   2   1  -4    1.85    0.22
   2   1  -4    1.68    0.12
   2   1  -4    1.68    0.12
   2   1  -4    1.73    0.12
   2   1  -4    1.64    0.17
   2   1  -4    1.81    0.13
  -2  -1   4    2.33    0.27
  -2  -1   4    1.76    0.16
  -2  -1   4    1.83    0.14
  -2  -1   4    1.78    0.17
  -2  -1   4    1.68    0.15
   1   1  -4    0.48    0.05
   1   1  -4    0.48    0.05
   1   1  -4    0.47    0.13
   1   1  -4    0.39    0.07
   1   1  -4    0.49    0.15
   1   1  -4    0.45    0.05
   1   1  -4    0.46    0.06
   1   1  -4    0.43    0.09
  -1  -1   4    0.40    0.06
  -1  -1   4    0.47    0.09
  -1  -1   4    0.47    0.13
  -1  -1   4    0.61    0.09
  -1  -1   4    0.59    0.16
  -1  -1   4    0.43    0.09
   0   1  -4    3.91    0.38
   0   1  -4    4.02    0.26
   0   1  -4    4.05    0.24
   0   1  -4    3.97    0.23
   0   1  -4    4.01    0.24
   0   1  -4    4.29    0.24
   0   1  -4    3.85    0.42
   0  -1   4    4.12    0.34
   0  -1   4    3.74    0.26
   0  -1   4    3.90    0.29
   0  -1   4    4.40    0.77
   0  -1   4    4.30    0.37
   0  -1   4    3.93    0.35
   0  -1   4    4.13    0.29
   0  -1   4    4.06    0.27
  -1   1  -4    5.98    0.34
  -1   1  -4    6.35    0.35
  -1   1  -4    6.08    0.35
  -1   1  -4    5.97    0.37
  -1   1  -4    6.12    0.34
  -1   1  -4    6.20    0.52
  -1   1  -4    5.96    0.58
  -1   1  -4    6.03    0.35
   1  -1   4    5.67    0.39
   1  -1   4    5.71    0.37
   1  -1   4    5.58    0.44
   1  -1   4    5.95    0.48
   1  -1   4    6.10    0.45
   1  -1   4    5.83    0.40
   1  -1   4    5.68    0.37
  -2   1  -4   68.94    3.46
  -2   1  -4   66.37    3.37
  -2   1  -4   63.20    3.36
  -2   1  -4   65.04    3.59
  -2   1  -4   65.10    3.37
  -2   1  -4   66.43    3.74
  -2   1  -4   64.60    3.38
  -2   1  -4   65.27    3.37
  -2   1  -4   62.36    3.35
   2  -1   4   54.98    3.46
   2  -1   4   61.67    3.43
   2  -1   4   59.31    3.42
   2  -1   4   61.05    3.38
   2  -1   4   59.34    3.49
  -3   1  -4    6.68    0.57
  -3   1  -4    7.15    0.70
  -3   1  -4    7.23    0.50
   3  -1   4    6.03    0.45
   3  -1   4    6.18    0.46
   3  -1   4    6.09    0.50
  -4   1  -4   37.83    2.04
  -4   1  -4   36.65    2.30
   4  -1   4   30.01    1.97
  -5   1  -4    0.64    0.14
  -5   1  -4    0.42    0.14
  -5   1  -4    0.94    0.88
  -5   1  -4    0.33    0.26
   5  -1   4    0.61    0.13
   5  -1   4    0.56    0.12
   5  -1   4    0.59    0.13
   5  -1   4    0.60    0.11
  -6   1  -4   29.06    2.88
  -7   1  -4    3.73    0.29
  -7   1  -4    3.54    0.23
  -7   1  -4    3.47    0.25
   7  -1   4    3.25    0.25
   7  -1   4    3.00    0.23
   7  -1   4    3.17    0.22
   7   0  -4    4.32    0.31
   7   0  -4    3.02    0.33
   7   0  -4    1.62    2.07
  -7   0   4    3.98    0.31
  -7   0   4    4.05    0.27
  -7   0   4    4.21    0.26
  -7   0   4    3.69    0.29
  -7   0   4    3.86    0.25
   6   0  -4   42.38    2.24
  -6   0   4   36.67    2.32
  -6   0   4   41.18    2.28
  -6   0   4   40.70    2.31
  -6   0   4   42.34    2.35
  -6   0   4   42.49    2.38
  -6   0   4   43.21    2.24
  -6   0   4   40.41    2.25
  -6   0   4   41.95    2.35
  -6   0   4   40.37    2.31
  -6   0   4   40.74    2.36
  -6   0   4   42.85    2.27
   5   0  -4    0.63    0.09
   5   0  -4    0.68    0.10
   5   0  -4    0.55    0.09
   5   0  -4    0.47    0.07
  -5   0   4    0.64    0.17
  -5   0   4   -0.01    0.52
  -5   0   4    0.58    0.15
  -5   0   4    0.55    0.10
  -5   0   4    0.33    0.18
  -5   0   4    0.73    0.17
  -5   0   4    0.52    0.10
  -5   0   4    1.14    0.20
  -5   0   4    2.11    1.09
  -5   0   4    0.63    0.12
  -5   0   4    0.73    0.24
  -5   0   4    2.22    1.28
  -5   0   4    5.15    3.38
  -5   0   4    0.72    0.12
  -5   0   4    0.89    0.11
   4   0  -4  165.46    8.50
   4   0  -4  159.78    8.50
   4   0  -4  155.10    8.68
   4   0  -4  162.82    8.61
   4   0  -4  161.32    8.48
   4   0  -4  158.29    8.49
  -4   0   4  153.69    8.51
  -4   0   4  164.62    8.74
  -4   0   4  157.68    8.59
  -4   0   4  160.81    8.50
  -4   0   4  165.35    8.61
   3   0  -4    0.37    0.12
   3   0  -4    0.50    0.14
   3   0  -4    0.48    0.06
   3   0  -4    0.57    0.06
   3   0  -4    0.46    0.06
   3   0  -4    0.56    0.06
   3   0  -4    0.56    0.12
   3   0  -4    0.50    0.07
  -3   0   4    0.42    0.10
  -3   0   4    0.60    0.14
  -3   0   4    0.66    0.10
  -3   0   4    0.56    0.08
  -3   0   4    0.51    0.09
  -3   0   4    0.47    0.11
  -3   0   4    0.88    0.22
   2   0  -4  389.27   19.97
   2   0  -4  393.78   19.95
   2   0  -4  373.24   20.02
   2   0  -4  368.17   19.94
   2   0  -4  399.86   19.94
   2   0  -4  373.26   19.96
  -2   0   4  384.30   19.98
  -2   0   4  373.52   20.05
  -2   0   4  347.46   19.92
  -2   0   4  353.01   19.95
  -2   0   4  407.42   20.10
  -2   0   4  367.90   19.94
   1   0  -4    0.47    0.04
   1   0  -4    0.36    0.11
   1   0  -4    0.49    0.04
   1   0  -4    0.61    0.26
   1   0  -4    0.42    0.04
   1   0  -4    0.59    0.15
   1   0  -4    0.44    0.07
  -1   0   4    0.41    0.11
  -1   0   4    0.50    0.31
  -1   0   4    0.70    0.10
  -1   0   4    0.50    0.05
  -1   0   4    0.47    0.09
  -1   0   4    0.59    0.07
   0   0  -4  381.16   18.85
   0   0  -4  324.31   18.66
   0   0  -4  348.54   18.67
   0   0  -4  341.68   18.68
   0   0   4  360.19   18.74
   0   0   4  379.94   18.81
   0   0   4  356.06   18.76
   0   0   4  362.54   18.70
   0   0   4  348.68   18.75
   0   0   4  359.91   20.51
   0   0   4  327.38   19.52
  -1   0  -4   75.90    4.05
  -1   0  -4   65.88    4.03
  -1   0  -4   71.09    3.85
  -1   0  -4   66.00    3.86
  -1   0  -4   70.08    3.88
  -1   0  -4   72.30    3.85
   1   0   4   77.45    3.92
   1   0   4   76.77    4.96
   1   0   4   77.86    3.92
   1   0   4   74.32    3.88
   1   0   4   79.80    3.98
   1   0   4   64.69    3.86
   1   0   4   74.38    3.97
  -2   0  -4    2.89    0.34
  -2   0  -4    2.96    0.21
  -2   0  -4    3.11    0.20
  -2   0  -4    2.53    0.39
  -2   0  -4    3.14    0.19
  -2   0  -4    3.27    0.19
  -2   0  -4    2.76    0.20
   2   0   4    3.23    0.28
   2   0   4    3.12    0.21
   2   0   4    3.56    0.30
   2   0   4    3.10    0.22
   2   0   4    3.24    0.25
   2   0   4    3.36    0.25
  -3   0  -4   18.78    1.03
  -3   0  -4   18.97    1.04
  -3   0  -4   18.65    1.02
  -3   0  -4   17.35    1.34
  -3   0  -4   19.00    1.03
  -3   0  -4   18.74    1.23
  -3   0  -4   18.40    1.13
  -3   0  -4   18.26    1.04
   3   0   4   19.09    1.09
   3   0   4   18.65    1.04
   3   0   4   18.78    1.16
   3   0   4   19.60    1.10
  -4   0  -4    0.06    0.08
  -4   0  -4    0.09    0.12
  -4   0  -4   -0.46    1.17
   4   0   4    0.07    0.08
   4   0   4    0.04    0.05
  -5   0  -4    1.09    0.19
  -5   0  -4    1.12    0.21
  -5   0  -4    1.69    0.82
  -5   0  -4    1.03    0.12
   5   0   4    0.85    0.20
   5   0   4    1.08    0.14
   5   0   4    2.53    2.35
   5   0   4    1.35    0.19
   5   0   4    1.18    0.16
  -6   0  -4    0.31    0.08
  -6   0  -4    1.36    2.98
  -6   0  -4    0.12    0.11
  -6   0  -4    0.24    0.07
  -6   0  -4    0.36    0.16
   6   0   4    0.23    0.13
   6   0   4    0.17    0.09
   6   0   4    0.29    0.09
   6   0   4    0.31    0.07
  -7   0  -4    1.08    0.17
  -7   0  -4    1.08    0.11
  -7   0  -4    1.07    0.11
  -7   0  -4    1.18    0.16
   7   0   4    1.01    0.11
   7   0   4    1.06    0.12
   7   0   4    1.27    0.15
   7   0   4    0.75    0.16
   7  -1  -4    0.21    0.07
   7  -1  -4    0.75    1.43
   7  -1  -4    0.24    1.74
  -7   1   4    0.11    0.08
  -7   1   4    0.12    0.12
  -7   1   4    0.13    0.06
  -7   1   4    0.08    1.28
  -7   1   4    0.26    0.10
  -7   1   4    0.08    0.06
  -7   1   4    0.15    0.04
  -7   1   4    0.05    0.44
  -7   1   4    1.10    1.89
  -7   1   4    0.09    0.11
  -7   1   4    0.53    0.64
  -7   1   4    0.11    0.05
  -7   1   4    0.21    0.68
  -7   1   4    0.14    0.47
   6  -1  -4    1.43    0.14
  -6   1   4    1.30    0.15
  -6   1   4    1.37    0.20
  -6   1   4    1.41    0.15
  -6   1   4    1.33    0.24
  -6   1   4    1.53    0.22
  -6   1   4    1.50    0.14
  -6   1   4    1.41    0.14
  -6   1   4    1.28    0.17
  -6   1   4    1.56    0.29
  -6   1   4    3.60    1.40
  -6   1   4    0.93    2.03
  -6   1   4    1.37    0.22
  -6   1   4    0.83    0.87
   5  -1  -4    2.74    0.20
   5  -1  -4    1.94    0.18
   5  -1  -4    2.80    0.20
   5  -1  -4    2.64    0.20
  -5   1   4    2.61    0.22
  -5   1   4    2.78    0.29
  -5   1   4    3.01    0.33
  -5   1   4   -0.05    1.71
  -5   1   4    2.58    0.28
  -5   1   4    2.72    1.13
  -5   1   4    2.81    0.21
  -5   1   4    2.45    0.36
  -5   1   4    2.93    0.29
  -5   1   4    2.76    0.24
  -5   1   4    2.48    0.20
  -5   1   4    2.52    0.20
  -5   1   4    2.74    0.35
  -5   1   4    2.49    0.21
   4  -1  -4   34.09    1.85
   4  -1  -4   35.02    1.86
   4  -1  -4   34.67    1.86
   4  -1  -4   34.33    1.97
   4  -1  -4   34.47    1.84
   4  -1  -4   34.94    1.86
   4  -1  -4   32.67    2.02
  -4   1   4   34.67    2.10
  -4   1   4   32.98    1.88
  -4   1   4   34.49    1.86
  -4   1   4   34.48    1.97
  -4   1   4   35.84    1.96
   3  -1  -4    1.62    0.11
   3  -1  -4    1.57    0.21
   3  -1  -4    1.45    0.16
   3  -1  -4    1.57    0.18
   3  -1  -4    1.62    0.11
   3  -1  -4    1.53    0.10
  -3   1   4    1.67    0.13
  -3   1   4    1.50    0.15
  -3   1   4    1.46    0.24
  -3   1   4    1.55    0.17
  -3   1   4    1.59    0.19
   2  -1  -4    6.69    0.46
   2  -1  -4    6.54    0.35
   2  -1  -4    6.03    0.45
   2  -1  -4    5.83    0.35
   2  -1  -4    6.36    0.41
  -2   1   4    6.21    0.43
  -2   1   4    6.52    0.38
  -2   1   4    6.19    0.40
  -2   1   4    6.48    0.42
  -2   1   4    7.13    0.43
   1  -1  -4   21.81    1.44
   1  -1  -4   24.30    1.89
   1  -1  -4   24.25    1.47
   1  -1  -4   20.55    1.28
   1  -1  -4   22.87    1.25
   1  -1  -4   20.31    1.25
  -1   1   4   25.35    1.39
  -1   1   4   24.81    1.30
  -1   1   4   25.18    1.33
  -1   1   4   25.05    1.33
  -1   1   4   24.49    1.28
  -1   1   4   24.63    2.00
  -1   1   4   24.74    1.40
  -1   1   4   24.70    1.31
   0  -1  -4    4.72    0.40
   0  -1  -4    4.00    0.42
   0  -1  -4    4.98    0.32
   0  -1  -4    4.43    0.39
   0  -1  -4    4.22    0.25
   0  -1  -4    4.66    0.40
   0  -1  -4    4.65    0.25
   0   1   4    4.67    0.35
   0   1   4    5.05    0.78
   0   1   4    4.58    0.35
   0   1   4    4.98    0.28
   0   1   4    4.83    0.35
   0   1   4    5.13    0.31
   0   1   4    4.82    0.31
   0   1   4    4.30    0.28
   0   1   4    4.86    0.77
  -1  -1  -4    4.10    0.36
  -1  -1  -4    3.79    0.23
  -1  -1  -4    3.81    0.23
  -1  -1  -4    3.85    0.72
  -1  -1  -4    3.61    0.29
  -1  -1  -4    3.43    0.41
  -1  -1  -4    3.90    0.36
  -1  -1  -4    4.03    0.34
  -1  -1  -4    4.37    0.23
   1   1   4    4.53    0.80
   1   1   4    4.40    0.28
   1   1   4    4.28    0.28
   1   1   4    4.20    0.32
   1   1   4    3.95    0.25
   1   1   4    4.11    0.32
  -2  -1  -4   74.37    4.08
  -2  -1  -4   65.04    3.89
  -2  -1  -4   71.95    3.88
  -2  -1  -4   75.67    3.88
  -2  -1  -4   60.98    3.88
   2   1   4   82.06    4.01
   2   1   4   69.95    3.88
   2   1   4   78.07    4.01
   2   1   4   79.78    3.95
   2   1   4   75.04    3.91
  -3  -1  -4   63.73    3.43
  -3  -1  -4   59.45    3.62
  -3  -1  -4   57.74    3.42
  -3  -1  -4   62.80    3.41
  -3  -1  -4   61.51    3.42
   3   1   4   65.40    3.44
   3   1   4   64.14    3.43
   3   1   4   66.78    3.49
   3   1   4   68.51    3.56
   3   1   4   72.68    3.56
  -4  -1  -4   13.02    0.74
  -4  -1  -4   11.32    1.02
  -4  -1  -4   11.94    0.85
   4   1   4   13.07    0.77
   4   1   4   13.85    0.89
   4   1   4   13.72    0.87
   4   1   4   14.51    0.82
  -5  -1  -4    3.17    0.25
  -5  -1  -4    2.92    0.29
  -5  -1  -4    4.00    0.29
  -5  -1  -4    3.12    0.31
  -5  -1  -4    3.22    0.26
   5   1   4    3.55    0.28
   5   1   4    3.40    0.27
   5   1   4    3.38    0.35
   5   1   4    3.51    0.40
  -6  -1  -4    9.07    0.56
  -6  -1  -4    9.70    0.65
  -6  -1  -4    8.77    0.60
  -6  -1  -4    9.00    0.57
  -6  -1  -4    9.98    0.59
   6   1   4    8.91    0.67
   6   1   4    8.91    0.60
   6   1   4    9.24    0.55
  -7  -1  -4    5.54    0.36
  -7  -1  -4    5.38    0.38
  -7  -1  -4    5.70    0.41
  -7  -1  -4    5.73    0.36
  -7  -1  -4    5.38    0.35
   7   1   4    5.31    0.38
   7   1   4    5.31    0.44
   7   1   4    5.24    0.34
   7  -2  -4   33.97    1.75
  -7   2   4   26.59    2.38
  -7   2   4   32.91    1.81
  -7   2   4   33.44    1.81
  -7   2   4   32.27    1.79
  -7   2   4   34.76    1.75
  -7   2   4   33.13    1.75
  -7   2   4   28.71    1.78
  -7   2   4   34.17    1.76
  -7   2   4   32.50    1.81
   6  -2  -4    7.83    0.48
  -6   2   4    8.12    0.48
  -6   2   4    8.33    0.50
  -6   2   4    7.91    0.61
  -6   2   4    8.19    0.58
  -6   2   4    6.42    0.55
  -6   2   4    8.51    0.51
  -6   2   4    8.25    0.62
  -6   2   4    7.79    0.49
  -6   2   4    8.39    0.57
   5  -2  -4   12.39    0.74
   5  -2  -4   13.07    0.74
   5  -2  -4   13.28    0.75
  -5   2   4   11.95    0.89
  -5   2   4   12.69    0.75
  -5   2   4   14.53    0.91
  -5   2   4   13.30    0.75
  -5   2   4   13.28    0.92
  -5   2   4   12.78    0.78
  -5   2   4   12.88    0.77
  -5   2   4   12.75    0.85
  -5   2   4   15.71    2.44
  -5   2   4   12.85    0.84
  -5   2   4   12.94    0.86
  -5   2   4   12.46    0.76
   4  -2  -4    9.38    0.65
   4  -2  -4    9.88    0.55
   4  -2  -4    9.57    0.53
   4  -2  -4    9.91    0.55
   4  -2  -4    9.62    0.55
   4  -2  -4    8.81    0.80
   4  -2  -4    9.02    0.53
  -4   2   4    9.79    0.55
  -4   2   4    9.33    0.65
  -4   2   4    9.74    0.66
  -4   2   4    9.37    0.57
   3  -2  -4   20.61    1.10
   3  -2  -4   21.05    1.09
   3  -2  -4   18.51    1.17
   3  -2  -4   21.09    1.21
   3  -2  -4   20.49    1.10
   3  -2  -4   21.08    1.11
  -3   2   4   21.93    1.33
  -3   2   4   20.35    1.20
  -3   2   4   19.55    1.18
  -3   2   4   20.74    1.21
  -3   2   4   20.99    1.14
  -3   2   4   18.14    1.45
   2  -2  -4   17.56    0.93
   2  -2  -4   17.13    0.93
   2  -2  -4   17.26    1.04
  -2   2   4   16.74    1.06
  -2   2   4   18.28    1.02
  -2   2   4   16.99    1.00
  -2   2   4   17.05    1.01
  -2   2   4   17.44    1.02
  -2   2   4   17.56    0.99
  -2   2   4   18.10    1.11
  -2   2   4   17.82    0.97
   1  -2  -4   40.98    2.84
   1  -2  -4   32.90    2.20
   1  -2  -4   41.22    2.80
   1  -2  -4   37.37    2.24
   1  -2  -4   38.34    2.09
  -1   2   4   38.99    2.10
  -1   2   4   39.90    2.09
  -1   2   4   37.82    2.15
  -1   2   4   41.06    2.19
  -1   2   4   39.38    2.16
  -1   2   4   38.57    2.07
  -1   2   4   39.06    2.10
  -1   2   4   39.72    2.11
  -1   2   4   38.17    2.11
  -1   2   4   35.03    2.12
   0  -2  -4    6.14    0.91
   0  -2  -4    7.41    0.84
   0  -2  -4    7.01    0.46
   0  -2  -4    6.29    0.85
   0  -2  -4    5.98    0.48
   0   2   4    5.60    0.37
   0   2   4    5.94    0.52
   0   2   4    6.39    0.44
   0   2   4    5.94    0.43
   0   2   4    6.42    0.39
   0   2   4    5.33    0.46
   0   2   4    6.77    0.35
   0   2   4    6.54    0.39
   0   2   4    6.33    0.35
   0   2   4    6.84    0.40
   0   2   4    6.36    0.41
   0   2   4    6.55    0.40
  -1  -2  -4   40.00    1.99
  -1  -2  -4   37.08    2.15
  -1  -2  -4   33.52    3.21
  -1  -2  -4   41.92    2.09
  -1  -2  -4   41.06    2.07
  -1  -2  -4   39.78    1.99
  -1  -2  -4   41.98    2.13
  -1  -2  -4   38.31    1.99
   1   2   4   34.64    2.14
   1   2   4   39.64    2.71
   1   2   4   35.70    2.03
   1   2   4   37.29    2.05
   1   2   4   34.17    2.92
   1   2   4   35.37    2.22
   1   2   4   35.89    2.09
   1   2   4   35.08    2.02
   1   2   4   36.24    2.09
  -2  -2  -4   30.27    1.58
  -2  -2  -4   30.09    1.69
  -2  -2  -4   29.48    1.59
  -2  -2  -4   28.20    1.67
  -2  -2  -4   28.68    1.74
  -2  -2  -4   30.66    1.59
  -2  -2  -4   29.94    1.59
   2   2   4   27.66    1.85
   2   2   4   34.04    2.54
   2   2   4   27.97    1.76
   2   2   4   29.04    1.59
   2   2   4   30.24    1.65
   2   2   4   29.75    1.69
   2   2   4   30.59    1.62
  -3  -2  -4  100.77    5.63
  -3  -2  -4   99.29    5.96
  -3  -2  -4  108.75    5.62
  -3  -2  -4   97.83    5.62
  -3  -2  -4   91.51    5.62
  -3  -2  -4  115.29    5.86
  -3  -2  -4  105.87    5.61
   3   2   4  116.14    5.77
   3   2   4  113.00    5.69
   3   2   4  110.75    5.64
   3   2   4  107.91    5.62
  -4  -2  -4    4.87    0.34
  -4  -2  -4    5.22    0.42
  -4  -2  -4    4.56    0.37
  -4  -2  -4    4.46    0.57
  -4  -2  -4    5.52    0.34
  -4  -2  -4    5.50    0.35
   4   2   4    5.86    0.35
   4   2   4    6.49    0.47
  -5  -2  -4   63.31    3.18
  -5  -2  -4   56.85    3.43
  -5  -2  -4   53.90    3.15
  -5  -2  -4   56.44    3.31
   5   2   4   61.17    3.47
   5   2   4   60.90    3.25
   5   2   4   53.73    3.18
  -6  -2  -4    2.17    0.20
  -6  -2  -4    2.23    0.23
  -6  -2  -4    1.79    0.23
  -6  -2  -4    1.91    0.27
  -6  -2  -4    2.35    0.19
   6   2   4    2.13    0.21
   6   2   4    2.05    0.29
   6   2   4    4.05    2.16
   6   2   4    2.06    0.27
   6   2   4    2.09    0.37
  -7  -2  -4    5.82    0.38
  -7  -2  -4    5.82    0.37
  -7  -2  -4    6.03    0.40
  -7  -2  -4    6.19    0.39
  -7  -2  -4    5.45    0.41
   7   2   4    5.33    0.45
   7   2   4    5.31    0.43
   7   2   4    5.55    0.39
  -8  -2  -4    2.74    0.20
  -8  -2  -4    2.23    0.15
   8   2   4    1.85    0.17
   7  -3  -4   -0.12    1.51
  -7   3   4    0.15    0.42
  -7   3   4    0.11    0.04
  -7   3   4    0.13    0.33
  -7   3   4    1.45    1.38
  -7   3   4    0.08    0.07
  -7   3   4    0.09    0.04
  -6   3   4    7.46    0.51
  -6   3   4    7.10    0.46
  -6   3   4    7.28    0.44
  -6   3   4    7.03    0.45
  -6   3   4    5.01    1.43
  -6   3   4    7.35    0.52
  -6   3   4    7.00    0.44
  -6   3   4    8.65    1.44
  -6   3   4    6.99    0.53
  -6   3   4    7.33    0.56
  -6   3   4    7.46    0.56
  -6   3   4    7.17    0.45
  -6   3   4    6.16    0.42
   5  -3  -4    6.93    0.41
   5  -3  -4    6.66    0.40
  -5   3   4    6.64    0.42
  -5   3   4    6.52    0.56
  -5   3   4    6.71    0.43
  -5   3   4    6.76    0.50
  -5   3   4    6.47    0.56
  -5   3   4    6.59    0.50
  -5   3   4    6.34    0.40
  -5   3   4    6.62    0.44
  -5   3   4    4.81    1.59
  -5   3   4    6.31    0.43
  -5   3   4    6.54    0.52
  -5   3   4    6.68    0.52
   4  -3  -4    5.11    0.32
   4  -3  -4    5.26    0.32
   4  -3  -4    5.09    0.30
   4  -3  -4    5.23    0.32
  -4   3   4    4.77    0.34
  -4   3   4    5.14    0.34
  -4   3   4    5.26    0.41
  -4   3   4    4.55    0.33
  -4   3   4    5.22    0.42
  -4   3   4    5.06    1.47
  -4   3   4    5.09    0.32
  -4   3   4    4.87    0.45
  -4   3   4    5.13    0.46
  -4   3   4    4.99    0.42
  -4   3   4    6.38    0.50
  -4   3   4    4.86    0.34
   3  -3  -4   52.25    2.65
   3  -3  -4   51.18    2.66
   3  -3  -4   49.78    2.65
   3  -3  -4   47.68    2.75
   3  -3  -4   50.83    2.64
   3  -3  -4   50.36    2.93
  -3   3   4   49.77    2.69
  -3   3   4   47.70    2.75
  -3   3   4   44.25    2.69
  -3   3   4   51.03    2.78
  -3   3   4   52.58    2.77
   2  -3  -4    1.02    0.23
   2  -3  -4    0.96    0.14
   2  -3  -4    1.02    0.07
   2  -3  -4    1.04    0.07
  -2   3   4    1.06    0.15
  -2   3   4    0.85    0.15
  -2   3   4    1.07    0.10
  -2   3   4    0.98    0.13
  -2   3   4    0.88    0.12
   1  -3  -4   49.27    2.43
   1  -3  -4   46.60    2.50
  -1   3   4   46.60    2.47
  -1   3   4   39.26    2.57
  -1   3   4   46.79    2.52
  -1   3   4   48.09    2.52
  -1   3   4   43.92    2.67
  -1   3   4   48.02    2.53
  -1   3   4   46.16    2.59
   0  -3  -4    0.00    0.06
   0  -3  -4    0.03    0.09
   0   3   4    0.04    0.03
   0   3   4    0.05    0.05
   0   3   4    0.03    0.04
   0   3   4    0.01    0.03
   0   3   4    0.03    0.03
   0   3   4    0.03    0.03
   0   3   4    0.03    0.03
  -1  -3  -4    0.96    0.16
  -1  -3  -4    1.01    0.06
  -1  -3  -4    0.98    0.12
  -1  -3  -4    0.99    0.07
  -1  -3  -4    0.97    0.07
  -1  -3  -4    1.09    0.14
   1   3   4    1.15    0.21
   1   3   4    0.83    0.16
   1   3   4    0.97    0.09
   1   3   4    0.92    0.12
  -2  -3  -4    0.19    0.04
  -2  -3  -4    0.24    0.11
  -2  -3  -4    0.25    0.04
  -2  -3  -4    0.24    0.08
  -2  -3  -4    0.17    0.03
  -2  -3  -4    0.28    0.04
   2   3   4    0.22    0.05
   2   3   4    0.17    0.07
   2   3   4    0.24    0.10
   2   3   4    0.22    0.04
   2   3   4    0.18    0.06
  -3  -3  -4    4.67    0.30
  -3  -3  -4    5.30    0.28
  -3  -3  -4    4.27    0.39
  -3  -3  -4    4.82    0.30
  -3  -3  -4    4.11    0.38
  -3  -3  -4    5.09    0.29
  -3  -3  -4    3.97    0.44
  -3  -3  -4    4.68    0.29
   3   3   4    5.41    0.41
   3   3   4    4.94    0.39
   3   3   4    4.96    0.34
   3   3   4    4.68    0.51
   3   3   4    4.73    0.44
   3   3   4    5.17    0.31
   3   3   4    5.08    0.30
  -4  -3  -4   57.57    3.05
  -4  -3  -4   50.66    3.07
  -4  -3  -4   51.64    3.41
  -4  -3  -4   54.41    3.07
  -4  -3  -4   56.17    3.07
   4   3   4   65.28    3.09
   4   3   4   64.53    3.07
  -5  -3  -4    1.56    1.77
  -5  -3  -4    0.88    0.18
  -5  -3  -4    0.67    0.14
   5   3   4    0.86    0.16
   5   3   4    1.06    0.20
   5   3   4    0.97    0.31
   5   3   4    0.87    0.21
   5   3   4    0.73    0.18
   5   3   4    0.60    0.11
   5   3   4    0.66    0.15
  -6  -3  -4   36.17    2.23
  -6  -3  -4   38.82    2.23
  -6  -3  -4   41.43    2.25
  -6  -3  -4   46.16    2.27
  -6  -3  -4   41.47    2.22
   6   3   4   39.90    2.54
   6   3   4   38.29    2.32
   6   3   4   42.21    2.26
   6   3   4   41.46    2.33
   6   3   4   41.28    2.33
  -7  -3  -4    2.76    0.24
  -7  -3  -4    3.31    0.26
  -7  -3  -4    3.16    0.22
  -7  -3  -4    3.18    0.24
  -7  -3  -4    2.91    0.26
   7   3   4    2.59    0.29
   7   3   4    2.87    0.24
   7   3   4    2.71    0.29
  -8  -3  -4    0.80    0.09
   6  -4  -4   -0.37    0.92
   6  -4  -4   -0.05    2.03
  -6   4   4    0.03    0.43
  -6   4   4   -0.02    0.08
  -6   4   4    0.16    0.61
  -6   4   4   -0.23    0.47
  -6   4   4    0.03    0.11
  -6   4   4   -0.01    0.04
  -6   4   4   -0.08    0.07
  -6   4   4    0.04    0.14
  -6   4   4   -0.01    0.04
  -6   4   4   -0.05    0.10
  -6   4   4   -0.19    0.42
  -6   4   4   -0.03    0.04
  -6   4   4   -0.11    0.46
  -6   4   4   -0.32    1.22
   5  -4  -4   12.21    0.70
  -5   4   4   11.84    0.72
  -5   4   4   12.40    0.74
  -5   4   4   12.09    0.79
  -5   4   4   12.51    0.75
  -5   4   4   11.54    0.79
  -5   4   4   12.52    0.82
  -5   4   4   12.01    0.72
  -5   4   4   12.38    0.85
  -5   4   4   12.73    0.83
  -5   4   4   12.38    0.85
  -5   4   4   12.11    0.72
   4  -4  -4   13.71    0.76
   4  -4  -4   13.01    0.76
   4  -4  -4   14.13    0.76
  -4   4   4   13.14    0.78
  -4   4   4   14.08    0.76
  -4   4   4   12.93    0.89
  -4   4   4   12.36    0.78
  -4   4   4   13.11    0.91
  -4   4   4   13.24    0.85
  -4   4   4   13.23    0.80
  -4   4   4   13.83    0.88
  -4   4   4   13.69    0.81
  -4   4   4   13.11    0.78
  -4   4   4   12.99    0.93
   3  -4  -4   22.04    1.17
   3  -4  -4   22.95    1.17
   3  -4  -4   21.01    1.23
   3  -4  -4   21.54    1.16
   3  -4  -4   21.69    1.18
   3  -4  -4   20.04    1.16
   3  -4  -4   20.57    1.45
  -3   4   4   21.28    1.30
  -3   4   4   22.29    1.29
  -3   4   4   20.64    1.22
  -3   4   4   21.46    1.17
   2  -4  -4  123.59    6.40
   2  -4  -4  124.49    6.33
   2  -4  -4  122.90    6.34
   2  -4  -4  117.02    6.34
   2  -4  -4  124.44    6.34
  -2   4   4  118.48    6.44
  -2   4   4  122.06    6.47
  -2   4   4  113.66    6.44
  -2   4   4  111.87    6.39
   1  -4  -4    1.24    0.16
   1  -4  -4    1.40    0.10
   1  -4  -4    1.45    0.09
   1  -4  -4    1.35    0.14
   1  -4  -4    1.46    0.10
  -1   4   4    1.35    0.24
  -1   4   4    1.73    0.22
  -1   4   4    1.36    0.16
  -1   4   4    1.70    0.22
  -1   4   4    1.53    0.17
  -1   4   4    1.71    0.17
   0  -4  -4    1.40    0.09
   0  -4  -4    1.46    0.09
   0  -4  -4    1.37    0.09
   0  -4  -4    1.34    0.21
   0  -4  -4    1.43    0.17
   0   4   4    1.25    0.11
   0   4   4    1.35    0.15
   0   4   4    1.27    0.19
   0   4   4    1.41    0.24
  -1  -4  -4    1.85    0.20
  -1  -4  -4    1.71    0.11
  -1  -4  -4    1.72    0.24
  -1  -4  -4    1.74    0.11
   1   4   4    1.46    0.17
   1   4   4    1.62    0.23
   1   4   4    1.76    0.28
   1   4   4    1.81    0.18
   1   4   4    1.66    0.13
  -2  -4  -4   15.23    0.80
  -2  -4  -4   14.89    0.80
  -2  -4  -4   15.33    0.93
  -2  -4  -4   14.68    0.79
  -2  -4  -4   15.07    0.80
  -2  -4  -4   14.62    0.89
  -2  -4  -4   17.10    1.04
   2   4   4   14.88    0.83
   2   4   4   13.64    0.91
   2   4   4   13.62    1.08
   2   4   4   14.17    0.80
   2   4   4   13.64    0.98
   2   4   4   14.15    0.90
  -3  -4  -4    1.94    0.25
  -3  -4  -4    2.24    0.15
  -3  -4  -4    2.18    0.26
  -3  -4  -4    2.14    0.15
  -3  -4  -4    2.19    0.17
  -3  -4  -4    2.39    0.17
  -3  -4  -4    2.19    0.16
   3   4   4    2.09    0.19
   3   4   4    2.16    0.34
   3   4   4    2.33    0.17
   3   4   4    2.09    0.30
   3   4   4    2.25    0.16
  -4  -4  -4    0.98    0.20
  -4  -4  -4    0.78    0.11
  -4  -4  -4    0.74    0.09
  -4  -4  -4    0.83    0.19
  -4  -4  -4    0.82    0.11
  -4  -4  -4    0.82    0.11
  -4  -4  -4    0.62    0.17
  -4  -4  -4    0.01    1.13
   4   4   4    0.99    0.18
   4   4   4    1.05    0.11
   4   4   4    0.81    0.11
  -5  -4  -4   38.69    5.59
  -5  -4  -4   31.60    2.09
   5   4   4   41.60    2.18
   5   4   4   35.14    2.09
   5   4   4   36.20    2.06
   5   4   4   42.42    2.42
   5   4   4   38.05    2.25
   5   4   4   38.00    2.16
   5   4   4   36.88    2.08
  -6  -4  -4   18.79    3.42
  -6  -4  -4   15.96    0.95
  -6  -4  -4   14.79    0.90
  -6  -4  -4   15.45    0.92
  -6  -4  -4   15.87    0.90
   6   4   4   16.09    1.19
   6   4   4   14.38    0.93
   6   4   4   14.86    0.98
   6   4   4   16.11    1.00
   6   4   4   16.06    0.99
   6   4   4   13.08    2.66
  -7  -4  -4    3.22    0.22
  -7  -4  -4    3.18    0.23
  -7  -4  -4    3.30    0.24
  -7  -4  -4    3.38    0.26
   7   4   4    2.86    0.29
   7   4   4    2.98    0.29
   7   4   4    2.76    0.39
   6  -5  -4    1.81    1.76
   5  -5  -4    0.32    0.89
  -5   5   4   -0.03    0.06
  -5   5   4    0.52    0.60
  -5   5   4    0.08    0.11
  -5   5   4    0.17    0.17
  -5   5   4   -0.42    1.58
  -5   5   4    0.06    0.08
  -5   5   4    0.14    0.11
  -5   5   4    0.15    0.13
  -5   5   4    0.20    0.64
  -5   5   4    0.07    0.05
  -5   5   4    0.07    0.05
  -5   5   4   -0.10    0.58
  -5   5   4    0.03    0.04
  -5   5   4   -0.31    0.47
  -5   5   4   -0.14    0.56
  -5   5   4    0.09    0.06
   4  -5  -4   33.52    1.82
   4  -5  -4   30.95    1.81
  -4   5   4   34.86    1.98
  -4   5   4   33.35    1.82
  -4   5   4   32.89    1.90
  -4   5   4   31.56    1.83
  -4   5   4   32.98    1.86
  -4   5   4   34.74    1.99
  -4   5   4   35.36    1.96
  -4   5   4   32.58    1.85
  -4   5   4   32.29    1.83
  -4   5   4   34.60    1.93
   3  -5  -4   18.25    0.99
   3  -5  -4   18.58    0.99
   3  -5  -4   17.15    0.99
  -3   5   4   17.36    1.03
  -3   5   4   18.74    1.11
  -3   5   4   16.84    1.01
  -3   5   4   17.28    1.15
  -3   5   4   18.23    1.04
  -3   5   4   17.30    1.01
  -3   5   4   15.74    1.02
  -3   5   4   18.71    0.99
  -3   5   4   17.83    1.12
  -3   5   4   17.76    1.14
   2  -5  -4   26.43    1.34
   2  -5  -4   24.39    1.39
   2  -5  -4   25.56    1.33
   2  -5  -4   23.22    1.32
   2  -5  -4   21.66    1.32
   2  -5  -4   25.84    1.34
  -2   5   4   25.80    1.45
  -2   5   4   23.97    1.38
  -2   5   4   25.61    1.33
  -2   5   4   22.22    1.44
  -2   5   4   23.41    1.44
  -2   5   4   24.90    1.46
   1  -5  -4   18.71    1.05
   1  -5  -4   20.34    1.07
   1  -5  -4   19.85    1.11
   1  -5  -4   19.52    1.05
   1  -5  -4   19.79    1.23
   1  -5  -4   21.20    1.06
  -1   5   4   18.80    1.36
  -1   5   4   18.76    1.11
  -1   5   4   18.84    1.17
  -1   5   4   19.04    1.17
   0  -5  -4    6.67    0.50
   0  -5  -4    6.40    0.37
   0  -5  -4    6.50    0.37
   0  -5  -4    6.41    0.36
   0  -5  -4    6.26    0.36
   0   5   4    6.40    0.62
   0   5   4    6.35    0.46
   0   5   4    5.90    0.41
   0   5   4    6.82    0.47
  -1  -5  -4   11.89    0.76
  -1  -5  -4   11.68    0.62
  -1  -5  -4   11.03    0.63
  -1  -5  -4   11.90    0.64
  -1  -5  -4   11.39    0.63
  -1  -5  -4   12.40    0.78
  -1  -5  -4   11.42    0.62
   1   5   4   10.86    0.73
   1   5   4   10.40    0.65
   1   5   4   11.06    0.67
   1   5   4   11.04    0.92
   1   5   4   11.36    0.63
  -2  -5  -4    0.78    0.18
  -2  -5  -4    0.73    0.16
  -2  -5  -4    1.12    0.10
  -2  -5  -4    0.79    0.08
  -2  -5  -4    0.73    0.09
  -2  -5  -4    0.71    0.09
  -2  -5  -4    0.85    0.08
   2   5   4    0.72    0.15
   2   5   4    0.78    0.09
   2   5   4    0.70    0.11
   2   5   4    0.53    0.14
   2   5   4    1.03    0.09
   2   5   4    0.80    0.21
  -3  -5  -4    6.04    0.52
  -3  -5  -4    6.47    0.39
  -3  -5  -4    6.59    0.52
  -3  -5  -4    6.59    0.39
  -3  -5  -4    6.55    0.40
  -3  -5  -4    6.58    0.38
  -3  -5  -4    6.74    0.37
   3   5   4    6.41    0.39
   3   5   4    6.40    0.41
   3   5   4    6.09    0.65
   3   5   4    6.07    0.42
  -4  -5  -4   28.93    1.56
  -4  -5  -4   29.22    1.57
  -4  -5  -4   27.56    1.57
   4   5   4   27.19    1.58
   4   5   4   27.74    1.57
   4   5   4   28.69    1.76
   4   5   4   26.80    1.61
   4   5   4   29.85    1.66
   4   5   4   29.10    1.89
   4   5   4   29.18    1.56
   4   5   4   27.77    1.59
   4   5   4   29.24    1.60
  -5  -5  -4    0.19    1.34
  -5  -5  -4    1.29    3.91
  -5  -5  -4    2.40    1.67
  -5  -5  -4    0.83    0.14
  -5  -5  -4    0.36    0.23
  -5  -5  -4    0.60    0.19
   5   5   4    1.12    0.15
   5   5   4    0.90    0.19
   5   5   4    1.04    0.17
   5   5   4    0.82    0.13
   5   5   4    1.66    2.31
   5   5   4    0.81    0.17
   5   5   4    0.94    0.24
   5   5   4    1.43    0.36
  -6  -5  -4   24.60    1.34
  -6  -5  -4   21.79    1.31
  -6  -5  -4   24.05    1.39
  -6  -5  -4   23.34    1.30
  -6  -5  -4   21.73    1.29
   6   5   4   24.89    1.40
   6   5   4   22.58    1.57
   6   5   4   21.68    1.44
  -7  -5  -4    0.02    0.09
  -7  -5  -4    0.01    0.06
  -7  -5  -4    0.03    0.04
  -7  -5  -4    0.04    0.05
  -7  -5  -4    0.11    0.05
   7   5   4    0.07    0.12
   7   5   4    0.07    0.08
  -5   6   4    2.97    0.24
  -5   6   4    3.17    0.28
  -5   6   4    3.17    0.28
  -5   6   4    3.04    0.21
  -5   6   4    3.13    0.20
  -5   6   4    2.69    0.21
  -5   6   4    2.04    0.79
  -5   6   4    3.07    0.26
  -4   6   4    3.01    0.22
  -4   6   4    3.00    0.25
  -4   6   4    2.87    0.34
  -4   6   4    3.02    0.23
  -4   6   4    1.50    1.15
  -4   6   4    4.66    1.16
  -4   6   4    3.39    0.32
  -4   6   4    1.79    0.93
  -4   6   4    2.92    0.24
  -4   6   4    2.90    0.25
  -4   6   4    3.19    0.31
  -4   6   4    3.22    0.36
  -4   6   4    1.16    2.17
   3  -6  -4    6.64    0.41
   3  -6  -4    6.23    0.40
  -3   6   4    5.09    0.48
  -3   6   4    7.97    1.63
  -3   6   4    6.46    0.54
  -3   6   4    5.47    1.68
  -3   6   4    6.19    0.44
  -3   6   4    6.78    0.44
  -3   6   4    6.51    0.42
  -3   6   4    6.83    0.52
  -3   6   4    6.63    0.45
  -3   6   4    6.62    0.54
  -3   6   4    6.69    0.40
  -3   6   4    6.38    0.42
  -3   6   4    6.50    0.52
   2  -6  -4   18.60    0.99
   2  -6  -4   17.43    1.15
   2  -6  -4   17.32    0.99
   2  -6  -4   17.70    0.99
  -2   6   4   16.23    1.03
  -2   6   4   17.40    1.01
  -2   6   4   18.56    0.98
  -2   6   4   17.29    1.02
  -2   6   4   16.90    1.01
  -2   6   4   18.11    1.12
  -2   6   4   18.25    1.04
  -2   6   4   17.36    1.11
   1  -6  -4   12.41    0.68
   1  -6  -4   11.25    0.66
   1  -6  -4   12.54    0.69
   1  -6  -4   11.88    0.69
  -1   6   4   11.61    0.72
  -1   6   4   11.56    0.95
  -1   6   4   11.24    0.71
  -1   6   4   11.36    0.70
  -1   6   4   12.23    0.79
  -1   6   4   11.33    0.73
  -1   6   4   12.30    0.73
  -1   6   4   13.04    0.68
   0  -6  -4   21.58    1.14
   0  -6  -4   19.86    1.13
   0  -6  -4   21.07    1.14
   0  -6  -4   20.70    1.31
   0  -6  -4   21.21    1.12
   0  -6  -4   21.38    1.15
   0   6   4   19.76    1.25
   0   6   4   20.10    1.26
   0   6   4   20.61    1.19
   0   6   4   21.89    1.13
   0   6   4   19.61    1.48
  -1  -6  -4    2.51    0.30
  -1  -6  -4    2.74    0.19
  -1  -6  -4    2.65    0.29
  -1  -6  -4    2.79    0.19
  -1  -6  -4    2.78    0.19
  -1  -6  -4    2.71    0.17
  -1  -6  -4    2.60    0.18
   1   6   4    2.58    0.20
   1   6   4    2.38    0.38
   1   6   4    2.38    0.26
   1   6   4    2.71    0.23
   1   6   4    2.75    0.19
  -2  -6  -4    7.04    0.56
  -2  -6  -4    7.04    0.42
  -2  -6  -4    7.70    0.43
  -2  -6  -4    7.16    0.41
  -2  -6  -4    7.79    0.44
  -2  -6  -4    7.45    0.43
  -2  -6  -4    7.23    0.58
   2   6   4    7.17    0.47
   2   6   4    6.67    0.71
   2   6   4    5.43    0.52
   2   6   4    7.10    0.45
   2   6   4    6.84    0.53
   2   6   4    7.84    0.43
  -3  -6  -4   24.44    1.27
  -3  -6  -4   25.50    1.27
  -3  -6  -4   24.60    1.24
  -3  -6  -4   24.57    1.26
   3   6   4   19.47    1.34
   3   6   4   23.19    1.58
   3   6   4   20.98    1.40
   3   6   4   22.57    1.30
   3   6   4   22.95    1.28
   3   6   4   22.13    1.28
   3   6   4   23.24    1.58
   3   6   4   23.39    1.37
   3   6   4   20.68    1.44
   3   6   4   19.07    1.38
   3   6   4   23.20    1.32
   3   6   4   23.72    1.31
   3   6   4   24.21    1.26
  -4  -6  -4    0.33    1.28
  -4  -6  -4    2.01    0.19
  -4  -6  -4   -0.66    3.57
   4   6   4    2.13    0.20
   4   6   4    2.14    0.19
   4   6   4    1.98    0.27
   4   6   4    2.00    0.26
   4   6   4    2.08    0.18
   4   6   4    2.18    0.21
   4   6   4    2.04    0.17
   4   6   4    2.51    0.40
   4   6   4    2.06    0.33
   4   6   4    1.89    0.21
   4   6   4    2.43    0.48
  -5  -6  -4   17.00    1.26
   5   6   4   20.63    1.35
   5   6   4   19.59    1.17
   5   6   4   23.62    1.64
   5   6   4   20.65    1.29
   5   6   4   22.15    1.48
   5   6   4   22.17    1.46
   5   6   4   20.12    1.18
  -6  -6  -4    0.28    0.09
  -6  -6  -4    0.25    0.07
  -6  -6  -4   -1.12    2.71
  -6  -6  -4    0.29    0.15
  -6  -6  -4   -0.11    0.85
  -6  -6  -4   -0.01    0.11
  -6  -6  -4    0.28    0.08
   6   6   4   -0.59    1.92
   6   6   4    0.02    0.14
   6   6   4    0.25    0.14
   6   6   4    0.23    0.10
   6   6   4    0.01    0.13
  -7  -6  -4    7.33    0.42
  -7  -6  -4    7.29    0.43
  -7  -6  -4    7.31    0.47
  -7  -6  -4    8.18    0.43
   7   6   4    6.27    0.46
  -4   7   4    8.74    0.52
  -4   7   4    8.26    0.50
  -4   7   4    7.63    0.54
  -4   7   4    8.30    0.56
  -4   7   4    9.14    0.55
  -4   7   4    8.91    0.56
  -4   7   4    8.53    0.50
  -4   7   4    8.72    0.51
  -4   7   4    8.81    0.57
   3  -7  -4    7.48    1.80
  -3   7   4    5.99    0.42
  -3   7   4    6.98    0.48
  -3   7   4    6.16    0.40
  -3   7   4    6.11    0.49
  -3   7   4    5.57    1.69
  -3   7   4    6.30    0.42
  -3   7   4    6.23    0.40
  -3   7   4    5.97    0.47
  -3   7   4    6.00    0.41
  -3   7   4    6.57    0.48
  -3   7   4    7.04    1.33
  -2   7   4    0.81    2.04
   1  -7  -4    7.23    0.44
   1  -7  -4    7.45    0.45
   1  -7  -4    8.25    2.12
  -1   7   4    5.80    0.68
  -1   7   4    6.87    0.57
  -1   7   4    7.01    0.46
  -1   7   4    7.12    0.48
  -1   7   4    7.39    0.47
  -1   7   4    7.32    0.54
  -1   7   4    7.37    0.43
  -1   7   4    6.73    1.75
  -1   7   4    7.16    0.49
  -1   7   4    7.45    0.46
  -1   7   4    6.87    0.55
   0  -7  -4   26.31    1.43
   0  -7  -4   26.99    1.44
   0  -7  -4   25.24    1.44
   0  -7  -4   25.52    3.29
   0   7   4   24.47    1.76
   0   7   4   25.76    1.46
   0   7   4   24.88    1.59
   0   7   4   28.44    1.49
   0   7   4   25.75    1.49
   0   7   4   26.71    1.55
   0   7   4   27.87    1.43
   0   7   4   25.33    1.45
   0   7   4   25.75    1.47
  -1  -7  -4   27.31    1.45
  -1  -7  -4   25.65    1.46
  -1  -7  -4   27.92    1.46
   1   7   4   26.74    1.50
   1   7   4   26.15    1.56
   1   7   4   27.85    1.45
   1   7   4   26.64    1.51
   1   7   4   25.78    1.61
   1   7   4   25.62    1.49
   1   7   4   25.98    1.48
   1   7   4   25.45    1.47
  -2  -7  -4    0.03    0.05
  -2  -7  -4    0.21    0.07
  -2  -7  -4   -0.69    1.37
  -2  -7  -4   -0.01    0.04
   2   7   4    0.04    0.06
   2   7   4    0.69    2.07
   2   7   4   -0.01    0.13
   2   7   4   -0.05    0.17
   2   7   4    0.04    0.05
   2   7   4    0.07    0.07
   2   7   4    0.07    0.10
   2   7   4   -0.39    0.58
   2   7   4    0.02    0.12
   2   7   4    0.06    0.05
   2   7   4    0.12    0.05
   2   7   4   -0.08    0.15
   2   7   4   -0.29    0.47
   2   7   4   -0.02    0.15
   2   7   4   -0.01    0.41
   2   7   4    0.08    0.06
   2   7   4   -0.05    0.10
   2   7   4   -0.08    0.75
   2   7   4   -0.22    0.41
   2   7   4   -0.07    0.75
  -3  -7  -4    1.73    1.64
  -3  -7  -4   -0.91    3.46
  -3  -7  -4    2.71    0.20
  -3  -7  -4    2.62    0.21
  -3  -7  -4    3.06    0.20
   3   7   4    2.40    0.30
   3   7   4    2.09    0.34
   3   7   4    2.63    0.19
   3   7   4    2.40    0.27
   3   7   4    2.43    0.22
   3   7   4    2.69    0.24
   3   7   4    2.41    0.20
   3   7   4   -0.58    1.88
   3   7   4    2.23    0.45
   3   7   4    2.55    0.41
   3   7   4    2.57    0.21
   3   7   4    2.46    0.23
  -4  -7  -4    7.99    2.22
   4   7   4    6.37    0.51
   4   7   4    3.45    2.42
   4   7   4    7.96    0.72
  -5  -7  -4    1.67    0.18
  -5  -7  -4   -0.40    2.75
  -5  -7  -4    1.44    0.28
   5   7   4    0.09    2.25
   5   7   4    1.93    0.33
   5   7   4    2.10    0.30
   5   7   4    2.00    0.26
   5   7   4    1.90    0.18
   5   7   4    1.95    0.16
  -6  -7  -4    3.74    0.25
  -6  -7  -4    3.65    0.24
  -6  -7  -4    3.21    0.23
  -6  -7  -4    3.92    0.32
   6   7   4    3.70    0.35
   6   7   4    2.76    0.40
   3  -8  -4    0.17    1.93
  -3   8   4    0.03    0.64
  -3   8   4   -0.14    1.04
  -3   8   4   -0.08    0.35
  -3   8   4   -0.11    0.25
  -3   8   4   -0.13    0.97
  -2   8   4    3.76    0.32
  -2   8   4    4.34    0.34
  -2   8   4    3.95    0.27
  -2   8   4    4.29    0.33
  -2   8   4    4.02    0.34
  -2   8   4    4.05    0.28
  -2   8   4    4.01    0.28
  -2   8   4    4.02    0.30
  -1   8   4    6.91    0.51
  -1   8   4    6.86    0.53
  -1   8   4    6.96    0.43
  -1   8   4    6.85    0.44
  -1   8   4    6.93    0.43
  -1   8   4    4.60    1.39
  -1   8   4    7.25    0.52
  -1   8   4    6.58    0.45
  -1   8   4    6.74    0.45
   0  -8  -4    5.37    0.35
   0   8   4    4.93    1.36
   0   8   4    5.32    0.39
   0   8   4    5.24    0.36
   0   8   4    5.34    0.37
   0   8   4    5.40    0.36
   0   8   4    5.76    0.45
   0   8   4    5.31    0.38
   0   8   4    5.31    0.47
   0   8   4    5.55    0.44
  -1  -8  -4    9.51    0.56
  -1  -8  -4    7.76    2.56
   1   8   4    9.73    0.57
   1   8   4   10.10    0.85
   1   8   4   10.16    0.71
   1   8   4    7.92    0.63
   1   8   4    9.53    0.60
   1   8   4    9.27    0.59
   1   8   4    9.00    0.65
   1   8   4    9.18    0.58
   1   8   4    9.32    0.57
  -2  -8  -4    6.46    2.14
  -2  -8  -4    6.37    0.40
   2   8   4    6.37    0.41
   2   8   4    6.15    0.52
   2   8   4    5.86    0.42
   2   8   4    6.49    0.42
   2   8   4    6.87    0.65
   2   8   4    6.23    0.47
   2   8   4    6.40    0.40
   2   8   4    6.24    0.40
   2   8   4    6.27    0.52
   2   8   4    5.12    0.60
  -3  -8  -4   -0.41    3.35
   3   8   4    3.71    0.56
   3   8   4    4.68    0.43
   3   8   4    4.80    0.33
   3   8   4    4.91    0.52
   3   8   4    4.82    0.31
   3   8   4    4.90    0.43
   3   8   4    4.63    0.33
   3   8   4    4.54    0.31
   3   8   4    4.91    0.39
  -4  -8  -4    0.32    3.00
  -4  -8  -4    0.10    0.82
  -4  -8  -4    0.08    1.05
  -4  -8  -4   -0.23    0.13
   4   8   4    0.09    0.30
   4   8   4    0.17    0.17
   4   8   4    0.12    0.14
   4   8   4    0.28    0.07
   4   8   4    0.24    0.13
   4   8   4    0.22    0.06
   4   8   4    0.26    0.15
   4   8   4    0.26    0.07
   4   8   4   -1.17    2.03
  -5  -8  -4    1.50    1.88
   5   8   4    4.07    0.48
  -1   9   4    3.47    0.36
  -1   9   4    4.35    0.41
  -1   9   4    5.05    0.33
   0   9   4    5.92    0.55
   0   9   4    7.33    0.94
   0   9   4    6.37    0.47
   0   9   4    6.22    0.44
   0   9   4    6.03    0.38
   0   9   4    6.23    0.38
   0   9   4    5.79    0.38
   0   9   4    6.61    0.44
  -1  -9  -4   -0.37    2.49
   1   9   4    3.11    0.32
   1   9   4    3.44    0.24
   1   9   4    2.92    0.24
   1   9   4    3.45    0.23
   1   9   4    3.42    0.23
   1   9   4    3.70    0.29
   1   9   4    3.55    0.28
   1   9   4    3.18    0.38
  -2  -9  -4   -1.43    2.47
  -2  -9  -4   -0.28    0.84
  -2  -9  -4    0.07    0.73
   2   9   4    0.63    0.33
   2   9   4   -0.06    0.59
   2   9   4   -0.68    1.10
   2   9   4   -0.77    1.49
   2   9   4    0.17    0.37
   2   9   4    0.04    0.54
  -3  -9  -4   -0.03    0.54
  -3  -9  -4    0.10    0.79
  -3  -9  -4   -0.74    2.08
  -3  -9  -4   -0.14    0.66
   3   9   4    0.01    0.56
   3   9   4   -1.20    1.56
   3   9   4    0.00    0.30
   3   9   4    0.14    0.10
   3   9   4    0.10    0.11
   3   9   4    0.19    0.09
   3   9   4    0.04    0.14
   3   9   4    0.03    0.08
   3   9   4    0.18    0.05
  -4  -9  -4    0.37    0.13
  -4  -9  -4    0.15    1.99
  -4  -9  -4    0.17    0.05
   4   9   4    0.21    0.09
   4   9   4    0.24    0.12
   4   9   4    0.08    1.12
   1   7  -5    9.78    0.72
  -1  -7   5   10.07    0.67
   4   6  -5    0.03    0.07
   4   6  -5    0.03    0.08
   4   6  -5    0.02    0.10
  -4  -6   5   -0.19    0.91
  -4  -6   5    0.21    0.36
  -4  -6   5    0.09    0.11
  -4  -6   5    0.04    0.06
   3   6  -5   13.54    1.07
   3   6  -5   14.09    0.90
   3   6  -5   10.80    0.92
   3   6  -5   13.13    0.82
  -3  -6   5   12.48    0.80
  -3  -6   5   12.33    0.82
   2   6  -5    4.49    0.40
   2   6  -5    4.21    0.43
   2   6  -5    4.44    0.51
  -2  -6   5    4.07    1.22
  -2  -6   5    4.31    0.42
  -2  -6   5    3.71    0.37
   1   6  -5   24.70    1.52
  -1  -6   5   25.15    1.51
  -1  -6   5   25.22    2.42
  -1  -6   5   24.97    1.52
   0   6  -5   30.44    1.85
   0  -6   5   32.83    1.85
   0  -6   5   30.98    1.78
  -1   6  -5    4.33    0.37
  -1   6  -5    3.98    0.34
   1  -6   5    4.57    0.40
   1  -6   5    4.35    0.33
   1  -6   5    3.44    0.32
  -2   6  -5    4.77    0.35
   2  -6   5    3.32    0.31
   2  -6   5    3.96    0.25
   2  -6   5    3.73    0.32
   5   5  -5   -0.01    0.08
   5   5  -5    0.03    0.14
   5   5  -5    0.01    0.08
  -5  -5   5   -0.26    1.13
  -5  -5   5   -0.01    0.07
  -5  -5   5   -0.11    0.29
   4   5  -5    2.32    0.42
   4   5  -5    2.54    0.41
  -4  -5   5    0.21    1.49
  -4  -5   5    1.27    1.98
   3   5  -5    2.63    0.39
   3   5  -5    2.60    0.30
   3   5  -5    2.00    0.36
   3   5  -5    2.73    0.52
  -3  -5   5    2.25    0.35
  -3  -5   5    0.32    2.28
  -3  -5   5    3.12    1.11
  -3  -5   5    2.71    0.32
  -3  -5   5    2.86    0.31
   2   5  -5   31.59    1.91
   2   5  -5   32.08    2.00
   2   5  -5   32.86    2.27
   2   5  -5   33.86    2.13
  -2  -5   5   31.78    1.92
  -2  -5   5   30.84    1.88
  -2  -5   5   30.67    1.93
   1   5  -5   16.61    1.38
   1   5  -5   18.18    1.52
   1   5  -5   21.27    1.32
  -1  -5   5   17.95    1.19
  -1  -5   5   20.71    1.18
  -1  -5   5   22.15    1.27
  -1  -5   5   16.27    1.16
   0   5  -5    9.15    0.72
   0   5  -5   11.77    1.03
   0   5  -5   12.28    0.98
   0   5  -5    9.76    2.02
   0  -5   5   10.68    0.74
   0  -5   5   10.99    0.82
   0  -5   5   11.17    0.72
   0  -5   5    9.40    0.76
   0  -5   5    8.56    0.69
   0  -5   5   10.51    0.62
  -1   5  -5   57.41    3.12
  -1   5  -5   54.08    3.11
   1  -5   5   53.21    2.98
   1  -5   5   58.26    3.09
   1  -5   5   56.77    3.16
   1  -5   5   49.39    4.13
   1  -5   5   55.80    3.14
  -2   5  -5   -0.49    0.76
  -2   5  -5    0.03    0.13
  -2   5  -5    0.24    0.16
  -2   5  -5   -0.26    0.49
   2  -5   5    0.05    0.16
   2  -5   5   -0.12    0.17
   2  -5   5    0.08    0.11
   2  -5   5   -0.06    0.04
  -3   5  -5    7.28    0.65
  -4   5  -5   -0.08    0.30
  -4   5  -5   -0.27    1.27
  -4   5  -5    0.31    0.10
  -4   5  -5    0.10    0.10
   4  -5   5    0.22    0.07
   4  -5   5    0.27    0.05
   6   4  -5    1.02    0.14
  -6  -4   5    0.66    1.28
  -6  -4   5    0.39    0.40
  -6  -4   5    0.78    0.46
   5   4  -5   22.04    1.41
   5   4  -5   24.10    1.58
  -5  -4   5   24.68    1.39
  -5  -4   5   20.66    2.23
  -5  -4   5   22.15    1.36
   4   4  -5    4.04    0.57
   4   4  -5    3.69    0.46
   4   4  -5    1.33    2.42
  -4  -4   5    3.83    0.43
  -4  -4   5    4.12    0.40
  -4  -4   5    1.29    2.89
  -4  -4   5    3.80    0.35
  -4  -4   5    5.75    1.24
  -4  -4   5    3.72    0.41
  -4  -4   5    4.38    0.62
  -4  -4   5    3.89    0.39
   3   4  -5   31.33    1.95
   3   4  -5   29.58    1.99
   3   4  -5   31.23    2.17
  -3  -4   5   31.76    2.14
  -3  -4   5   29.16    1.83
  -3  -4   5   32.43    1.90
  -3  -4   5   29.83    1.84
  -3  -4   5   34.92    5.52
   2   4  -5   11.29    0.95
   2   4  -5    9.17    0.75
  -2  -4   5   10.35    0.70
  -2  -4   5    8.55    0.87
  -2  -4   5   10.73    0.80
  -2  -4   5   10.29    0.73
  -2  -4   5   10.11    0.71
  -2  -4   5   10.08    0.77
  -2  -4   5   10.32    1.20
  -1  -4   5   19.71    1.21
  -1  -4   5   20.29    1.23
  -1  -4   5   21.66    1.83
  -1  -4   5   18.34    1.10
  -1  -4   5   18.22    1.41
   0   4  -5   34.98    2.05
   0  -4   5   37.97    2.53
   0  -4   5   33.56    1.97
   0  -4   5   31.44    1.96
   0  -4   5   32.59    1.87
  -1   4  -5    6.11    0.54
  -1   4  -5    6.71    0.57
   1  -4   5    6.79    0.53
   1  -4   5    5.69    0.85
   1  -4   5    6.21    0.57
   1  -4   5    6.10    0.57
   1  -4   5    6.04    0.41
  -2   4  -5   25.47    1.66
  -2   4  -5   23.39    1.45
   2  -4   5   22.34    1.34
   2  -4   5   23.69    1.42
   2  -4   5   21.67    1.31
  -3   4  -5    0.82    0.23
  -3   4  -5   -1.03    2.04
  -3   4  -5    0.08    0.75
  -3   4  -5    0.64    0.28
   3  -4   5    0.72    0.12
   3  -4   5    0.86    0.14
   3  -4   5    0.66    0.26
   3  -4   5    0.85    0.19
  -4   4  -5    4.83    0.52
  -4   4  -5    1.71    2.44
  -4   4  -5    5.49    0.43
   4  -4   5    5.23    0.34
   4  -4   5    5.31    0.34
  -5   4  -5    3.09    0.68
  -5   4  -5    1.25    1.50
   5  -4   5    3.62    0.22
   6   3  -5    1.23    0.31
  -6  -3   5    0.39    1.69
  -6  -3   5   -0.22    1.27
  -5  -3   5   31.69    3.04
  -5  -3   5   31.54    2.01
  -5  -3   5   27.90    1.64
  -5  -3   5   29.84    1.76
  -5  -3   5   30.22    1.76
  -5  -3   5   28.80    1.74
  -5  -3   5   27.16    1.68
  -5  -3   5   28.13    1.71
   4   3  -5    0.31    0.20
   4   3  -5    0.25    0.06
   4   3  -5    0.97    3.32
   4   3  -5   -0.11    1.55
  -4  -3   5    1.36    0.91
  -4  -3   5    0.24    0.12
  -4  -3   5    0.48    0.23
  -4  -3   5    0.38    0.17
  -4  -3   5    0.43    0.15
  -4  -3   5    0.42    0.19
  -4  -3   5   -0.82    2.91
  -4  -3   5    0.23    0.11
  -4  -3   5    1.55    1.21
  -4  -3   5    0.48    0.27
  -4  -3   5    0.30    0.16
  -4  -3   5   -0.02    0.15
  -4  -3   5    0.33    0.10
  -4  -3   5   -0.14    1.73
   3   3  -5   13.59    0.80
   3   3  -5   13.89    0.81
  -3  -3   5   13.08    1.06
  -3  -3   5   13.08    0.81
  -3  -3   5   13.69    1.32
  -3  -3   5   15.94    1.25
  -3  -3   5   13.98    0.92
  -3  -3   5   14.71    0.97
  -3  -3   5   15.10    1.00
  -3  -3   5   14.41    0.90
   2   3  -5    6.45    0.59
   2   3  -5    6.42    0.39
   2   3  -5    6.39    0.39
  -2  -3   5    6.37    0.44
  -2  -3   5    5.33    0.64
  -2  -3   5    7.76    0.74
  -2  -3   5    6.01    0.40
   1   3  -5    0.03    0.09
   1   3  -5    0.17    0.06
   1   3  -5    0.13    0.05
   1   3  -5    0.08    1.68
   1   3  -5    0.18    0.06
  -1  -3   5    0.25    0.17
  -1  -3   5    0.27    0.14
  -1  -3   5    0.18    0.07
  -1  -3   5    0.27    0.14
   0   3  -5   20.87    1.54
   0   3  -5   20.03    1.11
   0   3  -5   21.52    1.14
   0  -3   5   22.47    1.16
   0  -3   5   17.51    1.18
   0  -3   5   18.10    1.31
  -1   3  -5    5.66    0.63
  -1   3  -5    5.15    0.34
   1  -3   5    4.49    0.38
   1  -3   5    4.27    0.48
  -2   3  -5   -0.05    2.20
  -2   3  -5    1.03    0.33
  -2   3  -5    2.01    1.14
  -2   3  -5    1.51    0.29
  -2   3  -5   -0.38    1.10
   2  -3   5    1.77    0.24
   2  -3   5    2.21    2.98
   2  -3   5    0.90    0.34
   2  -3   5    1.61    0.14
   2  -3   5    1.59    0.16
   2  -3   5    1.65    0.28
   2  -3   5    1.60    0.17
  -3   3  -5   36.61    2.17
  -3   3  -5   43.29    2.43
   3  -3   5   36.54    2.06
   3  -3   5   35.40    2.04
   3  -3   5   35.45    2.02
   3  -3   5   35.32    2.13
  -4   3  -5    0.69    2.97
  -4   3  -5    1.54    0.26
  -4   3  -5    2.92    1.30
  -4   3  -5    2.46    1.33
  -4   3  -5    1.71    0.36
   4  -3   5    1.69    0.16
   4  -3   5    1.11    0.21
   4  -3   5    1.59    0.15
   4  -3   5    1.51    0.17
  -5   3  -5   12.34    0.89
  -5   3  -5   12.09    0.72
   5  -3   5   11.58    0.65
   5  -3   5   11.19    0.66
   5  -3   5   11.60    0.68
   5  -3   5    9.71    0.70
   7   2  -5   11.08    0.65
   7   2  -5    8.78    0.64
   6   2  -5   33.70    1.90
  -6  -2   5   35.28    3.48
  -6  -2   5   34.49    1.88
  -6  -2   5   32.15    1.88
  -6  -2   5   34.34    1.90
  -6  -2   5   33.62    5.60
  -6  -2   5   31.19    1.78
  -6  -2   5   32.79    1.82
  -6  -2   5   32.35    1.79
  -6  -2   5   28.84    3.04
   5   2  -5   89.89    4.70
   5   2  -5   85.67    4.69
  -5  -2   5   84.41    6.31
  -5  -2   5   84.23    4.82
  -5  -2   5   90.11    4.77
  -5  -2   5   87.65    4.69
  -5  -2   5   89.86    4.75
  -5  -2   5   76.81    5.04
  -5  -2   5   85.63    4.70
  -5  -2   5   93.99    4.80
  -5  -2   5   86.34    4.70
  -5  -2   5   93.25    4.85
  -5  -2   5   94.25    4.84
  -5  -2   5   88.68    4.71
   4   2  -5   59.55    3.14
   4   2  -5   58.11    3.14
  -4  -2   5   56.79    3.14
  -4  -2   5   58.20    3.27
  -4  -2   5   64.47    3.27
  -4  -2   5   54.93    3.18
  -4  -2   5   61.76    3.31
  -4  -2   5   56.89    3.16
  -4  -2   5   56.52    3.13
  -4  -2   5   56.20    3.22
   3   2  -5  177.78    9.40
   3   2  -5  174.27    9.39
   3   2  -5  170.45    9.58
   3   2  -5  178.64    9.41
   3   2  -5  170.19    9.59
  -3  -2   5  171.41    9.65
  -3  -2   5  198.22    9.54
  -3  -2   5  185.03    9.42
  -3  -2   5  171.80    9.42
   2   2  -5    1.65    0.30
   2   2  -5    1.32    0.12
   2   2  -5    1.24    0.12
   2   2  -5    1.48    0.12
   2   2  -5    1.13    0.21
   2   2  -5   -0.20    1.17
   2   2  -5    1.11    0.11
   2   2  -5    1.20    0.12
  -2  -2   5    1.35    0.18
  -2  -2   5    1.51    0.13
  -2  -2   5    1.13    0.16
  -2  -2   5    1.21    0.23
   1   2  -5   11.57    0.64
   1   2  -5   11.93    0.65
   1   2  -5   11.43    0.65
   1   2  -5   11.79    0.66
   1   2  -5   12.27    0.68
   1   2  -5   11.68    0.64
   1   2  -5   11.97    0.84
  -1  -2   5   11.11    0.73
  -1  -2   5   11.66    0.76
  -1  -2   5   11.11    0.81
  -1  -2   5   11.82    0.68
  -1  -2   5    9.48    0.82
   0   2  -5    0.30    0.05
   0   2  -5    0.29    0.14
   0   2  -5    0.32    0.17
   0   2  -5    0.38    0.07
   0   2  -5    0.23    0.06
   0   2  -5   -0.40    1.18
   0   2  -5    0.26    0.05
   0   2  -5    0.22    0.07
   0  -2   5    0.30    0.11
   0  -2   5    0.18    0.10
   0  -2   5    0.16    0.05
   0  -2   5    0.24    0.08
   0  -2   5    0.05    0.12
   0  -2   5    0.21    0.15
   0  -2   5    0.12    0.07
  -1   2  -5    6.46    0.40
  -1   2  -5    6.18    0.37
  -1   2  -5    6.99    0.69
  -1   2  -5    6.48    0.38
  -1   2  -5    6.88    0.39
  -1   2  -5    5.27    0.61
  -1   2  -5    5.74    0.38
   1  -2   5    5.79    0.54
   1  -2   5    6.60    0.43
   1  -2   5    5.41    0.48
   1  -2   5    5.56    0.43
  -2   2  -5    5.76    0.37
  -2   2  -5    6.19    0.68
   2  -2   5    4.81    0.41
  -3   2  -5   15.06    1.10
   3  -2   5   13.09    0.77
   3  -2   5   13.85    0.80
   3  -2   5   12.69    0.78
   3  -2   5   11.54    1.00
   3  -2   5   12.93    0.86
  -4   2  -5   71.21    5.35
   4  -2   5   71.03    5.49
  -5   2  -5   11.16    1.81
  -6   2  -5    3.77    0.86
   7   1  -5   -0.09    1.56
   7   1  -5    1.40    0.20
  -7  -1   5    1.74    0.16
  -7  -1   5    1.15    0.12
  -7  -1   5    1.55    0.11
  -7  -1   5    1.04    0.53
  -7  -1   5    1.47    0.15
   6   1  -5    1.65    1.38
   6   1  -5   -0.37    2.66
   6   1  -5    0.24    0.16
  -6  -1   5    0.25    0.06
  -6  -1   5    0.20    0.14
  -6  -1   5    0.19    0.09
  -6  -1   5    0.22    0.08
  -6  -1   5   -0.29    2.12
  -6  -1   5    0.32    0.73
  -6  -1   5   -0.17    1.65
  -6  -1   5    0.26    0.07
  -6  -1   5    0.30    0.71
  -6  -1   5    0.33    0.14
  -6  -1   5    0.18    0.17
  -6  -1   5    0.08    0.56
  -6  -1   5    0.21    0.11
  -6  -1   5    0.17    0.11
   5   1  -5    5.54    0.35
   5   1  -5    4.72    0.34
   5   1  -5   -1.00    5.41
   5   1  -5    5.18    0.34
  -5  -1   5    5.38    0.40
  -5  -1   5    5.40    0.42
  -5  -1   5    5.32    0.37
  -5  -1   5    5.61    0.64
  -5  -1   5    5.18    0.35
  -5  -1   5    5.61    0.47
  -5  -1   5    5.80    0.47
  -5  -1   5    5.39    0.43
  -5  -1   5    5.30    0.34
  -5  -1   5    5.05    0.46
  -5  -1   5    5.29    0.35
   4   1  -5   33.36    1.80
   4   1  -5   31.86    1.77
   4   1  -5   34.70    1.80
  -4  -1   5   33.47    2.19
  -4  -1   5   33.31    1.94
  -4  -1   5   32.73    1.89
  -4  -1   5   31.28    1.81
  -4  -1   5   34.91    2.03
  -4  -1   5   30.69    1.84
  -4  -1   5   31.34    1.82
  -4  -1   5   32.44    1.92
  -4  -1   5   36.40    1.92
  -4  -1   5   33.67    1.99
  -4  -1   5   31.66    1.80
   3   1  -5    6.01    0.35
   3   1  -5    6.10    0.51
   3   1  -5    6.03    0.35
   3   1  -5    5.80    0.35
   3   1  -5    6.11    0.50
   3   1  -5    5.91    0.36
  -3  -1   5    5.95    0.44
  -3  -1   5    6.42    0.46
  -3  -1   5    6.04    0.38
  -3  -1   5    5.95    0.38
  -3  -1   5    4.94    0.52
   2   1  -5   41.00    2.24
   2   1  -5   37.71    2.05
   2   1  -5   38.14    2.05
   2   1  -5   37.07    2.05
   2   1  -5   37.52    2.22
   2   1  -5   38.78    2.06
  -2  -1   5   37.39    2.07
  -2  -1   5   38.54    2.11
  -2  -1   5   39.39    2.28
  -2  -1   5   38.22    2.07
  -2  -1   5   37.96    2.15
   1   1  -5    0.32    0.05
   1   1  -5    0.48    0.06
   1   1  -5    0.36    0.12
   1   1  -5    0.39    0.06
   1   1  -5    0.42    0.08
   1   1  -5    0.50    0.06
   1   1  -5    0.47    0.19
   1   1  -5    0.66    0.13
   1   1  -5    0.35    0.05
  -1  -1   5    0.36    0.09
  -1  -1   5    0.59    0.19
  -1  -1   5    0.41    0.08
  -1  -1   5    0.58    0.15
  -1  -1   5    0.31    0.11
  -1  -1   5    0.48    0.07
   0   1  -5   11.77    0.65
   0   1  -5   12.18    0.93
   0   1  -5   11.66    0.65
   0   1  -5   12.61    0.69
   0   1  -5   11.84    0.66
   0   1  -5   11.68    0.66
   0   1  -5   12.23    0.66
   0   1  -5   12.14    0.86
   0  -1   5   11.44    0.69
   0  -1   5   10.95    0.72
   0  -1   5   12.03    0.83
   0  -1   5   11.13    0.72
   0  -1   5   12.04    0.68
   0  -1   5   10.89    0.79
  -1   1  -5    1.09    0.11
  -1   1  -5    1.12    0.12
  -1   1  -5    1.22    0.28
  -1   1  -5    1.13    0.23
  -1   1  -5    0.96    0.10
  -1   1  -5    1.16    0.11
  -1   1  -5    1.11    0.11
  -1   1  -5    1.15    0.09
   1  -1   5    1.05    0.13
   1  -1   5    1.02    0.17
   1  -1   5    1.09    0.20
   1  -1   5    1.03    0.19
   1  -1   5    1.00    0.14
   1  -1   5    1.33    0.15
  -2   1  -5   24.02    1.29
  -2   1  -5   24.13    1.29
  -2   1  -5   25.15    1.29
  -2   1  -5   22.36    1.27
  -2   1  -5   23.28    1.27
  -2   1  -5   24.93    1.70
  -2   1  -5   24.70    1.31
   2  -1   5   20.94    1.35
   2  -1   5   23.20    1.43
   2  -1   5   23.76    1.31
   2  -1   5   21.64    1.43
  -3   1  -5    8.69    0.59
  -3   1  -5    9.05    0.85
  -3   1  -5   10.76    2.12
   3  -1   5    7.03    0.61
   3  -1   5    6.70    0.54
  -4   1  -5   13.74    2.07
   4  -1   5   15.01    2.56
   4  -1   5   15.79    3.18
  -5   1  -5    1.29    0.34
  -5   1  -5    1.52    0.20
   5  -1   5    2.34    2.54
   5  -1   5    0.89    0.13
   5  -1   5    0.94    0.15
   5  -1   5    1.01    0.16
  -6   1  -5    2.24    0.96
  -7   1  -5    0.31    0.08
  -7   1  -5    0.36    0.07
   7  -1   5    0.37    0.06
   7   0  -5    0.06    0.09
   7   0  -5   -0.54    1.66
   7   0  -5    0.37    0.09
  -7   0   5    0.14    0.07
  -7   0   5   -0.05    0.32
  -7   0   5   -0.51    0.99
  -7   0   5   -0.69    1.59
  -7   0   5    0.31    0.07
  -7   0   5    0.08    0.39
  -7   0   5    0.38    0.44
  -7   0   5    0.22    0.05
  -7   0   5    0.22    0.07
  -7   0   5    0.12    0.16
  -7   0   5   -0.25    0.39
  -7   0   5    0.20    0.05
   6   0  -5    3.67    0.27
   6   0  -5    1.14    2.89
  -6   0   5    4.07    0.40
  -6   0   5    4.33    0.40
  -6   0   5    3.91    0.31
  -6   0   5    5.94    1.40
  -6   0   5    4.18    0.30
  -6   0   5    4.33    0.34
  -6   0   5    2.85    1.06
  -6   0   5    4.20    0.38
  -6   0   5    1.00    2.48
  -6   0   5    4.17    0.29
  -6   0   5    4.52    0.28
  -6   0   5    3.79    0.36
   5   0  -5   28.36    1.52
   5   0  -5   26.02    1.52
   5   0  -5   27.34    1.52
  -5   0   5   26.65    1.53
  -5   0   5   30.01    1.70
  -5   0   5   27.51    1.52
  -5   0   5   26.91    1.63
  -5   0   5   28.85    1.66
  -5   0   5   28.15    1.63
  -5   0   5   27.34    1.52
  -5   0   5   27.26    1.55
  -5   0   5   27.52    1.61
  -5   0   5   28.32    1.69
  -5   0   5   26.84    1.57
   4   0  -5    4.72    0.30
   4   0  -5    4.91    0.31
   4   0  -5    5.16    0.31
   4   0  -5    4.87    0.29
  -4   0   5    4.73    0.34
  -4   0   5    4.65    0.33
  -4   0   5    5.16    0.42
  -4   0   5    4.84    0.40
  -4   0   5    4.70    0.41
  -4   0   5    4.38    0.32
   3   0  -5   49.59    2.74
   3   0  -5   53.39    2.73
   3   0  -5   49.33    2.88
   3   0  -5   50.84    2.73
   3   0  -5   51.92    2.74
   3   0  -5   52.76    2.94
  -3   0   5   48.84    2.98
  -3   0   5   50.55    2.77
  -3   0   5   51.07    2.84
  -3   0   5   55.27    2.87
   2   0  -5   10.01    0.56
   2   0  -5   10.62    0.72
   2   0  -5   10.37    0.57
   2   0  -5   10.11    0.56
  -2   0   5    9.91    0.62
  -2   0   5   10.45    0.76
  -2   0   5   10.60    0.66
  -2   0   5   10.39    0.74
  -2   0   5   10.18    0.59
  -2   0   5   10.10    0.65
   1   0  -5   34.71    1.81
   1   0  -5   33.89    1.82
   1   0  -5   34.85    1.89
   1   0  -5   33.04    1.84
   1   0  -5   35.87    1.81
   1   0  -5   30.95    1.81
  -1   0   5   37.19    2.02
  -1   0   5   32.56    1.83
  -1   0   5   36.46    1.91
  -1   0   5   33.49    1.99
  -1   0   5   32.83    1.89
  -1   0   5   33.86    1.86
  -1   0   5   33.40    1.90
   0   0  -5   23.87    1.33
   0   0  -5   24.61    1.30
   0   0  -5   24.89    1.30
   0   0  -5   24.62    1.31
   0   0  -5   21.70    1.49
   0   0  -5   23.33    1.30
   0   0   5   21.42    1.30
   0   0   5   24.74    1.46
   0   0   5   25.07    1.38
   0   0   5   25.05    1.38
   0   0   5   25.55    1.46
   0   0   5   26.53    1.46
  -1   0  -5   11.95    0.73
  -1   0  -5   12.98    0.73
  -1   0  -5   13.30    0.76
  -1   0  -5   13.74    0.73
  -1   0  -5   14.46    0.73
  -1   0  -5   13.29    0.74
  -1   0  -5   12.09    0.93
   1   0   5   13.85    0.80
   1   0   5   12.25    0.87
   1   0   5   13.48    0.74
   1   0   5   13.81    0.81
   1   0   5   14.50    0.88
   1   0   5   13.49    0.87
  -2   0  -5  181.18    9.25
  -2   0  -5  179.82    9.27
  -2   0  -5  183.23    9.25
  -2   0  -5  186.66    9.27
  -2   0  -5  161.10    9.50
  -2   0  -5  181.80    9.29
  -2   0  -5  149.40    9.34
  -2   0  -5  175.05    9.27
  -2   0  -5  150.75    9.62
   2   0   5  179.18    9.34
   2   0   5  184.86    9.34
   2   0   5  178.42    9.43
   2   0   5  184.94    9.28
  -3   0  -5    2.13    0.17
  -3   0  -5    1.98    0.16
  -3   0  -5    1.72    0.37
  -3   0  -5    0.38    1.10
  -3   0  -5    1.68    0.16
  -3   0  -5    1.91    0.14
  -3   0  -5    2.03    0.16
  -3   0  -5    1.98    0.23
   3   0   5    1.86    0.20
   3   0   5    1.85    0.25
   3   0   5    1.55    0.26
   3   0   5    1.94    0.20
  -4   0  -5   51.98    2.61
  -4   0  -5   47.85    2.90
   4   0   5   45.63    2.47
   4   0   5   41.07    2.51
   4   0   5   38.82    2.60
  -5   0  -5    1.24    2.63
  -5   0  -5    3.32    3.99
  -5   0  -5    0.12    0.11
  -5   0  -5    0.30    0.97
  -5   0  -5    0.01    0.11
   5   0   5   -0.03    0.10
   5   0   5    0.10    0.06
   5   0   5    1.35    2.65
   5   0   5    0.04    0.07
   5   0   5    0.21    0.31
   5   0   5    0.07    0.06
  -6   0  -5   57.29    4.26
  -7   0  -5    1.09    0.09
  -7   0  -5    0.98    0.15
  -7   0  -5    0.91    0.13
   7   0   5    0.91    0.13
   7   0   5    0.78    0.09
   7   0   5    0.81    0.09
  -7   1   5   15.88    0.88
  -7   1   5   16.13    1.96
  -7   1   5   16.13    0.92
  -7   1   5   14.48    0.96
  -7   1   5   16.16    0.89
  -7   1   5   15.66    0.94
  -7   1   5   17.51    0.90
  -7   1   5   15.16    0.93
  -7   1   5   18.76    1.96
  -6   1   5    8.90    0.58
  -6   1   5    9.46    0.55
  -6   1   5    9.78    0.63
  -6   1   5    9.40    0.57
  -6   1   5    9.51    0.65
  -6   1   5    8.37    1.65
  -6   1   5    9.75    0.69
  -6   1   5    8.41    1.70
  -6   1   5    8.79    0.62
  -6   1   5    9.40    0.56
  -6   1   5    9.12    0.67
   5  -1  -5   27.82    1.53
   5  -1  -5   29.36    1.53
   5  -1  -5   26.57    1.53
  -5   1   5   28.51    1.66
  -5   1   5   26.39    1.58
  -5   1   5   27.72    1.69
  -5   1   5   28.98    1.67
  -5   1   5   27.20    1.56
  -5   1   5   28.33    1.64
  -5   1   5   27.57    1.55
  -5   1   5   26.85    1.70
  -5   1   5   27.87    1.53
  -5   1   5   28.35    1.54
  -5   1   5   28.87    1.63
   4  -1  -5   13.43    0.72
   4  -1  -5   12.56    0.70
   4  -1  -5   13.47    0.73
   4  -1  -5   13.62    0.72
   4  -1  -5   10.00    1.08
  -4   1   5   12.41    0.81
  -4   1   5   13.72    0.75
  -4   1   5   12.09    0.82
  -4   1   5   12.38    0.75
  -4   1   5   13.15    0.73
  -4   1   5   12.95    0.83
  -4   1   5   12.72    1.04
  -4   1   5   12.84    0.83
  -4   1   5   12.66    0.76
   3  -1  -5  130.00    6.76
   3  -1  -5  129.13    6.75
   3  -1  -5  129.30    6.87
   3  -1  -5  129.33    6.94
   3  -1  -5  127.53    6.74
  -3   1   5  126.48    7.00
  -3   1   5  132.18    6.87
  -3   1   5  125.35    6.78
  -3   1   5  125.42    6.86
  -3   1   5  121.84    6.85
   2  -1  -5    7.05    0.48
   2  -1  -5    7.30    0.40
   2  -1  -5    6.63    0.53
   2  -1  -5    7.52    0.55
   2  -1  -5    7.61    0.40
   2  -1  -5    7.28    0.40
  -2   1   5    7.28    0.49
  -2   1   5    8.11    0.61
  -2   1   5    7.47    0.49
  -2   1   5    7.01    0.46
  -2   1   5    7.22    0.43
   1  -1  -5  415.47   20.56
   1  -1  -5  412.35   20.57
   1  -1  -5  393.59   20.61
  -1   1   5  379.32   20.62
  -1   1   5  386.37   20.71
  -1   1   5  354.73   20.57
  -1   1   5  402.63   20.71
  -1   1   5  398.36   20.62
  -1   1   5  352.94   20.60
  -1   1   5  401.56   20.69
   0  -1  -5    0.61    0.17
   0  -1  -5    0.68    0.05
   0  -1  -5    0.65    0.05
   0  -1  -5    0.63    0.05
   0  -1  -5    0.41    0.17
   0   1   5    0.68    0.10
   0   1   5    0.75    0.14
   0   1   5    0.72    0.13
   0   1   5    0.78    0.16
   0   1   5    0.67    0.08
   0   1   5    0.91    0.11
  -1  -1  -5   53.70    2.67
  -1  -1  -5   47.87    2.89
  -1  -1  -5   54.47    2.67
  -1  -1  -5   44.11    2.68
  -1  -1  -5   41.24    2.67
   1   1   5   54.76    2.71
   1   1   5   57.15    2.84
  -2  -1  -5   16.50    1.05
  -2  -1  -5   19.84    1.05
  -2  -1  -5   18.06    1.27
  -2  -1  -5   17.15    1.06
  -2  -1  -5   19.42    1.05
   2   1   5   20.68    1.13
   2   1   5   20.57    1.08
   2   1   5   19.89    1.20
   2   1   5   21.82    1.13
   2   1   5   21.18    1.20
   2   1   5   18.01    1.05
  -3  -1  -5    0.57    0.09
  -3  -1  -5    0.48    0.23
  -3  -1  -5    0.77    0.10
  -3  -1  -5    0.60    0.08
  -3  -1  -5    0.49    0.14
  -3  -1  -5    0.50    0.20
  -3  -1  -5    0.61    0.08
  -3  -1  -5    0.74    0.10
  -3  -1  -5    1.31    1.89
   3   1   5    0.74    0.11
   3   1   5    0.68    0.11
   3   1   5    0.79    0.18
   3   1   5    0.70    0.10
   3   1   5    0.67    0.16
  -4  -1  -5   23.12    1.19
  -4  -1  -5   19.00    1.54
  -4  -1  -5   20.47    1.31
   4   1   5   22.75    1.20
   4   1   5   20.86    1.35
   5   1   5    2.85    2.32
   5   1   5    1.79    1.02
   5   1   5    0.53    2.82
  -6  -1  -5   16.15    1.99
  -7  -1  -5    3.07    0.21
  -7  -1  -5    3.22    0.26
  -7  -1  -5    3.23    0.24
   7   1   5    2.76    0.28
   7   1   5    2.88    0.24
   7   1   5    2.75    0.20
   7  -2  -5    1.65    1.31
  -7   2   5    1.87    0.17
  -7   2   5    2.13    0.63
  -7   2   5    1.33    0.12
  -7   2   5    1.72    0.23
  -6   2   5    9.54    0.67
  -6   2   5    9.16    0.55
  -6   2   5    9.60    0.68
  -6   2   5    9.24    0.54
  -6   2   5    9.32    0.62
  -6   2   5    8.97    0.63
  -6   2   5    8.90    0.62
  -6   2   5    9.30    0.57
   5  -2  -5   27.66    1.53
   5  -2  -5   26.45    1.52
  -5   2   5   28.37    1.63
  -5   2   5   28.73    1.70
  -5   2   5   28.61    1.64
  -5   2   5   36.45    6.62
  -5   2   5   28.06    1.55
  -5   2   5   27.75    1.56
  -5   2   5   27.50    1.63
  -5   2   5   26.91    1.65
  -5   2   5   28.46    1.69
  -5   2   5   27.13    1.53
  -5   2   5   27.42    1.53
   4  -2  -5    3.73    0.24
   4  -2  -5    3.97    0.26
   4  -2  -5    4.20    0.26
   4  -2  -5    4.28    0.26
  -4   2   5    3.76    0.40
  -4   2   5    4.03    0.28
  -4   2   5    3.42    0.39
  -4   2   5    3.92    0.27
  -4   2   5    4.12    0.26
  -4   2   5    3.96    0.29
  -4   2   5    4.12    0.37
  -4   2   5    3.98    0.36
   3  -2  -5   48.99    2.77
   3  -2  -5   48.63    2.65
   3  -2  -5   50.04    2.65
   3  -2  -5   50.57    2.64
   3  -2  -5   51.38    2.66
  -3   2   5   49.44    2.91
  -3   2   5   50.22    2.77
  -3   2   5   48.13    2.69
  -3   2   5   51.18    2.77
   2  -2  -5   51.06    2.60
   2  -2  -5   51.88    2.60
   2  -2  -5   48.96    2.75
  -2   2   5   48.06    2.70
  -2   2   5   47.72    2.69
  -2   2   5   47.91    2.67
  -2   2   5   50.37    2.70
  -2   2   5   49.97    2.64
  -2   2   5   46.13    2.81
   1  -2  -5   89.20    4.62
  -1   2   5   79.05    4.70
  -1   2   5   85.47    4.70
  -1   2   5   86.93    4.57
  -1   2   5   85.44    4.68
  -1   2   5   86.29    4.60
  -1   2   5   90.28    4.63
   0  -2  -5   19.58    1.07
   0  -2  -5   17.46    1.17
   0  -2  -5   18.65    0.97
   0   2   5   18.91    1.12
   0   2   5   19.28    1.05
   0   2   5   20.02    1.05
   0   2   5   16.61    1.01
   0   2   5   15.79    1.21
  -1  -2  -5   99.24    5.42
  -1  -2  -5  104.45    5.66
  -1  -2  -5  103.94    5.42
  -1  -2  -5  106.80    5.53
  -1  -2  -5  104.76    5.41
   1   2   5   94.19    5.72
   1   2   5  104.69    5.56
   1   2   5   96.73    5.45
   1   2   5  104.49    5.56
   1   2   5  106.21    5.50
  -2  -2  -5   23.68    1.47
  -2  -2  -5   20.95    1.22
  -2  -2  -5   20.97    1.56
  -2  -2  -5   22.44    1.22
  -2  -2  -5   21.34    1.22
  -2  -2  -5   22.51    1.22
  -2  -2  -5   22.55    1.23
  -2  -2  -5   19.39    1.32
   2   2   5   22.52    1.22
   2   2   5   24.69    1.26
   2   2   5   25.68    1.38
   2   2   5   24.17    1.30
   2   2   5   24.04    1.37
  -3  -2  -5   21.87    1.15
  -3  -2  -5   22.27    1.15
  -3  -2  -5   19.16    1.16
  -3  -2  -5   21.15    1.40
  -3  -2  -5   18.05    1.16
  -3  -2  -5   17.30    1.48
  -3  -2  -5   20.64    1.17
   3   2   5   23.30    1.18
   3   2   5   22.09    1.24
   3   2   5   22.80    1.16
   3   2   5   23.46    1.32
  -4  -2  -5    7.91    0.88
  -4  -2  -5   10.25    0.59
  -4  -2  -5   10.72    0.60
  -4  -2  -5    9.36    0.59
   4   2   5   11.01    0.75
   4   2   5   10.19    0.74
   4   2   5   10.90    0.61
   5   2   5   16.17    5.77
   5   2   5    9.53    1.50
  -6  -2  -5    4.69    0.32
  -6  -2  -5    4.78    0.32
  -6  -2  -5    4.58    0.39
  -6  -2  -5    4.74    0.36
   6   2   5    4.13    0.52
   6   2   5    4.56    0.35
   6   2   5    4.10    0.39
   6   2   5    4.48    0.42
  -7  -2  -5    1.32    0.13
  -7  -2  -5    1.36    0.16
  -7  -2  -5    1.49    0.18
  -7  -2  -5    1.42    0.13
   7   2   5    1.12    0.14
   7   2   5    1.48    0.21
   7   2   5    1.08    0.17
   6  -3  -5    1.95    2.59
  -6   3   5    2.75    0.27
  -6   3   5    2.69    0.30
  -6   3   5    2.62    0.27
  -6   3   5    2.78    0.20
  -6   3   5    2.88    0.21
  -6   3   5    2.91    0.21
  -6   3   5    3.15    0.32
  -6   3   5    0.57    1.47
  -6   3   5    2.77    0.26
   5  -3  -5    9.87    0.58
  -5   3   5    9.67    0.72
  -5   3   5    9.95    0.59
  -5   3   5   11.45    4.61
  -5   3   5    7.55    1.71
  -5   3   5   10.16    0.61
  -5   3   5    9.35    0.67
  -5   3   5   10.31    0.74
  -5   3   5   10.81    0.68
  -5   3   5    9.76    0.69
  -5   3   5   10.31    0.60
  -5   3   5   10.09    0.70
   4  -3  -5   33.49    1.81
   4  -3  -5   33.86    1.81
   4  -3  -5   32.54    1.81
  -4   3   5   32.83    1.92
  -4   3   5   35.91    1.98
  -4   3   5   33.52    1.84
  -4   3   5   31.74    1.83
  -4   3   5   33.32    1.81
  -4   3   5   35.62    1.95
  -4   3   5   33.30    1.99
  -4   3   5   31.60    1.84
   3  -3  -5   29.08    1.53
   3  -3  -5   26.57    1.52
   3  -3  -5   29.67    1.54
   3  -3  -5   28.27    1.52
  -3   3   5   27.65    1.57
  -3   3   5   30.30    1.66
  -3   3   5   27.97    1.65
   2  -3  -5   74.39    3.94
   2  -3  -5   72.73    3.95
  -2   3   5   74.53    4.06
  -2   3   5   74.38    4.06
  -2   3   5   77.49    3.99
  -1   3   5   34.42    1.86
  -1   3   5   32.55    1.81
   0  -3  -5   22.93    1.36
   0  -3  -5   24.31    1.17
   0   3   5   20.42    1.21
   0   3   5   23.42    1.26
   0   3   5   19.27    1.35
   0   3   5   21.11    1.46
   0   3   5   22.95    1.28
  -1  -3  -5    3.89    0.36
  -1  -3  -5    3.92    0.21
  -1  -3  -5    4.24    0.33
  -1  -3  -5    3.80    0.30
  -1  -3  -5    3.95    0.21
  -1  -3  -5    4.11    0.21
   1   3   5    3.40    0.32
   1   3   5    3.54    0.31
   1   3   5    3.79    0.45
   1   3   5    3.34    0.25
   1   3   5    3.31    0.37
  -2  -3  -5    4.24    0.24
  -2  -3  -5    4.20    0.41
  -2  -3  -5    4.30    0.25
  -2  -3  -5    4.22    0.25
  -2  -3  -5    4.38    0.24
  -2  -3  -5    4.28    0.35
  -2  -3  -5    4.13    0.25
  -2  -3  -5    3.98    0.34
   2   3   5    4.05    0.25
   2   3   5    4.01    0.30
   2   3   5    4.00    0.28
   2   3   5    3.72    0.40
   2   3   5    4.14    0.49
  -3  -3  -5    0.06    0.04
  -3  -3  -5    0.13    0.06
  -3  -3  -5    0.07    0.05
  -3  -3  -5    0.01    0.09
  -3  -3  -5    0.07    0.07
  -3  -3  -5    0.05    0.15
  -3  -3  -5    0.13    0.06
  -3  -3  -5    0.10    0.05
  -3  -3  -5    0.13    0.11
   3   3   5    0.04    0.04
   3   3   5    0.07    0.08
   3   3   5    0.11    0.07
   3   3   5    0.22    0.06
  -4  -3  -5   15.80    1.00
  -4  -3  -5   18.68    0.98
  -4  -3  -5   18.76    0.98
  -4  -3  -5   14.37    1.32
  -4  -3  -5   16.63    1.00
  -4  -3  -5   18.50    1.01
   4   3   5   20.06    1.02
   4   3   5   20.35    1.17
   4   3   5   16.75    1.14
  -5  -3  -5   10.27    0.74
  -5  -3  -5   12.65    0.78
   5   3   5   13.73    0.85
   5   3   5   11.40    0.74
   5   3   5   13.28    0.85
   5   3   5   12.09    0.79
   5   3   5   12.92    1.03
   5   3   5   12.56    0.84
   5   3   5   13.39    0.77
  -6  -3  -5    0.07    0.06
  -6  -3  -5   -0.03    0.15
  -6  -3  -5    0.05    0.06
  -6  -3  -5    0.06    0.09
  -6  -3  -5   -0.09    0.13
  -6  -3  -5   -0.30    2.68
   6   3   5    0.09    0.15
   6   3   5   -1.02    2.29
   6   3   5    0.10    0.14
   6   3   5    0.05    0.05
   6   3   5    0.00    0.09
   6   3   5    0.09    0.10
  -7  -3  -5    7.13    0.41
  -7  -3  -5    6.72    0.42
  -7  -3  -5    7.14    0.42
   7   3   5    6.32    0.48
   7   3   5    5.83    0.46
   7   3   5    6.34    0.42
   6  -4  -5    1.94    1.76
  -6   4   5    0.55    0.11
  -6   4   5    0.88    0.18
  -6   4   5    0.08    0.46
  -6   4   5   -0.07    0.42
  -6   4   5    0.49    0.11
  -6   4   5    0.15    0.42
  -6   4   5    0.73    0.13
  -6   4   5    0.53    0.07
  -6   4   5    0.80    0.16
  -6   4   5    0.50    1.34
  -6   4   5    0.63    0.08
  -5   4   5    1.37    0.21
  -5   4   5    1.47    0.14
  -5   4   5    1.44    0.26
  -5   4   5    1.75    0.30
  -5   4   5    1.43    0.14
  -5   4   5    1.45    0.16
  -5   4   5    1.42    0.19
  -5   4   5    1.75    0.99
  -5   4   5    1.39    0.15
  -5   4   5    1.22    0.21
  -5   4   5    1.80    0.94
  -5   4   5    2.27    1.36
  -5   4   5   -0.12    1.42
   4  -4  -5   18.19    1.01
   4  -4  -5   17.95    1.01
  -4   4   5   19.13    1.19
  -4   4   5   18.07    1.05
  -4   4   5   18.72    1.06
  -4   4   5   18.07    1.01
  -4   4   5   18.56    1.13
  -4   4   5   18.43    1.11
  -4   4   5   19.09    1.16
  -4   4   5   16.81    1.17
  -4   4   5   18.23    1.04
  -4   4   5   18.07    1.04
  -4   4   5   18.32    1.14
   3  -4  -5   38.17    2.23
   3  -4  -5   43.24    2.25
   3  -4  -5   44.50    2.24
  -3   4   5   43.34    2.39
  -3   4   5   41.91    2.36
  -3   4   5   42.26    2.42
  -3   4   5   34.73    3.61
  -3   4   5   41.31    2.27
  -3   4   5   46.04    2.38
  -3   4   5   42.00    2.41
  -3   4   5   41.91    2.30
  -3   4   5   40.53    2.28
   2  -4  -5   63.70    3.62
   2  -4  -5   61.57    3.55
   2  -4  -5   66.92    3.55
  -2   4   5   71.22    3.68
  -2   4   5   76.32    3.71
  -2   4   5   65.31    3.67
  -2   4   5   65.04    3.61
   1  -4  -5   87.19    4.53
   1  -4  -5   81.68    4.53
  -1   4   5   85.53    4.64
  -1   4   5   92.54    4.65
  -1   4   5   85.85    4.65
  -1   4   5   82.14    4.59
   0  -4  -5   12.51    0.87
   0  -4  -5   12.51    0.65
   0  -4  -5   12.73    0.64
   0  -4  -5   12.13    0.77
   0   4   5   10.87    0.84
   0   4   5   11.71    0.95
   0   4   5   10.29    0.68
   0   4   5   12.48    0.77
   0   4   5   13.03    0.76
  -1  -4  -5    0.22    0.03
  -1  -4  -5    0.13    0.11
  -1  -4  -5    0.22    0.03
  -1  -4  -5    0.18    0.10
  -1  -4  -5    0.22    0.04
   1   4   5    0.16    0.09
   1   4   5    0.26    0.14
   1   4   5    0.21    0.05
   1   4   5    0.34    0.10
   1   4   5    0.21    0.08
  -2  -4  -5   12.05    0.77
  -2  -4  -5   11.91    0.64
  -2  -4  -5   11.83    0.64
  -2  -4  -5   12.21    0.65
  -2  -4  -5   12.21    0.63
  -2  -4  -5   11.90    0.78
  -2  -4  -5   12.07    0.64
  -2  -4  -5   11.05    0.85
   2   4   5   11.09    0.68
   2   4   5   11.63    0.97
   2   4   5   10.28    0.69
   2   4   5   10.94    0.77
   2   4   5   11.55    0.64
  -3  -4  -5    4.66    0.29
  -3  -4  -5    4.02    0.39
  -3  -4  -5    4.82    0.30
  -3  -4  -5    4.28    0.40
  -3  -4  -5    4.43    0.28
  -3  -4  -5    4.71    0.28
  -3  -4  -5    4.62    0.30
   3   4   5    4.75    0.29
   3   4   5    4.28    0.54
   3   4   5    4.75    0.31
   3   4   5    4.52    0.32
   3   4   5    4.71    0.41
  -4  -4  -5    0.33    0.18
  -4  -4  -5    0.43    0.08
  -4  -4  -5    0.39    0.07
  -4  -4  -5    0.42    0.16
  -4  -4  -5    0.30    0.23
  -4  -4  -5   -0.10    1.32
  -4  -4  -5    0.37    0.09
  -4  -4  -5    0.44    0.09
   4   4   5    0.46    0.10
   4   4   5    0.45    0.09
   4   4   5    0.22    0.16
   4   4   5    0.59    0.12
   4   4   5    1.74    0.84
   4   4   5    0.59    0.23
   4   4   5    0.42    0.09
   4   4   5    0.68    0.56
  -5  -4  -5    6.51    0.52
   5   4   5    7.87    0.75
   5   4   5    7.56    0.58
   5   4   5    7.13    0.49
   5   4   5    7.54    0.53
   5   4   5    7.99    0.59
   5   4   5    7.23    0.64
   5   4   5    7.98    0.85
   5   4   5    8.82    0.59
   5   4   5    7.33    0.49
  -6  -4  -5   11.67    0.72
  -6  -4  -5   11.93    0.74
  -6  -4  -5   13.03    0.76
   6   4   5   12.07    0.77
   6   4   5   11.83    0.81
   6   4   5   12.65    0.80
   6   4   5   12.10    0.81
  -7  -4  -5    3.10    0.24
  -7  -4  -5    3.27    0.23
  -7  -4  -5    3.36    0.23
   7   4   5    2.93    0.28
  -5   5   5    5.32    0.40
  -5   5   5    5.48    0.34
  -5   5   5    4.61    0.32
  -5   5   5    4.33    0.35
  -5   5   5    5.64    0.44
  -5   5   5    5.32    0.40
  -5   5   5    5.21    0.32
  -5   5   5    4.75    1.37
  -5   5   5    4.70    0.36
  -5   5   5    5.40    0.42
   4  -5  -5    0.02    0.04
  -4   5   5    0.17    0.63
  -4   5   5    0.02    0.69
  -4   5   5   -0.46    1.64
  -4   5   5    0.08    0.04
  -4   5   5   -0.11    0.57
  -4   5   5    0.03    0.04
  -4   5   5    0.05    0.05
  -4   5   5    0.10    0.10
  -4   5   5    0.00    0.57
  -4   5   5   -0.01    0.10
  -4   5   5    0.07    0.16
  -4   5   5    0.11    0.08
  -4   5   5   -0.03    0.67
  -4   5   5    0.00    0.14
  -4   5   5    0.08    0.10
   3  -5  -5   44.40    2.36
   3  -5  -5   42.37    2.35
   3  -5  -5   38.02    2.35
  -3   5   5   45.98    2.49
  -3   5   5   44.78    2.35
  -3   5   5   44.52    2.40
  -3   5   5   45.78    2.53
  -3   5   5   38.10    4.50
  -3   5   5   46.37    2.48
  -3   5   5   43.94    2.51
  -3   5   5   44.77    2.41
  -3   5   5   45.84    2.50
  -3   5   5   42.83    2.38
  -3   5   5   43.37    2.38
   2  -5  -5   31.39    1.69
   2  -5  -5   32.51    1.68
   2  -5  -5   27.87    1.66
  -2   5   5   31.50    1.72
  -2   5   5   31.56    1.73
  -2   5   5   28.12    1.80
  -2   5   5   31.98    1.71
  -2   5   5   33.34    1.80
  -2   5   5   33.69    1.74
  -2   5   5   29.59    1.73
   1  -5  -5   17.50    0.97
   1  -5  -5   18.79    0.98
   1  -5  -5   17.40    0.97
   1  -5  -5   17.72    1.15
  -1   5   5   18.84    1.04
  -1   5   5   17.36    1.09
  -1   5   5   18.45    1.11
   0  -5  -5   16.16    0.94
   0  -5  -5   17.79    0.92
   0  -5  -5   17.91    0.93
   0  -5  -5   17.67    1.08
   0  -5  -5   16.86    0.92
   0   5   5   16.95    1.05
   0   5   5   16.76    0.98
   0   5   5   16.73    1.27
   0   5   5   17.14    1.04
  -1  -5  -5    0.05    0.03
  -1  -5  -5   -0.06    0.08
  -1  -5  -5    0.03    0.03
  -1  -5  -5    0.22    0.04
  -1  -5  -5    0.04    0.03
   1   5   5    0.00    0.03
   1   5   5    0.05    0.07
   1   5   5    0.01    0.05
   1   5   5    0.07    0.05
  -2  -5  -5    2.25    0.16
  -2  -5  -5    2.12    0.27
  -2  -5  -5    2.24    0.16
  -2  -5  -5    2.23    0.14
  -2  -5  -5    2.14    0.14
  -2  -5  -5    2.28    0.16
  -2  -5  -5    1.94    0.26
   2   5   5    1.98    0.19
   2   5   5    2.22    0.16
   2   5   5    1.90    0.17
   2   5   5    2.13    0.36
  -3  -5  -5    0.69    0.18
  -3  -5  -5    0.36    0.07
  -3  -5  -5    0.07    1.01
  -3  -5  -5    0.24    0.07
  -3  -5  -5    0.33    0.07
  -3  -5  -5    0.37    0.06
  -3  -5  -5    0.17    0.12
  -3  -5  -5    0.34    0.06
   3   5   5    0.31    0.09
   3   5   5    0.28    0.06
   3   5   5    0.31    0.16
   3   5   5    0.31    0.10
   3   5   5    0.00    0.69
   3   5   5    0.28    0.07
  -4  -5  -5   15.27    0.86
  -4  -5  -5   15.08    0.84
  -4  -5  -5   12.76    0.92
  -4  -5  -5   15.06    0.87
  -4  -5  -5   14.41    0.87
   4   5   5   15.57    1.18
   4   5   5   15.28    0.97
   4   5   5   14.79    0.89
   4   5   5   15.80    0.86
   4   5   5   15.59    1.03
   4   5   5   15.38    1.16
   4   5   5   15.02    0.86
   4   5   5   16.38    1.32
   4   5   5   16.99    0.99
   4   5   5   15.76    0.90
   4   5   5   15.03    1.06
   4   5   5   15.31    0.92
   4   5   5   14.91    0.88
   4   5   5   12.62    0.99
  -5  -5  -5    4.81    3.99
  -5  -5  -5    5.17    0.42
   5   5   5    6.54    0.45
   5   5   5    6.69    0.60
   5   5   5    6.83    0.52
   5   5   5    7.36    0.53
   5   5   5    6.57    0.47
   5   5   5    7.66    0.82
   5   5   5    6.13    0.66
   5   5   5    6.51    0.43
   5   5   5    7.21    0.69
  -6  -5  -5    2.60    0.25
  -6  -5  -5    2.32    0.21
  -6  -5  -5    0.88    2.74
  -6  -5  -5    2.42    0.22
  -6  -5  -5    2.58    0.20
   6   5   5    2.41    0.33
   6   5   5    2.22    0.24
   6   5   5    2.49    0.28
   6   5   5    2.58    0.28
   6   5   5    1.83    2.27
  -7  -5  -5    4.30    0.26
  -7  -5  -5    4.19    0.27
   7   5   5    3.67    0.31
  -5   6   5    2.33    0.21
  -5   6   5    2.49    1.07
  -5   6   5    2.62    0.17
  -4   6   5    4.01    0.36
  -4   6   5    3.82    0.33
  -4   6   5    4.02    0.28
  -4   6   5    3.90    0.28
  -4   6   5    3.83    0.26
  -4   6   5    3.93    0.27
  -4   6   5    4.03    0.36
  -4   6   5    4.03    0.34
   3  -6  -5   -0.37    0.22
   3  -6  -5    0.07    0.04
  -3   6   5    0.00    0.05
  -3   6   5    0.05    0.06
  -3   6   5   -0.21    0.52
  -3   6   5    0.01    0.07
  -3   6   5   -0.03    0.56
  -3   6   5    0.04    0.64
  -3   6   5    0.00    0.11
  -3   6   5    0.02    0.09
  -3   6   5   -0.40    0.66
  -3   6   5    0.07    0.04
  -3   6   5   -0.11    0.48
  -3   6   5   -0.11    1.90
  -3   6   5    0.01    0.04
  -3   6   5   -0.02    0.12
  -3   6   5    0.00    0.08
   2  -6  -5   15.02    0.86
   2  -6  -5   13.22    0.85
   2  -6  -5   14.46    0.85
  -2   6   5   16.60    0.92
  -2   6   5   16.10    0.98
  -2   6   5   14.35    0.95
  -2   6   5   16.27    0.85
  -2   6   5   15.41    0.91
  -2   6   5   15.78    0.88
  -2   6   5   15.10    0.89
  -2   6   5   15.77    0.90
  -2   6   5   15.38    0.97
   1  -6  -5    4.68    0.30
   1  -6  -5    4.41    0.29
   1  -6  -5    4.64    0.29
  -1   6   5    4.99    0.40
  -1   6   5    4.04    0.50
  -1   6   5    4.60    0.31
  -1   6   5    5.06    0.40
  -1   6   5    4.65    0.33
  -1   6   5    4.95    0.35
  -1   6   5    4.50    1.82
  -1   6   5    4.70    0.32
  -1   6   5    4.57    0.34
  -1   6   5    4.84    0.29
   0  -6  -5   13.60    0.76
   0  -6  -5   13.12    0.74
   0  -6  -5   14.59    0.76
   0  -6  -5   13.66    0.76
   0   6   5   13.32    0.80
   0   6   5   14.36    0.75
   0   6   5   14.41    0.82
   0   6   5   13.50    1.06
   0   6   5   13.54    0.78
   0   6   5   13.52    0.79
   0   6   5   13.41    0.86
   0   6   5   11.26    0.88
   0   6   5   12.96    0.81
   0   6   5   13.60    0.87
  -1  -6  -5   11.08    0.59
  -1  -6  -5   10.73    0.58
  -1  -6  -5   10.91    0.60
  -1  -6  -5   11.08    0.60
   1   6   5   10.00    0.63
   1   6   5   10.08    0.70
   1   6   5    9.81    0.65
   1   6   5   10.00    0.61
   1   6   5   10.02    0.63
   1   6   5    8.91    0.72
   1   6   5   10.80    0.90
   1   6   5   11.25    0.59
   1   6   5   10.48    0.65
  -2  -6  -5    0.01    0.04
  -2  -6  -5    0.01    0.03
  -2  -6  -5    0.04    0.05
   2   6   5   -0.01    0.17
   2   6   5    0.02    0.11
   2   6   5    0.00    0.11
   2   6   5    0.07    0.07
   2   6   5   -0.05    0.11
   2   6   5   -0.90    1.95
   2   6   5    0.07    0.04
   2   6   5   -0.02    0.05
   2   6   5    0.08    0.12
   2   6   5    0.01    0.04
   2   6   5    0.05    0.04
   2   6   5   -0.29    0.58
   2   6   5    0.18    0.53
   2   6   5    0.11    0.04
   2   6   5    0.11    0.13
   2   6   5   -0.13    0.34
   2   6   5    0.09    0.07
   2   6   5   -0.22    0.40
  -3  -6  -5   18.25    0.97
  -3  -6  -5   18.39    0.97
  -3  -6  -5   17.72    0.97
   3   6   5   16.77    1.00
   3   6   5   17.01    1.02
   3   6   5   18.16    1.31
   3   6   5   16.69    1.05
   3   6   5   17.73    0.96
   3   6   5   17.67    1.08
   3   6   5   16.60    0.99
   3   6   5   16.77    0.97
   3   6   5   15.57    1.12
   3   6   5   17.29    1.01
   3   6   5   19.78    2.96
   3   6   5   14.40    1.13
  -4  -6  -5   11.67    0.77
  -4  -6  -5   12.75    0.77
  -4  -6  -5   12.96    0.77
   4   6   5   14.36    1.91
   4   6   5   13.72    1.06
   4   6   5   14.77    1.00
   4   6   5   13.39    0.82
   4   6   5   13.56    0.79
   4   6   5   12.71    0.85
   4   6   5   14.32    0.94
   4   6   5   13.39    0.78
   4   6   5   13.68    0.80
   4   6   5   13.26    0.76
   4   6   5   12.29    0.91
   4   6   5   13.82    0.88
   4   6   5   13.90    0.81
  -5  -6  -5    2.85    0.25
  -5  -6  -5    0.82    3.56
   5   6   5    3.78    0.47
   5   6   5    3.16    0.52
   5   6   5    3.36    0.27
   5   6   5    3.70    0.40
   5   6   5    3.93    0.49
   5   6   5    0.40    2.30
   5   6   5    3.67    0.38
   5   6   5    3.06    0.32
   5   6   5    3.50    0.26
   5   6   5    3.31    0.29
  -6  -6  -5    3.49    0.24
  -6  -6  -5    3.20    0.24
  -6  -6  -5    3.37    0.26
  -6  -6  -5    3.36    0.28
  -6  -6  -5    1.19    2.37
   6   6   5    3.23    0.35
   6   6   5    3.40    0.41
   6   6   5    3.43    0.29
  -7  -6  -5    0.47    0.07
  -7  -6  -5    0.54    0.08
   7   6   5    0.46    0.11
  -3   7   5   10.38    0.68
  -3   7   5   11.29    0.69
  -3   7   5    9.72    0.67
  -3   7   5   10.47    0.61
  -3   7   5   10.71    0.62
  -3   7   5   10.48    0.63
  -3   7   5   10.73    0.63
  -3   7   5   10.90    0.64
   2  -7  -5   29.22    1.83
  -2   7   5   34.94    1.86
  -2   7   5   36.04    1.88
  -2   7   5   28.12    3.85
  -2   7   5   34.35    1.88
  -2   7   5   34.50    1.86
  -2   7   5   31.24    1.92
  -2   7   5   36.00    1.85
  -2   7   5   37.10    1.94
   1  -7  -5   21.60    1.27
  -1   7   5   23.74    1.32
  -1   7   5   23.31    1.31
  -1   7   5   22.37    1.30
  -1   7   5   24.07    1.38
  -1   7   5   22.39    1.32
  -1   7   5   22.70    1.29
  -1   7   5   24.36    1.39
   0  -7  -5   22.47    1.23
   0  -7  -5   21.55    1.23
   0   7   5   23.02    1.22
   0   7   5   22.02    1.26
   0   7   5   23.31    1.35
   0   7   5   22.17    1.27
   0   7   5   20.57    1.38
   0   7   5   22.93    1.28
   0   7   5   22.44    1.25
   0   7   5   22.44    1.34
  -1  -7  -5   28.58    1.69
  -1  -7  -5   31.87    1.69
  -1  -7  -5   31.29    1.69
   1   7   5   29.19    1.85
   1   7   5   31.01    1.71
   1   7   5   31.48    1.81
   1   7   5   30.51    1.73
   1   7   5   30.07    1.74
   1   7   5   29.73    1.72
   1   7   5   32.49    1.74
   1   7   5   30.19    2.02
   1   7   5   31.91    1.68
   1   7   5   36.35    3.30
   1   7   5   31.69    1.80
  -2  -7  -5   41.90    2.36
  -2  -7  -5   43.62    2.35
  -2  -7  -5   46.33    2.36
   2   7   5   43.05    2.39
   2   7   5   43.23    2.40
   2   7   5   44.86    3.37
   2   7   5   44.25    2.46
   2   7   5   41.90    2.38
   2   7   5   41.86    2.52
   2   7   5   42.43    2.41
   2   7   5   44.81    2.71
   2   7   5   44.93    2.37
   2   7   5   43.85    2.47
  -3  -7  -5    0.08    1.41
  -3  -7  -5    0.54    0.10
  -3  -7  -5    0.60    0.09
   3   7   5    0.15    0.72
   3   7   5    0.99    0.32
   3   7   5    0.38    0.16
   3   7   5    0.52    0.17
   3   7   5    0.32    0.23
   3   7   5    0.17    2.16
   3   7   5    0.66    0.17
   3   7   5    0.75    0.18
   3   7   5    0.70    0.12
   3   7   5    0.67    0.10
   3   7   5    0.47    0.19
   3   7   5    0.92    0.58
   3   7   5    0.55    0.11
   3   7   5    0.76    0.13
   3   7   5    0.07    0.71
   3   7   5    0.44    0.55
   3   7   5    0.71    0.27
   3   7   5    0.60    0.10
  -4  -7  -5   10.27    0.68
  -4  -7  -5    9.69    0.75
   4   7   5   12.30    0.69
   4   7   5   10.86    0.81
   4   7   5   11.47    1.07
   4   7   5   12.49    0.77
   4   7   5   11.86    0.73
   4   7   5   12.77    0.99
   4   7   5   12.73    0.72
   4   7   5   12.29    0.70
   4   7   5   12.78    0.89
   4   7   5   13.36    0.85
   4   7   5   10.09    0.75
   4   7   5   12.95    1.45
   4   7   5   12.67    0.96
   4   7   5   10.69    1.61
  -5  -7  -5   -0.18    2.85
  -5  -7  -5    2.85    0.34
  -5  -7  -5    2.89    0.24
  -5  -7  -5    2.63    0.29
   5   7   5    3.82    0.44
   5   7   5    3.75    0.26
   5   7   5    3.80    0.25
   5   7   5    4.07    0.39
   5   7   5    3.12    0.33
  -6  -7  -5    0.75    0.09
  -6  -7  -5    0.79    0.10
  -6  -7  -5    0.77    0.09
  -6  -7  -5    0.75    0.13
   6   7   5    0.53    0.14
   6   7   5    0.52    0.19
   6   7   5   -0.26    1.13
   6   7   5    0.46    0.12
  -2   8   5    0.14    0.43
  -2   8   5    0.03    0.48
  -2   8   5   -0.18    1.61
  -2   8   5   -0.26    1.09
  -2   8   5    1.33    0.45
  -2   8   5    0.03    0.46
  -2   8   5   -0.02    0.50
  -1   8   5    2.56    0.37
  -1   8   5    2.98    0.25
  -1   8   5    3.48    0.86
  -1   8   5    3.67    1.26
  -1   8   5    0.54    1.76
  -1   8   5    2.86    0.22
  -1   8   5    2.56    0.27
  -1   8   5    3.10    0.28
  -1   8   5    3.07    0.21
  -1   8   5    2.83    0.23
  -1   8   5    2.89    0.22
   0   8   5   10.51    0.64
   0   8   5   10.57    0.61
   0   8   5    9.91    0.69
   0   8   5   10.65    0.87
   0   8   5   10.45    0.63
   0   8   5    9.84    0.73
   0   8   5   10.50    0.65
   0   8   5   10.59    0.62
   0   8   5   10.33    0.69
  -1  -8  -5    2.00    1.80
  -1  -8  -5    0.16    0.06
   1   8   5   -0.26    0.59
   1   8   5    0.27    0.07
   1   8   5    0.22    0.09
   1   8   5    0.14    0.18
   1   8   5    0.30    0.47
   1   8   5    0.06    0.52
   1   8   5    0.05    0.74
   1   8   5    0.28    0.13
   1   8   5    0.02    0.81
   1   8   5   -0.79    1.77
   1   8   5    0.19    0.06
   1   8   5   -0.03    0.12
   1   8   5    0.24    0.07
   1   8   5    0.20    0.14
   1   8   5    0.29    0.09
   1   8   5    0.02    0.59
  -2  -8  -5    1.67    0.16
   2   8   5    1.40    0.21
   2   8   5    1.55    0.25
   2   8   5    1.53    0.84
   2   8   5    2.05    0.18
   2   8   5    1.96    0.25
   2   8   5    1.45    0.30
   2   8   5    2.09    0.17
   2   8   5    1.35    0.24
   2   8   5    1.97    0.20
   2   8   5    1.81    0.36
   2   8   5   -0.06    1.73
   2   8   5    1.85    0.16
   2   8   5    1.85    0.18
  -3  -8  -5   -0.18    3.08
   3   8   5    4.71    0.33
   3   8   5    4.74    0.30
   3   8   5    4.49    0.41
   3   8   5    3.70    0.94
   3   8   5    4.75    0.42
   3   8   5    4.80    0.32
   3   8   5    3.14    0.71
   3   8   5    4.69    0.30
   3   8   5    4.68    0.32
   3   8   5    4.34    0.37
   3   8   5    3.83    0.49
   3   8   5    4.32    0.49
  -4  -8  -5    1.18    3.09
   4   8   5    6.17    0.43
   4   8   5    6.26    0.38
   4   8   5    6.28    0.51
   4   8   5    6.24    0.38
   4   8   5    6.08    0.39
   4   8   5    5.54    0.46
   4   8   5    6.29    0.49
  -5  -8  -5   -0.07    0.55
  -5  -8  -5    0.16    1.95
   5   8   5    0.08    0.11
   5   8   5   -1.06    1.34
   5   8   5    0.23    0.13
  -1   9   5    2.74    0.25
   0  -9  -5   -0.15    2.04
   0   9   5    0.50    0.45
   0   9   5   -0.20    1.19
   0   9   5   -0.03    0.47
   0   9   5    0.37    0.15
   0   9   5   -0.02    0.36
   0   9   5   -0.04    0.26
   0   9   5   -0.17    0.44
  -1  -9  -5   -0.45    2.03
   1   9   5    2.08    0.56
   1   9   5    1.19    0.19
   1   9   5    1.35    0.15
   1   9   5   -0.49    1.35
   1   9   5    1.33    0.12
   1   9   5    1.54    0.17
   1   9   5    1.08    0.16
   1   9   5    1.35    0.12
   1   9   5    1.04    0.22
   1   9   5    1.32    0.11
  -2  -9  -5    0.45    2.43
   2   9   5   -0.47    1.82
   2   9   5    0.01    1.22
   2   9   5    2.06    0.29
  -3  -9  -5    0.16    2.20
   3   9   5   -0.20    1.21
   3   9   5   -1.14    1.04
   3   9   5   -0.03    0.23
   3   9   5   -0.18    0.40
   3   9   5    0.11    0.09
  -4  -9  -5    0.23    2.13
   4   9   5    0.50    1.10
   4   9   5    0.56    0.14
  -3  -6   6    0.17    0.35
   2   6  -6    4.97    0.53
  -2  -6   6    6.00    0.88
  -2  -6   6    6.39    0.41
   1   6  -6    2.29    0.24
  -1  -6   6    2.14    0.24
  -1  -6   6    2.02    0.73
  -1  -6   6    2.16    0.20
  -1  -6   6    2.56    0.26
   0  -6   6    5.48    0.41
   1  -6   6    6.58    0.47
   3   5  -6    5.77    0.56
   3   5  -6    6.72    0.56
  -3  -5   6    6.75    0.47
  -3  -5   6    6.43    0.50
   2   5  -6    5.34    0.49
   2   5  -6    4.40    0.42
   2   5  -6    4.09    0.50
  -2  -5   6    4.82    0.45
  -2  -5   6    4.65    0.43
  -2  -5   6    4.10    0.37
   1   5  -6   62.14    3.36
   1   5  -6   57.46    3.38
   1   5  -6   59.21    3.54
  -1  -5   6   59.90    3.28
  -1  -5   6   59.02    3.34
   0   5  -6    6.19    0.50
   0  -5   6    5.34    0.42
   0  -5   6    5.80    0.48
   0  -5   6    5.89    0.50
   0  -5   6    4.21    1.02
   0  -5   6    4.25    0.40
   0  -5   6    5.66    0.35
  -1   5  -6   21.51    1.32
  -1   5  -6   25.26    1.32
   1  -5   6   19.98    1.30
   1  -5   6   23.64    1.21
   1  -5   6   18.20    1.29
  -2   5  -6    5.40    0.41
   2  -5   6    5.08    0.38
   2  -5   6    4.79    0.31
   2  -5   6    4.61    0.39
  -3   5  -6    0.93    0.70
   3  -5   6    0.56    0.11
   3  -5   6    0.65    0.07
   5   4  -6    2.76    0.37
  -5  -4   6    2.13    0.24
  -5  -4   6    2.98    0.25
   4   4  -6    1.85    0.30
   4   4  -6   -1.21    2.06
  -4  -4   6    1.83    0.39
  -4  -4   6    0.38    2.23
  -4  -4   6    1.86    0.25
  -4  -4   6    1.62    0.24
  -4  -4   6   -0.21    1.53
  -4  -4   6    1.58    0.27
  -4  -4   6    1.99    0.23
   3   4  -6    6.25    0.62
  -3  -4   6    7.09    0.49
  -3  -4   6    6.08    0.49
  -3  -4   6    6.87    0.46
  -3  -4   6    1.21    3.11
  -3  -4   6    4.97    0.50
   2   4  -6    2.03    0.39
   2   4  -6    1.44    0.28
   2   4  -6   -0.94    2.29
  -2  -4   6    1.91    0.45
  -2  -4   6   -0.68    2.96
  -2  -4   6    1.66    0.33
  -2  -4   6    1.90    0.16
  -2  -4   6    1.65    0.32
  -2  -4   6    2.38    0.45
  -2  -4   6    2.05    0.24
   1   4  -6   -0.16    2.39
   1   4  -6    0.26    0.21
  -1  -4   6    0.90    0.18
  -1  -4   6   -0.06    0.51
  -1  -4   6    0.96    0.25
  -1  -4   6    0.34    0.15
  -1  -4   6    1.42    0.60
  -1  -4   6    0.29    3.13
  -1  -4   6    0.60    0.15
  -1  -4   6    0.67    0.28
  -1  -4   6    0.80    0.11
   0   4  -6    2.19    0.36
   0   4  -6    2.87    1.27
   0   4  -6   -0.23    2.46
   0  -4   6    1.92    0.25
   0  -4   6    1.73    0.29
   0  -4   6   -0.67    3.33
   0  -4   6    1.38    0.34
   0  -4   6    1.98    0.17
   0  -4   6    2.58    0.66
   0  -4   6    1.96    0.31
   0  -4   6    2.68    0.65
  -1   4  -6    1.26    0.26
  -1   4  -6    1.09    0.25
   1  -4   6    1.41    0.14
   1  -4   6    1.18    0.21
   1  -4   6    0.50    0.41
   1  -4   6   -0.84    2.75
   1  -4   6    1.98    0.33
  -2   4  -6    0.33    0.20
  -2   4  -6    0.36    0.88
  -2   4  -6    0.30    0.14
  -2   4  -6    0.45    0.21
   2  -4   6    0.44    0.09
   2  -4   6    0.52    0.15
   2  -4   6    0.64    0.10
   2  -4   6    0.72    0.20
  -3   4  -6    1.35    0.72
  -3   4  -6    1.86    0.25
  -3   4  -6    2.07    0.34
  -3   4  -6    4.23    1.33
   3  -4   6    2.17    0.24
   3  -4   6    1.74    0.17
   3  -4   6    1.94    0.17
  -4   4  -6    5.94    0.41
  -4   4  -6    5.04    0.95
   4  -4   6    5.59    0.35
   6   3  -6    8.03    0.50
  -6  -3   6    5.16    1.92
   5   3  -6    6.99    0.70
  -5  -3   6    7.91    0.58
  -5  -3   6    8.07    0.58
  -5  -3   6    7.97    0.55
  -5  -3   6    7.95    0.49
  -5  -3   6    7.51    0.57
  -5  -3   6    7.60    0.55
   4   3  -6   81.29    4.57
  -4  -3   6   83.52    4.48
  -4  -3   6   80.32    4.41
  -4  -3   6   79.03    4.46
  -4  -3   6   80.87    4.51
  -4  -3   6   68.52    4.43
  -4  -3   6   91.60    4.54
  -4  -3   6   89.69    4.56
   3   3  -6   38.20    2.62
   3   3  -6   37.69    2.21
  -3  -3   6   44.37    2.70
  -3  -3   6   44.06    2.40
  -3  -3   6   40.92    2.33
  -3  -3   6   45.02    2.39
  -3  -3   6   39.32    2.33
  -3  -3   6   38.85    2.23
  -3  -3   6   39.45    2.50
  -3  -3   6   42.21    2.32
   2   3  -6   51.24    3.29
   2   3  -6   58.18    3.16
  -2  -3   6   56.72    3.18
  -2  -3   6   56.69    3.47
  -2  -3   6   55.70    3.17
  -2  -3   6   63.81    3.38
  -2  -3   6   63.83    3.90
  -2  -3   6   57.46    3.31
  -2  -3   6   58.69    3.27
  -2  -3   6   59.43    3.18
  -2  -3   6   60.63    3.32
  -2  -3   6   62.83    3.67
  -2  -3   6   64.21    3.29
  -2  -3   6   55.23    3.64
   1   3  -6   59.70    3.17
  -1  -3   6   61.10    3.62
  -1  -3   6   61.04    3.19
  -1  -3   6   55.62    3.47
  -1  -3   6   63.22    3.93
  -1  -3   6   56.53    3.33
  -1  -3   6   60.78    3.28
  -1  -3   6   54.75    3.19
  -1  -3   6   55.63    3.18
  -1  -3   6   61.26    3.37
   0  -3   6   43.13    2.31
   0  -3   6   42.14    2.47
   0  -3   6   43.95    2.34
   0  -3   6   38.44    2.41
   0  -3   6   44.39    2.33
   0  -3   6   44.31    2.64
   0  -3   6   45.49    2.50
   0  -3   6   36.98    2.39
   0  -3   6   45.02    2.90
  -1   3  -6   55.23    3.26
   1  -3   6   56.04    3.15
   1  -3   6   63.42    3.45
   1  -3   6   62.43    3.26
   1  -3   6   55.40    3.13
   1  -3   6   55.16    3.27
   1  -3   6   55.74    3.15
   1  -3   6   62.76    3.73
  -2   3  -6   42.23    2.32
   2  -3   6   39.21    2.18
   2  -3   6   39.35    2.40
   2  -3   6   39.70    2.26
   2  -3   6   38.19    2.15
   2  -3   6   38.40    2.17
  -3   3  -6   37.48    2.01
   3  -3   6   33.90    1.84
   3  -3   6   34.17    1.86
   3  -3   6   34.36    1.88
   3  -3   6   28.96    1.92
  -4   3  -6    1.88    0.34
  -4   3  -6    1.74    0.24
  -4   3  -6    2.51    1.10
   4  -3   6    1.59    0.14
   4  -3   6    1.51    0.21
   4  -3   6    1.57    0.16
   4  -3   6    1.65    0.15
  -5   3  -6    0.18    0.09
  -5   3  -6    0.18    0.12
  -5   3  -6    0.09    0.46
  -5   3  -6   -0.27    1.40
   5  -3   6    0.01    0.03
   5  -3   6    0.07    0.05
   5  -3   6    0.08    0.03
   6   2  -6    1.23    0.21
  -6  -2   6    0.24    1.64
  -6  -2   6    1.31    0.19
  -6  -2   6    0.07    1.32
  -6  -2   6    1.31    0.15
  -6  -2   6    1.42    0.18
  -6  -2   6    1.14    0.19
  -6  -2   6    1.14    0.11
  -6  -2   6    0.98    0.10
  -6  -2   6    1.36    0.17
   5   2  -6    0.62    2.77
  -5  -2   6    3.85    1.30
  -5  -2   6    2.18    0.27
  -5  -2   6    2.04    0.22
  -5  -2   6    2.29    0.42
  -5  -2   6    1.89    0.30
  -5  -2   6    2.22    0.31
  -5  -2   6    2.04    0.18
  -5  -2   6    2.14    0.17
  -5  -2   6    2.07    0.21
  -5  -2   6    1.45    0.23
  -5  -2   6    2.58    2.46
  -5  -2   6    2.26    0.29
  -5  -2   6    2.04    0.17
  -5  -2   6   -1.07    2.28
   4   2  -6   48.33    2.75
  -4  -2   6   48.87    2.77
  -4  -2   6   49.55    2.87
  -4  -2   6   48.11    2.75
  -4  -2   6   53.71    2.93
  -4  -2   6   48.06    2.75
  -4  -2   6   56.64    2.91
  -4  -2   6   48.90    2.76
  -4  -2   6   55.29    3.22
  -4  -2   6   54.36    2.93
  -4  -2   6   49.71    2.85
  -4  -2   6   48.98    2.80
  -4  -2   6   51.66    2.92
  -4  -2   6   52.53    2.85
   3   2  -6   27.54    1.47
   3   2  -6   26.29    1.48
  -3  -2   6   28.69    1.65
  -3  -2   6   28.52    1.50
  -3  -2   6   28.93    1.68
  -3  -2   6   26.07    1.60
  -3  -2   6   28.19    1.67
  -3  -2   6   25.53    1.49
  -3  -2   6   24.63    1.72
  -3  -2   6   26.15    1.50
  -3  -2   6   25.50    1.88
  -3  -2   6   25.23    1.52
  -3  -2   6   21.79    2.56
  -3  -2   6   26.51    1.48
  -3  -2   6   28.44    1.60
  -3  -2   6   29.88    1.61
   2   2  -6  145.50    7.34
   2   2  -6  144.38    7.35
   2   2  -6  145.94    7.34
   2   2  -6  135.39    7.32
  -2  -2   6  130.04    7.39
  -2  -2   6  126.69    7.92
  -2  -2   6  149.05    7.36
  -2  -2   6  131.69    7.37
  -2  -2   6  133.47    7.36
  -2  -2   6  135.03    7.34
  -2  -2   6  128.42    7.62
  -2  -2   6  145.34    7.46
  -2  -2   6  146.52    7.48
  -2  -2   6  147.18    7.83
  -2  -2   6  133.05    7.49
  -2  -2   6  134.84    7.46
   1   2  -6  151.85    7.78
   1   2  -6  149.55    7.77
   1   2  -6  143.68    7.76
   1   2  -6  151.89    7.80
   1   2  -6  148.19    7.78
   1   2  -6  146.08    7.99
  -1  -2   6  128.54    8.00
  -1  -2   6  137.66    7.87
  -1  -2   6  151.75    7.80
  -1  -2   6  157.74    7.90
  -1  -2   6  146.16    8.01
   0   2  -6   84.90    4.51
   0   2  -6   80.59    4.49
   0   2  -6   81.63    4.49
   0   2  -6   87.69    4.51
   0   2  -6   89.25    4.51
   0   2  -6   87.25    4.54
   0   2  -6   85.02    4.71
   0  -2   6   78.98    4.60
   0  -2   6   80.03    4.70
   0  -2   6   89.85    4.54
  -1   2  -6   42.21    2.37
  -1   2  -6   43.38    2.36
  -1   2  -6   45.74    2.36
  -1   2  -6   44.97    2.89
   1  -2   6   41.43    2.62
   1  -2   6   51.81    2.42
   1  -2   6   36.86    2.64
   1  -2   6   44.84    2.47
   1  -2   6   41.01    2.39
   1  -2   6   45.23    2.39
   1  -2   6   44.46    2.42
  -2   2  -6  105.27    5.47
   2  -2   6   90.17    5.37
   2  -2   6   91.95    5.18
   2  -2   6   97.86    5.14
   2  -2   6   98.37    5.67
   2  -2   6   87.76    5.36
   2  -2   6  100.04    5.25
   2  -2   6   96.35    5.15
   2  -2   6   97.91    5.17
  -3   2  -6   17.72    1.12
   3  -2   6   17.08    1.00
   3  -2   6   17.22    0.97
   3  -2   6   17.91    1.07
   3  -2   6   16.56    0.98
   3  -2   6   15.74    1.01
  -4   2  -6   29.43    1.73
  -4   2  -6   32.93    1.93
   4  -2   6   29.86    1.64
   4  -2   6   27.62    1.61
   4  -2   6   30.78    1.61
   4  -2   6   24.92    1.67
  -5   2  -6   56.21    4.17
  -6   2  -6   -0.71    1.94
   6   1  -6   12.69    0.81
  -6  -1   6   13.28    0.73
  -6  -1   6   12.87    0.75
  -6  -1   6   12.61    0.78
  -6  -1   6   12.43    0.73
  -6  -1   6   13.58    0.84
  -6  -1   6   13.39    0.81
  -6  -1   6   12.66    0.82
  -6  -1   6   12.85    0.82
  -6  -1   6   13.12    0.77
   5   1  -6    0.88    0.11
   5   1  -6   -0.15    2.82
  -5  -1   6    0.52    0.24
  -5  -1   6    0.98    0.18
  -5  -1   6    0.82    0.11
  -5  -1   6    0.88    0.11
  -5  -1   6    0.88    0.19
  -5  -1   6    0.61    0.71
  -5  -1   6    0.13    1.62
  -5  -1   6    0.89    0.15
  -5  -1   6    0.93    0.14
  -5  -1   6    1.07    0.18
  -5  -1   6    1.22    0.22
  -5  -1   6    1.09    0.22
  -4  -1   6   52.87    3.27
   3   1  -6   10.73    0.63
   3   1  -6   10.91    0.62
   3   1  -6   11.13    0.64
   3   1  -6   11.66    0.64
  -3  -1   6   11.41    0.75
  -3  -1   6   11.08    0.65
  -3  -1   6   10.54    0.76
  -3  -1   6   10.00    0.69
  -3  -1   6   11.69    0.66
  -3  -1   6   10.58    0.66
  -3  -1   6   11.08    0.77
  -3  -1   6   10.53    0.67
  -3  -1   6   10.92    0.78
  -3  -1   6   11.05    0.80
  -3  -1   6   12.61    0.78
   2   1  -6   62.59    3.24
   2   1  -6   62.72    3.45
   2   1  -6   59.25    3.22
   2   1  -6   63.01    3.23
   2   1  -6   62.64    3.23
   2   1  -6   57.79    3.43
  -2  -1   6   61.26    3.25
  -2  -1   6   58.97    3.34
  -2  -1   6   55.96    3.46
  -2  -1   6   60.90    3.35
   1   1  -6    9.59    0.54
   1   1  -6    9.69    0.73
   1   1  -6    9.51    0.54
   1   1  -6    9.69    0.53
   1   1  -6    9.87    0.54
   1   1  -6    9.21    0.56
   1   1  -6    9.78    0.53
  -1  -1   6    9.35    0.73
  -1  -1   6    9.18    0.63
  -1  -1   6    8.91    0.73
  -1  -1   6    8.88    0.62
  -1  -1   6    9.06    0.56
   0   1  -6   36.69    1.97
   0   1  -6   37.78    1.93
   0   1  -6   36.09    1.92
   0   1  -6   36.73    2.13
   0   1  -6   36.24    1.93
   0   1  -6   35.30    1.92
   0   1  -6   37.27    1.94
   0  -1   6   34.43    2.12
   0  -1   6   33.80    2.02
   0  -1   6   35.54    1.95
   0  -1   6   33.98    2.14
  -1   1  -6   11.29    0.64
  -1   1  -6   12.06    0.65
  -1   1  -6   11.09    0.64
  -1   1  -6   11.63    0.68
  -1   1  -6   12.00    1.01
  -1   1  -6   11.59    0.66
  -1   1  -6   11.94    0.65
  -1   1  -6   11.65    0.83
   1  -1   6    9.85    0.71
   1  -1   6   10.25    0.80
   1  -1   6   11.48    0.68
  -2   1  -6   24.58    1.38
  -2   1  -6   24.92    1.36
  -2   1  -6   23.79    1.34
  -2   1  -6   26.41    1.82
  -2   1  -6   26.11    1.35
  -2   1  -6   27.84    1.36
   2  -1   6   20.36    1.50
   2  -1   6   21.65    1.42
   2  -1   6   24.99    1.38
  -3   1  -6   35.18    3.24
  -3   1  -6   26.58    3.38
   3  -1   6   30.52    4.02
   3  -1   6   34.25    3.51
  -4   1  -6    2.30    2.98
  -4   1  -6    3.13    1.35
   4  -1   6    3.11    2.90
  -5   1  -6    4.12    3.89
  -5   1  -6    0.64    0.11
  -5   1  -6    0.72    0.30
  -5   1  -6    0.54    0.17
   5  -1   6    0.45    0.10
   5  -1   6    0.59    0.12
   5  -1   6    0.48    0.09
  -6   1  -6    8.02    1.20
   6   0  -6    0.57    2.20
   6   0  -6   -0.54    1.01
  -6   0   6   -0.37    0.40
  -6   0   6   -0.01    0.57
  -6   0   6   -0.24    1.61
  -6   0   6    0.03    0.11
  -6   0   6   -0.02    0.50
  -6   0   6   -0.01    0.06
  -6   0   6    0.00    0.08
  -6   0   6   -0.02    0.09
  -6   0   6   -0.01    0.07
  -6   0   6   -0.01    0.04
  -6   0   6    0.00    0.04
  -6   0   6   -0.03    0.15
  -6   0   6   -0.06    0.05
   5   0  -6   18.69    1.08
  -5   0   6   19.70    1.25
  -5   0   6   20.02    1.17
  -5   0   6   19.15    1.19
  -5   0   6   19.62    1.09
  -5   0   6   20.25    1.25
  -5   0   6   18.68    1.17
  -5   0   6   19.75    1.20
  -5   0   6   18.73    1.13
  -5   0   6   19.02    1.10
  -5   0   6   19.29    1.11
   4   0  -6    5.66    0.36
   4   0  -6    5.89    0.36
  -4   0   6    5.76    0.45
  -4   0   6    6.11    0.49
  -4   0   6    5.50    0.49
  -4   0   6    5.83    0.38
  -4   0   6    5.50    0.56
  -4   0   6    5.74    0.48
  -4   0   6    5.57    0.41
  -4   0   6    5.46    0.36
  -4   0   6    5.69    0.46
  -4   0   6    5.58    0.39
   3   0  -6   23.94    1.28
   3   0  -6   23.61    1.27
   3   0  -6   25.16    1.66
   3   0  -6   24.29    1.28
   3   0  -6   22.77    1.27
  -3   0   6   21.78    1.30
  -3   0   6   22.95    1.33
  -3   0   6   23.02    1.39
  -3   0   6   25.07    1.73
  -3   0   6   24.90    1.41
  -3   0   6   24.23    1.30
  -3   0   6   21.95    1.40
  -3   0   6   21.17    1.45
  -3   0   6   24.74    1.36
   2   0  -6    9.79    0.54
   2   0  -6   10.07    0.54
   2   0  -6    9.56    0.54
   2   0  -6    9.62    0.73
   2   0  -6    9.59    0.54
   2   0  -6    9.31    0.72
  -2   0   6    9.82    0.64
  -2   0   6    9.87    0.76
  -2   0   6    9.42    0.64
  -2   0   6    8.77    0.56
   1   0  -6    7.40    0.40
   1   0  -6    7.09    0.40
   1   0  -6    6.45    0.40
   1   0  -6    7.51    0.40
   1   0  -6    6.78    0.43
   1   0  -6    7.36    0.41
  -1   0   6    6.96    0.58
  -1   0   6    7.37    0.60
  -1   0   6    7.09    0.50
  -1   0   6    6.96    0.49
  -1   0   6    6.58    0.42
   0   0  -6   43.08    2.38
   0   0  -6   45.10    2.42
   0   0  -6   47.27    2.38
   0   0  -6   46.37    2.38
   0   0  -6   46.52    2.39
   0   0  -6   40.59    2.61
   0   0  -6   47.57    2.38
   0   0   6   45.60    2.59
   0   0   6   43.49    2.39
   0   0   6   44.71    2.48
   0   0   6   40.59    2.56
  -1   0  -6    1.97    0.38
  -1   0  -6    2.41    0.18
  -1   0  -6    2.53    0.17
  -1   0  -6    2.56    0.18
  -1   0  -6    2.46    0.16
  -1   0  -6    2.57    0.16
  -1   0  -6    2.29    0.20
   1   0   6    2.53    0.29
   1   0   6    2.20    0.22
   1   0   6    2.33    0.20
   1   0   6    2.18    0.28
  -2   0  -6   34.35    1.81
  -2   0  -6   32.38    1.83
  -2   0  -6   35.88    1.81
  -2   0  -6   33.98    1.79
  -2   0  -6   33.76    1.79
  -2   0  -6   30.77    2.21
  -2   0  -6   34.81    1.80
   2   0   6   32.42    1.97
   2   0   6   30.28    1.97
   2   0   6   31.93    1.88
   2   0   6   34.85    1.82
  -3   0  -6    7.56    0.44
  -3   0  -6    7.34    0.44
  -3   0  -6    6.67    0.45
  -3   0  -6    6.77    0.77
  -3   0  -6    7.90    0.44
   3   0   6    6.43    0.50
   3   0   6    6.69    0.59
   3   0   6    7.28    0.47
  -4   0  -6    0.23    3.43
  -4   0  -6    0.98    0.17
  -4   0  -6    6.70    4.72
  -4   0  -6    1.75    0.21
   4   0   6    1.00    3.04
   4   0   6    1.58    0.92
   4   0   6    1.60    0.19
   4   0   6    1.20    0.15
   4   0   6    1.63    0.51
   4   0   6    1.06    0.30
   4   0   6    3.14    2.95
   4   0   6    1.23    0.13
  -5   0  -6    1.30    1.00
  -5   0  -6    0.33    0.11
  -5   0  -6    0.55    0.13
  -5   0  -6    0.12    0.21
  -5   0  -6    3.03    4.05
  -5   0  -6    3.76    3.16
   5   0   6    0.46    0.09
   5   0   6    0.34    0.10
   5   0   6    0.17    0.24
   5   0   6    0.40    0.16
   5   0   6    0.44    2.55
   5   0   6    0.31    0.08
  -6   0  -6   11.35    1.54
  -6   1   6    4.95    0.42
  -6   1   6    5.36    0.45
  -6   1   6    4.44    1.02
  -6   1   6    5.23    0.38
  -6   1   6    5.10    0.34
  -6   1   6    5.16    0.33
  -6   1   6    5.10    0.35
  -6   1   6    5.32    0.33
  -6   1   6    5.15    0.40
  -6   1   6    7.19    1.23
   5  -1  -6    2.61    0.20
  -5   1   6    2.79    0.23
  -5   1   6    2.84    0.21
  -5   1   6    2.82    0.29
  -5   1   6    2.72    0.30
  -5   1   6    2.66    0.22
  -5   1   6    2.73    0.34
  -5   1   6    2.47    0.29
  -5   1   6    2.55    0.36
  -5   1   6    3.06    1.18
  -5   1   6    2.67    0.27
  -5   1   6    2.61    0.24
  -5   1   6    1.61    0.84
   4  -1  -6    0.51    0.08
   4  -1  -6    0.56    0.08
   4  -1  -6    0.50    0.08
  -4   1   6    0.43    0.15
  -4   1   6    0.57    0.10
  -4   1   6    0.50    0.09
  -4   1   6    0.44    0.11
  -4   1   6    0.38    0.08
  -4   1   6    0.62    0.09
  -4   1   6   -0.09    1.02
  -4   1   6    0.30    0.11
  -4   1   6    0.49    0.16
  -4   1   6    1.28    0.88
  -4   1   6    0.28    0.16
  -4   1   6    0.28    0.21
  -4   1   6    2.75    2.83
  -4   1   6    0.06    0.55
   3  -1  -6    1.60    0.12
   3  -1  -6    1.34    0.10
   3  -1  -6    1.35    0.10
   3  -1  -6    1.16    0.23
  -3   1   6    1.27    0.21
  -3   1   6    1.25    0.14
  -3   1   6    1.27    0.18
  -3   1   6    1.94    0.36
  -3   1   6    1.51    0.13
   2  -1  -6    1.04    0.08
   2  -1  -6    0.92    0.22
   2  -1  -6    0.98    0.08
   2  -1  -6    1.01    0.24
  -2   1   6    0.87    0.14
  -2   1   6    0.96    0.20
  -2   1   6    1.07    0.16
   1  -1  -6   17.31    0.89
   1  -1  -6   15.91    0.89
   1  -1  -6   14.85    0.93
   1  -1  -6   17.39    0.89
   1  -1  -6   17.93    1.10
  -1   1   6   16.06    1.08
  -1   1   6   16.62    1.00
   0  -1  -6    7.76    0.50
   0  -1  -6    6.86    0.65
   0  -1  -6    8.54    0.46
   0  -1  -6    9.14    0.47
   0  -1  -6    7.78    0.47
   0   1   6    8.75    0.56
   0   1   6    9.11    0.64
   0   1   6    8.70    0.64
   0   1   6    9.47    0.57
  -1  -1  -6  209.21   11.07
  -1  -1  -6  192.11   11.04
  -1  -1  -6  217.06   11.03
  -1  -1  -6  179.30   11.03
  -1  -1  -6  216.11   11.03
   1   1   6  234.86   11.13
   1   1   6  191.40   11.03
   1   1   6  223.89   11.24
   1   1   6  217.23   11.13
  -2  -1  -6    3.33    0.24
  -2  -1  -6    3.89    0.28
  -2  -1  -6    3.22    0.25
  -2  -1  -6    3.68    0.23
  -2  -1  -6    3.72    0.25
  -2  -1  -6    3.94    0.23
   2   1   6    3.63    0.26
   2   1   6    4.08    0.31
   2   1   6    3.97    0.38
   2   1   6    3.85    0.38
  -3  -1  -6  105.00    5.58
  -3  -1  -6  105.74    5.60
  -3  -1  -6  105.26    5.58
  -3  -1  -6  103.55    5.60
  -3  -1  -6  100.69    5.62
  -3  -1  -6  106.45    5.59
   3   1   6  101.91    5.79
   3   1   6  107.95    5.79
   3   1   6  107.57    5.68
   3   1   6  107.22    5.60
  -4  -1  -6    0.58    0.10
  -4  -1  -6    0.47    0.15
  -4  -1  -6    0.32    1.03
   4   1   6    0.70    0.19
   4   1   6    1.01    0.41
   4   1   6    0.76    0.14
   4   1   6    0.60    0.17
   4   1   6    0.49    0.11
   4   1   6    0.77    0.25
   4   1   6   -0.07    0.60
   4   1   6    0.65    0.27
   4   1   6    6.78    4.85
   4   1   6    0.64    0.10
   4   1   6    0.68    0.18
   4   1   6    1.88    0.99
   4   1   6   -0.89    2.44
   5   1   6   34.83    3.08
  -6  -1  -6    1.25    0.18
  -6  -1  -6    1.14    0.19
  -6  -1  -6    1.31    0.28
   6   1   6    1.31    0.22
   6   1   6    0.49    1.56
   6   1   6    1.14    0.11
   6   1   6    1.19    0.16
  -6   2   6    0.49    0.09
  -6   2   6    0.11    1.05
  -6   2   6    0.43    0.12
  -6   2   6    0.45    0.52
  -6   2   6    0.05    0.42
  -6   2   6    0.35    0.49
  -6   2   6    0.46    0.13
  -6   2   6    0.42    0.07
  -6   2   6    0.23    0.12
  -6   2   6    0.83    0.61
  -6   2   6    0.57    0.17
  -6   2   6    0.33    0.07
   5  -2  -6   24.75    1.43
  -5   2   6   26.46    1.47
  -5   2   6   27.05    1.59
  -5   2   6   27.86    1.60
  -5   2   6   24.55    1.52
  -5   2   6   27.09    1.47
  -5   2   6   26.61    1.56
  -5   2   6   27.16    1.54
  -5   2   6   26.61    1.45
  -5   2   6   21.67    5.17
   4  -2  -6   18.82    1.10
   4  -2  -6   20.12    1.10
   4  -2  -6   19.82    1.10
  -4   2   6   19.71    1.21
  -4   2   6   18.45    2.38
  -4   2   6   22.36    1.28
  -4   2   6   20.52    1.28
  -4   2   6   19.12    1.14
  -4   2   6   19.85    1.12
  -4   2   6   19.78    1.10
  -4   2   6   20.49    1.28
  -4   2   6   20.47    1.22
  -4   2   6   20.40    1.14
   3  -2  -6   23.82    1.32
   3  -2  -6   25.80    1.34
   3  -2  -6   21.89    1.34
  -3   2   6   25.17    1.45
  -3   2   6   27.25    1.43
  -3   2   6   25.87    1.46
  -3   2   6   23.91    1.38
   2  -2  -6    6.72    0.38
   2  -2  -6    6.67    0.57
   2  -2  -6    6.96    0.38
  -2   2   6    7.47    0.50
  -2   2   6    7.06    0.49
   1  -2  -6   64.45    3.62
   1  -2  -6   68.57    3.53
  -1   2   6   68.27    3.74
  -1   2   6   65.55    3.71
  -1   2   6   67.14    3.64
   0  -2  -6   57.11    3.01
   0  -2  -6   48.38    3.24
   0  -2  -6   52.00    3.01
   0   2   6   60.40    3.12
   0   2   6   62.07    3.20
   0   2   6   63.05    3.22
   0   2   6   56.04    3.06
  -1  -2  -6   11.42    1.06
  -1  -2  -6   12.58    0.98
  -1  -2  -6   13.95    0.74
  -1  -2  -6   13.86    0.74
  -1  -2  -6   13.16    0.74
   1   2   6   14.57    0.91
   1   2   6   14.74    0.84
   1   2   6   14.35    0.79
  -2  -2  -6   84.22    4.26
  -2  -2  -6   87.59    4.26
  -2  -2  -6   66.80    4.26
  -2  -2  -6   71.12    4.26
  -2  -2  -6   75.36    4.27
   2   2   6   87.05    4.46
   2   2   6   80.64    4.26
   2   2   6   90.33    4.31
  -3  -2  -6    0.31    0.12
  -3  -2  -6    0.44    0.25
  -3  -2  -6    0.64    0.08
  -3  -2  -6   -0.02    1.08
  -3  -2  -6    0.74    0.09
  -3  -2  -6    0.71    0.11
  -3  -2  -6    0.68    0.10
  -3  -2  -6    0.47    0.09
   3   2   6    1.04    0.22
   3   2   6    0.87    0.17
   3   2   6    0.79    0.11
   3   2   6    0.55    0.09
  -4  -2  -6   11.52    0.66
  -4  -2  -6   10.95    0.66
  -4  -2  -6   11.63    0.66
   4   2   6   10.87    0.97
   4   2   6   11.73    0.67
   4   2   6   10.87    0.71
   4   2   6   10.90    0.76
   4   2   6   11.44    0.77
   4   2   6   12.14    0.71
   4   2   6   10.41    0.82
   4   2   6   10.35    0.94
   4   2   6    9.56    0.83
   4   2   6   12.29    0.78
  -5  -2  -6    7.70    3.96
  -5  -2  -6    5.67    2.00
   5   2   6    3.23    1.17
   5   2   6    7.74    4.73
   5   2   6    4.70    2.40
  -6  -2  -6    0.58    3.04
  -6  -2  -6   -0.03    0.12
  -6  -2  -6    0.00    0.04
  -6  -2  -6    0.33    2.77
  -6  -2  -6    0.17    0.12
   6   2   6    0.03    0.08
   6   2   6    0.02    0.12
   6   2   6    0.00    0.06
   6   2   6   -1.00    2.30
   6   2   6    0.02    0.11
  -7  -2  -6    7.71    0.47
  -7  -2  -6    6.42    3.06
  -7  -2  -6    8.30    0.46
  -7  -2  -6    8.37    0.50
   7   2   6    7.18    0.51
   7   2   6    7.62    0.47
  -6   3   6    0.15    0.35
  -6   3   6    0.51    0.14
  -6   3   6    0.38    0.06
  -6   3   6    0.22    0.05
  -6   3   6    0.18    0.07
  -6   3   6   -0.17    0.99
  -6   3   6    0.40    0.11
  -6   3   6   -0.09    0.37
  -6   3   6    0.37    0.10
  -6   3   6    0.09    0.47
  -6   3   6    0.40    0.15
  -5   3   6    7.20    0.56
  -5   3   6    7.15    0.44
  -5   3   6    7.20    0.52
  -5   3   6    6.74    0.44
  -5   3   6    7.38    0.56
  -5   3   6    7.06    0.50
  -5   3   6    7.34    0.51
  -5   3   6    5.39    1.43
  -5   3   6    6.74    1.47
   4  -3  -6    4.40    0.29
   4  -3  -6    4.49    0.29
  -4   3   6    4.47    0.44
  -4   3   6    4.66    0.41
  -4   3   6    4.78    0.45
  -4   3   6    4.95    0.39
  -4   3   6    5.88    0.39
  -4   3   6    4.59    0.30
  -4   3   6    4.70    0.32
  -4   3   6    4.77    0.40
  -4   3   6    2.09    2.43
   3  -3  -6   10.41    0.58
   3  -3  -6    9.58    0.57
  -3   3   6   10.56    0.62
  -3   3   6   10.18    0.74
  -3   3   6   10.47    0.68
  -3   3   6   10.59    0.74
  -3   3   6   10.37    0.71
  -3   3   6   11.17    0.71
  -2   3   6    7.55    0.52
   0  -3  -6    0.36    0.03
   0  -3  -6    0.13    0.14
   0   3   6    0.42    0.13
   0   3   6    0.30    0.06
   0   3   6    0.30    0.15
  -1  -3  -6   16.36    0.86
  -1  -3  -6   16.93    0.86
  -1  -3  -6   16.68    1.00
  -1  -3  -6   16.15    0.86
   1   3   6   15.14    1.01
   1   3   6   15.74    0.91
   1   3   6   14.40    1.20
  -2  -3  -6    0.92    0.09
  -2  -3  -6    0.90    0.09
  -2  -3  -6    1.11    0.10
  -2  -3  -6    0.94    0.09
  -2  -3  -6    0.84    0.29
  -2  -3  -6    0.87    0.08
  -2  -3  -6    0.81    0.18
   2   3   6    0.95    0.18
   2   3   6    1.06    0.17
   2   3   6    0.88    0.09
   2   3   6    0.97    0.11
  -3  -3  -6   17.27    0.94
  -3  -3  -6   14.03    1.32
  -3  -3  -6   16.24    0.96
  -3  -3  -6   16.01    0.95
  -3  -3  -6   17.56    0.94
  -3  -3  -6   15.26    0.95
   3   3   6   19.28    1.14
   3   3   6   18.06    0.95
   3   3   6   18.10    0.99
   3   3   6   19.09    1.14
  -4  -3  -6    0.14    0.07
  -4  -3  -6    0.26    0.07
  -4  -3  -6    0.34    0.09
  -4  -3  -6    0.23    0.08
  -4  -3  -6   -0.33    1.27
   4   3   6    0.31    0.12
   4   3   6    0.29    0.27
   4   3   6   -0.31    2.94
   4   3   6    0.18    0.18
   4   3   6    0.40    0.21
   4   3   6    0.24    0.07
   4   3   6    0.07    0.17
   4   3   6    0.72    0.74
   4   3   6    0.21    0.25
   4   3   6    0.24    0.09
   4   3   6    0.22    0.09
   4   3   6    0.39    0.14
   4   3   6    0.20    0.20
   4   3   6    0.26    0.13
   4   3   6    0.26    0.20
   4   3   6    0.43    0.67
  -5  -3  -6    9.37    0.63
  -5  -3  -6   14.00    2.47
  -5  -3  -6   10.95    0.70
   5   3   6    9.23    0.80
   5   3   6   11.50    0.75
   5   3   6   10.39    0.73
   5   3   6   10.96    0.94
   5   3   6   10.37    0.74
   5   3   6   11.17    0.67
   5   3   6   10.35    0.91
   5   3   6   10.30    0.68
  -6  -3  -6    5.64    0.37
  -6  -3  -6    5.71    0.44
  -6  -3  -6    5.87    0.37
  -6  -3  -6    5.68    0.40
   6   3   6    5.56    0.45
   6   3   6    3.85    3.41
   6   3   6    5.44    0.44
   6   3   6    5.73    0.38
   6   3   6    5.33    0.57
  -7  -3  -6    0.43    0.10
  -7  -3  -6    0.30    0.05
  -7  -3  -6    0.48    0.07
  -7  -3  -6    0.34    0.07
   7   3   6    0.37    0.11
   7   3   6    0.32    0.10
   7   3   6    0.28    0.06
  -5   4   6    3.89    0.25
  -5   4   6    3.98    0.25
  -5   4   6    2.80    0.96
  -5   4   6    3.68    0.33
  -5   4   6    3.69    0.30
  -5   4   6    0.93    1.78
  -5   4   6    3.53    1.35
  -5   4   6    4.11    0.37
  -5   4   6    4.01    0.37
  -5   4   6    3.66    0.31
   4  -4  -6   65.49    3.78
  -4   4   6   70.60    3.81
  -4   4   6   70.35    3.88
  -4   4   6   70.76    3.94
  -4   4   6   72.93    8.63
  -4   4   6   74.05    3.96
  -4   4   6   69.58    3.89
  -4   4   6   73.53    3.90
  -4   4   6   73.38    3.92
   3  -4  -6   31.70    1.86
  -3   4   6   36.93    1.99
  -3   4   6   36.52    2.04
  -3   4   6   34.14    2.03
  -3   4   6   33.37    1.97
  -3   4   6   36.25    2.01
   0  -4  -6    5.07    0.26
   0   4   6    4.52    0.54
   0   4   6    4.57    0.38
  -1  -4  -6   17.52    0.91
  -1  -4  -6   18.25    1.08
  -1  -4  -6   17.42    0.92
  -1  -4  -6   18.00    0.91
   1   4   6   15.15    1.27
   1   4   6   15.27    0.96
  -2  -4  -6    0.48    0.06
  -2  -4  -6    0.46    0.07
  -2  -4  -6    0.36    0.14
  -2  -4  -6    0.59    0.07
  -2  -4  -6    0.48    0.06
   2   4   6    0.41    0.19
   2   4   6    0.39    0.08
   2   4   6    0.43    0.06
  -3  -4  -6    0.08    0.19
  -3  -4  -6    0.16    0.21
  -3  -4  -6    0.37    0.06
  -3  -4  -6    0.28    0.07
  -3  -4  -6    0.43    0.08
  -3  -4  -6    0.33    0.08
  -3  -4  -6    0.32    0.06
   3   4   6    0.40    0.19
   3   4   6    0.09    0.10
   3   4   6    0.92    0.73
   3   4   6    0.29    0.09
   3   4   6    0.27    0.06
   3   4   6    0.43    0.13
   3   4   6    1.11    0.71
   3   4   6    0.34    0.17
   3   4   6    0.38    0.10
   3   4   6    0.46    0.18
  -4  -4  -6   17.04    1.06
  -4  -4  -6   15.59    1.06
  -4  -4  -6   17.32    1.07
   4   4   6   18.60    1.09
   4   4   6   21.41    1.42
   4   4   6   19.77    1.07
   4   4   6   17.69    1.24
   4   4   6   20.91    1.20
   4   4   6   19.72    1.13
   4   4   6   18.33    1.08
   4   4   6   21.90    1.61
   4   4   6   17.85    1.23
   4   4   6   20.58    1.43
   4   4   6   20.07    1.19
  -5  -4  -6    1.96    0.21
  -5  -4  -6    2.36    0.21
  -5  -4  -6    2.36    0.26
   5   4   6    2.64    0.22
   5   4   6    2.75    0.27
   5   4   6    2.67    0.31
   5   4   6    2.85    0.31
   5   4   6    1.37    3.03
   5   4   6    2.82    0.38
   5   4   6    2.85    0.45
   5   4   6    2.80    0.50
   5   4   6    2.87    0.30
  -6  -4  -6    8.47    0.51
  -6  -4  -6    8.34    0.52
  -6  -4  -6    9.08    0.53
   6   4   6    7.85    0.58
   6   4   6    8.47    0.58
   6   4   6    8.16    0.60
  -7  -4  -6    8.52    0.51
   7   4   6    8.81    0.56
  -5   5   6    5.74    0.41
  -5   5   6    5.86    0.36
  -5   5   6    6.22    0.44
  -5   5   6    6.15    0.44
  -5   5   6    6.27    0.42
  -4   5   6   19.84    1.25
  -4   5   6   20.12    1.15
  -4   5   6   23.72    2.36
  -4   5   6   21.16    1.24
  -4   5   6   20.72    1.24
  -4   5   6   20.30    1.26
   3  -5  -6    7.40    0.55
  -3   5   6    9.19    0.64
  -3   5   6    9.51    0.57
  -3   5   6    9.44    0.64
  -3   5   6    9.15    0.54
  -3   5   6    9.12    0.56
  -3   5   6    9.03    0.62
  -3   5   6    9.77    1.60
  -3   5   6    9.39    0.67
  -2   5   6   68.85    3.83
  -2   5   6   73.72    3.92
  -2   5   6   73.47    3.86
  -2   5   6   69.94    3.85
   1  -5  -6   44.16    2.49
  -1   5   6   47.85    2.56
  -1   5   6   47.05    2.55
  -1   5   6   47.92    2.62
  -1   5   6   48.17    2.56
   0  -5  -6   11.80    0.62
   0  -5  -6   11.68    0.62
   0   5   6   11.74    0.69
   0   5   6   11.45    0.76
   0   5   6   10.41    0.95
  -1  -5  -6   33.57    1.65
  -1  -5  -6   32.73    1.82
  -1  -5  -6   33.13    1.65
  -1  -5  -6   32.23    1.64
   1   5   6   30.80    1.71
   1   5   6   30.29    2.72
   1   5   6   26.67    1.69
   1   5   6   27.92    2.05
   1   5   6   28.86    1.79
  -2  -5  -6    2.24    0.15
  -2  -5  -6    2.41    0.16
  -2  -5  -6    2.50    0.17
   2   5   6    2.30    0.24
   2   5   6    2.20    0.20
   2   5   6    2.13    0.21
   2   5   6    2.33    0.16
   2   5   6    1.76    0.29
   2   5   6    2.25    0.19
   2   5   6    1.92    0.36
   2   5   6    2.17    0.37
   2   5   6    2.31    0.21
   2   5   6    2.10    0.31
   2   5   6    1.96    0.40
   2   5   6    1.21    1.98
  -3  -5  -6   19.60    1.05
  -3  -5  -6   19.35    1.02
  -3  -5  -6   20.39    1.04
  -3  -5  -6   18.71    1.04
   3   5   6   19.70    1.04
   3   5   6   20.60    1.55
   3   5   6   16.35    1.20
   3   5   6   19.21    1.16
   3   5   6   18.27    1.07
   3   5   6   15.10    1.89
   3   5   6   18.14    1.07
   3   5   6   17.30    1.25
   3   5   6   18.47    1.10
   3   5   6   19.46    1.39
   3   5   6   18.23    1.06
  -4  -5  -6    3.72    0.28
  -4  -5  -6    3.93    0.28
  -4  -5  -6    3.62    0.29
  -4  -5  -6    3.21    0.35
   4   5   6    4.38    0.39
   4   5   6    4.48    0.57
   4   5   6    4.54    0.34
   4   5   6    4.26    0.57
   4   5   6    4.20    0.30
   4   5   6    2.56    1.05
   4   5   6    4.09    0.28
   4   5   6    4.11    0.44
   4   5   6    4.15    0.30
   4   5   6    4.79    0.40
   4   5   6    4.81    0.68
   4   5   6    4.43    0.54
   4   5   6    1.14    2.47
   4   5   6    4.06    0.44
   4   5   6    4.52    0.49
  -5  -5  -6   11.91    0.85
   5   5   6   14.38    0.87
   5   5   6   13.90    0.83
   5   5   6   13.61    0.83
   5   5   6   14.31    1.12
   5   5   6   14.81    1.10
   5   5   6   15.44    1.03
   5   5   6   13.42    1.19
   5   5   6   14.41    0.92
   5   5   6   15.61    0.93
  -6  -5  -6    0.65    0.12
  -6  -5  -6    1.24    2.42
  -6  -5  -6    0.58    0.10
  -6  -5  -6    0.54    0.10
   6   5   6    0.57    0.12
   6   5   6    0.49    0.14
   6   5   6    0.21    0.13
   6   5   6   -0.26    2.37
   6   5   6    0.39    0.12
   6   5   6    0.36    0.17
  -7  -5  -6    0.24    0.05
  -7  -5  -6    0.17    0.05
   7   5   6    0.13    0.12
   7   5   6    0.15    0.07
  -4   6   6    1.57    0.17
  -4   6   6    1.43    0.12
  -4   6   6    1.39    0.18
  -4   6   6    1.42    0.20
  -4   6   6    0.27    1.18
  -4   6   6    1.42    0.13
  -3   6   6   29.03    3.17
  -3   6   6   29.70    1.66
  -3   6   6   30.12    1.65
  -3   6   6   30.68    1.64
  -3   6   6   29.15    1.71
  -3   6   6   29.72    1.64
  -3   6   6   30.49    1.71
  -2   6   6    1.09    0.12
  -2   6   6    0.76    0.97
  -2   6   6    0.14    1.20
  -2   6   6    1.59    0.97
  -2   6   6    2.24    0.94
  -2   6   6    0.96    0.12
  -2   6   6    1.03    0.14
  -2   6   6    1.09    0.15
  -2   6   6    1.21    0.19
  -2   6   6    0.85    0.75
  -2   6   6    1.21    0.19
  -2   6   6    1.20    0.13
   1  -6  -6   54.77    3.31
   1  -6  -6   55.64    3.31
  -1   6   6   61.28    3.36
  -1   6   6   65.68    3.38
  -1   6   6   65.59    3.44
  -1   6   6   66.79    5.06
  -1   6   6   65.25    3.44
  -1   6   6   63.60    3.37
  -1   6   6   62.11    3.38
  -1   6   6   63.04    3.35
   0  -6  -6    0.21    0.05
   0  -6  -6    0.08    0.03
   0   6   6    0.12    0.10
   0   6   6    0.07    0.13
   0   6   6   -0.44    1.49
   0   6   6    0.09    0.06
   0   6   6    0.05    0.04
   0   6   6    0.10    0.06
   0   6   6    0.20    0.06
   0   6   6    0.11    0.05
   0   6   6    0.30    0.65
   0   6   6    0.08    0.36
   0   6   6    0.21    0.13
   0   6   6    0.12    0.75
   0   6   6    0.21    0.18
   0   6   6   -0.01    0.39
  -1  -6  -6   42.50    2.20
  -1  -6  -6   42.46    2.20
   1   6   6   43.76    2.20
   1   6   6   34.83    2.35
   1   6   6   40.00    2.24
   1   6   6   41.37    2.56
   1   6   6   42.89    2.26
   1   6   6   40.54    2.25
   1   6   6   41.68    2.33
   1   6   6   40.51    2.27
   1   6   6   40.42    2.23
  -2  -6  -6    4.33    0.26
  -2  -6  -6    4.27    0.27
  -2  -6  -6    4.17    0.26
   2   6   6    4.21    0.26
   2   6   6    4.01    0.36
   2   6   6    4.10    0.31
   2   6   6    3.82    0.57
   2   6   6    3.29    0.40
   2   6   6    3.02    1.08
   2   6   6    3.95    0.32
   2   6   6    3.92    0.29
   2   6   6    3.97    0.27
   2   6   6    3.99    0.51
   2   6   6    3.94    0.52
   2   6   6    3.86    0.29
  -3  -6  -6   13.72    0.76
  -3  -6  -6   12.54    0.75
  -3  -6  -6   13.49    0.75
   3   6   6   13.04    0.78
   3   6   6   13.27    0.81
   3   6   6   11.84    1.14
   3   6   6   14.18    1.09
   3   6   6   12.42    0.95
   3   6   6   12.48    0.75
   3   6   6   12.85    0.92
   3   6   6   13.09    0.77
   3   6   6   13.88    0.87
   3   6   6   13.20    0.92
   3   6   6   13.57    0.79
  -4  -6  -6    7.17    0.50
   4   6   6    9.14    0.83
   4   6   6    8.62    0.55
   4   6   6    8.58    0.61
   4   6   6    7.47    0.65
   4   6   6    9.22    0.79
   4   6   6    8.05    0.65
   4   6   6    8.91    0.70
   4   6   6    8.48    0.52
   4   6   6    8.14    0.52
   4   6   6    8.40    0.50
   4   6   6    7.41    0.84
  -5  -6  -6    0.58    3.04
  -5  -6  -6    0.85    0.17
  -5  -6  -6    0.79    0.11
  -5  -6  -6    0.22    1.08
   5   6   6   -0.91    1.98
   5   6   6    0.83    0.30
   5   6   6    0.97    0.22
   5   6   6    1.09    0.12
   5   6   6    0.62    0.20
   5   6   6    1.04    0.20
   5   6   6    0.93    0.25
   5   6   6    0.46    0.22
   5   6   6   -0.12    2.09
   5   6   6    0.60    0.12
   5   6   6    0.87    0.13
   5   6   6    1.35    0.56
   5   6   6    0.74    0.20
  -6  -6  -6    0.26    0.07
  -6  -6  -6   -0.70    1.72
  -6  -6  -6    0.17    0.06
   6   6   6    0.05    0.11
   6   6   6   -0.80    1.55
   6   6   6    0.02    0.09
   6   6   6    0.08    0.06
   6   6   6    0.16    0.10
   6   6   6    0.05    0.07
   6   6   6    0.23    0.12
  -3   7   6   -0.17    0.29
  -3   7   6    0.12    0.44
  -3   7   6   -0.02    0.45
  -3   7   6   -0.21    1.04
  -3   7   6    0.03    0.44
  -2   7   6    1.66    0.14
  -2   7   6    1.46    0.20
  -2   7   6    1.49    0.19
  -2   7   6    0.54    0.66
  -2   7   6    1.43    0.17
  -2   7   6    1.57    0.15
  -2   7   6   -0.22    1.36
  -2   7   6    1.56    0.85
  -2   7   6    1.44    0.13
  -2   7   6    1.50    0.15
   1  -7  -6    3.51    0.27
  -1   7   6    4.82    0.37
  -1   7   6    4.26    0.31
  -1   7   6    4.60    0.33
  -1   7   6    3.95    0.49
  -1   7   6    5.62    0.96
  -1   7   6    4.21    0.29
  -1   7   6    4.50    0.37
  -1   7   6    4.41    0.32
  -1   7   6    4.28    0.30
   0  -7  -6    0.07    0.04
   0   7   6    0.26    0.46
   0   7   6    0.03    0.05
   0   7   6    0.08    0.16
   0   7   6   -0.03    0.70
   0   7   6   -0.69    1.75
   0   7   6    0.12    0.12
   0   7   6    0.07    0.10
   0   7   6    0.02    0.06
   0   7   6    0.07    0.05
   0   7   6    0.07    0.06
   0   7   6    0.14    0.05
   0   7   6    0.06    0.13
   0   7   6    0.09    0.42
   0   7   6    0.08    0.58
   0   7   6   -0.31    0.64
  -1  -7  -6    0.96    0.10
  -1  -7  -6    0.90    0.10
   1   7   6    0.70    0.16
   1   7   6    1.16    0.21
   1   7   6    0.78    0.13
   1   7   6    0.06    0.45
   1   7   6    0.12    0.61
   1   7   6    0.94    0.12
   1   7   6    0.84    0.29
   1   7   6    0.12    2.05
   1   7   6    1.00    0.10
   1   7   6    1.85    0.69
   1   7   6    0.89    0.14
   1   7   6    0.89    0.10
   1   7   6    0.87    0.11
   1   7   6    0.34    0.84
  -2  -7  -6    1.06    0.11
   2   7   6    0.25    0.74
   2   7   6    0.15    0.63
   2   7   6    0.99    0.15
   2   7   6    1.20    0.16
   2   7   6    0.69    0.16
   2   7   6    1.04    0.12
   2   7   6    2.43    0.84
   2   7   6    1.21    0.34
   2   7   6    0.88    0.12
   2   7   6    1.05    0.11
   2   7   6    1.06    0.18
   2   7   6    1.44    0.84
   2   7   6   -1.08    1.49
  -3  -7  -6   14.09    0.84
   3   7   6   14.80    1.13
   3   7   6   15.57    0.88
   3   7   6   14.60    0.94
   3   7   6   14.50    0.87
   3   7   6   16.47    1.29
   3   7   6   13.46    0.98
   3   7   6   15.88    1.05
   3   7   6   14.63    0.91
   3   7   6   15.38    0.86
   3   7   6   14.52    1.00
   3   7   6   14.45    0.84
   3   7   6   15.05    0.89
   4   7   6   16.60    1.21
   4   7   6   17.63    0.99
   4   7   6   17.32    1.11
   4   7   6   18.02    1.06
   4   7   6   17.17    0.98
   4   7   6   17.03    1.00
   4   7   6   15.38    1.23
   4   7   6   17.05    1.10
   4   7   6   18.80    1.17
   4   7   6   17.30    0.96
  -5  -7  -6    4.62    0.28
  -5  -7  -6    0.74    2.45
   5   7   6    3.40    0.31
   5   7   6    4.52    0.53
  -6  -7  -6    8.30    0.51
  -6  -7  -6    9.49    0.49
   6   7   6    6.86    0.59
  -2   8   6    0.35    0.05
  -2   8   6   -0.03    0.39
  -2   8   6    0.02    0.35
  -2   8   6    0.26    0.08
  -2   8   6    0.14    0.33
  -2   8   6   -0.09    0.31
  -2   8   6    0.47    0.11
  -2   8   6    0.57    0.07
  -2   8   6    0.47    0.07
  -2   8   6    0.30    0.06
  -1   8   6   12.98    0.73
  -1   8   6   13.60    0.75
  -1   8   6   10.82    0.74
  -1   8   6   12.66    0.78
  -1   8   6   13.29    0.79
  -1   8   6   11.09    1.67
  -1   8   6   13.06    0.73
  -1   8   6   13.14    0.72
   0   8   6    6.75    0.41
   0   8   6    6.73    0.42
   0   8   6    6.61    0.48
   0   8   6    6.64    0.43
   0   8   6    6.73    0.42
   0   8   6    6.03    0.50
   0   8   6    6.79    0.48
   0   8   6    6.69    0.44
   0   8   6    6.88    0.63
   1   8   6   32.28    1.75
   1   8   6   31.60    1.73
   1   8   6   31.24    1.72
   1   8   6   30.93    2.50
   1   8   6   32.26    1.74
   1   8   6   30.22    1.85
   1   8   6   32.36    1.79
   1   8   6   30.94    1.75
   1   8   6   31.89    1.80
  -2  -8  -6   -0.27    0.99
   2   8   6    0.47    0.21
   2   8   6   -0.05    0.51
   2   8   6    0.51    0.14
   2   8   6    0.31    0.14
   2   8   6    0.61    0.11
   2   8   6    0.61    0.17
   2   8   6    0.53    0.08
   2   8   6    0.05    0.41
   2   8   6    0.44    0.10
   2   8   6    0.02    0.63
   2   8   6    0.54    0.09
   2   8   6   -0.70    1.57
   2   8   6    0.54    0.10
   2   8   6    1.04    0.61
   2   8   6    0.67    0.15
  -3  -8  -6    9.28    1.99
   3   8   6   13.83    0.77
   3   8   6   13.65    0.81
   3   8   6   13.08    0.76
   3   8   6   12.30    0.84
   3   8   6   14.16    0.75
   3   8   6   13.55    0.74
   3   8   6   11.75    0.85
   3   8   6   13.94    0.76
   3   8   6   13.44    0.79
   3   8   6   11.07    0.92
   4   8   6    5.77    0.35
   4   8   6    5.12    0.44
   4   8   6    6.04    0.45
   4   8   6    4.73    0.36
   4   8   6    6.13    0.51
   4   8   6    6.29    0.41
   4   8   6    6.07    0.36
   4   8   6    6.24    0.37
  -5  -8  -6   -0.28    1.63
  -5  -8  -6    0.38    0.08
   5   8   6    0.50    0.17
   5   8   6    0.77    0.16
   5   8   6    0.36    1.07
   5   8   6    0.46    0.17
   0   9   6    8.51    0.55
   0   9   6    8.65    0.72
   1   9   6   -0.41    1.12
   1   9   6    0.83    0.08
   1   9   6    0.68    0.12
   1   9   6    0.65    0.09
   1   9   6    0.71    0.08
   1   9   6    0.85    0.10
   1   9   6    0.82    0.13
   2   9   6   10.71    0.61
   2   9   6   11.03    0.65
   2   9   6   11.36    0.62
   2   9   6   11.32    0.61
   2   9   6   11.51    0.63
   2   9   6   11.35    0.70
   2   9   6    9.33    0.64
   2   9   6    9.56    0.74
  -3  -9  -6   -0.17    2.20
   3   9   6   -0.19    1.13
   2   5  -7    6.22    0.43
   2   5  -7    6.34    0.60
   2   5  -7    6.05    0.52
  -2  -5   7    6.29    0.41
  -2  -5   7    5.29    0.43
   1   5  -7   17.60    1.01
  -1  -5   7   15.33    1.51
  -1  -5   7   15.91    0.90
   0  -5   7   29.75    1.76
   0  -5   7   35.25    1.68
   0  -5   7   28.39    1.73
  -1   5  -7    0.31    0.11
  -1   5  -7    0.34    0.44
   1  -5   7    0.31    0.11
   1  -5   7    0.45    0.10
   1  -5   7    0.47    0.06
   4   4  -7    1.84    0.27
  -4  -4   7   -0.30    1.06
  -4  -4   7    1.04    0.14
   3   4  -7    0.68    0.19
   3   4  -7    0.36    0.17
   3   4  -7   -0.84    1.76
   3   4  -7    0.38    0.23
  -3  -4   7    0.19    0.10
  -3  -4   7    0.02    0.43
  -3  -4   7    0.42    0.16
  -3  -4   7    0.91    0.22
  -3  -4   7    0.38    0.19
  -3  -4   7    0.61    0.13
  -3  -4   7    0.42    1.97
  -3  -4   7    0.28    0.09
   2   4  -7    2.82    0.30
  -2  -4   7    2.38    0.26
  -2  -4   7    2.68    0.32
  -2  -4   7   -0.50    2.70
  -2  -4   7    3.04    0.32
  -2  -4   7    2.38    0.25
  -2  -4   7    3.92    1.17
  -2  -4   7    2.74    0.45
  -2  -4   7    3.06    0.20
   1   4  -7   28.97    2.00
  -1  -4   7   27.04    1.57
  -1  -4   7   28.84    1.69
  -1  -4   7   29.06    1.81
  -1  -4   7   29.08    1.70
   0   4  -7    1.28    0.28
   0   4  -7    0.74    0.75
   0   4  -7   -0.11    2.60
   0  -4   7    0.82    0.24
   0  -4   7    1.06    0.19
   0  -4   7    0.27    2.61
   0  -4   7    0.68    0.20
   0  -4   7    1.05    0.44
   0  -4   7    0.82    0.11
   0  -4   7    1.01    0.23
  -1   4  -7   28.99    1.87
  -1   4  -7   33.97    1.93
  -1   4  -7   36.78    2.10
   1  -4   7   32.29    1.80
   1  -4   7   33.37    1.80
   1  -4   7   32.52    1.90
  -2   4  -7    0.08    0.10
  -2   4  -7    0.19    0.10
  -2   4  -7    0.14    0.61
   2  -4   7    0.02    0.04
   2  -4   7    0.15    0.08
   2  -4   7    0.11    0.05
  -3   4  -7    4.50    0.33
  -3   4  -7    3.80    0.39
   5   3  -7    2.77    0.36
  -5  -3   7    3.56    0.29
  -5  -3   7    3.77    0.28
   4   3  -7   -0.51    2.33
   4   3  -7    1.41    0.23
  -4  -3   7    1.40    0.12
  -4  -3   7   -0.02    1.29
  -4  -3   7    1.90    0.25
  -4  -3   7    1.44    0.18
  -4  -3   7    1.51    0.16
  -4  -3   7    1.44    0.22
  -4  -3   7    1.65    0.18
  -4  -3   7    1.11    0.31
  -4  -3   7    1.37    0.20
  -4  -3   7    0.16    2.14
  -4  -3   7    1.58    0.22
   3   3  -7    5.91    0.68
  -3  -3   7    5.68    0.50
  -3  -3   7    5.74    0.37
  -3  -3   7    6.05    0.61
  -3  -3   7    5.04    0.47
  -3  -3   7    5.51    0.36
  -3  -3   7    5.64    0.45
  -3  -3   7    6.12    0.51
  -3  -3   7    5.85    0.46
   2   3  -7   48.03    2.75
   2   3  -7   45.16    2.61
   2   3  -7   42.60    2.90
  -2  -3   7   47.46    2.63
  -2  -3   7   51.01    2.80
  -2  -3   7   48.16    2.73
  -2  -3   7   46.63    2.73
  -2  -3   7   51.52    3.27
  -2  -3   7   52.54    2.79
  -2  -3   7   47.43    2.64
  -2  -3   7   50.19    2.92
  -2  -3   7   53.93    2.74
  -2  -3   7   47.41    2.61
  -2  -3   7   48.89    2.76
   1   3  -7   -0.17    1.26
   1   3  -7    0.01    0.15
  -1  -3   7    0.40    0.59
  -1  -3   7    0.44    0.25
  -1  -3   7    0.72    0.14
  -1  -3   7    0.82    0.20
  -1  -3   7    0.74    0.12
  -1  -3   7   -0.01    0.25
  -1  -3   7    0.70    0.17
  -1  -3   7    0.34    0.17
  -1  -3   7   -3.34    2.94
  -1  -3   7    0.08    0.14
  -1  -3   7    0.71    0.10
  -1  -3   7    0.94    0.29
  -1  -3   7    0.64    0.09
   0  -3   7   93.57    5.23
   0  -3   7   92.53    5.09
   0  -3   7   97.04    5.64
   0  -3   7   91.60    4.94
   0  -3   7   90.37    4.95
   0  -3   7   89.54    4.93
  -1   3  -7    1.98    0.27
  -1   3  -7    0.97    2.65
   1  -3   7    1.26    0.45
   1  -3   7    1.64    0.23
   1  -3   7    1.83    0.17
   1  -3   7    2.12    0.54
   1  -3   7    2.64    0.34
   1  -3   7    2.99    0.52
   1  -3   7    1.83    0.18
   1  -3   7    2.69    3.45
   1  -3   7    1.79    0.16
  -2   3  -7   89.03    4.55
   2  -3   7   79.53    4.61
   2  -3   7   81.42    4.82
   2  -3   7   81.61    4.43
   2  -3   7   82.20    4.42
   2  -3   7   81.03    4.40
  -3   3  -7    1.43    0.92
  -3   3  -7    0.35    0.15
  -3   3  -7    0.52    0.60
  -3   3  -7    0.16    0.15
   3  -3   7    0.15    0.06
   3  -3   7    0.16    0.05
   3  -3   7    0.18    0.07
   3  -3   7    0.21    0.10
  -4   3  -7   45.07    4.54
  -4   3  -7   37.27    2.96
  -4   3  -7   34.11    2.16
   4  -3   7   32.19    1.98
   4  -3   7   40.36    2.01
   4  -3   7   37.67    2.00
  -5  -2   7   12.96    0.88
  -5  -2   7   15.25    0.91
  -5  -2   7   14.85    0.80
  -5  -2   7   14.12    0.85
  -5  -2   7   15.42    0.84
  -5  -2   7   15.64    0.92
  -5  -2   7   11.98    0.88
  -5  -2   7   14.45    0.80
  -5  -2   7   14.45    0.81
  -4  -2   7   19.16    1.20
  -4  -2   7   19.53    1.13
  -4  -2   7   18.73    1.16
  -4  -2   7   18.07    1.09
  -4  -2   7   18.34    1.07
  -4  -2   7   19.69    1.20
  -4  -2   7   18.09    1.05
  -4  -2   7   19.59    1.16
  -4  -2   7   18.84    1.18
  -4  -2   7   18.52    1.06
   3   2  -7   -0.09    2.86
   3   2  -7    0.88    0.10
  -3  -2   7    0.76    0.11
  -3  -2   7    0.91    0.11
  -3  -2   7    1.24    0.16
  -3  -2   7    0.78    0.19
  -3  -2   7    1.00    0.22
  -3  -2   7    1.26    0.39
  -3  -2   7    0.98    0.19
  -3  -2   7    1.10    0.27
  -3  -2   7    1.07    0.18
  -3  -2   7    1.18    0.29
  -3  -2   7    0.69    0.25
  -3  -2   7    0.96    0.14
   2   2  -7    0.86    0.10
   2   2  -7    0.86    0.10
   2   2  -7   -1.13    4.98
   2   2  -7   -0.31    1.09
  -2  -2   7    1.34    0.23
  -2  -2   7    0.37    0.33
  -2  -2   7    0.30    0.31
  -2  -2   7    0.83    0.11
  -2  -2   7    1.35    0.82
  -2  -2   7    0.73    0.15
  -2  -2   7    1.05    0.26
  -2  -2   7    0.95    0.31
  -2  -2   7    0.82    0.11
  -2  -2   7    0.83    0.13
  -2  -2   7    1.19    0.27
  -2  -2   7    1.01    0.20
  -2  -2   7    0.73    0.13
  -2  -2   7    0.81    0.20
  -2  -2   7    1.03    0.17
   1   2  -7    0.11    0.05
   1   2  -7    0.10    1.13
   1   2  -7   -2.44    3.69
   1   2  -7    0.19    0.06
   1   2  -7    0.17    0.06
  -1  -2   7    0.11    0.05
  -1  -2   7    0.19    0.35
  -1  -2   7    0.19    0.13
  -1  -2   7    0.30    0.11
  -1  -2   7    0.19    0.19
  -1  -2   7    0.10    0.26
  -1  -2   7    0.08    0.12
  -1  -2   7    0.14    0.18
  -1  -2   7    0.15    0.06
  -1  -2   7   -0.03    0.22
  -1  -2   7    0.14    0.17
  -1  -2   7    0.13    0.07
  -1  -2   7   -0.09    0.13
  -1  -2   7    0.18    0.08
  -1  -2   7    0.21    0.12
  -1  -2   7    0.26    0.12
   0   2  -7    2.90    0.20
   0   2  -7    2.79    0.21
   0   2  -7   -1.82    3.62
   0  -2   7    3.09    0.65
   0  -2   7    2.87    0.33
   0  -2   7    2.70    0.22
   0  -2   7    2.76    0.31
   0  -2   7    2.72    0.43
   0  -2   7    2.58    0.22
   0  -2   7    2.67    0.26
   0  -2   7    2.82    0.21
   0  -2   7    2.28    0.46
   0  -2   7    2.61    0.33
   0  -2   7    2.64    0.24
   0  -2   7    2.97    0.30
  -1   2  -7   12.20    0.69
  -1   2  -7   11.40    0.82
   1  -2   7   12.81    0.81
   1  -2   7   13.21    1.27
   1  -2   7    7.90    3.61
   1  -2   7   11.33    0.71
   1  -2   7   11.73    0.95
   1  -2   7   13.53    0.86
   1  -2   7   10.84    0.73
   1  -2   7   11.65    0.72
   1  -2   7   11.69    0.70
   1  -2   7   11.32    0.69
  -2   2  -7    1.60    0.32
  -2   2  -7    1.67    0.29
  -2   2  -7    1.83    3.29
   2  -2   7    1.35    0.17
   2  -2   7    1.39    0.21
   2  -2   7    1.48    0.16
   2  -2   7    1.20    0.41
   2  -2   7    3.79    3.38
   2  -2   7    1.40    0.14
   2  -2   7    1.84    0.42
   2  -2   7    1.40    0.15
  -3   2  -7    6.29    0.62
  -3   2  -7    6.58    0.52
   3  -2   7    5.94    0.40
   3  -2   7    5.09    0.43
   3  -2   7    6.17    0.38
   3  -2   7    5.66    0.38
   3  -2   7    5.62    0.41
  -4   2  -7    5.97    1.58
  -4   2  -7    3.99    0.49
  -4   2  -7    5.89    0.43
   4  -2   7    5.37    0.32
   4  -2   7    4.59    0.31
   4  -2   7    5.20    0.34
  -5   2  -7    6.90    0.54
  -5   2  -7    6.74    0.47
  -5   2  -7    6.50    0.99
  -5   2  -7   10.81    2.84
   5  -2   7    6.23    0.38
   5  -2   7    6.37    0.40
  -6  -1   7   11.52    0.61
  -6  -1   7    9.75    0.62
  -6  -1   7    9.63    0.57
  -5  -1   7    6.09    0.41
  -5  -1   7    5.88    0.37
  -5  -1   7    6.33    0.47
  -5  -1   7    6.24    0.61
  -5  -1   7    6.17    0.39
  -5  -1   7    5.92    0.48
  -5  -1   7    5.63    0.46
  -5  -1   7    5.97    0.43
  -5  -1   7    5.73    0.37
  -4  -1   7   13.65    0.95
  -4  -1   7   14.17    0.91
  -4  -1   7   12.66    0.89
  -4  -1   7   13.54    0.84
  -4  -1   7   14.62    0.94
  -4  -1   7   15.00    1.15
  -4  -1   7   14.45    0.88
  -4  -1   7   12.47    0.86
  -4  -1   7   13.99    0.80
  -4  -1   7   13.74    0.81
  -4  -1   7   13.85    0.79
   3   1  -7   20.65    1.22
   3   1  -7   20.35    1.15
  -3  -1   7   20.33    1.16
  -3  -1   7   18.62    1.37
  -3  -1   7   22.15    1.58
  -3  -1   7   20.39    1.28
  -3  -1   7   21.35    1.16
  -3  -1   7   19.98    1.17
  -3  -1   7   21.82    1.33
  -3  -1   7   19.94    1.21
  -3  -1   7   21.49    2.41
  -3  -1   7   20.24    1.18
  -3  -1   7   20.86    1.31
  -3  -1   7   21.79    1.27
  -3  -1   7   20.72    1.28
  -3  -1   7   21.42    1.26
   2   1  -7    9.08    0.52
   2   1  -7    8.93    0.51
   2   1  -7    9.31    0.52
  -2  -1   7    8.40    0.55
  -2  -1   7    8.78    0.55
  -2  -1   7    8.89    0.68
  -2  -1   7   10.46    0.71
  -2  -1   7    8.24    0.54
  -2  -1   7    7.93    0.76
  -2  -1   7    8.99    0.69
  -2  -1   7    8.57    0.64
  -2  -1   7    9.34    0.64
  -2  -1   7    8.21    0.57
  -2  -1   7    8.41    0.66
  -2  -1   7    8.91    0.62
  -2  -1   7    8.54    0.97
  -2  -1   7    8.75    0.53
   1   1  -7    1.03    0.09
   1   1  -7    1.19    0.11
   1   1  -7   -0.27    0.89
   1   1  -7    1.08    0.11
   1   1  -7    1.16    0.11
  -1  -1   7    0.89    0.21
  -1  -1   7    0.91    0.20
  -1  -1   7    1.18    0.22
  -1  -1   7    1.13    0.30
  -1  -1   7    0.91    0.34
  -1  -1   7    1.14    0.16
  -1  -1   7    0.49    0.25
  -1  -1   7    0.77    0.35
  -1  -1   7    1.01    0.16
  -1  -1   7    0.99    0.14
  -1  -1   7    0.96    0.13
  -1  -1   7    1.25    0.36
  -1  -1   7    0.94    0.12
  -1  -1   7    1.00    0.20
   0   1  -7   32.28    1.78
   0   1  -7   35.12    1.79
   0   1  -7   33.90    1.80
   0   1  -7   35.17    1.79
   0  -1   7   31.55    1.85
   0  -1   7   32.94    1.81
   0  -1   7   34.39    2.21
   0  -1   7   31.24    1.93
   0  -1   7   32.18    1.80
   0  -1   7   33.83    2.42
   0  -1   7   30.86    2.07
   0  -1   7   31.74    1.81
   0  -1   7   32.42    1.92
   0  -1   7   31.09    1.83
   0  -1   7   36.45    1.93
  -1   1  -7    8.46    0.48
  -1   1  -7    8.30    0.48
  -1   1  -7    8.65    0.48
  -1   1  -7    7.65    0.46
   1  -1   7    7.72    0.73
   1  -1   7    8.15    0.52
   1  -1   7    7.88    0.48
   1  -1   7    6.97    0.66
   1  -1   7    7.68    0.60
   1  -1   7    8.30    0.81
   1  -1   7    7.43    0.52
   1  -1   7    7.85    0.49
   1  -1   7    8.40    0.91
   1  -1   7    7.94    0.51
   1  -1   7    8.29    0.61
   1  -1   7    8.09    0.73
   1  -1   7    6.84    0.55
  -2   1  -7   43.61    2.56
  -2   1  -7   43.02    2.26
  -2   1  -7   46.67    2.27
  -2   1  -7   40.36    2.27
   2  -1   7   40.03    2.32
   2  -1   7   39.26    2.49
   2  -1   7   42.19    2.30
   2  -1   7   40.32    2.40
   2  -1   7   41.50    2.27
   2  -1   7   38.23    2.51
   2  -1   7   44.08    2.29
   2  -1   7   40.61    2.85
   2  -1   7   38.34    2.63
   2  -1   7   41.89    2.28
   2  -1   7   47.54    2.41
   2  -1   7   43.14    2.77
   2  -1   7   40.22    2.39
  -4   1  -7   29.11    2.89
  -4   1  -7   31.11    1.76
  -4   1  -7   32.55    1.92
   4  -1   7   28.68    1.67
   4  -1   7   29.12    1.63
   4  -1   7   28.88    1.65
   4  -1   7   28.20    1.83
  -5   1  -7    0.46    0.14
  -5   1  -7    0.34    0.77
  -5   1  -7    0.39    0.20
  -5   1  -7    4.16    3.09
   5  -1   7    0.34    0.07
   5  -1   7    0.62    0.11
   5  -1   7    0.59    0.09
  -6   0   7    7.58    0.49
  -6   0   7    7.66    0.42
  -6   0   7    7.51    0.44
  -6   0   7    7.18    0.42
  -6   0   7    7.42    0.46
  -6   0   7    7.65    0.43
  -6   0   7    7.34    0.47
  -6   0   7    6.33    0.50
  -6   0   7    6.99    0.49
  -6   0   7    5.51    0.93
  -5   0   7    8.38    0.61
  -5   0   7    7.76    0.50
  -5   0   7    8.05    0.54
  -5   0   7    7.76    0.52
  -5   0   7    7.82    0.57
  -5   0   7    8.16    0.57
  -5   0   7    8.34    0.61
  -5   0   7    8.19    0.48
  -5   0   7    7.81    0.48
  -5   0   7    7.35    1.36
  -4   0   7   26.57    1.48
  -4   0   7   24.80    1.54
  -4   0   7   25.90    1.50
  -4   0   7   24.95    1.38
  -4   0   7   25.76    1.51
  -4   0   7   24.25    1.72
  -4   0   7   25.50    1.41
  -4   0   7   24.97    1.39
  -4   0   7   23.66    1.46
  -4   0   7   25.81    1.50
  -4   0   7   22.10    1.52
  -4   0   7   25.28    1.43
   3   0  -7    0.15    0.05
   3   0  -7    0.21    0.05
  -3   0   7    0.19    0.06
  -3   0   7    0.12    0.13
  -3   0   7    0.57    0.64
  -3   0   7    0.12    0.11
  -3   0   7    0.25    0.11
  -3   0   7    0.11    0.19
  -3   0   7    0.20    0.17
  -3   0   7    0.20    0.06
  -3   0   7    0.14    0.06
  -3   0   7    0.16    0.09
  -3   0   7    0.10    0.15
  -3   0   7    0.04    0.08
  -3   0   7    0.14    0.10
   2   0  -7   17.79    0.94
   2   0  -7   18.21    0.94
   2   0  -7   18.06    0.95
  -2   0   7   17.33    1.06
  -2   0   7   16.22    1.30
  -2   0   7   16.99    1.11
  -2   0   7   16.93    1.08
  -2   0   7   17.39    0.97
  -2   0   7   17.63    0.96
  -2   0   7   16.51    1.01
  -2   0   7   17.07    1.10
  -2   0   7   16.58    0.98
  -2   0   7   15.88    1.18
  -2   0   7   16.43    0.99
   1   0  -7   14.18    0.78
   1   0  -7   13.76    0.77
   1   0  -7   14.33    0.77
   1   0  -7   14.33    0.78
   1   0  -7   14.58    0.78
  -1   0   7   13.94    1.11
  -1   0   7   12.92    0.88
  -1   0   7   15.81    1.11
  -1   0   7   13.02    0.82
  -1   0   7   13.75    0.79
  -1   0   7   13.51    1.00
  -1   0   7   13.39    0.90
  -1   0   7   13.99    1.13
   0   0  -7   18.99    1.00
   0   0  -7   17.52    1.03
   0   0  -7   18.13    0.99
   0   0  -7   18.53    0.99
   0   0  -7   17.98    1.22
   0   0  -7   18.55    1.00
   0   0  -7   18.99    1.00
   0   0   7   16.66    1.09
   0   0   7   18.00    1.02
   0   0   7   17.33    1.21
  -1   0  -7   52.67    2.55
  -1   0  -7   51.54    2.56
  -1   0  -7   50.00    2.53
  -1   0  -7   46.09    2.60
  -1   0  -7   44.50    2.96
  -1   0  -7   52.69    2.55
  -1   0  -7   49.23    2.54
   1   0   7   46.66    2.92
   1   0   7   43.37    2.64
   1   0   7   39.40    2.67
   1   0   7   46.75    2.59
   1   0   7   48.36    2.57
   1   0   7   44.16    2.84
  -2   0  -7    5.69    0.33
  -2   0  -7    5.13    0.31
  -2   0  -7    5.53    0.33
  -2   0  -7    5.76    0.33
   2   0   7    4.35    0.51
   2   0   7    4.87    0.34
   2   0   7    4.73    0.37
   2   0   7    4.48    0.52
   2   0   7    4.75    0.43
   2   0   7    3.84    0.66
   2   0   7    4.64    0.60
   2   0   7    4.98    0.32
   2   0   7    5.33    1.12
   2   0   7    4.69    0.53
   2   0   7    4.99    0.66
   2   0   7    5.16    0.36
   2   0   7    5.21    0.46
   2   0   7    4.43    0.60
  -3   0  -7   18.96    0.96
  -3   0  -7   18.00    0.95
   3   0   7   14.79    1.15
   3   0   7   17.12    0.98
   3   0   7   15.66    1.17
   3   0   7   17.97    1.38
   3   0   7   17.46    0.98
   3   0   7   15.83    1.07
   3   0   7   17.15    0.96
   3   0   7   16.02    1.33
   3   0   7   16.45    1.28
   3   0   7   17.09    1.01
   3   0   7   16.40    1.09
  -4   0  -7   -0.22    0.87
  -4   0  -7    1.90    1.26
  -4   0  -7    2.20    3.80
  -4   0  -7    7.47    4.70
   4   0   7    0.42    0.16
   4   0   7    0.49    0.09
   4   0   7    0.74    0.93
   4   0   7    0.34    0.10
   4   0   7    0.40    0.23
   4   0   7    0.29    0.08
   4   0   7    0.41    0.33
   4   0   7    0.94    2.86
  -5   0  -7    0.47    0.24
  -5   0  -7    1.68    1.10
  -5   0  -7    0.85    0.15
  -5   0  -7    4.63    3.15
   5   0   7    0.51    0.10
   5   0   7    0.50    0.11
   5   0   7    0.47    0.16
   5   0   7    1.20    1.93
   5   0   7    0.20    0.21
   5   0   7    0.42    0.08
  -6   0  -7    1.23    0.12
  -6   0  -7    1.16    0.20
   6   0   7    1.47    0.14
   6   0   7    1.06    0.10
   6   0   7    1.14    0.16
   6  -1  -7    1.13    1.68
  -6   1   7    0.12    0.05
  -6   1   7    0.05    0.26
  -6   1   7   -0.04    0.35
  -6   1   7    0.04    0.06
  -6   1   7    0.04    0.09
  -6   1   7    0.04    0.06
  -6   1   7    0.05    0.04
  -6   1   7    0.02    0.03
  -6   1   7    0.12    0.09
  -6   1   7    0.03    0.05
  -6   1   7    0.19    0.97
  -5   1   7    7.14    0.53
  -5   1   7    7.45    0.57
  -5   1   7    7.40    0.44
  -5   1   7    7.33    0.51
  -5   1   7    7.71    0.58
  -5   1   7    6.78    0.51
  -5   1   7    7.57    0.47
  -5   1   7    7.52    0.45
  -5   1   7    7.42    0.48
   4  -1  -7    3.32    0.23
  -4   1   7    3.68    0.40
  -4   1   7    3.35    0.31
  -4   1   7    3.07    0.38
  -4   1   7    3.63    0.34
  -4   1   7    3.61    0.26
  -4   1   7    3.43    0.26
  -4   1   7    3.63    0.29
  -4   1   7    3.15    0.33
  -4   1   7    3.47    0.32
  -4   1   7    3.31    0.24
   3  -1  -7    4.37    0.28
  -3   1   7    4.85    0.39
  -3   1   7    3.90    0.38
  -3   1   7    4.46    0.32
  -3   1   7    4.76    0.31
  -3   1   7    4.18    0.34
  -3   1   7    4.33    0.40
  -3   1   7    4.75    0.38
  -3   1   7    4.61    0.30
   2  -1  -7    0.23    0.04
   2  -1  -7    0.33    0.05
  -2   1   7    0.19    0.05
  -2   1   7    0.29    0.12
  -2   1   7    0.08    0.08
  -2   1   7    0.18    0.13
  -2   1   7    0.18    0.06
  -2   1   7    0.12    0.16
  -2   1   7    0.30    0.06
  -2   1   7    0.07    0.14
  -2   1   7    0.12    0.10
  -2   1   7    0.18    0.06
   1  -1  -7   34.30    1.81
   1  -1  -7   33.10    1.81
   1  -1  -7   35.59    1.80
   1  -1  -7   34.42    1.81
  -1   1   7   32.88    2.05
  -1   1   7   32.59    1.93
   0  -1  -7   12.22    0.67
   0  -1  -7   12.09    0.68
   0  -1  -7   13.13    0.68
   0  -1  -7   12.73    0.69
   0  -1  -7   11.83    0.73
   0   1   7   12.07    0.88
   0   1   7   12.06    0.78
  -1  -1  -7   79.27    4.00
  -1  -1  -7   66.32    4.01
  -1  -1  -7   72.65    4.05
  -1  -1  -7   76.82    4.01
  -1  -1  -7   77.68    4.00
  -1  -1  -7   76.94    4.01
   1   1   7   74.49    4.11
   1   1   7   83.37    4.26
   1   1   7   73.53    4.22
   1   1   7   72.24    4.01
  -2  -1  -7   38.13    2.18
  -2  -1  -7   41.44    2.18
  -2  -1  -7   40.74    2.16
  -2  -1  -7   40.72    2.16
  -2  -1  -7   41.51    2.18
   2   1   7   38.89    2.54
   2   1   7   46.93    2.42
   2   1   7   42.03    2.22
   2   1   7   37.89    2.26
   2   1   7   35.74    2.41
   2   1   7   39.85    2.31
   2   1   7   41.28    2.28
   2   1   7   39.31    2.18
  -3  -1  -7    6.92    0.41
  -3  -1  -7    7.00    0.42
  -3  -1  -7    7.10    2.42
  -3  -1  -7    7.27    0.42
   3   1   7    6.53    0.53
   3   1   7    7.14    0.42
   3   1   7    5.99    0.60
   3   1   7    6.24    0.71
   3   1   7    5.93    0.62
   3   1   7    6.58    0.54
   3   1   7    6.88    0.44
   3   1   7    6.53    0.46
   3   1   7    6.62    0.81
   3   1   7    6.79    0.71
   3   1   7    6.78    0.44
   3   1   7    6.12    0.60
  -4  -1  -7    0.38    0.07
  -4  -1  -7   -0.44    1.25
  -4  -1  -7    4.02    3.70
  -4  -1  -7    0.52    0.17
   4   1   7    1.05    0.95
   4   1   7    0.45    0.16
   4   1   7    0.48    0.35
   4   1   7    0.49    0.24
   4   1   7    0.41    0.16
   4   1   7    0.87    0.87
   4   1   7    0.29    0.11
   4   1   7    0.39    0.22
   4   1   7    0.43    0.08
   4   1   7    0.36    0.10
   4   1   7    0.18    2.21
   4   1   7    3.20    3.85
  -5  -1  -7    0.18    0.10
  -5  -1  -7    1.15    3.04
  -5  -1  -7   -0.10    0.08
  -5  -1  -7   -0.17    3.40
   5   1   7   -0.15    0.96
   5   1   7   -1.27    2.17
   5   1   7    0.03    0.06
   5   1   7    0.32    0.28
   5   1   7    0.01    0.19
   5   1   7    0.08    0.11
   5   1   7   -0.08    0.08
   5   1   7    0.11    0.04
  -6  -1  -7   -0.01    0.06
  -6  -1  -7   -0.69    1.97
  -6  -1  -7   -0.32    0.53
  -6  -1  -7   -0.06    0.12
  -6  -1  -7    0.04    0.06
   6   1   7    0.03    0.08
   6   1   7    0.03    0.05
   6   1   7    0.05    0.03
  -6   2   7    5.95    0.34
  -6   2   7    5.54    0.40
  -6   2   7    5.68    0.38
  -6   2   7    5.88    0.48
  -5   2   7    8.91    0.63
  -5   2   7    8.39    0.50
  -5   2   7    9.11    1.42
  -5   2   7    8.52    0.59
  -5   2   7    8.61    0.52
  -5   2   7    8.40    0.57
  -5   2   7    8.33    0.52
  -5   2   7    8.82    0.63
   4  -2  -7   11.98    0.71
  -4   2   7   12.15    0.81
  -4   2   7   12.67    0.76
  -4   2   7   13.39    0.75
  -4   2   7   13.12    0.74
  -4   2   7   11.90    0.83
  -4   2   7   13.32    0.82
  -4   2   7   12.58    0.79
  -4   2   7   13.39    0.88
  -4   2   7   13.86    0.89
   3  -2  -7    2.46    0.17
  -3   2   7    2.64    0.22
  -3   2   7    2.60    0.19
  -3   2   7    2.55    0.32
  -3   2   7    2.82    0.27
  -3   2   7    2.45    0.26
  -3   2   7    2.54    0.20
  -3   2   7    2.41    0.23
  -3   2   7    2.62    0.33
  -3   2   7    2.27    0.26
   2  -2  -7    2.88    0.17
  -2   2   7    2.86    0.22
  -2   2   7    2.78    0.24
  -2   2   7    3.06    0.22
  -2   2   7    2.73    0.20
   1  -2  -7    1.96    0.12
   1  -2  -7    2.02    0.12
  -1   2   7    1.67    0.25
   0  -2  -7   25.17    1.33
   0  -2  -7   25.07    1.33
   0  -2  -7   22.83    1.34
   0   2   7   26.17    1.56
   0   2   7   25.31    1.54
  -1  -2  -7   30.18    1.74
  -1  -2  -7   33.25    1.73
  -1  -2  -7   32.83    1.79
  -1  -2  -7   32.56    1.73
   1   2   7   33.90    1.95
   1   2   7   31.49    1.94
  -2  -2  -7    8.58    0.46
  -2  -2  -7    9.04    0.47
  -2  -2  -7    8.18    0.49
  -2  -2  -7    7.93    0.48
  -2  -2  -7    6.65    0.47
   2   2   7    8.78    0.83
   2   2   7    8.07    0.51
   2   2   7    7.42    0.66
   2   2   7    8.47    0.65
   2   2   7    7.70    0.71
   2   2   7    8.10    0.48
  -3  -2  -7   28.30    1.65
  -3  -2  -7   32.08    1.66
  -3  -2  -7   30.75    1.63
  -3  -2  -7   30.34    1.65
   3   2   7   29.65    2.06
   3   2   7   30.62    1.65
   3   2   7   31.64    2.02
   3   2   7   30.36    1.78
   3   2   7   31.78    1.79
   3   2   7   27.80    1.84
   3   2   7   27.76    1.88
   3   2   7   28.39    2.00
   3   2   7   30.25    1.85
   3   2   7   31.56    1.70
  -4  -2  -7    0.29    0.08
  -4  -2  -7    3.74    3.97
  -4  -2  -7    0.27    0.07
  -4  -2  -7    0.28    0.08
  -4  -2  -7    2.06    1.91
   4   2   7    0.28    0.19
   4   2   7    0.16    0.09
   4   2   7   -0.04    0.58
   4   2   7    0.13    0.19
   4   2   7    0.34    0.09
   4   2   7    0.09    0.18
   4   2   7    0.90    0.77
   4   2   7    0.37    0.16
   4   2   7    0.34    0.14
   4   2   7    0.06    0.16
   4   2   7    0.30    0.09
   4   2   7    0.10    0.16
   4   2   7    0.37    0.15
   4   2   7    2.85    3.23
   4   2   7    0.29    0.30
   4   2   7    0.34    0.27
   5   2   7    5.37    4.02
   5   2   7    8.81    1.44
  -6  -2  -7    7.59    1.20
   6   2   7    9.10    1.71
  -5   3   7    2.89    0.30
  -5   3   7    2.82    0.20
  -5   3   7    2.91    0.30
  -5   3   7    1.76    0.71
  -5   3   7    2.62    0.19
  -5   3   7    2.74    0.25
  -5   3   7    1.52    0.77
  -5   3   7    2.75    0.26
  -4   3   7    8.07    0.60
  -4   3   7    7.93    0.48
  -4   3   7    7.41    0.55
  -4   3   7    7.45    0.55
  -4   3   7    7.61    0.59
  -4   3   7    7.89    0.54
  -3   3   7    0.90    0.16
  -3   3   7    1.00    0.16
  -3   3   7    0.66    0.18
  -3   3   7    0.53    0.54
  -3   3   7    1.09    0.15
  -3   3   7    0.55    0.18
  -3   3   7    0.91    0.17
  -1  -3  -7    1.03    0.34
  -1  -3  -7    1.24    0.10
  -1  -3  -7    1.24    0.09
  -1  -3  -7    1.17    0.09
   1   3   7    1.17    0.13
   1   3   7    1.24    0.21
  -2  -3  -7   -0.11    0.09
  -2  -3  -7    0.05    0.05
  -2  -3  -7    0.07    0.04
  -2  -3  -7    0.06    0.05
  -2  -3  -7    0.09    0.04
  -2  -3  -7    0.30    0.07
   2   3   7   -0.12    0.33
   2   3   7    0.16    0.17
   2   3   7    0.24    0.22
   2   3   7    0.17    0.09
   2   3   7    0.19    0.11
   2   3   7    0.00    0.13
   2   3   7    0.12    0.15
   2   3   7    0.04    0.42
   2   3   7    0.06    0.04
   2   3   7    0.01    0.09
  -3  -3  -7    2.12    0.16
  -3  -3  -7    1.84    0.18
  -3  -3  -7    2.28    0.19
  -3  -3  -7    2.17    0.19
   3   3   7    2.41    0.35
   3   3   7    1.84    0.33
   3   3   7    2.27    0.18
   3   3   7    2.35    0.38
   3   3   7    2.43    0.28
   3   3   7    2.61    0.28
   3   3   7    1.71    0.40
   3   3   7    2.64    0.43
   3   3   7   -0.18    2.41
   3   3   7    1.86    0.24
   3   3   7    2.70    0.42
   3   3   7    1.79    0.21
  -4  -3  -7   -0.12    1.20
  -4  -3  -7    0.06    0.05
  -4  -3  -7    0.05    0.07
  -4  -3  -7    0.10    0.07
   4   3   7    0.13    0.07
   4   3   7    0.15    0.11
   4   3   7    0.08    0.16
   4   3   7    0.09    0.19
   4   3   7   -0.01    0.15
   4   3   7    0.03    0.11
   4   3   7    0.13    0.08
   4   3   7    0.11    0.08
   4   3   7   -0.12    0.21
   4   3   7   -0.25    0.60
   4   3   7    0.11    0.22
   4   3   7    0.10    0.14
   4   3   7    0.09    0.15
   4   3   7    0.07    0.10
   4   3   7    0.33    2.75
   4   3   7   -0.02    0.49
  -5  -3  -7    2.07    1.72
  -5  -3  -7    2.89    3.69
   5   3   7   -0.54    2.34
   5   3   7    0.48    0.15
   5   3   7    0.18    0.10
   5   3   7    0.32    0.20
   5   3   7    0.35    0.26
   5   3   7    0.02    0.58
   5   3   7    0.30    0.13
   5   3   7    0.88    0.75
   5   3   7    0.15    0.07
   5   3   7    0.12    0.14
   5   3   7    1.60    2.35
   5   3   7    0.36    0.16
   5   3   7    0.32    0.18
  -6  -3  -7    0.68    0.08
  -6  -3  -7    0.87    0.16
  -6  -3  -7    0.78    0.14
   6   3   7    0.60    0.09
   6   3   7    0.39    0.17
   6   3   7    2.15    1.96
   6   3   7    0.56    0.14
   6   3   7    0.31    2.17
   6   3   7    0.54    0.14
   6   3   7    0.68    0.25
   6   3   7    1.07    0.63
  -5   4   7    1.25    0.62
  -5   4   7    0.57    0.11
  -5   4   7    0.17    1.08
  -5   4   7    0.61    0.07
  -5   4   7    0.67    0.14
  -5   4   7   -0.07    0.34
  -5   4   7    0.33    0.08
  -5   4   7   -0.14    0.34
  -5   4   7    0.13    0.36
  -4   4   7   12.13    3.30
  -4   4   7    9.17    1.46
  -4   4   7   14.51    1.96
  -3   4   7    0.58    1.51
  -1  -4  -7   34.76    1.78
  -1  -4  -7   36.40    1.79
   1   4   7   30.25    2.14
   1   4   7   29.21    2.21
   1   4   7   35.93    2.21
  -2  -4  -7  157.80    7.81
  -2  -4  -7  152.91    7.81
  -2  -4  -7  148.96    7.82
  -2  -4  -7  140.41    7.80
   2   4   7  145.62    7.93
   2   4   7  141.95    8.02
   2   4   7  153.21    8.29
   2   4   7  131.27    8.04
   2   4   7  154.46    8.23
   2   4   7  151.30    8.17
   2   4   7  150.06    7.81
   2   4   7  139.56    7.87
   2   4   7  150.15    8.40
  -3  -4  -7    3.67    0.27
  -3  -4  -7    3.62    0.27
  -3  -4  -7    3.54    0.27
   3   4   7    4.23    0.48
   3   4   7    4.11    0.44
   3   4   7    4.25    0.63
   3   4   7    3.75    0.31
   3   4   7    4.16    0.53
   3   4   7    4.14    0.36
   3   4   7    4.04    0.27
   3   4   7    2.08    2.79
   3   4   7    4.38    0.55
   3   4   7    4.23    0.37
  -4  -4  -7   94.29    5.84
  -4  -4  -7  101.74    5.84
   4   4   7  121.44    6.47
   4   4   7  111.99    6.22
   4   4   7  112.82    6.11
   4   4   7  121.14    6.06
   4   4   7  116.93    6.26
   4   4   7  112.88    6.05
   4   4   7  101.43    5.85
   4   4   7  112.77    5.85
   4   4   7  114.93    5.98
   4   4   7   97.93    6.22
   4   4   7  107.21    5.90
   4   4   7  110.52    5.96
  -5  -4  -7    3.59    0.29
  -5  -4  -7    3.72    0.28
   5   4   7    4.37    0.54
   5   4   7    4.37    0.37
   5   4   7    4.15    0.38
   5   4   7    4.79    1.08
   5   4   7    4.26    0.51
   5   4   7    4.17    0.56
   5   4   7    3.12    0.40
   5   4   7    4.06    0.37
   5   4   7    3.68    0.42
   5   4   7    1.84    2.66
   5   4   7    3.91    0.32
  -6  -4  -7   10.36    0.63
  -6  -4  -7   10.48    0.61
  -6  -4  -7   10.55    0.58
   6   4   7    8.71    0.63
  -4   5   7    0.85    0.56
  -4   5   7    0.20    0.50
  -4   5   7   -0.10    0.37
  -4   5   7    0.21    1.05
  -4   5   7   -0.16    0.39
  -4   5   7    0.14    0.40
  -3   5   7    0.20    1.30
  -3   5   7    0.83    0.62
  -1  -5  -7    4.93    0.27
   1   5   7    4.22    0.44
   1   5   7    4.20    0.45
   1   5   7    4.25    0.33
   1   5   7    4.63    0.55
   1   5   7    4.41    0.37
  -2  -5  -7   15.35    0.80
  -2  -5  -7   14.77    0.80
  -2  -5  -7   14.91    0.80
   2   5   7   14.30    1.16
   2   5   7   13.95    0.91
   2   5   7   13.03    0.98
   2   5   7   13.69    0.82
   2   5   7   14.96    1.16
   2   5   7   13.99    0.86
   2   5   7   14.60    0.79
   2   5   7   13.32    1.01
  -3  -5  -7    0.09    0.05
  -3  -5  -7    0.00    1.38
  -3  -5  -7    0.14    0.06
  -3  -5  -7    0.15    0.06
   3   5   7    0.10    0.04
   3   5   7    0.10    0.21
   3   5   7   -0.52    2.17
   3   5   7    0.03    0.59
   3   5   7    0.05    0.15
   3   5   7    0.05    0.13
   3   5   7   -0.01    0.14
   3   5   7    0.15    0.54
   3   5   7    0.08    0.06
   3   5   7    0.07    0.22
   3   5   7    0.27    0.16
   3   5   7    0.04    0.07
   3   5   7    0.05    0.04
   3   5   7    0.03    0.10
   4   5   7    7.60    0.76
   4   5   7    7.26    0.64
   4   5   7    6.31    0.57
   4   5   7    6.54    0.68
   4   5   7    7.09    0.53
   4   5   7    7.56    0.84
   4   5   7    7.59    0.54
   4   5   7    6.50    0.44
   4   5   7    6.11    0.59
   4   5   7    7.73    0.74
   4   5   7    6.85    0.48
   4   5   7    6.69    0.44
  -5  -5  -7    0.45    1.31
  -5  -5  -7    0.93    3.24
  -5  -5  -7    0.04    0.06
   5   5   7    0.15    0.48
   5   5   7   -0.06    0.13
   5   5   7   -0.02    0.15
   5   5   7    0.00    2.00
   5   5   7    0.21    0.20
   5   5   7   -0.07    0.12
   5   5   7    0.03    0.08
   5   5   7    0.05    0.08
   5   5   7    0.02    0.05
   5   5   7    0.05    0.44
   5   5   7   -0.04    0.10
   5   5   7    0.04    0.14
   5   5   7    0.00    0.16
   5   5   7    0.04    0.14
   5   5   7   -0.69    1.85
  -6  -5  -7    7.01    0.39
  -6  -5  -7    6.69    0.41
  -6  -5  -7    4.79    2.15
  -6  -5  -7    7.11    0.39
   6   5   7    6.00    0.43
   6   5   7    5.23    0.46
   6   5   7    6.15    0.44
  -3   6   7    5.05    3.21
  -3   6   7    3.61    0.96
  -2   6   7   15.46    0.93
  -1   6   7    5.73    0.37
  -1   6   7    5.68    0.38
  -1   6   7    5.62    0.37
   0   6   7   21.89    1.20
   0   6   7   19.30    1.43
   0   6   7   21.37    1.21
   0   6   7   21.31    1.18
   0   6   7   21.09    1.19
   0   6   7   21.58    1.26
  -1  -6  -7    1.32    0.10
   1   6   7    1.25    0.31
   1   6   7    1.08    0.13
   1   6   7    1.07    0.12
   1   6   7    1.41    0.15
   1   6   7   -0.19    1.76
   1   6   7    1.73    0.75
   1   6   7    1.13    0.18
   1   6   7    1.07    0.15
  -2  -6  -7   25.15    1.33
  -2  -6  -7   25.84    1.34
   2   6   7   23.97    1.39
   2   6   7   25.71    1.69
   2   6   7   23.65    1.36
   2   6   7   23.54    1.51
   2   6   7   23.54    1.69
   2   6   7   25.09    1.82
   2   6   7   24.16    1.37
   2   6   7   24.78    1.45
   2   6   7   23.58    1.32
   2   6   7   23.68    1.36
  -3  -6  -7    7.25    0.45
   3   6   7    7.35    0.62
   3   6   7    8.06    0.55
   3   6   7    7.35    0.47
   3   6   7    7.39    0.47
   3   6   7    7.62    0.50
   3   6   7    7.68    0.62
   3   6   7    7.22    0.46
   3   6   7    7.80    0.74
   3   6   7    7.58    0.65
   3   6   7    6.33    0.72
   4   6   7   12.69    0.75
   4   6   7   12.45    0.86
   4   6   7   12.61    0.90
   4   6   7   11.75    0.72
   4   6   7   11.82    0.71
   4   6   7   12.82    0.99
   4   6   7   12.63    0.86
   4   6   7   13.33    1.03
   4   6   7   10.06    1.03
   4   6   7   12.23    0.79
  -5  -6  -7    1.05    2.88
  -5  -6  -7    4.67    0.38
  -5  -6  -7    4.80    0.35
   5   6   7    5.72    0.38
   5   6   7    5.59    0.44
   5   6   7    4.56    0.51
   5   6   7    5.94    0.54
   5   6   7    5.22    0.47
   5   6   7    5.95    0.42
   5   6   7    5.60    0.34
   5   6   7    5.94    0.53
   5   6   7    5.31    0.43
  -6  -6  -7    0.05    0.05
  -6  -6  -7    0.02    0.09
  -6  -6  -7    0.05    0.03
  -6  -6  -7    0.00    1.57
  -6  -6  -7   -0.06    0.08
   6   6   7    0.04    0.08
   6   6   7   -0.03    0.06
   6   6   7   -0.31    0.97
   6   6   7    0.01    0.07
  -2   7   7    0.03    0.03
  -2   7   7   -0.01    0.39
  -2   7   7    0.05    0.04
  -2   7   7   -0.03    0.41
  -2   7   7    0.06    0.07
  -2   7   7    0.20    0.05
  -2   7   7    0.18    0.49
  -2   7   7   -0.12    0.39
  -1   7   7    2.73    0.26
  -1   7   7    2.89    0.22
  -1   7   7    2.83    0.21
  -1   7   7    2.92    0.21
  -1   7   7    1.57    0.78
  -1   7   7    2.77    0.19
  -1   7   7    2.85    0.23
  -1   7   7    2.67    0.25
   0   7   7    0.13    1.73
   0   7   7    0.08    0.05
   0   7   7    0.04    0.06
   0   7   7   -0.04    0.11
   0   7   7    0.00    0.08
   0   7   7   -0.01    0.03
   0   7   7   -0.03    0.05
   0   7   7   -0.21    0.49
   0   7   7    0.02    0.09
   0   7   7    0.06    0.16
   0   7   7    0.24    0.43
  -1  -7  -7   15.07    0.84
   1   7   7   16.11    0.88
   1   7   7   12.94    0.98
   1   7   7   15.56    0.90
   1   7   7   15.43    0.95
   1   7   7   15.77    0.88
   1   7   7   15.02    0.86
   1   7   7   16.02    0.89
  -2  -7  -7    1.91    0.16
   2   7   7    1.78    0.33
   2   7   7    1.93    0.28
   2   7   7    2.07    0.20
   2   7   7    0.39    1.90
   2   7   7    1.95    0.15
   2   7   7    2.04    0.17
   2   7   7    1.94    0.18
   2   7   7    2.09    0.36
   2   7   7    1.39    0.25
   2   7   7    1.98    0.23
   2   7   7    1.98    0.17
  -3  -7  -7   22.32    2.83
   3   7   7   24.12    1.52
   3   7   7   27.18    1.40
   3   7   7   25.19    1.40
   3   7   7   26.38    1.58
   3   7   7   22.18    1.46
   3   7   7   25.17    1.41
   3   7   7   25.58    1.67
   3   7   7   26.22    1.54
   3   7   7   25.35    1.80
   3   7   7   25.58    1.41
   3   7   7   26.23    1.43
   3   7   7   27.10    2.58
  -4  -7  -7    6.59    1.67
  -4  -7  -7    0.16    2.57
   4   7   7    3.93    0.27
   4   7   7    4.10    0.30
   4   7   7    3.82    0.46
   4   7   7    4.10    0.45
   4   7   7    3.91    0.27
   4   7   7    4.17    0.38
   4   7   7    4.14    0.41
   4   7   7    3.82    0.36
  -5  -7  -7    2.25    0.19
  -5  -7  -7    0.79    2.04
   5   7   7    0.28    1.36
   5   7   7    2.54    0.23
   5   7   7    1.94    0.32
   5   7   7    3.27    0.81
   5   7   7    3.08    0.21
   5   7   7    2.90    0.18
  -1   8   7    0.65    0.08
  -1   8   7    0.63    0.10
  -1   8   7    0.62    0.07
  -1   8   7    0.52    0.10
  -1   8   7    0.59    0.09
  -1   8   7    0.63    0.07
   0   8   7    3.69    0.24
   0   8   7    3.56    0.27
   0   8   7    3.79    0.26
   0   8   7    3.78    0.25
   0   8   7    3.51    0.23
   0   8   7    3.13    0.38
   0   8   7    3.74    0.29
   1   8   7    0.62    0.09
   1   8   7    0.02    0.49
   1   8   7   -0.01    1.37
   1   8   7    0.46    0.14
   1   8   7    0.57    0.19
   1   8   7    0.01    0.31
   1   8   7    0.70    0.11
   1   8   7    0.48    0.11
   1   8   7    0.50    0.07
   1   8   7    0.64    0.09
   1   8   7    0.48    0.11
   1   8   7    0.52    0.13
   2   8   7   25.96    1.40
   2   8   7   26.65    1.39
   2   8   7   26.46    1.51
   2   8   7   22.70    1.49
   2   8   7   24.85    1.38
   2   8   7   21.56    1.41
   2   8   7   27.18    1.42
   2   8   7   27.08    1.62
   2   8   7   25.76    1.45
   3   8   7    6.22    0.42
   3   8   7    5.30    0.45
   3   8   7    6.09    0.36
   3   8   7    5.86    0.38
   3   8   7    5.98    0.45
   3   8   7    5.67    0.35
   3   8   7    6.13    0.37
   4   8   7   10.96    0.73
   4   8   7   12.14    0.66
   2   9   7   -0.20    1.79
   2   4  -8    1.23    0.18
   2   4  -8    1.22    0.24
  -2  -4   8    0.12    1.08
  -2  -4   8    1.24    0.14
  -2  -4   8    1.16    0.16
  -2  -4   8    1.63    0.57
  -2  -4   8    1.28    0.16
   1   4  -8    9.41    0.76
  -1  -4   8   11.19    0.66
   0   4  -8    0.12    0.11
   0   4  -8    0.06    0.09
   0   4  -8    0.08    0.11
   0  -4   8    0.10    0.10
   0  -4   8    0.18    0.05
   0  -4   8    0.10    0.06
  -1   4  -8    5.35    0.38
   1  -4   8    4.14    0.34
   1  -4   8    5.80    0.31
   4   3  -8   -0.80    1.67
  -4  -3   8    0.51    0.11
  -4  -3   8    0.48    1.09
   3   3  -8    0.83    0.19
   3   3  -8    0.06    1.82
  -3  -3   8    0.38    0.13
  -3  -3   8    0.59    0.12
  -3  -3   8    0.62    0.08
  -3  -3   8    0.38    0.13
  -3  -3   8    0.50    0.07
  -3  -3   8    0.16    0.35
  -3  -3   8    0.78    0.17
  -3  -3   8   -0.02    1.73
  -3  -3   8    0.55    0.10
   2   3  -8   14.59    1.02
  -2  -3   8   13.94    0.79
  -2  -3   8   14.21    0.90
  -2  -3   8   14.81    0.81
  -2  -3   8   12.63    0.88
  -2  -3   8   14.48    0.80
  -2  -3   8   14.35    1.00
   1   3  -8    4.59    0.50
   1   3  -8    0.72    2.70
  -1  -3   8    3.61    0.32
  -1  -3   8    0.64    2.65
   0  -3   8   14.17    0.77
   0  -3   8   14.37    1.14
   0  -3   8   13.33    0.83
   0  -3   8   13.00    0.76
   0  -3   8   10.72    1.15
   0  -3   8   13.34    0.84
   0  -3   8   12.72    0.74
   0  -3   8   14.38    0.98
  -1   3  -8    1.72    2.13
  -1   3  -8    5.22    1.15
   1  -3   8    4.31    0.60
   1  -3   8    3.02    0.29
   1  -3   8    1.44    2.01
  -2   3  -8    2.79    0.29
  -2   3  -8    3.85    0.31
   2  -3   8    3.58    0.24
   2  -3   8    3.64    0.23
   2  -3   8    3.55    0.22
  -3   3  -8    2.69    0.26
   3  -3   8    3.80    0.24
  -4  -2   8    4.82    0.39
  -4  -2   8    5.43    0.33
  -4  -2   8    4.14    0.49
  -4  -2   8    5.59    0.39
  -4  -2   8    4.58    0.84
  -4  -2   8    5.83    0.42
  -4  -2   8    5.20    0.36
  -4  -2   8    5.16    0.32
  -4  -2   8    5.42    0.31
  -4  -2   8    5.58    0.35
  -3  -2   8   13.41    0.98
  -3  -2   8   15.73    0.99
  -3  -2   8   16.34    0.99
  -3  -2   8   16.01    0.94
  -3  -2   8   16.27    0.97
  -3  -2   8   15.54    0.91
  -3  -2   8   15.93    0.87
  -3  -2   8   15.16    0.89
  -3  -2   8   15.66    1.08
  -3  -2   8   15.50    0.88
   2   2  -8    4.37    1.80
  -2  -2   8    6.58    0.41
  -2  -2   8    7.06    0.53
  -2  -2   8    6.84    0.43
  -2  -2   8    6.42    0.71
  -2  -2   8    5.29    0.69
  -2  -2   8    6.48    0.44
  -2  -2   8    6.86    0.65
  -2  -2   8    6.92    0.51
  -2  -2   8    6.91    0.40
  -2  -2   8    6.14    0.51
  -2  -2   8    7.11    0.54
   1   2  -8   14.51    0.84
  -1  -2   8   15.71    0.95
  -1  -2   8   17.10    1.43
  -1  -2   8   14.91    0.85
  -1  -2   8   14.64    0.98
  -1  -2   8   14.71    0.89
  -1  -2   8   14.94    0.98
  -1  -2   8   15.57    1.13
  -1  -2   8   14.45    0.86
  -1  -2   8   15.64    0.96
  -1  -2   8   15.04    0.88
  -1  -2   8   13.65    1.07
   0   2  -8    5.74    0.35
   0  -2   8    5.88    0.62
   0  -2   8    4.28    0.69
   0  -2   8    5.81    0.62
   0  -2   8    5.77    0.36
   0  -2   8    5.71    0.46
   0  -2   8    5.61    0.40
   0  -2   8    5.49    0.46
   0  -2   8    5.47    0.37
   0  -2   8    5.41    0.38
   0  -2   8    6.30    0.66
   0  -2   8    6.22    0.81
   0  -2   8    1.65    3.96
   1  -2   8   11.56    0.84
   1  -2   8   14.06    0.78
   1  -2   8   13.82    0.82
   1  -2   8   14.74    1.04
   1  -2   8   13.86    0.87
   1  -2   8   13.05    1.18
   1  -2   8   14.25    0.79
   1  -2   8   12.57    1.02
   1  -2   8   14.64    0.81
   1  -2   8   14.56    1.31
  -2   2  -8   -0.19    2.65
  -2   2  -8   -0.09    0.99
  -2   2  -8    0.22    0.15
  -2   2  -8   -0.29    0.92
   2  -2   8    0.25    0.27
   2  -2   8    0.11    0.09
   2  -2   8    0.07    0.06
   2  -2   8    0.20    0.07
   2  -2   8    0.00    0.04
   2  -2   8   -0.27    2.93
   2  -2   8    0.12    0.21
   2  -2   8    0.11    0.27
   2  -2   8    0.07    0.04
  -3   2  -8   17.07    1.00
  -3   2  -8   14.73    1.07
   3  -2   8   15.80    0.92
   3  -2   8   17.24    0.96
   3  -2   8   19.80    2.42
   3  -2   8   15.03    0.90
   3  -2   8   15.69    0.90
  -4   2  -8    3.14    0.32
  -4   2  -8    2.89    0.71
  -4   2  -8    2.98    0.25
  -5  -1   8   15.07    0.80
  -5  -1   8   12.37    0.79
  -5  -1   8   14.30    0.83
  -5  -1   8   15.31    0.81
  -5  -1   8   13.88    0.86
  -5  -1   8   15.93    0.83
  -5  -1   8   12.75    0.83
  -5  -1   8   15.95    0.87
   4   1  -8   -0.09    2.03
  -4  -1   8    2.16    0.20
  -4  -1   8    2.15    0.17
  -4  -1   8    1.68    0.34
  -4  -1   8    1.43    0.24
  -4  -1   8    2.05    0.21
  -4  -1   8    2.05    0.15
  -4  -1   8    2.24    0.26
  -4  -1   8    1.93    0.20
  -4  -1   8    1.88    0.16
  -4  -1   8    2.13    0.25
  -4  -1   8    2.13    0.28
   3   1  -8    2.77    1.57
   3   1  -8    1.78    0.14
  -3  -1   8    1.88    0.16
  -3  -1   8    1.83    0.26
  -3  -1   8    2.19    0.23
  -3  -1   8    1.93    0.16
  -3  -1   8    2.02    0.27
  -3  -1   8    1.46    0.27
  -3  -1   8    1.25    0.25
  -3  -1   8    2.00    0.18
  -3  -1   8    1.99    0.20
  -3  -1   8    1.70    0.34
  -3  -1   8    1.76    0.21
  -3  -1   8    1.98    0.40
   2   1  -8   30.25    1.60
   2   1  -8   26.61    3.26
  -2  -1   8   26.08    1.73
  -2  -1   8   27.92    2.10
  -2  -1   8   30.50    1.77
  -2  -1   8   31.01    1.74
  -2  -1   8   29.77    1.67
  -2  -1   8   29.03    1.87
  -2  -1   8   28.99    1.71
  -2  -1   8   31.43    1.77
  -2  -1   8   33.16    2.06
  -2  -1   8   29.25    1.61
  -2  -1   8   29.15    1.64
  -2  -1   8   28.34    1.62
   1   1  -8   16.34    0.88
   1   1  -8   14.97    0.87
  -1  -1   8   15.20    1.16
  -1  -1   8   15.33    1.02
  -1  -1   8   17.59    1.32
  -1  -1   8   14.74    0.91
  -1  -1   8   15.42    0.89
  -1  -1   8   15.86    1.01
  -1  -1   8   15.45    1.10
  -1  -1   8   15.74    1.31
  -1  -1   8   14.94    0.90
  -1  -1   8   15.43    0.94
  -1  -1   8   15.78    1.03
  -1  -1   8   16.18    0.90
   0   1  -8   30.83    1.68
   0   1  -8   32.23    1.69
   0  -1   8   34.17    2.36
   0  -1   8   30.60    1.98
   0  -1   8   31.50    1.82
   0  -1   8   29.34    1.74
   0  -1   8   30.27    1.70
   0  -1   8   30.84    1.83
   0  -1   8   33.53    1.81
   0  -1   8   29.66    1.70
   0  -1   8   29.95    1.69
   0  -1   8   29.54    1.72
   0  -1   8   29.93    2.08
  -1   1  -8    3.60    0.25
  -1   1  -8   -0.70    3.35
  -1   1  -8    4.04    0.26
   1  -1   8    3.81    0.27
   1  -1   8    3.95    0.51
   1  -1   8    4.12    0.55
   1  -1   8    4.25    0.32
   1  -1   8    3.40    0.44
   1  -1   8    3.98    0.38
   1  -1   8    3.69    0.34
   1  -1   8    3.93    0.37
   1  -1   8    3.21    0.62
   1  -1   8    3.98    0.31
   1  -1   8    3.81    0.29
   1  -1   8    3.82    0.27
   1  -1   8    4.12    0.54
   1  -1   8    3.47    0.65
  -2   1  -8   28.71    1.52
   2  -1   8   28.96    1.54
   2  -1   8   24.71    1.63
   2  -1   8   25.46    3.84
   2  -1   8   28.56    1.56
   2  -1   8   27.51    1.54
   2  -1   8   31.54    2.13
   2  -1   8   26.22    1.76
   2  -1   8   28.92    1.65
   2  -1   8   26.91    1.73
   2  -1   8   28.20    1.58
  -3   1  -8    4.36    0.47
  -3   1  -8    4.22    0.39
  -3   1  -8    1.57    3.02
   3  -1   8    4.25    3.42
   3  -1   8    3.81    0.26
   3  -1   8    3.51    0.25
   3  -1   8    2.79    0.43
   3  -1   8    3.91    0.28
   3  -1   8    4.00    0.37
   3  -1   8    3.84    0.30
  -4   1  -8    2.56    0.27
   4  -1   8    1.67    0.27
   4  -1   8    2.47    0.19
   4  -1   8    2.32    0.17
   4  -1   8    2.53    0.21
  -5   1  -8    7.03    0.54
   5  -1   8    7.27    0.42
   5   0  -8    0.90    1.60
  -5   0   8    0.23    0.05
  -5   0   8    0.23    0.12
  -5   0   8    0.28    0.12
  -5   0   8    0.28    0.05
  -5   0   8    0.32    0.09
  -5   0   8    0.24    0.07
  -5   0   8    0.29    0.07
  -5   0   8    0.24    0.09
  -5   0   8    0.23    0.38
  -5   0   8    0.19    0.08
  -5   0   8   -0.09    0.84
   4   0  -8    0.24    0.98
  -4   0   8    0.08    0.10
  -4   0   8    0.02    0.04
  -4   0   8    0.15    0.11
  -4   0   8    0.07    0.05
  -4   0   8    0.04    0.07
  -4   0   8   -0.04    0.17
  -4   0   8    0.00    0.07
  -4   0   8    0.13    0.08
  -4   0   8   -0.03    0.14
  -4   0   8    0.02    0.12
  -4   0   8    0.08    0.05
  -4   0   8   -0.01    0.46
   3   0  -8    4.76    0.29
  -3   0   8    4.99    0.43
  -3   0   8    4.72    0.36
  -3   0   8    4.93    0.31
  -3   0   8    3.90    0.57
  -3   0   8    4.88    0.33
  -3   0   8    5.13    0.32
  -3   0   8    5.14    0.44
  -3   0   8    4.68    0.39
  -3   0   8    4.61    0.38
  -3   0   8    4.35    0.37
  -3   0   8    4.85    0.43
   2   0  -8   24.06    1.28
   2   0  -8   24.17    1.28
  -2   0   8   23.38    1.31
  -2   0   8   22.88    1.29
  -2   0   8   22.63    1.34
  -2   0   8   21.44    1.52
  -2   0   8   22.40    1.38
  -2   0   8   23.48    1.44
  -2   0   8   23.45    1.32
  -2   0   8   23.24    1.30
  -2   0   8   23.84    1.44
  -2   0   8   24.91    1.70
  -2   0   8   23.83    1.42
   1   0  -8   25.09    1.35
   1   0  -8   25.01    1.36
   1   0  -8   26.17    1.36
  -1   0   8   24.87    1.38
  -1   0   8   26.19    1.78
  -1   0   8   23.55    1.78
  -1   0   8   25.29    1.93
  -1   0   8   25.11    1.40
  -1   0   8   24.28    1.43
  -1   0   8   24.76    1.65
  -1   0   8   24.89    1.52
  -1   0   8   24.60    1.50
  -1   0   8   24.67    1.38
  -1   0   8   23.78    1.38
   0   0  -8   49.36    2.49
   0   0  -8   48.16    2.49
   0   0  -8   48.05    2.50
   0   0   8   46.27    2.74
   0   0   8   46.82    2.51
   0   0   8   46.34    2.53
   0   0   8   46.82    2.51
   0   0   8   43.94    2.51
   0   0   8   47.74    2.64
   0   0   8   43.85    2.64
   0   0   8   42.01    3.07
   0   0   8   48.30    3.00
   0   0   8   44.06    2.60
   0   0   8   44.72    2.56
   0   0   8   49.93    2.95
   0   0   8   45.49    2.80
  -1   0  -8   45.73    2.51
  -1   0  -8   48.04    2.50
  -1   0  -8   49.45    2.51
   1   0   8   45.29    2.52
   1   0   8   45.28    2.80
   1   0   8   47.47    2.65
   1   0   8   48.70    3.17
   1   0   8   45.66    2.66
   1   0   8   44.82    2.54
   1   0   8   45.97    2.52
   1   0   8   45.97    2.52
   1   0   8   48.09    2.93
   1   0   8   43.93    2.56
  -2   0  -8   35.15    1.73
  -2   0  -8   32.43    1.72
   2   0   8   30.24    1.94
   2   0   8   31.29    1.75
   2   0   8   32.87    1.88
   2   0   8   32.41    1.79
   2   0   8   32.05    1.76
   2   0   8   33.54    2.12
   2   0   8   31.42    2.00
   2   0   8   33.24    1.74
   2   0   8   29.40    2.17
   2   0   8   28.54    1.95
   2   0   8   28.83    2.06
  -3   0  -8   12.69    0.71
   3   0   8   11.95    1.04
   3   0   8   12.68    0.93
   3   0   8   12.12    0.76
   3   0   8   12.58    1.02
   3   0   8   12.36    0.93
   3   0   8   11.19    2.83
   3   0   8   12.43    0.83
   3   0   8   12.55    0.71
   3   0   8   13.04    1.10
   3   0   8   11.35    0.92
   3   0   8   12.24    0.73
   3   0   8   12.67    2.10
  -4   0  -8   12.01    0.90
   4   0   8   11.62    0.70
   4   0   8   11.59    0.85
   4   0   8   11.59    0.66
   4   0   8   11.04    0.67
   4   0   8   11.17    0.77
  -5   0  -8    1.29    2.17
  -5   0  -8   -0.02    0.59
  -5   0  -8    0.03    0.13
  -5   0  -8    0.33    0.11
  -5   0  -8    0.76    0.73
   5   0   8    0.64    1.06
   5   0   8    0.22    0.05
   5   0   8    0.03    0.08
   5   0   8    0.36    0.08
   5   0   8    0.21    0.04
  -5   1   8   14.39    0.91
  -5   1   8   15.56    0.86
  -5   1   8   16.26    0.95
  -5   1   8   15.43    0.88
  -5   1   8   15.44    0.89
  -5   1   8   15.85    0.91
  -5   1   8   15.97    0.87
  -5   1   8   16.32    0.95
  -4   1   8    2.26    0.19
  -4   1   8    2.32    0.20
  -4   1   8    2.42    0.22
  -4   1   8    2.59    0.19
  -4   1   8    2.51    0.26
  -4   1   8    2.41    0.30
  -4   1   8    2.48    0.25
  -4   1   8    2.68    0.26
  -4   1   8    2.37    0.30
   3  -1  -8    5.04    0.30
  -3   1   8    4.97    0.35
  -3   1   8    4.90    0.46
  -3   1   8    4.92    0.34
  -3   1   8    5.24    0.41
  -3   1   8    5.44    0.43
  -3   1   8    5.07    0.44
  -3   1   8    5.25    0.33
  -3   1   8    4.84    0.45
  -3   1   8    5.26    1.21
  -3   1   8    4.98    0.37
   2  -1  -8    4.60    0.27
  -2   1   8    4.39    0.34
  -2   1   8    4.38    0.41
  -2   1   8    4.52    0.30
  -2   1   8    4.66    0.38
  -2   1   8    4.36    0.40
  -2   1   8    4.36    0.30
  -2   1   8    4.14    0.31
  -2   1   8    4.81    0.59
   1  -1  -8    4.76    0.28
   1  -1  -8    4.74    0.27
  -1   1   8    3.58    0.61
  -1   1   8    4.43    0.30
  -1   1   8    4.73    0.30
  -1   1   8    4.34    0.34
  -1   1   8    4.05    0.50
  -1   1   8    4.74    0.59
  -1   1   8    4.71    0.32
  -1   1   8    4.73    0.41
  -1   1   8    4.70    0.42
  -1   1   8    3.56    0.41
   0  -1  -8   12.45    0.68
   0  -1  -8   12.61    0.68
   0  -1  -8   12.63    0.68
   0   1   8   11.02    0.94
   0   1   8   12.33    0.73
   0   1   8   10.77    1.01
   0   1   8   12.39    1.09
   0   1   8   12.25    0.70
   0   1   8   11.64    0.70
   0   1   8   12.18    0.82
   0   1   8   12.82    0.84
   0   1   8   12.46    1.20
   0   1   8   11.87    0.75
  -1  -1  -8    0.21    0.06
  -1  -1  -8    0.21    0.06
  -1  -1  -8    0.24    0.06
   1   1   8    0.02    0.63
   1   1   8    0.22    0.18
   1   1   8    0.22    0.12
   1   1   8    0.14    0.11
   1   1   8    0.20    0.16
   1   1   8    0.44    0.10
   1   1   8    0.25    0.06
   1   1   8    0.22    0.07
   1   1   8    0.18    0.22
   1   1   8    0.48    0.31
   1   1   8    0.52    0.26
   1   1   8    0.17    0.25
   1   1   8    0.21    0.08
  -2  -1  -8   17.15    0.95
  -2  -1  -8   18.85    0.95
  -2  -1  -8   18.34    0.95
   2   1   8   16.01    1.21
   2   1   8   14.78    1.25
   2   1   8   17.03    0.97
   2   1   8   14.42    1.06
   2   1   8   14.76    2.24
   2   1   8   17.07    1.00
   2   1   8   17.74    0.96
   2   1   8   18.23    1.51
   2   1   8   17.68    1.33
   2   1   8   16.49    1.08
   2   1   8   15.58    1.15
   2   1   8   17.25    0.97
  -3  -1  -8    7.07    0.42
  -3  -1  -8    7.62    0.43
   3   1   8    6.43    0.65
   3   1   8    6.63    0.54
   3   1   8    7.05    0.64
   3   1   8    6.80    0.44
   3   1   8    7.24    0.43
   3   1   8    6.56    0.73
   3   1   8    7.20    0.73
   3   1   8    6.59    0.64
   3   1   8    7.87    0.47
   3   1   8    6.83    0.48
   3   1   8    6.05    0.53
  -4  -1  -8   -0.93    2.97
  -4  -1  -8   -0.03    0.88
   4   1   8    0.72    0.25
   4   1   8    0.58    0.23
   4   1   8    1.46    0.88
   4   1   8    0.41    0.18
   4   1   8    0.83    0.18
   4   1   8    0.63    0.34
   4   1   8    0.66    0.12
   4   1   8    0.67    0.09
   4   1   8    2.29    2.48
   4   1   8    0.25    0.64
   4   1   8    0.49    0.15
  -5  -1  -8    7.90    1.29
   5   1   8    9.21    2.31
  -5   2   8    6.57    0.45
  -5   2   8    5.60    0.37
  -5   2   8    6.65    0.43
  -5   2   8    6.50    0.38
  -5   2   8    6.54    0.39
  -5   2   8    6.98    0.46
  -4   2   8    4.30    0.28
  -4   2   8    4.20    0.27
  -4   2   8    4.26    0.29
  -4   2   8    3.94    0.33
  -4   2   8    4.13    0.34
  -4   2   8    4.14    0.38
  -4   2   8    4.37    0.39
  -4   2   8    4.02    0.36
  -3   2   8    5.84    0.37
  -3   2   8    5.82    0.48
  -3   2   8    6.09    0.43
  -3   2   8    5.47    0.35
  -3   2   8    5.46    0.47
  -3   2   8    5.90    0.38
  -3   2   8    5.26    0.39
  -2   2   8    0.11    0.06
  -2   2   8    0.13    0.05
  -2   2   8    0.09    0.04
  -2   2   8    0.12    0.06
  -2   2   8    0.11    0.10
  -1   2   8   19.19    1.13
  -1   2   8   20.38    1.44
  -1   2   8   18.96    1.20
  -1   2   8   19.23    1.19
  -1   2   8   19.45    1.08
   0  -2  -8    1.06    0.09
   0  -2  -8    1.01    0.09
   0   2   8    1.07    0.14
   0   2   8    1.12    0.28
   0   2   8    0.91    0.19
   0   2   8    1.00    0.24
   0   2   8    1.21    0.20
   0   2   8    0.69    0.29
   0   2   8    1.35    0.35
  -1  -2  -8   87.78    4.65
  -1  -2  -8   78.79    4.65
  -1  -2  -8   91.50    4.66
   1   2   8   90.37    4.81
   1   2   8   83.69    4.66
   1   2   8   88.86    5.13
   1   2   8   77.01    4.84
   1   2   8   93.75    5.10
   1   2   8   88.49    4.89
   1   2   8   94.15    5.31
   1   2   8   90.12    4.80
   1   2   8   83.88    4.93
   1   2   8   89.91    4.72
  -2  -2  -8   13.71    0.77
  -2  -2  -8   12.87    0.76
  -2  -2  -8   13.73    0.76
   2   2   8   13.05    0.89
   2   2   8   14.51    0.91
   2   2   8   14.40    1.28
   2   2   8   13.72    1.03
   2   2   8   12.20    1.06
   2   2   8   14.56    1.14
   2   2   8   11.76    0.95
   2   2   8   13.53    0.82
   2   2   8   13.21    0.77
  -3  -2  -8   27.41    1.46
  -3  -2  -8   27.05    1.46
   3   2   8   24.50    1.66
   3   2   8   26.95    1.82
   3   2   8   28.88    1.92
   3   2   8   24.71    1.71
   3   2   8   28.56    1.61
   3   2   8   25.02    1.58
   3   2   8   26.33    1.47
   3   2   8   25.75    1.82
   3   2   8   26.74    1.51
   3   2   8   28.66    2.04
   3   2   8   25.03    1.67
  -4  -2  -8    4.38    0.29
   4   2   8    4.32    0.49
   4   2   8    4.42    0.60
   4   2   8    4.46    0.40
   4   2   8    3.99    0.53
   4   2   8    4.53    0.46
   4   2   8    4.33    0.48
   4   2   8    4.30    0.39
   4   2   8    4.81    0.34
   4   2   8    4.51    0.61
  -5  -2  -8    0.34    0.10
  -5  -2  -8   -0.25    2.57
  -5  -2  -8    1.83    1.57
  -5  -2  -8    0.43    0.11
  -5  -2  -8    3.94    3.15
   5   2   8    0.34    0.13
   5   2   8    1.24    0.77
   5   2   8    0.27    0.08
   5   2   8    0.39    0.13
   5   2   8    0.47    0.56
   5   2   8    0.43    0.26
   5   2   8    0.29    0.15
   5   2   8    0.20    0.14
   5   2   8    0.37    2.23
  -6  -2  -8    1.22    0.19
  -6  -2  -8    2.15    1.77
  -6  -2  -8    1.50    0.14
   6   2   8    0.95    0.12
   6   2   8    1.03    0.15
  -4   3   8    3.22    0.31
  -4   3   8    3.32    0.22
  -4   3   8    3.27    0.28
  -4   3   8    3.18    0.26
  -4   3   8    3.25    0.32
   0   3   8    9.63    0.78
  -1  -3  -8    4.03    0.27
  -1  -3  -8    4.22    0.27
   1   3   8    4.21    0.47
   1   3   8    4.53    0.55
   1   3   8    4.59    0.40
   1   3   8    4.53    0.48
   1   3   8    3.78    0.43
   1   3   8    4.94    0.67
   1   3   8    4.67    0.60
  -2  -3  -8   37.14    2.16
  -2  -3  -8   38.37    2.17
   2   3   8   41.00    2.44
   2   3   8   45.31    2.68
   2   3   8   38.46    2.52
   2   3   8   37.52    2.16
   2   3   8   39.73    2.30
   2   3   8   45.37    2.32
   2   3   8   37.43    2.37
   2   3   8   42.18    2.55
  -3  -3  -8    0.79    1.55
  -3  -3  -8    0.70    0.11
  -3  -3  -8    1.09    0.13
   3   3   8    1.03    0.20
   3   3   8    0.92    2.53
   3   3   8    1.27    0.32
   3   3   8    2.22    0.90
   3   3   8    0.74    0.23
   3   3   8    1.09    0.39
   3   3   8    0.86    0.19
   3   3   8    0.78    0.11
   3   3   8    1.02    0.37
   3   3   8    0.92    0.30
   3   3   8    2.19    1.02
  -4  -3  -8   28.08    1.59
   4   3   8   29.24    1.82
   4   3   8   27.34    1.68
   4   3   8   29.12    1.79
   4   3   8   29.72    1.96
   4   3   8   27.44    1.70
   4   3   8   30.70    1.64
   4   3   8   30.80    2.09
   4   3   8   30.45    1.79
   4   3   8   25.76    1.63
   4   3   8   31.84    1.72
  -5  -3  -8    1.23    1.05
  -5  -3  -8    0.80    0.13
  -5  -3  -8    1.00    0.16
   5   3   8    3.78    2.08
   5   3   8    1.92    0.77
   5   3   8    0.50    0.20
   5   3   8    0.92    0.12
   5   3   8    0.93    0.22
   5   3   8    0.83    0.67
   5   3   8    0.59    0.15
   5   3   8    0.82    0.20
   5   3   8    0.42    2.32
   5   3   8    0.95    0.18
   5   3   8    1.46    0.38
  -6  -3  -8    5.82    2.63
   6   3   8    4.35    0.32
  -4   4   8    5.30    0.43
  -1  -4  -8   13.89    0.86
   1   4   8   17.15    1.09
   1   4   8   15.12    1.31
   1   4   8   15.80    1.24
   1   4   8   18.00    1.38
   1   4   8   15.15    1.09
  -2  -4  -8   27.43    1.79
   2   4   8   36.67    2.04
   2   4   8   34.97    1.94
   2   4   8   32.72    2.05
   2   4   8   35.40    2.36
   2   4   8   32.83    2.16
   2   4   8   29.87    1.79
   2   4   8   36.38    2.26
   2   4   8   32.57    2.01
   2   4   8   35.63    2.16
  -3  -4  -8    7.30    0.50
  -3  -4  -8    8.02    0.50
   3   4   8   10.37    0.98
   3   4   8    6.82    0.50
   3   4   8    7.57    0.77
   3   4   8    9.57    0.74
   3   4   8    8.54    0.60
   3   4   8    8.20    0.55
   3   4   8    9.06    0.83
   3   4   8    9.07    0.70
   3   4   8   10.05    0.64
  -4  -4  -8   19.93    1.21
   4   4   8   22.70    1.55
   4   4   8   22.86    1.33
   4   4   8   23.10    1.68
   4   4   8   21.52    1.42
   4   4   8   20.11    1.53
   4   4   8   23.10    1.32
   4   4   8   21.86    1.26
   4   4   8   22.75    1.41
   5   4   8    3.03    0.32
   5   4   8    3.62    0.31
   5   4   8    3.63    0.32
   5   4   8    3.32    0.40
   5   4   8    2.49    0.92
   5   4   8    1.30    2.44
   5   4   8    2.66    0.42
   5   4   8    2.98    0.40
   5   4   8    3.77    0.35
   5   4   8    3.83    0.47
  -6  -4  -8   32.45    1.73
  -6  -4  -8   34.61    1.71
   6   4   8   26.67    1.71
   6   4   8   30.79    2.45
   1   5   8    1.89    0.29
   1   5   8    2.32    0.39
   1   5   8    2.34    0.31
   1   5   8    1.96    0.37
  -2  -5  -8    0.24    0.05
  -2  -5  -8    0.27    0.08
   2   5   8    0.24    0.16
   2   5   8    0.47    0.28
   2   5   8    0.55    0.61
   2   5   8    0.23    0.11
   2   5   8    0.31    0.17
   2   5   8   -0.24    0.36
   2   5   8   -0.51    1.72
   2   5   8    0.23    0.09
   2   5   8    0.14    0.18
   2   5   8    0.14    0.13
   2   5   8    0.25    0.22
   3   5   8   16.84    1.17
   3   5   8   15.74    1.31
   3   5   8   16.03    1.20
   3   5   8   15.84    1.06
   3   5   8   15.01    1.05
   3   5   8   14.77    0.92
   3   5   8   14.77    0.97
   3   5   8   16.00    1.09
   4   5   8    2.20    0.39
   4   5   8    1.62    0.19
   4   5   8    0.30    2.24
   4   5   8    1.84    0.28
   4   5   8    1.65    0.15
   4   5   8    2.01    0.31
   4   5   8    1.90    0.24
   4   5   8    1.59    0.37
   4   5   8    1.85    0.38
   4   5   8    1.91    0.29
   4   5   8    2.04    0.23
   5   5   8    4.31    0.44
   5   5   8    2.60    0.83
   5   5   8    3.99    0.32
   5   5   8    3.61    0.46
   5   5   8    4.50    0.38
   5   5   8    4.76    0.35
   5   5   8    3.76    0.45
   5   5   8    4.39    0.37
   5   5   8    4.58    0.40
   5   5   8    4.63    0.32
   1   6   8   14.45    0.90
   1   6   8   14.49    0.97
   1   6   8   15.14    1.09
   1   6   8   14.25    0.85
  -2  -6  -8    1.84    0.14
   2   6   8    1.73    0.15
   2   6   8    1.92    0.19
   2   6   8    1.88    0.22
   2   6   8    1.38    0.33
   2   6   8    1.59    0.79
   2   6   8    2.11    0.35
   2   6   8    1.23    0.34
   2   6   8   -0.12    1.80
   2   6   8    1.97    0.29
   2   6   8    2.18    0.28
   3   6   8   22.17    1.28
   3   6   8   23.05    1.43
   3   6   8   21.58    1.38
   3   6   8   20.69    1.24
   3   6   8   23.35    1.40
   3   6   8   22.58    1.32
   3   6   8   23.35    2.37
   3   6   8   23.93    1.54
   4   6   8    3.28    0.34
   4   6   8    3.20    0.30
   4   6   8    3.33    0.42
   4   6   8    3.08    0.41
   4   6   8    3.26    0.33
   4   6   8    3.54    0.37
   4   6   8    3.27    0.26
   4   6   8    2.95    0.22
  -5  -6  -8    2.16    2.27
   5   6   8    5.64    0.55
   5   6   8    5.15    0.47
   5   6   8    6.14    0.39
   0   7   8    5.59    0.39
   0   7   8    5.26    0.35
   0   7   8    5.45    0.34
   1   7   8    2.09    0.16
   1   7   8    1.71    0.30
   1   7   8    2.04    0.16
   1   7   8    2.20    0.27
   1   7   8   -0.02    1.63
   1   7   8    2.91    0.68
   1   7   8    1.97    0.18
   1   7   8    2.30    0.22
   2   7   8   20.22    1.20
   2   7   8   18.59    1.07
   2   7   8   19.39    1.09
   2   7   8   18.77    1.07
   2   7   8   17.84    1.67
   2   7   8   19.90    1.20
   2   7   8   20.01    1.14
   3   7   8    0.17    0.11
   3   7   8    0.40    0.08
   3   7   8    0.23    0.36
   3   7   8    0.44    0.14
   3   7   8    0.30    0.06
   3   7   8    0.44    0.19
   3   7   8    0.12    0.17
   3   7   8    0.13    1.77
   3   7   8    0.99    0.49
   3   7   8    0.34    0.06
   3   7   8    0.39    0.15
   3   7   8    0.46    0.13
   4   7   8   11.43    0.79
   4   7   8   10.28    0.64
   4   7   8   11.28    0.67
   4   7   8    9.19    0.61
   4   7   8   11.08    0.71
   4   7   8   11.99    0.74
   4   7   8   11.73    0.71
   1   8   8    3.56    0.31
   1   8   8    4.29    0.29
   1   8   8    3.23    0.25
   1   8   8    4.22    0.25
   1   8   8    3.30    0.35
   1   8   8    4.06    0.24
   2   8   8    4.69    0.28
   2   8   8    5.15    0.37
   2   8   8    4.82    0.33
   2   8   8    3.92    0.39
   2   8   8    4.70    0.30
   3   8   8   15.88    1.06
   3   8   8   16.31    0.92
   3   8   8   15.76    0.97
   3   8   8   16.49    1.01
   1   3  -9    2.50    0.35
  -1  -3   9    2.38    0.24
   0   3  -9    0.00    0.08
   0   3  -9    0.06    0.11
   0   3  -9    0.04    0.11
   0  -3   9    0.03    0.03
   0  -3   9   -0.28    1.10
   3   2  -9    0.10    1.44
  -3  -2   9    0.78    2.11
  -3  -2   9    2.03    0.15
  -3  -2   9    1.99    0.24
  -3  -2   9    2.21    0.14
  -3  -2   9    1.66    0.18
   2   2  -9   -0.05    1.85
  -2  -2   9    1.37    0.16
  -2  -2   9    1.25    0.25
  -2  -2   9    1.39    0.18
  -2  -2   9    1.28    0.10
  -2  -2   9    1.04    0.15
  -2  -2   9    1.30    0.12
  -2  -2   9    1.38    0.11
  -2  -2   9    1.39    0.21
  -2  -2   9    1.09    0.28
  -2  -2   9   -0.08    1.63
  -2  -2   9    1.53    0.14
   1   2  -9    0.88    2.24
   1   2  -9    0.07    0.76
  -1  -2   9    0.79    0.13
  -1  -2   9    0.73    0.22
  -1  -2   9   -0.48    1.82
  -1  -2   9    1.44    0.40
  -1  -2   9    0.77    0.30
   0   2  -9   -0.51    2.04
   0  -2   9   -1.19    1.93
   0  -2   9    0.68    0.22
   0  -2   9    0.55    0.08
   0  -2   9    0.66    0.08
   0  -2   9    0.32    0.27
   0  -2   9    0.30    0.16
   0  -2   9    0.53    0.12
   0  -2   9    0.55    0.13
   0  -2   9    0.59    0.09
   0  -2   9    0.49    0.27
   0  -2   9    0.61    0.09
  -1   2  -9    0.21    1.83
   1  -2   9    2.99    0.19
   1  -2   9    2.83    0.19
   1  -2   9    2.91    0.21
   1  -2   9    2.80    0.20
   1  -2   9    2.13    0.41
   1  -2   9    2.66    0.33
   1  -2   9    0.61    2.01
  -2   2  -9   -0.12    1.25
   2  -2   9   -0.35    1.33
   2  -2   9    0.78    0.14
   2  -2   9    1.27    0.11
   2  -2   9    1.28    0.10
   2  -2   9    1.00    0.39
   2  -2   9    1.08    0.09
  -4  -1   9   13.22    0.78
  -4  -1   9   14.10    0.78
  -3  -1   9    4.05    0.25
  -3  -1   9    3.26    0.31
  -3  -1   9    3.47    0.31
  -3  -1   9    3.80    0.29
  -3  -1   9    3.11    0.31
  -3  -1   9    3.76    0.24
  -3  -1   9    4.03    0.24
  -3  -1   9    4.13    0.28
  -2  -1   9    3.57    0.26
  -2  -1   9    3.79    0.43
  -2  -1   9    3.75    0.25
  -2  -1   9    3.58    0.30
  -2  -1   9    3.58    0.32
  -2  -1   9    3.64    0.24
  -2  -1   9    3.67    0.28
  -2  -1   9    3.36    0.34
  -2  -1   9    3.79    0.33
  -1  -1   9   19.66    1.32
  -1  -1   9   19.74    1.27
  -1  -1   9   19.88    1.45
  -1  -1   9   20.01    1.10
  -1  -1   9   20.57    1.22
  -1  -1   9   19.98    1.11
  -1  -1   9   20.05    1.09
  -1  -1   9   17.40    1.18
  -1  -1   9   20.62    1.14
   0   1  -9   -1.32    2.52
   0   1  -9    0.03    0.99
   0  -1   9    0.13    0.07
   0  -1   9    0.16    0.12
   0  -1   9    0.06    0.06
   0  -1   9    0.14    0.23
   0  -1   9    0.11    0.18
   0  -1   9    0.09    0.24
   0  -1   9    0.11    0.04
   0  -1   9    0.14    0.10
   0  -1   9    0.10    0.08
   0  -1   9    0.19    0.05
   0  -1   9    0.11    0.17
   0  -1   9    0.15    0.27
  -1   1  -9    4.80    1.51
   1  -1   9    7.44    0.44
   1  -1   9    7.94    0.47
   1  -1   9    8.08    0.67
   1  -1   9    8.09    0.49
   1  -1   9    6.52    0.53
   1  -1   9    8.48    0.68
   1  -1   9    7.64    0.54
   1  -1   9    6.59    0.77
   1  -1   9    7.71    0.45
  -2   1  -9   -0.35    2.49
  -2   1  -9    0.06    0.09
  -2   1  -9    0.06    0.95
  -2   1  -9   -0.03    0.74
   2  -1   9    0.06    0.08
   2  -1   9    0.23    0.06
   2  -1   9    0.17    0.20
   2  -1   9    0.06    0.21
   2  -1   9    0.07    0.03
   2  -1   9    0.09    0.09
   2  -1   9   -0.53    2.07
   2  -1   9    0.12    0.05
   2  -1   9    0.14    0.15
   2  -1   9    0.14    0.19
  -3   1  -9    9.77    0.59
  -3   1  -9    9.26    0.81
   3  -1   9    9.00    0.65
   3  -1   9    8.24    0.51
   3  -1   9    8.59    0.50
   3  -1   9    9.06    0.53
   3  -1   9    7.63    0.55
  -4   0   9    0.81    0.08
  -4   0   9    0.73    0.08
  -4   0   9    0.66    0.12
  -4   0   9    0.82    0.11
  -4   0   9    0.80    0.16
  -4   0   9    0.51    0.14
  -4   0   9    0.40    0.10
  -4   0   9    0.65    0.10
  -3   0   9   12.44    0.75
  -3   0   9   12.65    0.80
  -3   0   9   12.74    0.71
  -3   0   9   12.58    0.73
  -3   0   9   11.84    0.94
  -3   0   9   11.74    0.79
  -3   0   9   11.84    0.70
  -3   0   9   12.40    0.78
  -3   0   9   12.65    0.78
  -3   0   9   12.23    0.69
  -2   0   9    4.01    0.35
  -2   0   9    3.98    0.26
  -2   0   9    4.05    0.36
  -2   0   9    3.97    0.51
  -2   0   9    3.91    0.32
  -2   0   9    3.98    0.27
  -2   0   9    3.93    0.28
  -2   0   9    4.11    0.30
  -2   0   9    3.28    0.42
   1   0  -9    2.44    1.23
   1   0  -9    3.75    0.23
  -1   0   9    3.55    0.36
  -1   0   9    3.82    0.34
  -1   0   9    3.54    0.26
  -1   0   9    3.06    0.50
  -1   0   9    3.95    0.29
  -1   0   9    3.48    0.59
  -1   0   9    3.67    0.25
  -1   0   9    3.66    0.48
  -1   0   9    3.62    0.25
   0   0  -9    4.03    0.26
   0   0   9    4.22    0.61
   0   0   9    3.94    0.37
   0   0   9    3.76    0.27
   0   0   9    4.22    0.48
   0   0   9    3.71    0.31
   0   0   9    3.66    0.29
   0   0   9    4.56    0.28
   0   0   9    5.07    0.58
   0   0   9    3.85    0.50
   0   0   9    4.02    0.39
  -1   0  -9    1.30    0.12
  -1   0  -9    0.24    0.98
   1   0   9    1.43    0.21
   1   0   9    0.66    0.80
   1   0   9    1.62    0.24
   1   0   9    1.43    0.13
   1   0   9    1.74    0.52
   1   0   9    1.40    0.14
   1   0   9    1.45    0.34
   1   0   9    1.31    0.17
   1   0   9    1.62    0.38
   1   0   9    1.54    0.34
  -2   0  -9   -0.43    0.92
  -2   0  -9   -0.91    2.80
   2   0   9    0.29    0.13
   2   0   9    0.14    0.07
   2   0   9    0.20    0.19
   2   0   9    0.06    0.24
   2   0   9    0.03    0.15
   2   0   9    0.19    0.06
   2   0   9    0.12    0.24
   2   0   9    0.14    0.17
   2   0   9    0.29    0.07
   2   0   9    0.18    0.12
   2   0   9    0.20    0.76
   2   0   9    0.26    0.25
  -3   0  -9    1.38    0.25
  -3   0  -9    0.91    2.67
   3   0   9    1.49    0.28
   3   0   9    1.55    0.16
   3   0   9    1.47    0.21
   3   0   9    0.40    0.76
   3   0   9    1.25    0.26
   3   0   9    1.39    0.12
   3   0   9    1.08    0.18
   3   0   9    1.91    0.33
   3   0   9    0.82    0.28
   3   0   9    1.53    0.12
  -4   0  -9    0.06    0.70
  -4   0  -9    0.49    0.55
  -4   0  -9    0.78    0.19
  -4   0  -9    0.71    0.14
  -4   0  -9    0.15    1.45
   4   0   9    1.02    0.15
   4   0   9    1.09    0.12
   4   0   9    0.87    0.08
   4   0   9    0.89    0.08
   4   0   9    2.73    1.41
  -4   1   9   10.38    0.62
  -4   1   9   10.02    0.65
  -4   1   9   10.28    0.60
  -4   1   9   10.63    0.59
  -4   1   9   10.52    0.58
  -4   1   9   10.14    0.58
  -4   1   9   10.22    0.64
  -3   1   9    4.42    0.29
  -3   1   9    4.23    0.31
  -3   1   9    4.43    0.33
  -3   1   9    3.86    0.35
  -3   1   9    4.39    0.28
  -3   1   9    4.49    0.27
  -3   1   9    4.11    0.36
  -3   1   9    4.47    0.36
  -2   1   9    7.44    0.45
  -2   1   9    7.22    0.54
  -2   1   9    7.25    0.48
  -2   1   9    7.51    0.72
  -2   1   9    7.55    0.46
  -2   1   9    7.33    0.55
  -2   1   9    7.43    0.44
  -2   1   9    7.12    0.50
   1  -1  -9    0.02    0.03
  -1   1   9    0.08    0.11
  -1   1   9   -0.02    0.09
  -1   1   9    0.01    0.04
  -1   1   9   -0.01    0.06
  -1   1   9    0.02    0.03
  -1   1   9   -0.01    0.16
  -1   1   9    0.08    0.21
  -1   1   9    0.07    0.18
   0  -1  -9   17.54    0.94
   0   1   9   17.23    1.22
   0   1   9   14.98    1.27
   0   1   9   17.97    0.96
   0   1   9   17.63    1.08
   0   1   9   17.81    0.99
   0   1   9   17.14    1.16
   0   1   9   17.15    1.01
   0   1   9   16.35    1.34
   0   1   9   17.03    1.09
   0   1   9   17.30    1.48
  -1  -1  -9   18.65    1.00
   1   1   9   18.86    1.38
   1   1   9   17.90    1.15
   1   1   9   17.20    1.06
   1   1   9   18.04    1.03
   1   1   9   17.35    1.12
   1   1   9   18.01    1.01
   1   1   9   19.11    1.57
   1   1   9   17.91    1.23
   1   1   9   18.52    1.28
  -2  -1  -9    1.70    0.14
  -2  -1  -9    0.51    1.03
   2   1   9    1.67    0.24
   2   1   9    1.90    0.44
   2   1   9    2.50    0.42
   2   1   9    2.07    0.40
   2   1   9    1.81    0.16
   2   1   9    1.72    0.15
   2   1   9    1.55    0.18
   2   1   9    1.42    0.47
   2   1   9    1.66    0.33
   2   1   9    1.75    0.35
   2   1   9    1.95    0.26
   2   1   9    1.69    0.89
  -3  -1  -9   12.89    1.65
  -3  -1  -9   11.13    3.39
   3   1   9   14.25    0.95
   3   1   9   12.67    1.02
   3   1   9   10.74    0.82
   3   1   9   13.71    0.78
   3   1   9   11.78    1.05
   3   1   9   14.08    0.96
   3   1   9   14.06    0.94
   3   1   9   13.72    0.74
   3   1   9   14.05    1.05
   3   1   9   12.17    1.14
  -4  -1  -9    2.36    2.22
   4   1   9    2.32    0.23
   4   1   9    1.79    0.23
   4   1   9    2.29    0.18
   4   1   9    2.09    0.15
   4   1   9    1.72    0.29
   4   1   9    2.50    0.34
  -4   2   9    0.00    0.03
  -4   2   9   -0.02    0.03
  -4   2   9    0.04    0.03
  -4   2   9    0.04    0.05
  -4   2   9    0.04    0.10
  -3   2   9    0.36    0.07
  -3   2   9    0.18    0.08
  -3   2   9    0.41    0.06
  -3   2   9    0.46    0.07
  -3   2   9    0.39    0.09
  -2   2   9    0.77    0.12
  -2   2   9    1.19    0.20
  -2   2   9    1.11    0.11
  -2   2   9    1.01    0.12
  -1   2   9    0.19    0.10
  -1   2   9    0.04    0.14
  -1   2   9    0.09    0.06
  -1   2   9    0.13    0.10
  -1   2   9    0.18    0.05
   0   2   9   17.09    1.25
   0   2   9   16.08    1.26
   0   2   9   15.73    1.14
   0   2   9   14.39    1.33
   0   2   9   15.99    0.94
   0   2   9   16.54    1.01
   0   2   9   16.28    1.02
  -1  -2  -9    0.03    0.04
   1   2   9    0.07    0.19
   1   2   9    0.02    0.09
   1   2   9    0.03    0.14
   1   2   9    0.22    0.22
   1   2   9    0.14    0.11
   1   2   9   -0.35    0.49
   1   2   9    0.11    0.22
   1   2   9    0.02    0.05
   1   2   9    0.08    0.17
  -2  -2  -9   32.17    1.69
   2   2   9   31.05    1.81
   2   2   9   30.43    1.73
   2   2   9   30.20    1.94
   2   2   9   28.88    1.88
   2   2   9   29.35    1.81
   2   2   9   33.24    2.15
   2   2   9   32.86    1.92
  -3  -2  -9   11.96    2.08
   3   2   9   11.80    1.02
   3   2   9   14.84    0.97
   3   2   9   13.37    1.07
   3   2   9   12.78    0.97
   3   2   9   13.44    0.80
   3   2   9   14.73    1.23
   3   2   9   14.44    4.88
   3   2   9   13.32    0.95
   3   2   9   13.25    0.87
   3   2   9   14.64    1.14
  -4  -2  -9    2.70    2.68
   4   2   9    3.35    0.36
   4   2   9    2.86    0.47
   4   2   9    3.92    0.28
   4   2   9    4.31    0.43
   4   2   9    4.03    0.34
   4   2   9    4.35    0.52
   4   2   9    4.36    0.41
  -5  -2  -9   11.46    0.83
   5   2   9   13.33    0.86
   5   2   9   14.20    0.74
   0   3   9   26.22    1.65
   1   3   9   14.38    0.92
   1   3   9   13.87    1.10
   1   3   9   13.98    1.03
   1   3   9   13.51    0.98
   1   3   9   14.89    1.18
   1   3   9   13.99    0.90
   1   3   9   14.72    1.27
  -2  -3  -9   19.82    1.16
   2   3   9   21.54    1.29
   2   3   9   18.79    1.44
   2   3   9   21.85    1.42
   2   3   9   23.76    1.60
   2   3   9   22.09    1.50
   2   3   9   21.63    1.27
   2   3   9   19.76    1.34
   3   3   9    6.37    0.49
   3   3   9    6.70    0.44
   3   3   9    7.24    1.15
   3   3   9    6.70    0.57
   3   3   9    6.67    0.59
   3   3   9    6.27    0.66
   3   3   9    4.77    0.64
   3   3   9    6.76    0.58
   3   3   9    5.52    0.46
   4   3   9    1.83    0.35
   4   3   9    2.06    2.76
   4   3   9    2.45    0.89
   4   3   9    2.25    0.29
   4   3   9    1.78    0.22
   4   3   9    2.07    0.33
   4   3   9    2.20    0.31
   4   3   9    2.35    0.31
   4   3   9    2.10    0.18
   4   3   9    2.14    0.23
  -5  -3  -9    0.40    2.08
   5   3   9    2.30    0.21
   5   3   9    2.37    0.25
   5   3   9    1.76    0.32
   1   4   9   -0.02    0.43
   1   4   9    0.37    0.19
   1   4   9    0.42    0.18
   1   4   9    0.48    0.19
   1   4   9    0.18    0.19
   1   4   9    0.10    0.23
  -2  -4  -9    1.42    0.13
   2   4   9    1.50    0.37
   2   4   9    1.64    0.30
   2   4   9    2.20    0.86
   2   4   9    1.93    0.23
   2   4   9    2.04    0.32
   2   4   9    1.86    0.32
   2   4   9    1.97    0.35
   2   4   9    1.17    0.37
   2   4   9    1.72    0.34
  -3  -4  -9   -0.23    0.82
   3   4   9    0.37    0.18
   3   4   9    0.17    0.17
   3   4   9   -0.60    1.78
   3   4   9    0.36    0.12
   3   4   9    0.22    0.20
   3   4   9    0.82    0.60
   3   4   9    0.39    0.26
   3   4   9   -0.09    0.46
   3   4   9    0.20    0.22
   3   4   9    0.28    0.18
   3   4   9    0.37    0.18
  -4  -4  -9    0.60    1.09
  -4  -4  -9   -0.64    2.08
   4   4   9    0.34    0.15
   4   4   9    0.10    0.16
   4   4   9    0.52    0.12
   4   4   9    1.37    0.64
   4   4   9    0.51    0.19
   4   4   9    0.62    0.17
   4   4   9    0.36    0.16
   4   4   9    0.64    0.57
   4   4   9    0.21    0.19
   4   4   9    0.13    0.17
   4   4   9   -0.30    1.68
   4   4   9    0.32    0.12
  -5  -4  -9    2.16    1.66
   5   4   9    0.76    0.13
   5   4   9    0.95    1.15
   5   4   9    0.41    0.17
   5   4   9    0.51    0.13
   5   4   9    0.61    0.16
   5   4   9   -0.75    1.37
   5   4   9    0.50    0.19
   1   5   9    4.84    0.56
   2   5   9    0.61    0.20
   2   5   9    0.31    0.45
   2   5   9   -0.70    1.63
   2   5   9    0.26    0.20
   2   5   9    0.55    0.19
   2   5   9    0.38    0.22
   2   5   9    0.44    0.50
   2   5   9    0.61    0.23
   2   5   9    0.36    0.16
   3   5   9    9.66    0.80
   3   5   9    8.49    0.74
   3   5   9    8.62    0.65
   3   5   9    7.71    0.56
   3   5   9    8.89    0.67
   4   5   9    2.77    0.29
   4   5   9    2.32    0.19
   4   5   9    2.08    0.21
   4   5   9    2.75    0.30
   4   5   9    0.66    2.23
   4   5   9    2.17    0.22
   4   5   9    1.99    0.32
   5   5   9    0.59    1.58
   2   6   9   23.58    1.36
   2   6   9   19.43    1.28
   2   6   9   23.17    1.46
   2   6   9   23.79    1.37
   3   6   9   10.65    0.70
   3   6   9    9.05    0.66
   3   6   9   10.35    0.67
   3   6   9    8.94    0.57
   3   6   9    9.83    0.61
   4   6   9    5.93    0.50
   4   6   9    5.12    0.38
   4   6   9    5.48    0.51
   4   6   9    7.18    0.38
   2   7   9    0.06    1.28
   2   7   9    0.39    0.06
   2   7   9    0.59    0.13
   2   7   9    0.57    0.17
   2   7   9    0.26    0.07
  -1  -1  10    2.17    0.28
  -1  -1  10    1.94    0.14
  -1  -1  10    2.07    0.14
  -1  -1  10    2.56    0.18
  -1  -1  10    1.88    0.22
  -1  -1  10    2.32    0.16
   0   1 -10   -0.17    1.61
   0  -1  10   -0.63    1.26
   0  -1  10    0.98    0.21
   0  -1  10    0.85    0.10
   0  -1  10    0.63    0.07
   0  -1  10    0.72    0.07
   0  -1  10    1.06    0.14
   0  -1  10    0.65    0.26
   0  -1  10    0.60    0.13
   0  -1  10    0.84    0.08
  -1   1 -10   -0.48    1.50
   1  -1  10   -0.01    0.03
   1  -1  10    0.10    0.13
   1  -1  10    0.02    0.05
   1  -1  10    0.05    0.16
   1  -1  10   -0.06    0.04
   1  -1  10   -0.76    1.39
   1  -1  10    0.02    0.02
   1  -1  10    0.00    0.11
   1  -1  10   -0.01    0.13
   1  -1  10   -0.01    0.04
  -2   0  10    5.57    0.42
  -2   0  10    6.88    0.40
  -2   0  10    6.39    0.37
  -2   0  10    6.47    0.38
  -2   0  10    6.79    0.38
  -1   0  10    1.34    0.24
  -1   0  10    1.12    0.11
  -1   0  10    1.04    0.10
  -1   0  10    1.11    0.10
  -1   0  10    1.23    0.13
  -1   0  10    1.11    0.25
  -1   0  10    1.20    0.17
  -1   0  10    1.15    0.18
   0   0 -10   -1.08    2.40
   0   0  10    1.20    0.13
   0   0  10    1.25    0.27
   0   0  10    1.38    0.18
   0   0  10    1.30    0.10
   0   0  10    1.02    0.18
   0   0  10    1.22    0.10
   0   0  10    1.21    0.11
   0   0  10    1.08    0.30
   0   0  10    1.04    0.23
  -1   0 -10   -0.72    1.81
   1   0  10    1.04    0.25
   1   0  10    1.03    0.30
   1   0  10    0.78    0.22
  -2   0 -10   -0.33    1.73
  -2   0 -10   -0.47    0.65
  -2   0 -10    0.32    0.11
   2   0  10    0.09    0.12
   2   0  10    0.03    0.17
   2   0  10    0.15    0.17
   2   0  10    0.07    0.07
   2   0  10    0.14    0.08
   2   0  10    0.00    0.09
   2   0  10    0.19    1.18
   2   0  10    0.16    0.06
   2   0  10    0.15    0.04
   2   0  10    0.13    0.03
   2   0  10    0.14    0.12
  -2   1  10    0.72    0.07
  -2   1  10    0.73    0.13
  -2   1  10    0.51    0.11
  -2   1  10    0.76    0.08
  -2   1  10    0.77    0.11
  -2   1  10    0.77    0.07
  -1   1  10   12.03    0.95
  -1   1  10   13.37    0.73
  -1   1  10   13.29    0.81
  -1   1  10   13.34    0.74
  -1   1  10   13.63    0.76
  -1   1  10   12.70    0.82
  -1   1  10   12.82    0.89
   0   1  10    4.06    0.26
   0   1  10    3.85    0.41
   0   1  10    3.82    0.33
   0   1  10    4.29    0.45
   0   1  10    4.18    0.48
   0   1  10    4.74    0.37
   0   1  10    4.33    0.28
   0   1  10    4.35    0.30
   1   1  10   18.30    1.30
   1   1  10   17.72    1.04
   1   1  10   20.82    1.26
   1   1  10   19.86    1.08
   1   1  10   20.12    1.14
   1   1  10   15.62    1.38
   1   1  10   18.76    1.03
   1   1  10   19.53    1.21
   1   1  10   19.07    1.12
   2   1  10   18.22    1.09
   2   1  10   15.86    1.03
   2   1  10   17.29    0.94
   2   1  10   17.18    1.10
   2   1  10   15.92    0.90
   2   1  10   14.97    0.98
   2   1  10   16.37    1.00
  -3  -1 -10    0.59    0.12
  -3  -1 -10    1.43    1.88
   3   1  10    0.28    0.14
   3   1  10    0.39    0.07
   3   1  10    0.31    0.18
   3   1  10    0.28    0.09
   3   1  10    0.50    0.16
   3   1  10    0.55    0.17
   3   1  10    0.42    0.06
   3   1  10    0.28    0.09
   3   1  10    0.39    0.20
   3   1  10   -0.35    1.32
   3   1  10    0.23    0.47
  -2   2  10    0.56    0.08
  -1   2  10    1.01    0.16
  -1   2  10    1.10    0.12
  -1   2  10    0.99    0.16
   0   2  10    8.41    0.56
   0   2  10    8.23    0.66
   0   2  10    8.06    0.50
   0   2  10    7.82    0.55
   1   2  10    0.38    0.12
   1   2  10    0.23    0.10
   1   2  10    0.47    0.27
   1   2  10    0.41    0.23
   1   2  10    0.37    0.08
   1   2  10    0.45    0.19
   1   2  10    0.28    0.17
   1   2  10    0.40    0.17
   2   2  10    2.34    0.44
   2   2  10    2.77    0.35
   2   2  10    2.26    0.30
   2   2  10    2.57    0.20
   2   2  10    2.63    0.27
   2   2  10    2.77    0.38
   2   2  10    2.50    0.25
   2   2  10    2.73    0.34
  -3  -2 -10    2.37    0.30
   0   3  10    0.93    0.24
   0   3  10    1.45    0.23
   0   3  10    0.50    0.18
   1   3  10    3.65    0.38
   1   3  10    4.19    0.38
   1   3  10    3.77    0.40
   1   3  10    4.00    0.33
   1   3  10    2.99    0.42
   2   3  10    2.43    0.32
   2   3  10    2.12    0.22
   2   3  10    1.99    0.28
   2   3  10    2.32    0.24
   2   3  10    1.87    0.39
   2   3  10    2.44    0.31
   3   3  10    0.06    0.07
   3   3  10    0.05    0.15
   3   3  10    0.15    0.13
   3   3  10    0.03    0.44
   3   3  10   -0.06    0.14
   3   3  10    0.05    0.13
   3   3  10    0.03    0.10
   3   3  10   -0.25    0.36
   3   3  10    0.05    0.07
   3   3  10    0.19    0.15
   3   3  10    0.10    0.11
   4   3  10    7.82    0.55
   1   4  10    5.55    0.48
   1   4  10    5.73    0.46
   2   4  10    0.85    0.27
   2   4  10    1.01    0.15
   2   4  10    1.05    0.21
   2   4  10    1.28    0.23
   2   4  10    1.03    0.26
   2   4  10    0.56    0.51
   2   4  10    1.03    0.20
   3   4  10    3.59    0.32
   3   4  10    2.68    0.41
   3   4  10    3.35    0.62
   3   4  10    3.63    0.38
   3   4  10    4.00    0.35
   3   4  10    3.26    0.33
   3   4  10    2.92    0.26
   2   5  10   -0.01    0.11
   2   5  10    0.04    0.09
   2   5  10    0.02    0.10
   2   5  10    0.13    0.31
   2   5  10    0.04    0.09
   2   5  10    0.15    0.10
   3   5  10    0.45    0.16
   3   5  10    0.05    0.34
   3   5  10   -0.60    1.86
   3   5  10    0.55    0.20
   3   5  10    0.85    0.15
   0   0   0    0.00    0.00
;
_shelx_hkl_checksum              98072
_shelx_res_file
;
TITL TAHPSO4.res in P-1
    TAHPSO4.res
    created by SHELXL-2018/3 at 11:23:43 on 20-Mar-2019
REM SHELXT solution in P-1
REM R1 0.153,  Rweak 0.008,  Alpha 0.057,  Orientation as input
REM Formula found by SHELXT:  C8 N O6 S
CELL  1.54178   7.0128   7.9882   9.0732   74.121   86.734   79.290
ZERR    1.000   0.0007   0.0008   0.0009    0.004    0.004    0.004
LATT  1
SFAC C H N O S
UNIT 8 22 10 12 2
FLAT 0.05 H10 N10 C16 N11 N9 H9 C15 O6 C14 N8 C12 N13
LIST 6 ! automatically inserted. Change 6 to 4 for CHECKCIF!!
TEMP 23.000
L.S. 10
ACTA 20
BOND $H
LIST 6
FMAP 2
PLAN 20
WGHT    0.200000
EXTI    0.081293
FVAR       0.41698
S1    5    0.291899    0.728041    0.159285    11.00000    0.02874    0.03284 =
         0.02668   -0.00480    0.00167   -0.00438
O2    4    0.394316    0.547107    0.172409    11.00000    0.04068    0.03260 =
         0.04061   -0.00411    0.00472   -0.00316
O3    4    0.427578    0.853704    0.111902    11.00000    0.03454    0.04136 =
         0.04133   -0.00937    0.00597   -0.01259
O4    4    0.206277    0.735966    0.311102    11.00000    0.04927    0.04753 =
         0.03395   -0.01347    0.00896   -0.01183
O5    4    0.136232    0.777139    0.045231    11.00000    0.03411    0.05315 =
         0.03511   -0.00902   -0.00400   -0.00353
O6    4    0.217085   -0.176365    0.672821    11.00000    0.07496    0.04266 =
         0.03510   -0.00423    0.00706   -0.01375
N8    3    0.210199    0.097280    0.813602    11.00000    0.03047    0.04177 =
         0.02593   -0.00456   -0.00055   -0.00514
AFIX 137
H8A   2    0.098160    0.160461    0.833726    11.00000   -1.50000
H8B   2    0.307806    0.133069    0.847810    11.00000   -1.50000
H8C   2    0.211936   -0.016627    0.859976    11.00000   -1.50000
AFIX   0
N9    3    0.257339    0.000926    0.435242    11.00000    0.04528    0.03342 =
         0.02610   -0.00626    0.00254   -0.00688
H9    2    0.237073   -0.084540    0.409505    11.00000    0.02830
N10   3    0.266927    0.296886    0.396748    11.00000    0.04662    0.03479 =
         0.02744   -0.00556    0.00269   -0.00728
H10   2    0.277935    0.401105    0.335488    11.00000    0.07619
N11   3    0.298835    0.177311    0.191417    11.00000    0.06968    0.04322 =
         0.02743   -0.00607    0.00558   -0.00723
H11A  2    0.324883    0.260711    0.127535    11.00000    0.05499
H11B  2    0.325001    0.092316    0.143432    11.00000    0.05308
C12   1    0.242220    0.284864    0.551333    11.00000    0.03071    0.04039 =
         0.02718   -0.00501    0.00256   -0.00397
N13   3    0.232735    0.435735    0.590216    11.00000    0.06064    0.03036 =
         0.03088   -0.00729    0.00071   -0.00552
H13A  2    0.200460    0.433765    0.696968    11.00000    0.07252
H13B  2    0.224600    0.546123    0.524711    11.00000    0.05402
C14   1    0.230874    0.121606    0.649615    11.00000    0.02970    0.03287 =
         0.02582   -0.00177   -0.00132   -0.00261
C15   1    0.233788   -0.028032    0.595623    11.00000    0.03510    0.03470 =
         0.02696    0.00090   -0.00191   -0.00002
C16   1    0.272789    0.159149    0.339356    11.00000    0.03617    0.03980 =
         0.02739   -0.00741    0.00229   -0.00373
OW1   4    0.787270    0.536480    0.094366    11.00000    0.05422    0.05083 =
         0.04368   -0.01249    0.00455   -0.01066
HW12  2    0.687106    0.467304    0.118951    11.00000    0.15982
HW11  2    0.915862    0.473227    0.088665    11.00000    0.10508
DFIX 0.9584 0.01 OW1 HW11 OW1 HW12
DANG 1.515  0.05 HW11 HW12
DFIX 0.85   0.5  N13 H13A N13 H13B N11 H11A N11 H11B
DANG 1.52   0.5  H13A H13B H11A H11B
DFIX 0.88   0.05 N9 H9 N10 H10
HKLF 4
REM  TAHPSO4.res in P-1
REM wR2 = 0.2812, GooF = S = 1.399, Restrained GooF = 1.397 for all data
REM R1 = 0.0797 for 1599 Fo > 4sig(Fo) and 0.0866 for all 1720 data
REM 179 parameters refined using 20 restraints
END
WGHT      0.2000      0.0000
REM Highest difference peak  0.628,  deepest hole -1.041,  1-sigma level  0.136
Q1    1   0.1690 -0.1590  0.6732  11.00000  0.05    0.63
Q2    1   0.3328  0.6754  0.3060  11.00000  0.05    0.59
Q3    1   0.1581  0.7605  0.1170  11.00000  0.05    0.58
Q4    1   0.2893  0.5410  0.3541  11.00000  0.05    0.55
Q5    1   0.3999  0.7955  0.0651  11.00000  0.05    0.55
Q6    1   0.0921  0.5932  0.0772  11.00000  0.05    0.55
Q7    1   0.8167  0.5150  0.1456  11.00000  0.05    0.51
Q8    1   0.2289  0.2691  0.5957  11.00000  0.05    0.51
Q9    1   0.2450  0.7960  0.0388  11.00000  0.05    0.50
Q10   1   0.3111  0.0720  0.8873  11.00000  0.05    0.48
Q11   1   0.5606  0.8253  0.0692  11.00000  0.05    0.46
Q12   1   0.1876  0.6606  0.2673  11.00000  0.05    0.45
Q13   1   0.2556  0.3045  0.4328  11.00000  0.05    0.44
Q14   1   0.3931  0.9170 -0.0310  11.00000  0.05    0.44
Q15   1   0.6602  0.5648 -0.0024  11.00000  0.05    0.44
Q16   1   0.2588  0.5799  0.1558  11.00000  0.05    0.44
Q17   1   0.0572 -0.0583  0.4398  11.00000  0.05    0.43
Q18   1   0.4654  0.8227  0.1821  11.00000  0.05    0.42
Q19   1   0.3418  0.5835  0.0860  11.00000  0.05    0.42
Q20   1   0.2368  0.0908  0.6241  11.00000  0.05    0.41
;
_shelx_res_checksum              48454
loop_
_space_group_symop_operation_xyz
'x, y, z'
'-x, -y, -z'
loop_
_atom_site_type_symbol
_atom_site_label
_atom_site_fract_x
_atom_site_fract_y
_atom_site_fract_z
_atom_site_U_iso_or_equiv
_atom_site_adp_type
_atom_site_calc_flag
_atom_site_occupancy
S S1 0.29190(9) 0.72804(10) 0.15928(8) 0.0303(6) Uani d 1
O O2 0.3943(4) 0.5471(3) 0.1724(3) 0.0397(8) Uani d 1
O O3 0.4276(3) 0.8537(4) 0.1119(3) 0.0389(8) Uani d 1
O O4 0.2063(4) 0.7360(4) 0.3111(3) 0.0430(8) Uani d 1
O O5 0.1362(4) 0.7771(4) 0.0452(3) 0.0418(8) Uani d 1
O O6 0.2171(5) -0.1764(4) 0.6728(3) 0.0520(9) Uani d 1
N N8 0.2102(4) 0.0973(4) 0.8136(3) 0.0338(8) Uani d 1
H H8A 0.098160 0.160461 0.833726 0.051 Uiso calc 1
H H8B 0.307806 0.133069 0.847810 0.051 Uiso calc 1
H H8C 0.211936 -0.016627 0.859976 0.051 Uiso calc 1
N N9 0.2573(4) 0.0009(4) 0.4352(3) 0.0354(8) Uani d 1
H H9 0.237(4) -0.085(5) 0.410(4) 0.028(10) Uiso d 1
N N10 0.2669(4) 0.2969(4) 0.3967(3) 0.0369(8) Uani d 1
H H10 0.2779(14) 0.401(6) 0.335(6) 0.076(17) Uiso d 1
N N11 0.2988(6) 0.1773(6) 0.1914(4) 0.0481(10) Uani d 1
H H11A 0.325(7) 0.261(8) 0.128(6) 0.055(15) Uiso d 1
H H11B 0.325(7) 0.092(7) 0.143(6) 0.053(14) Uiso d 1
C C12 0.2422(5) 0.2849(5) 0.5513(4) 0.0340(9) Uani d 1
N N13 0.2327(5) 0.4357(4) 0.5902(4) 0.0412(9) Uani d 1
H H13A 0.200(8) 0.434(8) 0.697(7) 0.073(17) Uiso d 1
H H13B 0.225(7) 0.546(7) 0.525(6) 0.054(13) Uiso d 1
C C14 0.2309(4) 0.1216(5) 0.6496(4) 0.0310(9) Uani d 1
C C15 0.2338(5) -0.0280(5) 0.5956(4) 0.0348(9) Uani d 1
C C16 0.2728(5) 0.1591(5) 0.3394(4) 0.0353(9) Uani d 1
O OW1 0.7873(5) 0.5365(4) 0.0944(3) 0.0496(9) Uani d 1
H HW12 0.687(8) 0.467(8) 0.119(11) 0.16(4) Uiso d 1
H HW11 0.916(4) 0.473(7) 0.089(8) 0.11(2) Uiso d 1
loop_
_atom_site_aniso_label
_atom_site_aniso_U_11
_atom_site_aniso_U_22
_atom_site_aniso_U_33
_atom_site_aniso_U_12
_atom_site_aniso_U_13
_atom_site_aniso_U_23
S1 0.0287(8) 0.0328(8) 0.0267(8) -0.0044(5) 0.0017(4) -0.0048(5)
O2 0.0407(14) 0.0326(15) 0.0406(14) -0.0032(11) 0.0047(10) -0.0041(11)
O3 0.0345(13) 0.0414(15) 0.0413(15) -0.0126(11) 0.0060(11) -0.0094(11)
O4 0.0493(16) 0.0475(17) 0.0340(14) -0.0118(12) 0.0090(12) -0.0135(13)
O5 0.0341(13) 0.0532(18) 0.0351(14) -0.0035(11) -0.0040(10) -0.0090(12)
O6 0.075(2) 0.0427(18) 0.0351(15) -0.0137(15) 0.0071(13) -0.0042(13)
N8 0.0305(14) 0.0418(18) 0.0259(15) -0.0051(12) -0.0006(11) -0.0046(13)
N9 0.0453(16) 0.0334(18) 0.0261(16) -0.0069(13) 0.0025(12) -0.0063(13)
N10 0.0466(17) 0.0348(18) 0.0274(16) -0.0073(13) 0.0027(12) -0.0056(13)
N11 0.070(2) 0.043(2) 0.0274(16) -0.0072(17) 0.0056(15) -0.0061(17)
C12 0.0307(15) 0.040(2) 0.0272(17) -0.0040(14) 0.0026(13) -0.0050(15)
N13 0.061(2) 0.0304(18) 0.0309(16) -0.0055(14) 0.0007(14) -0.0073(13)
C14 0.0297(15) 0.0329(19) 0.0258(17) -0.0026(13) -0.0013(12) -0.0018(14)
C15 0.0351(16) 0.035(2) 0.0270(17) 0.0000(14) -0.0019(13) 0.0009(14)
C16 0.0362(17) 0.040(2) 0.0274(16) -0.0037(14) 0.0023(13) -0.0074(15)
OW1 0.0542(18) 0.0508(19) 0.0437(17) -0.0107(14) 0.0046(14) -0.0125(14)
loop_
_atom_type_symbol
_atom_type_description
_atom_type_scat_dispersion_real
_atom_type_scat_dispersion_imag
_atom_type_scat_source
C C 0.0181 0.0091 'International Tables Vol C Tables 4.2.6.8 and 6.1.1.4'
H H 0.0000 0.0000 'International Tables Vol C Tables 4.2.6.8 and 6.1.1.4'
N N 0.0311 0.0180 'International Tables Vol C Tables 4.2.6.8 and 6.1.1.4'
O O 0.0492 0.0322 'International Tables Vol C Tables 4.2.6.8 and 6.1.1.4'
S S 0.3331 0.5567 'International Tables Vol C Tables 4.2.6.8 and 6.1.1.4'
loop_
_geom_angle_atom_site_label_1
_geom_angle_atom_site_label_2
_geom_angle_atom_site_label_3
_geom_angle
O2 S1 O5 110.53(16)
O2 S1 O3 110.29(15)
O5 S1 O3 108.68(14)
O2 S1 O4 108.20(15)
O5 S1 O4 109.32(14)
O3 S1 O4 109.81(14)
C14 N8 H8A 109.5
C14 N8 H8B 109.5
H8A N8 H8B 109.5
C14 N8 H8C 109.5
H8A N8 H8C 109.5
H8B N8 H8C 109.5
C16 N9 C15 123.3(3)
C16 N9 H9 125(3)
C15 N9 H9 110(3)
C16 N10 C12 122.8(3)
C16 N10 H10 120(4)
C12 N10 H10 117(4)
C16 N11 H11A 128(4)
C16 N11 H11B 128(3)
H11A N11 H11B 102(5)
N13 C12 C14 126.4(3)
N13 C12 N10 115.6(3)
C14 C12 N10 118.0(3)
C12 N13 H13A 117(4)
C12 N13 H13B 126(3)
H13A N13 H13B 115(4)
C12 C14 C15 121.8(3)
C12 C14 N8 121.3(3)
C15 C14 N8 116.9(3)
O6 C15 C14 126.6(3)
O6 C15 N9 118.4(3)
C14 C15 N9 115.0(3)
N11 C16 N10 120.3(4)
N11 C16 N9 120.6(4)
N10 C16 N9 119.0(3)
HW12 OW1 HW11 116(5)
loop_
_geom_bond_atom_site_label_1
_geom_bond_atom_site_label_2
_geom_bond_distance
S1 O2 1.466(3)
S1 O5 1.471(2)
S1 O3 1.473(2)
S1 O4 1.484(3)
O6 C15 1.223(5)
N8 C14 1.449(4)
N8 H8A 0.8900
N8 H8B 0.8900
N8 H8C 0.8900
N9 C16 1.343(5)
N9 C15 1.415(4)
N9 H9 0.82(3)
N10 C16 1.333(5)
N10 C12 1.382(4)
N10 H10 0.88(4)
N11 C16 1.316(5)
N11 H11A 0.80(6)
N11 H11B 0.89(5)
C12 N13 1.335(5)
C12 C14 1.377(5)
N13 H13A 0.98(6)
N13 H13B 0.91(5)
C14 C15 1.407(5)
OW1 HW12 0.953(10)
OW1 HW11 0.954(10)
loop_
_geom_hbond_atom_site_label_D
_geom_hbond_atom_site_label_H
_geom_hbond_atom_site_label_A
_geom_hbond_site_symmetry_A
_geom_hbond_distance_DH
_geom_hbond_distance_HA
_geom_hbond_distance_DA
_geom_hbond_angle_DHA
N8 H8A O4 2_566 0.89 2.46 3.113(4) 131
N8 H8A O5 2_566 0.89 1.99 2.827(4) 157
N8 H8B O3 2_666 0.89 1.94 2.788(4) 159
N8 H8C O5 1_546 0.89 2.13 2.942(4) 152
N9 H9 O4 1_545 0.82(4) 1.93(4) 2.739(5) 168(4)
N10 H10 O2 1_555 0.88(4) 1.87(4) 2.677(4) 152(3)
N10 H10 O4 1_555 0.88(4) 2.58(5) 3.329(4) 143(4)
N11 H11A O2 1_555 0.80(5) 2.56(7) 3.106(6) 126(5)
N11 H11A OW1 2_665 0.80(5) 2.29(5) 2.956(4) 142(5)
N11 H11B O3 1_545 0.89(6) 2.00(6) 2.845(6) 158(5)
N13 H13A OW1 2_666 0.98(6) 1.98(7) 2.924(5) 161(5)
N13 H13B O4 1_555 0.91(5) 2.10(5) 2.961(4) 156(5)
OW1 HW12 O2 1_555 0.96(6) 2.10(6) 2.798(4) 128(5)
OW1 HW11 OW1 2_765 0.96(3) 2.59(5) 3.390(5) 141(3)

_cod_database_fobs_code 1551069
