#------------------------------------------------------------------------------
#$Date: 2019-06-17 12:15:13 +0300 (Mon, 17 Jun 2019) $
#$Revision: 216016 $
#$URL: file:///home/coder/svn-repositories/cod/cif/1/55/14/1551448.cif $
#------------------------------------------------------------------------------
#
# This file is available in the Crystallography Open Database (COD),
# http://www.crystallography.net/
#
# All data on this site have been placed in the public domain by the
# contributors.
#
data_1551448
loop_
_publ_author_name
'Niko Pavlicek'
'Przemyslaw Gawel'
'Daniel R. Kohn'
'Zsolt Majzik'
'Yaoyao Xiong'
'Gerhard Meyer'
'Harry L. Anderson'
'Leo Gross'
_publ_section_title
;
 Polyyne formation via skeletal rearrangement induced by atomic
 manipulation
;
_journal_name_full               'Nature Chemistry'
_journal_page_first              853
_journal_page_last               858
_journal_paper_doi               10.1038/s41557-018-0067-y
_journal_volume                  10
_journal_year                    2018
_chemical_absolute_configuration .
_chemical_compound_source        .
_chemical_formula_moiety         'C24 H10 Br4'
_chemical_formula_sum            'C24 H10 Br4'
_chemical_formula_weight         617.96
_space_group_IT_number           13
_space_group_name_Hall           '-P 2yc'
_space_group_name_H-M_alt        'P 1 2/c 1'
_symmetry_cell_setting           monoclinic
_symmetry_space_group_name_Hall  '-P 2yc'
_symmetry_space_group_name_H-M   'P 1 2/c 1'
_atom_sites_solution_hydrogens   difmap
_atom_sites_solution_primary     other
_cell_angle_alpha                90
_cell_angle_beta                 100.208(3)
_cell_angle_gamma                90
_cell_formula_units_Z            2
_cell_length_a                   12.0069(4)
_cell_length_b                   3.9729(2)
_cell_length_c                   22.0798(7)
_cell_measurement_reflns_used    2227
_cell_measurement_temperature    150
_cell_measurement_theta_max      76
_cell_measurement_theta_min      4
_cell_volume                     1036.58(7)
_computing_cell_refinement       'CrysAlisPro, (Agilent, 2011)'
_computing_data_collection       'SuperNova, (Oxford Diffraction, 2010)'
_computing_data_reduction        'CrysAlisPro, (Agilent, 2011)'
_computing_molecular_graphics    'CAMERON (Watkin et al., 1996)'
_computing_publication_material  'CRYSTALS (Betteridge et al., 2003)'
_computing_structure_refinement  'CRYSTALS (Betteridge et al., 2003)'
_computing_structure_solution    'Superflip (Palatinus & Chapuis, 2007)'
_diffrn_ambient_temperature      150
_diffrn_measured_fraction_theta_full 0.998
_diffrn_measured_fraction_theta_max 0.984
_diffrn_measurement_device       Area
_diffrn_measurement_device_type  'Oxford Diffraction SuperNova'
_diffrn_measurement_method       \w
_diffrn_radiation_monochromator  graphite
_diffrn_radiation_type           'Cu K\a'
_diffrn_radiation_wavelength     1.54184
_diffrn_reflns_av_R_equivalents  0.024
_diffrn_reflns_av_sigmaI/netI    0.0322
_diffrn_reflns_limit_h_max       15
_diffrn_reflns_limit_h_min       -13
_diffrn_reflns_limit_k_max       3
_diffrn_reflns_limit_k_min       -4
_diffrn_reflns_limit_l_max       27
_diffrn_reflns_limit_l_min       -27
_diffrn_reflns_number            4197
_diffrn_reflns_theta_full        73.676
_diffrn_reflns_theta_max         75.954
_diffrn_reflns_theta_min         3.741
_diffrn_standards_decay_%        .
_diffrn_standards_interval_count .
_diffrn_standards_interval_time  .
_diffrn_standards_number         0
_exptl_absorpt_coefficient_mu    9.524
_exptl_absorpt_correction_T_max  0.75
_exptl_absorpt_correction_T_min  0.12
_exptl_absorpt_correction_type   multi-scan
_exptl_absorpt_process_details   'CrysAlisPro, (Agilent, 2011)'
_exptl_crystal_colour            colourless
_exptl_crystal_density_diffrn    1.980
_exptl_crystal_density_method    'not measured'
_exptl_crystal_description       plate
_exptl_crystal_F_000             588
_exptl_crystal_size_max          0.30
_exptl_crystal_size_mid          0.13
_exptl_crystal_size_min          0.03
_refine_diff_density_max         1.27
_refine_diff_density_min         -0.45
_refine_ls_extinction_method     None
_refine_ls_goodness_of_fit_ref   1.0504
_refine_ls_hydrogen_treatment    constr
_refine_ls_matrix_type           full
_refine_ls_number_parameters     127
_refine_ls_number_reflns         2110
_refine_ls_number_restraints     0
_refine_ls_R_factor_all          0.0525
_refine_ls_R_factor_gt           0.0499
_refine_ls_shift/su_max          0.0008580
_refine_ls_shift/su_mean         0.0000662
_refine_ls_structure_factor_coef Fsqd
_refine_ls_weighting_details
;
 Method= Modified Sheldrick 
 w=1/[\s^2^(F^2^) + ( 0.10P)^2^ + 0.00P] 
 ,where P=(max(Fo^2^,0) + 2Fc^2^)/3 
;
_refine_ls_weighting_scheme      calc
_refine_ls_wR_factor_all         0.1282
_refine_ls_wR_factor_gt          0.1222
_refine_ls_wR_factor_ref         0.1282
_reflns_limit_h_max              14
_reflns_limit_h_min              -15
_reflns_limit_k_max              4
_reflns_limit_k_min              0
_reflns_limit_l_max              27
_reflns_limit_l_min              0
_reflns_number_gt                1917
_reflns_number_total             2110
_reflns_threshold_expression     I>2.0\s(I)
_oxford_diffrn_Wilson_B_factor   4.51
_oxford_diffrn_Wilson_scale      0.08
_oxford_refine_ls_r_factor_ref   0.0525
_oxford_refine_ls_scale          3.73(10)
_oxford_reflns_number_all        2110
_oxford_reflns_threshold_expression_ref I>-3.0\s(I)
_iucr_refine_instructions_details
;
#
# Punched on 13/05/17 at 15:57:06
#
#LIST     12                                                                    
BLOCK SCALE X'S  U'S 
RIDE C   (   6,X'S) H   (  61,X'S) 
RIDE C   (   7,X'S) H   (  71,X'S) 
RIDE C   (   8,X'S) H   (  81,X'S) 
RIDE C   (   9,X'S) H   (  91,X'S) 
RIDE C   (  10,X'S) H   ( 101,X'S) 
END                                                                             
#
# Punched on 13/05/17 at 15:57:06
#
#LIST     16                                                                    
NO 
REM   HREST   START (DO NOT REMOVE THIS LINE) 
REM   HREST   END (DO NOT REMOVE THIS LINE) 
END                                                                             
;
_cod_data_source_file            41557_2018_67_MOESM76_ESM.cif
_cod_data_source_block           7Br4
_cod_depositor_comments
;
The following automatic conversions were performed:

data item '_atom_sites_solution_primary' value 'Other' was changed to
'other' in accordance with the built-in table derived from the CIF
Core dictionary named 'cif_core.dic' version 2.4.5 last updated on
2014-11-21.

data item '_exptl_crystal_density_meas' value 'not measured' was
changed to '?' -- the value is perceived as not measured.

Automatic conversion script
Id: cif_fix_values 6909 2019-04-08 15:41:33Z antanas 
;
_cod_original_sg_symbol_H-M      'P 2/c '
_cod_database_code               1551448
_iucr_refine_reflections_details
; 
# An asterisk in column 34 indicates a format overflow 
# Data was input as F-squared 
   0   0   3  -57.43   56.81 
   0   0   4 9464.34  549.85 
   0   0   5  -44.22   87.50 
   0   0   6 413460.   4295. 
   0   0  -7  174.04  103.75 
   0   0   7  -19.59  119.87 
   0   0  -8 46087.1  1440.4 
   0   0   8 47596.5  1686.3 
   0   0  -9   20.03   92.73 
   0   0   9   19.32  141.61 
   0   0  10  687.68  265.68 
   0   0 -10  663.98  189.77 
   0   0 -11   -9.90  144.62 
   0   0  11   45.48  130.95 
   0   0 -12 1575.44  314.77 
   0   0  12 1229.74  295.86 
   0   0 -13  255.72  183.42 
   0   0  13 -139.44  157.37 
   0   0  14 158448.   3503. 
   0   0 -14 167020.   3112. 
   0   0 -15  422.17  159.81 
   0   0  15  141.59  151.45 
   0   0  16 30626.6   682.7 
   0   0  16 29631.7  1542.9 
   0   0  16 30128.4   646.4 
   0   0  17   -5.84   36.33 
   0   0  17  184.34  213.46 
   0   0  17   28.08   38.19 
   0   0  17   10.12   59.33 
   0   0  18  351.62   75.89 
   0   0  18  377.97   82.70 
   0   0  18  277.38  119.84 
   0   0  18  371.62   75.50 
   0   0  19   63.15   59.15 
   0   0  19   65.68   45.25 
   0   0  19   27.81   43.99 
   0   0  20 45065.0   772.2 
   0   0  20 46288.7   838.4 
   0   0  20 44488.4   717.8 
   0   0  21  -15.98   48.25 
   0   0  21   40.66   35.39 
   0   0  22 1740.08  139.82 
   0   0  23   72.71   42.57 
   0   0  24   26.56   26.01 
   0   0  25   -3.27   17.63 
   0   0  26 1901.19   94.02 
   0   0  27   37.13   15.90 
   0  -1   0 157652.   1659. 
   0  -1  -1 228735.   1581. 
   0  -1   1 233650.   2397. 
   0  -1   2 4897.02  400.60 
   0  -1   3 29819.5  1069.3 
   0  -1   4 10430.0   679.5 
   0  -1   4 11279.3   708.3 
   0  -1   5 187072.   3035. 
   0  -1   5 182619.   2992. 
   0  -1   6 67908.1  1935.0 
   0  -1   6 69009.8  1937.7 
   0  -1   7 19282.6  1061.0 
   0  -1   7 19001.2  1068.4 
   0  -1   8 23796.5  1223.6 
   0  -1   8 23464.3  1233.2 
   0  -1   9 48775.2  1823.2 
   0  -1   9 50869.8  1834.0 
   0  -1  10 8587.67  795.80 
   0   1 -10 8292.50  759.75 
   0   1  10 7393.20  690.72 
   0   1  11  258.08  174.15 
   0   1 -11  160.14  123.13 
   0  -1  11  390.71  226.00 
   0   1  12 43993.2  1736.9 
   0  -1  12 43878.2  1836.8 
   0   1 -12 41498.8  1736.8 
   0  -1  13 22369.5  1339.1 
   0   1 -13 21333.2  1258.5 
   0   1  13 22508.3  1258.0 
   0  -1  14 22251.8  1362.3 
   0   1 -14 21137.6  1267.2 
   0   1  14 22723.1  1278.9 
   0   1 -15 54205.1  2040.5 
   0  -1  15 53291.7   846.9 
   0   1  15 56499.6  2045.7 
   0  -1  15 56722.2  2219.6 
   0  -1  16 1444.93  145.40 
   0  -1  16 1287.48  140.52 
   0  -1  16 1508.05  378.52 
   0   1 -16 1547.78  363.43 
   0   1  16 1041.08  293.14 
   0  -1  16 1282.65  125.02 
   0   1  16 1190.28  127.72 
   0  -1  17 11014.1   385.6 
   0  -1  17 10875.7   974.2 
   0   1  17 10645.6   369.6 
   0  -1  17 11368.7   396.0 
   0   1  17 10738.5   891.0 
   0   1 -17 10161.8   882.3 
   0  -1  17 10567.7   388.1 
   0   1  18 11546.6   920.9 
   0  -1  18 11238.3   396.5 
   0   1  18 11462.7   379.5 
   0  -1  18 11791.6   391.5 
   0   1 -18 11100.3   909.9 
   0  -1  18 11956.4   406.8 
   0  -1  18 12212.5  1025.8 
   0  -1  19 8402.57  328.40 
   0   1  19 8313.64  314.56 
   0  -1  19 8374.74  321.31 
   0  -1  19 8672.34  348.51 
   0  -1  20 4842.00  232.64 
   0  -1  20 5297.68  270.26 
   0   1  20 5265.98  240.34 
   0  -1  20 4998.56  243.65 
   0  -1  21 7051.49  273.57 
   0  -1  21 7071.65  266.63 
   0   1  21 6917.68  260.64 
   0  -1  21 7292.97  304.75 
   0  -1  22 2738.43  176.01 
   0  -1  22 2709.87  161.45 
   0   1  22 2644.16  160.02 
   0  -1  22 2764.29  161.25 
   0  -1  23   22.24   41.11 
   0  -1  23  -11.68   17.15 
   0  -1  23   36.35   24.79 
   0   1  23   31.31   25.34 
   0  -1  24  389.92   45.15 
   0   1  24  394.08   53.76 
   0   1  25  104.93   32.27 
   0   1  26  913.49   60.65 
   0   2   0 13808.6   730.6 
   0   2   1 24200.1   888.2 
   0   2  -1 22871.3  1006.2 
   0   2  -2 45094.4  1489.2 
   0   2  -3 45335.8  1564.0 
   0   2  -4 68357.9  1991.5 
   0   2  -5 2403.22  395.99 
   0   2  -6 1258.78  296.76 
   0   2  -7 9410.78  799.77 
   0   2  -8  774.46  251.67 
   0   2  -9 17403.9  1137.9 
   0   2 -10 2582.09  421.76 
   0   2 -11 16405.2  1129.8 
   0   2 -12 18518.1  1214.6 
   0  -2  12 18974.3   538.9 
   0  -2  13  -22.73   52.85 
   0   2 -13   -1.67  185.84 
   0  -2  13  -64.90   33.25 
   0   2  14 5725.09  257.08 
   0   2 -14 6441.62  727.38 
   0  -2  14 5539.52  259.62 
   0   2 -15 16590.1  1144.2 
   0   2  15 16776.8   442.8 
   0  -2  15 16814.0   451.8 
   0  -2  16 16819.6   418.1 
   0  -2  16 16533.7   442.7 
   0   2  16 17747.5   445.8 
   0  -2 -16 16367.6   419.6 
   0  -2  17 3708.68  203.50 
   0   2  17 3867.58  208.00 
   0  -2 -17 3721.56  191.69 
   0  -2  17 3371.25  185.08 
   0   2  18 11659.2   347.2 
   0  -2 -18 11221.6   311.1 
   0  -2  18 11081.7   335.3 
   0  -2  18 10996.7   323.1 
   0  -2  19   36.63   22.67 
   0   2  19   15.32   25.15 
   0  -2  19    9.63   28.91 
   0  -2  19   84.22   50.74 
   0  -2 -19   55.94   29.41 
   0   2  20 1860.99  129.10 
   0  -2  20 1993.92  144.18 
   0  -2  20 1812.68  121.08 
   0  -2 -20 1817.12  106.73 
   0  -2  20 1752.40  116.48 
   0  -2  21 1346.88   98.06 
   0   2  21 1441.47  105.68 
   0  -2  21 1544.45  116.31 
   0  -2 -21 1366.87   82.32 
   0   2  22   61.20   27.96 
   0  -2  22  159.27   41.79 
   0  -2  23  724.92   65.67 
   0   2  23  641.62   57.76 
   0  -2  24   18.98   17.30 
   0   2  24   22.75   16.53 
   0  -3   0   51.22  110.06 
   0  -3   1 7339.02  504.23 
   0  -3  -1 6490.71  472.79 
   0  -3  -2  185.11   98.99 
   0  -3   2  316.58  135.90 
   0  -3   3 66101.6  1456.8 
   0  -3  -3 60529.5  1440.3 
   0  -3  -4  -23.69   38.61 
   0  -3   4  -30.77   94.46 
   0  -3  -4  -47.36   83.12 
   0  -3   4   98.32   60.86 
   0  -3   5   23.27   46.90 
   0  -3  -5   28.50   34.62 
   0  -3  -6 7648.53  300.32 
   0  -3   6 8055.77  346.15 
   0  -3  -7   -5.59   30.02 
   0  -3   7  -67.56   63.69 
   0  -3  -8 1075.92  116.28 
   0  -3   8 1042.33  126.13 
   0   3  -8  918.26  208.23 
   0   3  -9 2206.30  420.12 
   0  -3   9 2221.39  175.01 
   0  -3  -9 2004.82  151.85 
   0  -3 -10 1023.53  117.02 
   0  -3  10 1000.82  116.52 
   0  -3 -11 7293.03  293.12 
   0  -3  11 7010.88  298.42 
   0  -3  12 2169.29  167.69 
   0  -3 -12 2541.62  169.70 
   0  -3 -13 10423.9   334.6 
   0  -3  13 10369.9   346.2 
   0  -3 -14  947.31   99.56 
   0  -3 -15  156.64   48.21 
   0  -3 -16  130.21   38.52 
   0  -3 -17 10880.6   268.0 
   0  -3 -18   29.99   25.43 
   0  -3  18    5.68   24.76 
   0  -3  19 4031.78  143.04 
   0  -3 -19 3581.55  124.95 
   0  -3 -20  521.24   42.72 
   0  -3 -20  611.95   63.05 
   0  -3  20  642.96   53.07 
   0  -3  21    0.18   12.01 
   0  -3 -21   31.27   16.83 
   0  -3 -21    7.97    9.73 
   0  -4   0  160.74   79.80 
   0  -4  -1   44.35   68.77 
   0  -4  -2 13426.3   547.4 
   0  -4  -3 3711.04  283.30 
   0  -4  -4 6852.40  388.71 
   0  -4  -5  809.26  139.65 
   0  -4  -6  818.10   67.37 
   0  -4  -6  606.98  117.30 
   0  -4  -7 -119.77   78.24 
   0  -4  -7   -1.56   21.60 
   0  -4  -8 1993.64  201.16 
   0  -4  -8 1968.30  103.35 
   0  -4  -9 2659.13  226.72 
   0  -4  -9 2117.24  106.26 
   0  -4 -10  470.95   52.61 
   0  -4 -10  579.82  104.56 
   0  -4 -11 2595.70  190.97 
   0  -4 -11 2125.32  101.22 
   0  -4 -12 6688.05  273.34 
   0  -4 -12 5783.52  159.76 
   0  -4 -13   26.78   24.49 
   0  -4 -13   21.67   15.15 
   0  -4 -14   23.99   22.18 
   0  -4 -14   11.36   13.49 
   0  -4 -15  378.90   40.76 
   0  -4 -15  425.07   36.41 
   0  -4 -16  924.04   46.21 
  -1   0  27   20.65   15.15 
  -1   0  26 1003.84   68.41 
  -1   0  25   15.98   19.63 
  -1   0  24 14202.8   320.3 
  -1   0  23  -33.13   34.47 
  -1   0  22 5032.61  234.86 
  -1   0  21    3.62   41.30 
  -1   0  20 14133.2   435.7 
  -1   0  20 14341.6   408.8 
  -1   0  19   84.03   45.82 
  -1   0  19 -115.11  208.25 
  -1   0  19    0.29   59.05 
  -1   0  19   40.33   39.32 
  -1   0  18 2013.25  162.09 
  -1   0  18 1684.94  372.69 
  -1   0  18 2283.31  180.74 
  -1   0  18 2037.13  170.19 
  -1   0  17  -13.18  157.75 
  -1   0  17   -4.31   51.01 
  -1   0  17   77.21   35.05 
  -1   0  17  -78.90   60.99 
  -1   0  16 2606.37  470.20 
  -1   0  15  -36.04  141.58 
   1   0 -15 -445.44  168.09 
  -1   0  14 222265.   4196. 
   1   0 -14 226856.   3596. 
  -1   0  13 -158.52  203.04 
   1   0 -13  -97.17   93.26 
  -1   0  12  -70.51  121.35 
   1   0 -12  106.39   84.86 
  -1   0  11  -71.14  151.65 
  -1   0  11  300.25  197.12 
  -1   0  10 83687.4  2256.9 
  -1   0   9  -77.03  138.11 
  -1   0   8 428341.   4713. 
  -1   0   7   37.80   89.26 
  -1   0   6 17308.5   864.9 
  -1   0   5   47.10  102.42 
  -1   0   4 121464.   2065. 
  -1   0   3   53.41   82.66 
  -1   0   2 80206.1  1383.4 
  -1   0   1   22.74   35.17 
  -1   0   0 278463.   3412. 
  -1   0  -1   81.56   85.15 
  -1   0  -2 92866.4  1616.5 
   1   0   2 95169.1  1639.8 
   1   0   3   43.79   93.08 
  -1   0  -3  257.43  149.88 
  -1   0  -4 63088.8  1518.3 
   1   0   4 63628.2  1600.8 
  -1   0  -5  348.29  147.13 
   1   0   5  151.70  137.08 
  -1   0  -6 725509.   5593. 
   1   0   6 726444.   6106. 
  -1   0  -7   76.73  134.63 
   1   0   7  173.28  171.16 
  -1   0  -8 48394.6  1555.0 
   1   0   8 51512.9  1774.0 
   1   0   9  136.34  228.27 
  -1   0  -9  -33.56  182.25 
   1   0  10  847.78  278.57 
  -1   0 -10  887.76  249.78 
   1   0  11   14.54  184.60 
  -1   0 -11  138.26  144.56 
  -1   0 -12 101109.   2461. 
   1   0  12 101774.   2738. 
  -1   0 -13  123.12  146.46 
   1   0  13   88.52  166.80 
  -1   0 -14 9824.50  786.24 
   1   0  14 8971.41  838.08 
   1   0  15   52.87   91.08 
  -1   0 -15   59.89  147.46 
   1   0  16 43292.4  1858.0 
   1   0  16 41443.3   828.1 
   1   0  16 43154.6   759.1 
   1   0  16 42279.2   756.9 
   1   0  17  -75.45  245.82 
   1   0  17  -30.83   53.14 
   1   0  17   -5.53   38.05 
   1   0  17  -77.37   77.69 
   1   0  18 1094.94  120.94 
   1   0  18 1015.89  123.86 
   1   0  18 1033.99  116.49 
   1   0  18 1165.35  305.19 
   1   0  18  882.72  137.49 
   1   0  19  -48.89   68.97 
   1   0  19   28.41   47.60 
   1   0  19   16.42   36.83 
   1   0  20 7560.48  344.66 
   1   0  20 8237.36  324.69 
   1   0  20 8265.32  310.30 
   1   0  21   75.13   48.32 
   1   0  21   34.80   32.73 
   1   0  22 10114.2   328.8 
   1   0  23   -3.37   27.26 
   1   0  24   22.15   27.38 
   1   0  25   16.84   22.10 
   1   0  26 3832.68  128.64 
  -1   1  27  905.27   51.71 
  -1  -1  27  905.80   50.39 
  -1   1  26   79.93   20.64 
  -1   1  25  868.99   70.59 
  -1   1  24  853.28   76.89 
  -1   1  23 6034.19  222.45 
  -1  -1  23 6041.44  192.65 
  -1  -1  22 1304.37   99.98 
  -1   1  22 1229.81  111.54 
  -1  -1  22 1243.56  111.93 
  -1  -1  22 1262.45  120.17 
  -1  -1  21 1153.21  111.62 
  -1  -1  21 1168.46  117.09 
  -1  -1  21 1222.55  127.31 
  -1   1  21 1161.39  118.49 
  -1  -1  20 6262.35  273.98 
  -1  -1  20 6141.55  261.57 
  -1  -1  20 6015.00  273.17 
  -1   1  19   60.56   35.51 
  -1  -1  19  -17.94   48.87 
  -1  -1  19   18.40   38.52 
  -1  -1  19   64.87   42.14 
  -1  -1  18 1585.91  352.21 
  -1   1  18 1470.74  138.03 
  -1  -1  18 1716.22  160.23 
  -1  -1  18 1545.46  142.98 
  -1  -1  18 1566.60  149.04 
   1   1 -18 1897.21  383.60 
  -1   1  18 1918.21  392.07 
  -1  -1  17  180.79   63.92 
   1   1 -17  160.51  172.61 
  -1  -1  17  193.97   61.84 
  -1  -1  17  194.08   58.11 
  -1   1  17  198.24   62.89 
  -1   1  17   94.05   95.46 
  -1  -1  17   86.12  113.42 
  -1  -1  16 1810.77  399.85 
   1   1 -16 1548.57  325.16 
  -1  -1  16 1941.46  158.74 
  -1  -1  16 2219.01  174.97 
  -1   1  16 2036.21  380.93 
  -1   1  16 1888.24  161.45 
  -1  -1  16 2122.09  174.38 
  -1  -1  15 47039.3  1990.8 
  -1   1  15 45892.9  1890.9 
   1   1 -15 45283.8  1867.2 
  -1  -1  14 12066.2   998.1 
  -1   1  14 11670.4   945.0 
   1   1 -14 11668.1   932.8 
   1   1 -13 51067.6  1926.6 
  -1  -1  13 53420.1  2062.8 
  -1   1  13 52048.0  1963.4 
  -1  -1  12 1838.24  371.49 
  -1  -1  12 1505.26  351.62 
  -1  -1  11 22586.8  1295.1 
  -1  -1  11 23210.2  1278.8 
  -1  -1  10   23.60  118.33 
  -1  -1  10 -208.93  167.16 
  -1  -1   9 201340.   3578. 
  -1  -1   9 202472.   3590. 
  -1  -1   8 10592.8   806.5 
  -1  -1   8 10216.2   781.1 
  -1  -1   7 14813.0   907.3 
  -1  -1   7 14039.5   893.1 
  -1  -1   6 65587.8  1874.4 
  -1  -1   6 68576.6  1836.9 
  -1  -1   5 6054.16  525.43 
  -1  -1   5 5943.17  558.45 
  -1  -1   4 11423.7   736.0 
  -1  -1   4 11458.1   661.4 
  -1  -1   3 128910.   1946. 
  -1   1   3 128430.   1267. 
  -1  -1   3 131173.   2345. 
  -1   1   2 620073.   3580. 
  -1  -1   2 624654.   4793. 
  -1  -1   2 619595.   3531. 
  -1  -1   1 127811.   2058. 
  -1   1   1 131586.   1906. 
  -1  -1   0 152366.   2150. 
  -1   1   0 150477.   2286. 
  -1   1  -1 242448.   3079. 
  -1   1  -2 46895.8  1420.8 
   1   1   2 41314.8   616.9 
   1   1   3 181747.   1787. 
  -1   1  -3 178282.   2956. 
  -1   1  -4 131856.   2674. 
   1   1   4 131257.   1821. 
  -1   1  -5 133855.   2785. 
   1   1   5 132999.   2103. 
   1   1   6 69228.0  1657.7 
  -1   1  -6 70713.8  2091.2 
   1  -1   6 68301.5  2061.8 
  -1  -1  -6 65971.4  1023.2 
  -1   1  -7 125825.   2862. 
  -1  -1  -7 125262.   1591. 
   1   1   7 122731.   2362. 
   1  -1   7 123304.   2880. 
  -1   1  -8 10274.9   843.6 
   1   1   8 9897.31  713.88 
   1  -1   8 9755.06  830.59 
  -1   1  -9 2795.27  457.25 
   1   1   9 2845.86  411.01 
   1  -1   9 2365.97  438.71 
   1   1  10 2616.66  396.95 
   1  -1  10 2393.96  459.67 
  -1   1 -10 2364.43  399.76 
   1  -1  11 35359.4  1675.2 
  -1   1 -11 34567.5  1593.8 
   1   1  11 35932.2  1497.0 
   1  -1  12 48974.0  2009.5 
   1   1  12 49074.6  1790.2 
  -1   1 -12 47135.0  1877.1 
  -1   1 -13 10318.8   889.4 
   1   1  13 11177.0   877.2 
   1  -1  13 11616.6   998.0 
  -1   1 -14 9384.65  839.37 
   1  -1  14 9366.53  904.66 
   1   1  14 10246.6   840.5 
  -1   1 -15 41085.9  1791.2 
   1  -1  15 42974.4  1946.5 
   1  -1  15 41729.4   755.4 
   1   1  15 44541.3  1767.0 
   1   1  15 42786.2   777.5 
   1   1  16 6677.96  292.81 
   1   1  16 6866.77  698.12 
  -1   1 -16 6412.46  711.23 
   1  -1  16 6331.20  293.51 
   1  -1  16 6083.97  266.98 
  -1   1 -17  686.00  192.53 
   1   1  17  610.87  218.49 
   1   1  17  668.49   97.27 
   1  -1  17  617.79   84.95 
   1  -1  17  619.15  102.20 
   1  -1  18 11663.5   392.7 
   1  -1  18 11146.0   390.1 
   1  -1  18 11092.7   411.4 
   1   1  18 11235.5   370.2 
   1  -1  19 7160.17  300.95 
   1   1  19 7349.04  292.62 
   1  -1  19 6562.54  314.97 
   1  -1  19 7080.51  298.59 
   1  -1  20  261.82   61.08 
   1  -1  20  329.28   67.13 
   1   1  20  296.15   56.27 
   1  -1  20  233.34   74.49 
   1  -1  21 15019.4   397.6 
   1   1  21 15125.2   385.3 
   1  -1  21 15299.8   396.5 
   1  -1  22   -0.84   33.93 
   1  -1  22   22.77   46.60 
   1  -1  22   34.14   32.83 
   1  -1  23 1378.65  115.31 
   1   1  23 1466.15  110.56 
   1  -1  23 1548.00  113.12 
   1  -1  23 1498.68  109.48 
   1  -1  24 2222.88  122.21 
   1   1  24 2385.51  126.29 
   1  -1  24 2342.08  106.95 
   1   1  25 1521.55   89.03 
   1   1  26 1356.51   68.93 
  -1  -2  25  124.62   21.15 
  -1   2  24  139.89   29.13 
  -1  -2  24   80.74   24.06 
  -1  -2  23 1499.21   88.26 
  -1   2  23 1376.01   87.61 
  -1  -2  22  708.67   70.39 
  -1   2  22  585.80   65.42 
   1  -2 -21 2487.88  111.93 
  -1   2  21 2563.04  142.68 
  -1  -2  21 2621.15  143.47 
  -1  -2  20  601.60   78.35 
  -1  -2  20  663.48   75.12 
  -1   2  20  658.70   77.42 
   1  -2 -20  679.18   65.86 
   1  -2 -19 1095.46   91.90 
  -1  -2  19 1007.90  101.28 
  -1  -2  19  982.37   96.72 
  -1   2  19 1094.25  107.67 
  -1  -2  18 3188.79  180.62 
   1  -2 -18 3098.58  167.73 
  -1  -2  18 3325.82  182.36 
  -1  -2  18 3432.26  179.56 
  -1   2  18 3540.83  193.95 
  -1  -2  17 7740.58  275.36 
  -1   2  17 8347.97  308.16 
   1  -2 -17 8193.86  287.10 
  -1  -2  17 8221.95  298.90 
   1  -2 -16 6480.18  266.12 
  -1   2  16 6485.40  275.79 
  -1  -2  16 6490.67  273.42 
   1  -2 -15 13330.5   393.6 
   1   2 -15 13535.9  1042.0 
  -1  -2  15 14131.3   407.8 
  -1   2  15 13252.0   399.9 
  -1  -2  14 11664.2   374.6 
   1   2 -14 11341.3   964.2 
   1  -2 -14 11432.1   368.1 
  -1   2  14 10805.8   358.5 
   1  -2 -13  504.46   81.66 
  -1  -2  13  557.73   89.83 
   1   2 -13  456.02  154.27 
  -1  -2  13  545.39   80.29 
   1   2 -12 38631.1  1773.2 
   1   2 -11 12527.8  1002.2 
  -1  -2   9 28210.0  1355.3 
  -1  -2   8 8435.52  728.02 
  -1  -2   7  259.88  147.94 
  -1  -2   6 53013.3  1690.1 
  -1  -2   5 33003.5  1269.2 
  -1  -2   4 3244.80  380.98 
  -1  -2   3 42550.1  1296.2 
  -1  -2   2 54014.0  1368.1 
  -1  -2   1 18725.9   738.0 
  -1   2   1 19156.0   820.0 
  -1   2   0 20267.3   923.0 
  -1   2  -1 59559.7  1672.0 
  -1   2  -2 75712.5  1981.5 
  -1   2  -3 104822.   2410. 
  -1   2  -4 31527.8  1368.4 
  -1   2  -5 27597.6  1323.5 
  -1   2  -6 47342.0  1767.4 
  -1   2  -7 15962.3  1054.4 
  -1   2  -8 49972.4  1889.7 
  -1   2  -9 25860.7  1387.5 
  -1   2 -10 9694.28  857.20 
  -1   2 -11 10010.1   890.8 
   1  -2  12 1521.88  167.84 
  -1   2 -12 1445.86  365.65 
   1  -2  12 1621.94  145.53 
   1  -2  13  908.36  108.51 
   1  -2  13  797.12  125.18 
  -1   2 -13  661.84  203.24 
   1  -2  14  573.15   86.48 
   1  -2  14  476.52   97.72 
  -1   2 -14  482.72  186.30 
   1  -2  15 4440.30  233.02 
   1  -2  15 4581.18  222.61 
   1  -2  16  635.09   85.83 
   1  -2  16  672.72   92.60 
   1  -2  17 1599.76  129.30 
   1   2  17 1885.75  143.05 
   1  -2  17 1656.29  140.65 
  -1  -2 -17 1779.96  131.97 
   1  -2  18 10822.7   323.3 
  -1  -2 -18 10180.1   294.5 
   1  -2  18 10809.4   336.0 
   1   2  18 11208.7   334.2 
  -1  -2 -19   20.19   20.42 
   1   2  19   23.96   31.19 
   1  -2  19   29.48   32.69 
   1  -2  19  -32.94   51.19 
   1  -2  19   25.68   22.16 
   1  -2  20 7114.35  276.14 
  -1  -2 -20 7903.70  222.06 
   1  -2  20 7793.58  248.65 
   1   2  20 7794.68  255.44 
   1  -2  20 7459.57  246.03 
   1  -2  21 3626.42  178.39 
   1  -2  21 4107.26  168.17 
   1   2  21 3737.34  166.17 
   1  -2  21 3862.18  164.69 
   1  -2  22 4847.61  189.87 
   1  -2  22 5434.71  180.15 
   1   2  22 4905.99  170.46 
   1   2  23  358.98   40.18 
   1  -2  23  431.05   50.68 
   1  -2  24  973.99   59.74 
   1  -3 -21 1560.03   94.50 
  -1  -3  20  193.36   29.25 
   1  -3 -20  161.60   24.70 
  -1  -3  19   47.08   19.87 
   1  -3 -19   49.02   17.81 
   1  -3 -18    8.61   19.24 
  -1  -3  18   43.41   25.22 
  -1  -3  17 9587.06  234.23 
   1  -3 -17 9571.79  249.14 
   1  -3 -16    0.95   27.35 
   1  -3 -15  155.70   49.03 
   1  -3 -14 3092.73  177.21 
   1  -3 -13 2992.25  182.92 
   1  -3 -12   12.91   41.34 
  -1  -3  12  -28.58   37.81 
  -1  -3  11 36924.1   629.1 
   1  -3 -11 37948.1   663.9 
   1  -3 -10  225.15   56.04 
  -1  -3  10  161.36   42.15 
  -1  -3   9 1120.84  114.08 
   1   3  -9 1280.30  299.94 
   1  -3  -9 1483.51  134.80 
   1   3  -8 3602.55  503.00 
  -1  -3   8 3641.89  205.63 
   1  -3  -8 4238.83  225.78 
   1  -3  -7 10162.2   342.7 
   1  -3  -7 11267.0   633.9 
   1   3  -7 10237.3   843.9 
   1  -3  -6  950.39  197.25 
   1  -3  -6 1103.99  115.68 
   1  -3  -5 17968.6   775.3 
   1  -3  -5 17796.3   448.6 
  -1  -3   4 1987.40  231.65 
   1  -3  -4 2236.78  155.74 
   1  -3  -4 2196.50  273.82 
  -1  -3   3 10397.2   533.1 
   1  -3  -3 10838.6   604.0 
  -1  -3   2 1185.57  180.85 
   1  -3  -2 1386.31  217.45 
   1  -3  -1 1094.81  207.26 
  -1  -3   1 1025.75  171.82 
  -1  -3   0 7922.01  480.78 
   1  -3   0 7390.95  502.87 
  -1  -3  -1  386.51  141.54 
   1  -3   1  109.18  105.43 
  -1  -3  -2  868.41  158.14 
   1  -3   2  892.26  162.54 
   1  -3   3 59399.9  1390.4 
   1  -3   3 61148.2  1143.2 
  -1  -3  -3 63538.1  1341.6 
   1  -3   4  253.02   87.61 
  -1  -3  -4  293.80   99.38 
   1  -3   4  240.01  114.86 
  -1  -3  -5 13923.9   610.2 
   1  -3   5 13572.3   512.3 
  -1  -3  -6 3725.68  313.43 
   1  -3   6 3466.33  254.65 
  -1  -3  -7 2396.44  252.27 
   1  -3   7 2392.90  208.85 
  -1   3  -7 2443.02  403.23 
   1  -3   8  446.11   97.49 
  -1   3  -8  374.61  149.41 
   1  -3   9 40966.8   811.2 
  -1   3  -9 41923.3  1771.7 
   1  -3  10   76.39   68.82 
   1  -3  11  269.40   73.37 
   1  -3  12 2366.22  193.50 
  -1  -3 -13 2475.66  165.57 
   1  -3  13 2608.18  191.89 
  -1  -3 -14  112.83   40.23 
  -1  -3 -15 2579.72  149.21 
  -1  -3 -16  211.07   47.78 
  -1  -3 -17 3956.93  161.51 
  -1  -3 -18   60.01   25.19 
   1  -3  18   38.35   27.70 
  -1  -3 -19 3276.56  136.56 
  -1  -3 -19 3226.50  119.48 
   1  -3  19 3240.03  134.79 
  -1  -3 -20  274.50   30.83 
   1  -3  20  311.58   38.59 
  -1  -3 -20  300.27   36.40 
   1  -3  21   11.91   12.19 
   1  -4 -16  933.37   63.88 
   1  -4 -15   84.30   18.46 
   1  -4 -15   34.27   19.57 
   1  -4 -14  214.33   30.21 
   1  -4 -14  272.31   57.37 
   1  -4 -13  140.45   61.26 
   1  -4 -13   97.68   23.75 
   1  -4 -12 5484.31  304.69 
   1  -4 -12 5291.01  151.50 
   1  -4 -11  571.23  104.78 
   1  -4 -11  556.67   53.87 
   1  -4 -10 4674.05  151.89 
   1  -4 -10 4710.18  346.56 
   1  -4  -9  302.35  109.03 
   1  -4  -9  447.75   51.86 
   1  -4  -8  -62.32   91.36 
   1  -4  -8   -7.69   18.07 
   1  -4  -7  563.13  152.31 
   1  -4  -7  446.77   51.01 
   1  -4  -6 6345.65  432.84 
   1  -4  -6 7716.02  203.12 
   1  -4  -5  762.84  161.71 
   1  -4  -4   37.10   37.08 
   1  -4  -4  134.71  115.82 
   1  -4  -3 1134.19  181.69 
   1  -4  -3 1740.85  143.09 
   1  -4  -2 1688.24  138.40 
   1  -4  -2 1424.67  212.57 
   1  -4  -1   29.77   81.35 
   1  -4  -1  144.00   43.28 
   1  -4   0  358.67   60.30 
   1  -4   0  348.15  113.18 
   1  -4   1 1014.42  106.19 
  -1  -4  -1  827.48  112.02 
   1  -4   2 6418.99  265.88 
  -1  -4  -2 6083.79  300.37 
  -1  -4  -3 1307.38  139.58 
   1  -4   3 1178.51  110.69 
  -1  -4  -4 11918.7   407.4 
   1  -4   4 11960.1   354.3 
   1  -4   5  373.28   66.87 
  -1  -4  -5  395.66   73.48 
  -1  -4  -6  712.28  100.78 
   1  -4   6  848.55   93.95 
  -1  -4  -6  799.12   69.02 
  -1  -4  -7   -1.21   17.63 
   1  -4   7  -13.62   33.93 
   1  -4   8 1556.12  113.63 
  -1  -4  -8 1480.82   91.58 
  -1  -4  -8 1365.19  127.70 
  -1  -4  -9  526.43   76.81 
  -1  -4  -9  434.87   51.09 
   1  -4   9  569.46   68.31 
  -1  -4 -10 5616.68  169.57 
  -1  -4 -10 5699.49  230.62 
  -1  -4 -11    2.17   15.95 
  -1  -4 -11   -5.42   23.49 
  -1  -4 -12  605.72   63.69 
  -1  -4 -12  684.96   56.09 
  -1  -4 -13   40.38   18.74 
  -1  -4 -13   36.74   14.67 
  -1  -4 -14   68.79   17.57 
  -1  -4 -15  265.71   28.02 
  -2   0  27  -16.45   13.77 
  -2   0  26   51.34   17.94 
  -2   0  25   -9.92   17.66 
  -2   0  24 7192.83  228.91 
  -2   0  23   25.63   25.37 
  -2   0  22 13853.5   374.7 
  -2   0  21  -45.85   43.76 
  -2   0  21   14.29   41.69 
  -2   0  20 1413.40  142.13 
  -2   0  19    8.03   41.36 
  -2   0  19  147.56  216.98 
  -2   0  18 12001.3   392.6 
  -2   0  18 11974.0   402.1 
  -2   0  18 12968.8  1035.7 
  -2   0  18 12467.9   421.1 
  -2   0  17  -20.86   40.29 
  -2   0  17   48.64  161.88 
  -2   0  17    4.35   45.21 
  -2   0  17  -53.79   51.61 
  -2   0  16 13198.0  1050.8 
  -2   0  15 -145.87  128.90 
   2   0 -15  -93.12   89.91 
  -2   0  14 34593.1  1668.4 
   2   0 -14 33180.6  1384.9 
  -2   0  13   35.40   95.94 
  -2   0  12  433.78  177.10 
  -2   0  11  -87.73  180.93 
  -2   0  10 85753.8  2275.4 
  -2   0   9   84.07  135.68 
  -2   0   8 470531.   5132. 
  -2   0   7  -80.51  146.84 
  -2   0   6 4313.48  463.01 
  -2   0   5  -14.10  100.03 
  -2   0   4 4240.69  423.90 
  -2   0   3  101.52  107.64 
  -2   0   2 530126.   4467. 
  -2   0   1   98.07  130.87 
  -2   0   0 39489.5  1587.5 
  -2   0  -1  266.77  231.82 
  -2   0  -2 120351.   2552. 
  -2   0  -3  138.75  170.37 
  -2   0  -4 7676.33  658.53 
   2   0   4 7880.53  634.94 
   2   0   5   27.33  100.59 
  -2   0  -5   -9.62  120.55 
   2   0   6 378266.   4674. 
  -2   0  -6 386837.   4531. 
  -2   0  -7  -15.99  145.63 
   2   0   7  -85.69  169.32 
   2   0   8 36318.7  1525.9 
  -2   0  -8 38540.7  1499.9 
  -2   0  -9   87.97  177.88 
   2   0   9  -83.70  175.10 
  -2   0 -10   27.80  125.59 
   2   0  10   51.29  132.80 
   2   0  11  -37.29  146.28 
  -2   0 -11   32.59  194.32 
   2   0  12 240792.   4263. 
  -2   0 -12 239671.   4037. 
  -2   0 -13   38.52   74.89 
   2   0  13 -184.33  142.91 
  -2   0 -14 13830.4  1001.9 
   2   0  14 14625.3  1083.0 
  -2   0 -15   10.87  103.99 
   2   0  15    7.16   33.25 
   2   0  16 1885.54  176.37 
   2   0  16 2257.56  172.60 
   2   0  16 2170.95  410.88 
   2   0  16 2358.54  179.55 
   2   0  17   23.72   37.91 
   2   0  17   -7.46   38.47 
   2   0  17  -85.62   79.23 
   2   0  18  878.82  124.46 
   2   0  18  702.84  100.52 
   2   0  18  597.74   91.94 
   2   0  19  -22.60   37.54 
   2   0  19   10.63   33.11 
   2   0  19   44.19   39.41 
   2   0  19    6.60   55.54 
   2   0  20 5098.41  266.95 
   2   0  20 5084.58  252.15 
   2   0  20 4839.76  239.47 
   2   0  21  -66.55   51.72 
   2   0  21  -39.74   45.59 
   2   0  22 7970.25  291.12 
   2   0  22 6965.22  252.62 
   2   0  23  -15.06   31.52 
   2   0  24  110.99   39.22 
   2   0  25   26.58   19.48 
   2   0  26 3455.24  110.84 
  -2   1  27 1011.15   56.13 
  -2  -1  27  949.88   51.42 
  -2  -1  26 1733.44   82.53 
  -2   1  26 1742.04   85.93 
  -2   1  25 1600.97   95.12 
  -2   1  24  160.77   37.41 
  -2   1  23 15435.9   358.6 
  -2  -1  22 1947.32  120.29 
  -2   1  22 1844.06  136.95 
  -2  -1  22 1856.73  133.15 
  -2  -1  21 7535.90  273.65 
  -2  -1  21 7589.19  256.96 
  -2   1  21 7803.31  294.05 
  -2  -1  21 7467.19  288.32 
  -2  -1  20 4977.92  221.45 
  -2  -1  20 4665.54  226.83 
  -2  -1  20 4676.44  241.96 
  -2  -1  20 4691.49  232.92 
  -2   1  20 4888.51  242.30 
  -2   1  19  398.16   81.42 
  -2  -1  19  242.32   63.99 
  -2  -1  19  295.58   60.65 
  -2  -1  19  281.40   64.67 
   2   1 -18  760.25  193.37 
  -2  -1  18 1120.95  121.27 
  -2  -1  18 1185.55  300.99 
  -2  -1  18 1133.13  130.61 
  -2   1  18 1007.53  121.56 
  -2   1  18  938.48  272.44 
  -2  -1  18 1092.28  125.85 
  -2  -1  17 23173.9   526.5 
  -2   1  17 23372.6   561.4 
   2   1 -17 23551.2  1322.9 
  -2  -1  17 23742.9  1413.3 
  -2   1  17 24647.5  1403.9 
  -2  -1  17 23800.6   554.0 
  -2  -1  17 24091.8   582.3 
  -2  -1  16 2565.19  184.57 
  -2   1  16 2169.59  407.38 
  -2  -1  16 2810.48  198.94 
  -2  -1  16 2443.70  172.74 
   2   1 -16 2418.53  405.06 
  -2   1  16 2680.03  194.80 
  -2  -1  16 2680.67  462.73 
  -2   1  15 1627.76  356.52 
   2   1 -15 1285.93  305.31 
  -2  -1  15 1297.27  332.95 
  -2  -1  14 19493.9  1244.1 
  -2  -1  14 21478.1  1300.7 
  -2  -1  13 16903.0  1136.6 
  -2  -1  13 17554.6  1148.4 
  -2  -1  12 3653.69  510.80 
  -2  -1  12 3901.76  541.08 
  -2  -1  11 3530.93  503.83 
  -2  -1  11 4157.64  540.09 
  -2  -1  10 8206.80  729.74 
  -2  -1  10 8109.07  745.49 
  -2  -1   9 119231.   2782. 
  -2  -1   9 115712.   2658. 
  -2  -1   8 86221.2  2355.7 
  -2  -1   8 83255.0  2175.1 
  -2  -1   7 203429.   3201. 
  -2   1   7 206454.   2296. 
  -2   1   6 67170.1  1158.2 
  -2  -1   6 66607.5  1727.1 
  -2  -1   6 69260.5  2028.6 
  -2   1   5 13855.1   459.1 
  -2  -1   5 14694.0   904.0 
  -2   1   4 55959.9  1035.5 
  -2   1   4 56062.5   822.2 
  -2   1   3 366546.   2068. 
  -2   1   3 360690.   3774. 
  -2  -1   2 34964.5   759.1 
  -2  -1   2 37107.8  1324.3 
  -2   1   1 125440.   2286. 
  -2  -1   1 127473.   2437. 
  -2   1   0 102668.   2155. 
  -2   1  -1 259164.   3583. 
  -2   1  -2 13800.7   853.5 
  -2   1  -3 88836.6  2186.9 
  -2  -1  -3 92865.7  1790.6 
  -2   1  -4 27627.3  1260.4 
  -2  -1  -4 31503.2  1072.8 
   2   1   5 38999.5  1148.6 
  -2   1  -5 39067.2  1530.7 
  -2  -1  -5 42767.6  1316.9 
  -2   1  -6 58086.5  1924.4 
   2   1   6 55767.4  1457.6 
   2   1   7 203844.   2925. 
  -2   1  -7 207033.   3713. 
  -2   1  -8 2168.22  428.28 
  -2  -1  -8 1789.04  301.13 
   2   1   8 2493.28  355.62 
  -2   1  -9 10066.1   858.8 
   2   1   9 9735.17  709.62 
  -2   1 -10 25540.2  1366.2 
   2   1  10 25889.1  1187.2 
   2   1  11 75217.5  2102.4 
  -2   1 -11 72617.9  2335.8 
   2   1  12 31073.1  1393.7 
  -2   1 -12 32015.9  1569.0 
  -2   1 -13 39318.9  1755.8 
   2   1  13 42956.1  1683.9 
  -2   1 -14 -151.73  165.39 
   2  -1  14  126.28   46.09 
   2  -1  15   29.45   41.53 
   2   1  15   44.61   33.72 
   2  -1  15  129.92   48.48 
  -2   1 -15   33.81  178.40 
   2   1  15   91.73  113.55 
  -2   1 -16 10175.0   907.6 
   2   1  16 11155.7   394.7 
   2  -1  16 10299.8   347.8 
   2  -1  16 10678.6   389.2 
   2   1  17 4936.85  249.02 
  -2   1 -17 5197.01  642.85 
   2  -1  17 4331.21  224.01 
   2  -1  17 4973.93  266.01 
   2  -1  18 2319.07  178.80 
   2  -1  18 2155.43  191.30 
   2  -1  18 2285.49  163.79 
   2   1  18 2582.88  175.30 
   2  -1  19  894.75  120.75 
   2   1  19  967.15  106.22 
   2  -1  19  825.94  105.54 
   2  -1  19  895.52  113.61 
   2   1  20 1782.61  138.13 
   2  -1  20 1396.97  142.51 
   2  -1  20 1705.60  147.47 
   2  -1  20 1669.78  142.38 
   2  -1  21 9369.07  314.82 
   2  -1  21 9113.69  309.64 
   2   1  21 9256.62  295.17 
   2  -1  21 8490.69  306.32 
   2  -1  22  372.15   61.43 
   2   1  22  355.23   54.56 
   2  -1  22  457.52   69.26 
   2  -1  22  243.16   56.42 
   2  -1  23  310.47   51.78 
   2  -1  23  351.60   54.92 
   2  -1  23  405.99   60.41 
   2  -1  24  587.69   63.86 
   2   1  24  552.86   59.66 
   2  -1  24  566.02   52.03 
   2   1  25 1089.90   69.56 
  -2  -2  25  145.82   26.72 
  -2   2  24 3613.00  128.74 
  -2  -2  24 3785.96  134.62 
  -2   2  23 4135.22  152.80 
  -2  -2  23 4290.31  158.21 
  -2   2  22 1207.56   92.32 
  -2  -2  22 1190.67   83.02 
   2  -2 -21 2501.40  111.70 
  -2   2  21 2653.47  145.03 
  -2  -2  21 2612.73  132.10 
   2  -2 -20 9735.86  244.95 
  -2   2  20 10505.2   305.8 
  -2  -2  20 10146.6   276.7 
   2  -2 -19 1199.03   96.95 
  -2   2  19 1315.38  117.15 
  -2  -2  19 1211.10  105.92 
  -2  -2  19 1166.15  103.59 
   2  -2 -18 1790.72  127.35 
  -2  -2  18 1915.28  140.45 
  -2   2  18 2043.50  150.83 
  -2  -2  18 1904.79  136.14 
  -2  -2  17 12785.4   362.2 
  -2  -2  17 12440.4   342.5 
   2  -2 -17 12480.0   351.5 
  -2   2  17 12546.4   381.1 
  -2   2  16  448.28   78.46 
  -2  -2  16  480.68   74.48 
   2  -2 -16  533.91   81.80 
   2   2 -15 3693.01  565.71 
  -2  -2  15 3875.99  204.76 
   2  -2 -15 3959.70  213.97 
  -2   2  15 3904.72  219.63 
   2   2 -14    2.59  115.50 
  -2  -2  14   61.57   44.61 
   2  -2 -14   65.91   36.39 
  -2   2  14    9.41   38.37 
  -2   2  13 6285.64  279.50 
   2   2 -13 6647.41  741.80 
   2  -2 -13 7149.38  293.21 
   2  -2 -12 16030.6   436.5 
  -2  -2  12 15428.6  1073.8 
  -2  -2  11 17457.5  1137.1 
  -2  -2  10 8819.40  789.56 
  -2  -2   9 25130.2  1299.5 
  -2  -2   8 39836.7  1596.1 
  -2  -2   7 4198.74  521.02 
  -2  -2   6 116057.   2609. 
  -2  -2   5 50906.1  1672.7 
  -2  -2   4 97203.3  2249.3 
  -2  -2   3 72484.1  1873.3 
  -2  -2   2 12014.6   730.5 
  -2   2   1 5907.48  501.25 
  -2  -2   1 6118.59  496.72 
  -2   2   0 26414.3  1134.2 
  -2  -2   0 26483.4   964.2 
  -2   2  -1 21846.0  1067.8 
  -2   2  -2  -78.80  173.75 
  -2   2  -3 8707.30  713.56 
  -2   2  -4 26997.8  1287.4 
  -2   2  -5 2691.03  409.87 
  -2   2  -6 19704.6  1154.9 
  -2   2  -7 16738.8  1089.7 
  -2   2  -8 29018.1  1456.6 
  -2   2  -9 26024.5  1406.8 
  -2   2 -10 35051.2  1665.0 
  -2   2 -11   98.90  171.35 
   2  -2  11   40.96   41.48 
   2  -2  11   67.64   68.24 
   2  -2  12 11642.9   388.8 
   2  -2  12 10645.6   444.2 
   2  -2  13 30552.9   628.6 
   2  -2  13 28115.3   725.9 
  -2   2 -13 29766.9  1552.2 
   2  -2  14 3349.26  248.46 
   2  -2  14 3588.33  217.19 
   2  -2  15 9407.62  344.60 
   2  -2  16 6163.55  274.72 
   2  -2  16 6614.00  271.22 
   2  -2  17  141.96   54.80 
   2  -2  17  160.39   42.93 
   2  -2  18   72.98   33.76 
   2   2  18  -23.10   34.07 
   2  -2  18   24.18   40.15 
  -2  -2 -18    2.55   25.81 
   2  -2  19 3898.76  210.28 
   2  -2  19 4168.56  201.61 
   2   2  19 3920.09  187.98 
  -2  -2 -19 4070.69  174.44 
   2  -2  19 4203.32  195.04 
   2  -2  20   50.10   50.24 
   2  -2  20   49.08   35.22 
   2   2  20   23.40   21.55 
  -2  -2 -20   52.65   23.18 
   2  -2  20   31.86   25.21 
   2  -2  21 2796.04  140.60 
   2  -2  21 2871.01  139.48 
   2  -2  21 2893.59  151.91 
   2  -2  22  315.49   49.96 
   2  -2  22  300.06   45.01 
   2   2  22  158.54   30.31 
   2  -2  23  855.71   61.89 
   2  -3 -22  292.39   37.58 
   2  -3 -21 1853.04  108.79 
  -2  -3  20  340.31   45.38 
  -2  -3  19 7493.73  220.51 
   2  -3 -19 6398.96  168.55 
  -2  -3  18   64.92   27.50 
   2  -3 -18   34.49   22.82 
  -2  -3  17  837.21   82.56 
   2  -3 -17  675.02   69.46 
   2  -3 -16   -3.22   24.57 
  -2  -3  16   45.99   31.89 
   2  -3 -15  369.97   63.82 
  -2  -3  15  382.69   58.83 
   2  -3 -14  329.39   64.39 
   2  -3 -13  168.36   54.19 
   2  -3 -12   46.96   43.53 
   2  -3 -11 32538.0   603.1 
   2  -3 -10  443.19   80.02 
   2   3  -9  262.88  179.50 
   2  -3  -9  593.53   87.05 
   2   3  -8  656.70  242.29 
   2  -3  -8 1018.09  181.82 
   2  -3  -8  792.29  100.82 
   2  -3  -7 12009.5   590.0 
   2  -3  -7 10981.8   348.8 
   2   3  -7 10467.7   843.9 
   2  -3  -6  171.34   81.98 
   2  -3  -6   88.61   48.86 
   2  -3  -5 56721.9   788.3 
   2  -3  -5 58121.7  1283.1 
   2  -3  -4 4526.20  217.30 
   2  -3  -4 5589.65  398.30 
  -2  -3   3  458.91   89.04 
   2  -3  -3  496.41  133.68 
  -2  -3   2 3202.05  266.35 
   2  -3  -2 2773.75  293.88 
   2  -3  -1  228.16  117.19 
  -2  -3   1  414.50  106.30 
  -2  -3   0 2128.02  224.57 
   2  -3   0 2138.78  259.01 
  -2  -3  -1 23620.1   731.3 
   2  -3   1 25258.6   863.5 
   2  -3   2   58.31   95.19 
  -2  -3  -2  333.52  111.27 
  -2  -3  -3 16802.8   598.9 
   2  -3   3 15550.6   600.7 
   2  -3   3 17804.1   722.8 
  -2  -3  -4  431.06   84.06 
   2  -3   4  881.84  175.32 
   2  -3   4  754.70  132.78 
   2  -3   5 7900.71  419.76 
  -2  -3  -5 9362.21  429.81 
  -2  -3  -6  127.46   48.13 
   2  -3   6   61.08   79.58 
   2  -3   7  183.46   74.80 
  -2  -3  -7  254.17   73.85 
   2  -3   8 2963.86  242.96 
  -2  -3  -8 3765.53  256.86 
   2  -3   9 38652.9   837.5 
   2  -3  10  239.61   85.64 
   2  -3  11 2012.17  184.26 
   2  -3  12   19.23   62.62 
   2  -3  13  645.32  102.46 
  -2  -3 -14    5.03   31.43 
   2  -3  14   -1.88   30.66 
   2  -3  14   16.35   46.19 
   2  -3  15 10296.4   266.0 
  -2  -3 -15 9795.16  290.08 
  -2  -3 -16  -18.62   31.54 
   2  -3  16   -2.61   17.04 
  -2  -3 -17  261.60   44.65 
   2  -3  17  362.17   46.16 
  -2  -3 -17  333.51   49.40 
   2  -3  18 1660.83  106.20 
  -2  -3 -18 1598.11   89.99 
  -2  -3 -18 1825.92   98.24 
   2  -3  18 1964.70   94.07 
  -2  -3 -19 1120.01   67.38 
   2  -3  19 1152.29   78.07 
  -2  -3 -20   11.06   10.29 
   2  -3  20   52.86   19.64 
   2  -4 -16   97.11   25.60 
   2  -4 -15  -43.02   30.98 
   2  -4 -14  485.76   76.11 
   2  -4 -13  -11.13   47.86 
   2  -4 -12 1546.54   81.84 
   2  -4 -12 1756.40  177.96 
   2  -4 -11  391.99   99.07 
   2  -4 -11  290.12   36.76 
   2  -4 -10 3146.75  123.85 
   2  -4 -10 4061.03  309.38 
   2  -4  -9  131.77  109.16 
   2  -4  -9   86.15   23.89 
   2  -4  -8 1409.98  199.91 
   2  -4  -8 1064.68   76.31 
   2  -4  -7  -52.39  102.16 
   2  -4  -7  -11.44   16.19 
   2  -4  -6 9152.04  489.58 
   2  -4  -5  606.01  142.20 
   2  -4  -4 7222.91  433.63 
   2  -4  -3  745.65  111.03 
   2  -4  -3 1291.07  193.90 
   2  -4  -2  704.38  148.47 
   2  -4  -2  511.13   91.56 
   2  -4  -1  116.06   81.32 
   2  -4  -1   70.13   47.26 
   2  -4   0 3884.59  300.96 
   2  -4   0 2549.05  197.39 
   2  -4   1  953.76  124.69 
   2  -4   2  133.37   58.85 
  -2  -4  -2   78.34   31.77 
  -2  -4  -3  488.41   68.89 
   2  -4   3  625.53   95.44 
  -2  -4  -4 4141.64  197.78 
   2  -4   4 4649.74  242.18 
   2  -4   5  166.72   50.43 
  -2  -4  -5   28.97   28.51 
   2  -4   6   39.00   41.90 
  -2  -4  -6   86.32   22.98 
  -2  -4  -6  -19.87   32.95 
  -2  -4  -7  159.74   36.88 
  -2  -4  -7  180.16   41.87 
   2  -4   7   98.49   38.71 
   2  -4   8 5445.33  226.24 
  -2  -4  -8 5751.45  183.41 
   2  -4   9  566.09   71.81 
  -2  -4  -9  538.97   55.20 
   2  -4  10 6209.93  218.23 
  -2  -4 -10 6736.67  184.75 
  -2  -4 -11  129.93   27.24 
  -2  -4 -12   74.88   22.35 
  -2  -4 -13   91.00   20.64 
  -2  -4 -14  685.18   46.39 
  -2  -4 -15  318.23   27.15 
  -3   0  27    6.38    9.37 
  -3   0  26  905.28   54.21 
  -3   0  26  991.55   65.19 
  -3   0  25   -0.34   16.54 
  -3   0  24 1045.22   88.36 
  -3   0  23   26.63   28.82 
  -3   0  22 20839.5   462.7 
  -3   0  21   30.38   37.10 
  -3   0  20  260.28   66.56 
  -3   0  19  -11.42   41.61 
  -3   0  18 46918.9  1991.6 
  -3   0  18 44701.6   769.1 
  -3   0  18 44754.0   791.0 
  -3   0  17  -10.65  135.35 
  -3   0  17   55.88   51.74 
  -3   0  16 55443.0   879.4 
  -3   0  16 56230.0  2174.5 
  -3   0  15   78.08   95.47 
  -3   0  14 -146.16  250.45 
  -3   0  13   93.95   80.21 
  -3   0  12 33542.6  1475.3 
  -3   0  11   73.43   99.85 
  -3   0  10 31991.3  1414.6 
  -3   0   9   38.62  130.40 
  -3   0   8 358004.   4573. 
  -3   0   7   23.32  120.68 
  -3   0   6 93643.0  2215.5 
  -3   0   5   32.40  135.17 
  -3   0   4 75079.3  1965.2 
  -3   0   3 -136.85  143.75 
  -3   0   1  -78.78  177.26 
  -3   0   0 2626.41  458.09 
  -3   0  -1   70.37  176.56 
  -3   0  -2 86371.2  2551.6 
  -3   0  -3   36.97  171.06 
  -3   0  -4 182196.   3586. 
  -3   0  -5  -78.03  166.75 
  -3   0  -6 41309.1  1663.7 
  -3   0  -7  145.64  185.05 
  -3   0  -8 17840.8  1141.5 
  -3   0  -9 -113.32  149.32 
  -3   0 -10 14102.1  1033.6 
  -3   0 -11  125.49  157.99 
  -3   0 -12 112824.   3018. 
  -3   0 -13   52.44  151.79 
  -3   0 -14 59722.4  2275.4 
   3   0  14 56835.4   925.5 
   3   0  15  -64.16   74.45 
   3   0  15    3.44   35.24 
   3   0  15    3.89   50.86 
   3   0  16   83.93   48.24 
   3   0  16    9.50   40.87 
   3   0  16  -63.96   70.27 
   3   0  17  -91.84   66.12 
   3   0  17   -2.53   39.18 
   3   0  17  -26.93   56.37 
   3   0  18 52090.6   847.7 
   3   0  18 51386.6   830.3 
   3   0  18 53473.5   849.1 
   3   0  19  -50.30   56.74 
   3   0  19   75.47   53.77 
   3   0  19  -41.78   54.42 
   3   0  20 1324.11  124.48 
   3   0  20 1397.75  138.49 
   3   0  21   31.91   26.67 
   3   0  21  124.33   49.08 
   3   0  22 1121.29  108.31 
   3   0  22  981.96   87.20 
   3   0  23   -4.83   23.58 
   3   0  24 1477.17   98.17 
   3   0  25   14.22   14.90 
  -3  -1  27  -14.11   11.22 
  -3   1  27  -13.34   14.24 
  -3   1  26  204.40   32.41 
  -3  -1  26  213.37   30.06 
  -3  -1  25   -0.84   18.40 
  -3   1  25   10.95   17.76 
  -3   1  24   90.13   26.47 
  -3   1  23 7632.57  251.05 
  -3   1  22 2174.04  148.59 
  -3   1  21 8153.76  301.01 
  -3  -1  21 7704.69  266.64 
  -3  -1  20 2782.08  171.82 
  -3   1  20 3325.41  203.24 
  -3   1  19 1153.92  122.46 
  -3  -1  19 1032.10  112.05 
  -3   1  18 -240.88  148.46 
  -3  -1  18 -336.16  188.88 
  -3   1  18  106.46   53.22 
  -3  -1  18   74.19   33.82 
  -3  -1  18    8.00   51.97 
  -3  -1  18   15.43   42.60 
  -3   1  17 59422.4  2182.1 
  -3  -1  17 57316.1   849.8 
   3   1 -17 56587.2  2030.7 
  -3  -1  17 56801.1   804.8 
  -3   1  17 57599.2   886.6 
  -3  -1  17 57154.8   883.4 
  -3  -1  17 58951.2  2208.1 
  -3  -1  16 9368.20  332.87 
  -3  -1  16 9451.69  339.89 
  -3  -1  16 9214.17  864.63 
  -3  -1  16 9531.62  357.45 
  -3   1  16 9305.37  355.82 
  -3  -1  16 10326.3   920.1 
  -3  -1  15 19764.8  1259.3 
  -3  -1  15 20152.2  1267.0 
  -3   1  15 20316.5   520.8 
  -3  -1  14 14159.6  1054.2 
  -3  -1  14 14047.9  1042.8 
  -3  -1  13  553.79  211.01 
  -3  -1  13  205.88   81.78 
  -3  -1  12 10115.5   867.5 
  -3  -1  12 10005.0   845.0 
  -3  -1  11 35372.7  1595.5 
  -3  -1  11 32566.0  1490.4 
  -3  -1  10 2874.80  428.24 
  -3  -1  10 3102.19  491.73 
  -3  -1   9 14917.7  1031.3 
  -3   1   9 15231.6   724.2 
  -3  -1   8 147440.   3193. 
  -3   1   8 144647.   2141. 
  -3  -1   7 62717.7  2029.2 
  -3   1   7 62454.0  1365.8 
  -3   1   6 7794.72  468.21 
  -3  -1   6 6874.04  669.49 
  -3  -1   5 6753.66  655.06 
  -3   1   5 6764.05  416.04 
  -3   1   5 7151.59  476.21 
  -3  -1   4 1868.56  364.86 
  -3   1   4 1603.78  271.44 
  -3   1   4 1678.99  210.41 
  -3   1   3 154244.   2862. 
  -3  -1   3 141268.   2894. 
  -3   1   2 107379.   2491. 
  -3  -1   2 104135.   2516. 
  -3   1   1 221779.   3799. 
  -3   1   0 15397.7   991.2 
  -3   1  -1 35764.6  1525.6 
  -3   1  -2 5400.83  607.70 
  -3  -1  -2 5278.12  548.69 
  -3  -1  -3 161453.   3138. 
  -3   1  -3 154956.   3185. 
  -3  -1  -4 70837.4  2157.6 
  -3   1  -4 67728.9  2111.3 
  -3   1  -5 8323.71  767.84 
  -3  -1  -5 6953.22  671.62 
  -3   1  -6 59112.6  2017.2 
  -3  -1  -6 53322.3  1862.6 
  -3   1  -7 45157.0  1807.5 
  -3  -1  -7 56737.8  1920.4 
  -3  -1  -8 3747.52  465.30 
  -3   1  -8 2772.14  464.71 
  -3   1  -9  219.72  224.43 
  -3   1 -10 41343.9  1798.6 
  -3   1 -11 4909.10  637.64 
  -3   1 -12 10342.4   922.6 
  -3   1 -13 57836.8  2204.9 
   3  -1  13 60224.1   957.8 
   3  -1  14  925.03  127.31 
  -3   1 -14  672.64  254.75 
   3   1  14  916.63  112.16 
   3  -1  14  708.30  100.03 
  -3   1 -15 13307.2  1062.3 
   3  -1  15 14597.8   474.9 
   3   1  15 13801.2   445.3 
   3  -1  15 14087.8   436.6 
   3  -1  16  129.24   66.27 
   3   1  16   72.15   49.31 
   3  -1  16    0.47   63.55 
   3  -1  17 2844.81  210.16 
   3   1  17 2601.89  195.66 
   3  -1  17 2268.70  167.18 
   3  -1  18 7492.76  326.43 
   3  -1  18 7052.86  307.05 
   3  -1  18 6825.39  279.58 
   3   1  18 7380.95  300.02 
   3  -1  19 11014.1   382.6 
   3  -1  19 11148.7   345.0 
   3  -1  19 10407.3   352.6 
   3   1  19 11482.7   360.5 
   3  -1  20  187.50   62.99 
   3  -1  20  248.52   64.49 
   3   1  20  222.83   53.21 
   3  -1  20  176.08   49.68 
   3  -1  21  250.94   57.66 
   3   1  21  225.57   48.46 
   3  -1  21  227.38   55.50 
   3  -1  21  230.50   56.43 
   3   1  22  982.48   83.47 
   3  -1  22 1296.17  109.46 
   3  -1  22 1012.85   93.34 
   3  -1  22 1227.15   91.92 
   3  -1  23   -6.82   33.09 
   3  -1  23   31.82   25.52 
   3   1  24 1634.44   89.25 
   3  -1  24 1500.60   74.35 
   3  -1  24 1653.20   92.96 
   3   1  25  307.80   30.93 
  -3  -2  25  551.90   45.62 
  -3  -2  24  316.04   40.87 
  -3   2  24  250.43   35.64 
  -3  -2  23 1148.69   82.25 
  -3   2  23 1080.63   79.95 
  -3  -2  22 3200.37  146.65 
  -3   2  22 3284.96  149.77 
  -3   2  21 1075.00   93.98 
  -3  -2  21 1207.80   95.62 
  -3  -2  21 1120.75   80.77 
   3  -2 -20 8106.89  224.50 
  -3   2  20 8254.38  275.11 
  -3  -2  20 8700.48  238.65 
   3  -2 -19 1833.22  116.80 
  -3   2  19 1878.21  140.92 
  -3  -2  19 1834.72  119.05 
   3  -2 -18 9541.11  286.45 
  -3   2  18 9654.01  327.49 
  -3  -2  18 9776.91  291.08 
   3  -2 -17 2133.33  145.06 
  -3   2  17 2179.65  164.47 
  -3  -2  17 2340.51  147.92 
  -3  -2  16 5719.92  236.55 
   3  -2 -16 5797.28  248.65 
  -3   2  16 5591.44  263.87 
  -3  -2  16 5815.77  235.17 
   3  -2 -15  232.74   60.59 
  -3  -2  15  231.90   51.86 
   3   2 -15  385.00  159.51 
  -3   2  15  194.18   59.99 
   3  -2 -14 18590.8   463.1 
  -3   2  14 18193.3   484.2 
  -3  -2  14 19637.0  1244.2 
  -3  -2  13 9176.66  851.21 
  -3   2  13 8507.96  329.61 
   3  -2 -13 9342.61  328.53 
  -3  -2  12 4046.51  555.33 
   3  -2 -12 4379.53  225.94 
  -3  -2  11 15523.1  1074.1 
  -3  -2  10 2053.93  399.56 
  -3  -2   9 2311.24  406.12 
  -3  -2   8  901.90  270.32 
  -3  -2   7 17550.5  1091.3 
  -3  -2   6 1440.38  320.12 
  -3  -2   5 54609.1  1856.2 
  -3  -2   4 51931.4  1756.0 
  -3  -2   3 4705.21  506.70 
  -3  -2   2 48090.5  1566.1 
  -3  -2   1 53054.5  1586.2 
  -3   2   1 53535.7  1785.8 
  -3   2   0 58604.6  1866.3 
  -3  -2   0 55106.5  1573.6 
  -3   2  -1 63121.1  2006.7 
  -3  -2  -1 59253.8  1599.7 
  -3   2  -2 44047.1  1704.4 
  -3   2  -3 3085.36  469.65 
  -3   2  -4  262.75  129.15 
  -3   2  -5 27682.4  1397.8 
  -3   2  -6 18621.4  1165.2 
  -3   2  -7 42407.0  1785.0 
  -3   2  -8  326.09  110.65 
  -3   2  -9 16361.8  1150.8 
   3  -2  10 34984.7   700.6 
   3  -2  10 34220.6   805.7 
  -3   2 -10 34344.5  1684.4 
   3  -2  11  138.45   62.68 
   3  -2  11  -40.22   74.35 
  -3   2 -11  174.56  142.68 
   3  -2  12 6919.02  314.46 
   3  -2  12 6955.31  358.47 
  -3   2 -12 7380.95  805.04 
   3  -2  13 20224.2   605.1 
  -3   2 -13 20150.1  1306.9 
   3  -2  13 19561.8   525.8 
   3  -2  14 4522.07  251.79 
   3  -2  14 4557.44  280.08 
   3  -2  15 11428.0   393.6 
   3  -2  16 6784.37  294.55 
   3  -2  17    0.83   35.84 
   3  -2  17    4.49   25.18 
   3  -2  18 1357.04  118.93 
   3  -2  18 1491.09  131.59 
   3  -2  19 3506.07  186.63 
  -3  -2 -19 3231.39  151.27 
   3  -2  19 3298.43  172.44 
   3  -2  19 3490.85  179.19 
   3  -2  20  709.64   82.36 
   3  -2  20  739.59   77.26 
  -3  -2 -20  676.98   60.32 
   3   2  20  642.23   66.02 
   3  -2  20  727.59   74.79 
   3  -2  21 1136.34   89.06 
   3   2  21 1164.57   76.52 
   3  -2  21 1057.81   80.04 
   3  -2  22  383.15   46.90 
   3  -2  22  499.78   48.05 
   3  -3 -22   76.58   24.48 
   3  -3 -21 2668.90  126.13 
  -3  -3  20   16.33   23.80 
   3  -3 -20   55.80   35.28 
  -3  -3  19 11575.4   256.7 
  -3  -3  18   50.47   26.99 
   3  -3 -18   50.00   24.48 
  -3  -3  17  345.66   51.93 
   3  -3 -17  393.56   52.41 
   3  -3 -16 1108.35   91.49 
  -3  -3  16 1075.52   92.98 
   3  -3 -15 5642.65  218.40 
  -3  -3  15 5336.08  214.52 
  -3  -3  14  215.68   43.38 
   3  -3 -14  390.03   65.21 
   3  -3 -13 7864.92  272.34 
  -3  -3  13 6924.41  265.91 
  -3  -3  12   90.77   47.14 
   3  -3 -12  166.75   51.28 
   3  -3 -11 1573.12  129.64 
   3  -3 -10  229.93   56.27 
   3  -3  -9  115.05   64.06 
   3  -3  -9  163.78   49.03 
   3  -3  -8  698.17   89.93 
   3   3  -8  560.71  204.20 
   3  -3  -8  849.48  151.50 
   3  -3  -7   93.88   77.73 
   3  -3  -7   60.80   43.15 
   3  -3  -6  146.97   64.55 
   3  -3  -6  239.79   53.77 
   3  -3  -5 77414.2  1380.8 
   3  -3  -5 79045.9   898.6 
   3  -3  -4  597.37  112.43 
   3  -3  -4  848.33   91.72 
   3  -3  -3 5147.69  367.39 
   3  -3  -2 1651.17  214.88 
   3  -3  -1 5262.99  364.26 
   3  -3   0  309.76   99.26 
   3  -3   1 39149.8   995.6 
   3  -3   2   67.21   78.32 
   3  -3   3    7.72   72.12 
   3  -3   3  101.17   91.24 
   3  -3   4 5071.88  330.00 
   3  -3   5 2335.42  220.72 
   3  -3   6 4318.82  299.34 
   3  -3   7 3926.73  277.29 
   3  -3   8   52.86   78.58 
   3  -3   9 10090.4   423.4 
   3  -3  10 2700.24  215.11 
   3  -3  11 10189.2   309.2 
   3  -3  11 9914.45  391.06 
   3  -3  12 2609.25  155.06 
   3  -3  12 2367.86  191.59 
   3  -3  13  -17.05   58.76 
   3  -3  13   40.70   31.46 
   3  -3  14   10.88   27.31 
   3  -3  14  -26.17   47.48 
   3  -3  15 11818.9   295.6 
  -3  -3 -15 11203.1   304.4 
   3  -3  16  149.57   34.52 
  -3  -3 -16  188.71   43.93 
  -3  -3 -17 4357.68  162.49 
   3  -3  17 4665.27  160.90 
   3  -3  18   47.28   25.66 
   3  -3  18   58.95   18.05 
  -3  -3 -18   60.48   24.45 
  -3  -3 -19   34.15   14.87 
   3  -3  19    9.31   16.82 
   3  -3  20  104.99   18.81 
   3  -4 -16  368.23   43.44 
   3  -4 -15   31.96   26.08 
   3  -4 -14 4063.91  185.49 
   3  -4 -13  126.34   51.55 
   3  -4 -12  -38.14   54.63 
   3  -4 -11  793.57  113.44 
   3  -4 -10  151.55   59.41 
   3  -4  -9  283.58   80.94 
   3  -4  -8  283.45   79.36 
   3  -4  -7  184.20   70.83 
   3  -4  -6 8039.64  396.77 
   3  -4  -5 3894.02  279.19 
   3  -4  -4 9477.38  425.44 
   3  -4  -3   49.42   66.64 
   3  -4  -3  -25.15   63.59 
   3  -4  -2  116.19   62.54 
   3  -4  -2   58.50   78.09 
   3  -4  -1  -22.52   82.15 
   3  -4  -1   91.81   50.77 
   3  -4   0 9440.96  382.24 
   3  -4   1  954.95  122.61 
   3  -4   2 5710.72  287.11 
   3  -4   3  109.82   63.96 
   3  -4   4  132.89   52.66 
   3  -4   5   46.63   49.78 
   3  -4   6  895.30  101.54 
  -3  -4  -6 1184.57   87.00 
   3  -4   7 1142.33  108.66 
  -3  -4  -7 1186.77   86.15 
   3  -4   8  296.46   58.59 
  -3  -4  -8  385.44   48.39 
   3  -4   9  733.40   81.44 
  -3  -4  -9  785.27   68.15 
  -3  -4 -10 2012.77   99.82 
   3  -4  10 2013.52  120.98 
  -3  -4 -11   79.59   23.59 
  -3  -4 -12   70.76   20.02 
  -3  -4 -13  117.24   21.34 
  -3  -4 -14 1116.65   50.58 
  -4   0  27   -9.09    9.27 
  -4   0  26 5956.01  155.28 
  -4   0  25  -14.24   12.54 
  -4   0  25   17.69   19.16 
  -4   0  24 2255.30  125.33 
  -4   0  24 2415.35  117.05 
  -4   0  23  -34.97   30.12 
  -4   0  22 6539.69  253.70 
  -4   0  21   12.59   35.64 
  -4   0  20  467.63   78.07 
  -4   0  19   18.34   33.03 
  -4   0  18  327.27  193.14 
  -4   0  18  387.21   78.66 
  -4   0  17    2.65  113.83 
  -4   0  17   31.95   30.94 
  -4   0  16 77299.5  2319.6 
  -4   0  16 77567.9   994.4 
  -4   0  15   -5.05  140.39 
  -4   0  14 8626.89  759.83 
  -4   0  13  133.78  110.79 
  -4   0  12 59724.7  1960.4 
  -4   0  11   73.64  111.37 
  -4   0  10 281047.   4244. 
  -4   0   9 -172.89  206.88 
  -4   0   8 5339.76  571.16 
  -4   0   7  -87.13  109.99 
  -4   0   6 26903.8  1275.6 
  -4   0   5  219.53  159.60 
  -4   0   4 215197.   3818. 
  -4   0   3 2154.73  436.44 
  -4   0   2 502032.   6144. 
  -4   0   1  -43.65  155.02 
  -4   0   0 52869.7  1984.3 
  -4   0  -1  277.94  200.11 
  -4   0  -2  113.65  149.91 
  -4   0  -3  -37.93  224.12 
  -4   0  -4 639732.   7246. 
  -4   0  -5   19.86  192.85 
  -4   0  -6 8131.75  826.28 
  -4   0  -7   51.96  249.48 
  -4   0  -8 9273.44  922.57 
  -4   0  -9  -58.98  180.02 
  -4   0 -10 80740.5  2773.2 
  -4   0 -11 -306.17  210.03 
  -4   0 -12 7170.73  843.57 
  -4   0 -13 -853.39  303.41 
   4   0  13   -4.90   58.55 
   4   0  14 2703.04  200.48 
  -4   0 -14 2583.92  472.08 
   4   0  14 2746.27  187.70 
   4   0  14 2923.48  220.99 
   4   0  14 3122.48  229.93 
   4   0  15   44.72   52.56 
   4   0  15   27.57   54.41 
   4   0  15   37.00   42.24 
   4   0  15   21.03   47.52 
   4   0  16 4045.23  251.40 
   4   0  16 3577.80  227.52 
   4   0  16 3774.35  209.51 
   4   0  17   40.94   39.14 
   4   0  17   67.60   50.09 
   4   0  17  -38.47   36.46 
   4   0  18 44323.0   788.4 
   4   0  18 41390.3   651.4 
   4   0  19   47.60   51.92 
   4   0  19   50.74   34.19 
   4   0  19  -67.15   40.52 
   4   0  20 3459.90  183.71 
   4   0  20 3846.68  217.78 
   4   0  21   10.31   21.02 
   4   0  21  -18.86   32.89 
   4   0  22  724.99   81.04 
   4   0  23  -30.28   24.37 
   4   0  24 5458.38  153.16 
   4   0  25   19.07   11.05 
   4  -1 -27 1333.72   59.94 
  -4  -1  26  261.17   30.82 
  -4   1  26  308.36   36.71 
  -4   1  25 3500.82  136.24 
  -4  -1  25 3423.93  127.53 
  -4   1  24   82.37   28.26 
  -4  -1  24   90.41   35.83 
  -4   1  23  143.14   43.31 
  -4   1  22 4329.21  203.53 
  -4   1  21   68.75   59.86 
  -4   1  20 5061.53  244.73 
  -4   1  19 3447.42  207.83 
  -4  -1  19 3215.38  177.48 
  -4  -1  18  106.53   54.64 
  -4   1  18   90.98   48.80 
  -4  -1  17 15937.5   409.9 
  -4   1  17 15033.1   453.2 
  -4  -1  17 15730.7  1105.5 
  -4  -1  17 15569.2  1126.3 
  -4   1  16 13420.2   427.1 
  -4  -1  16 13674.3  1054.9 
  -4  -1  16 14670.6   397.4 
  -4  -1  16 14114.3  1054.2 
  -4  -1  15 31719.4  1576.3 
  -4  -1  15 30191.5  1564.6 
  -4   1  15 31567.8   650.5 
  -4  -1  14 16056.4  1122.2 
  -4  -1  14 16855.7  1145.4 
  -4  -1  13 11801.5   951.3 
  -4  -1  13 11628.2   937.8 
  -4  -1  12  469.27  200.05 
  -4  -1  12  418.59  188.17 
  -4  -1  11 98909.3  2733.0 
  -4  -1  10 40641.5  1746.4 
  -4   1   9 33832.1  1135.2 
  -4  -1   9 33890.8  1577.0 
  -4  -1   8 3238.37  507.41 
  -4   1   8 3294.37  356.82 
  -4  -1   7 5199.54  621.96 
  -4   1   7 5413.69  442.61 
  -4  -1   6 3353.94  496.17 
  -4   1   6 3023.09  333.43 
  -4   1   5 18388.7   969.3 
  -4   1   5 15313.0   751.8 
  -4  -1   5 16735.0  1080.8 
  -4   1   4 26934.9  1218.1 
  -4  -1   4 31290.6  1479.4 
  -4   1   3 19465.1  1073.2 
  -4  -1   3 19139.5  1199.4 
  -4   1   2 64809.7  1972.0 
  -4   1   1 103204.   2719. 
  -4   1   0 3362.89  548.83 
  -4   1  -1 56850.6  2215.4 
  -4  -1  -1 65088.9  2261.2 
  -4   1  -2 14585.6  1115.6 
  -4  -1  -2 13482.2  1046.6 
  -4   1  -3 58517.8  2174.4 
  -4  -1  -3 40333.8  1839.6 
  -4  -1  -4 62191.1  2199.9 
  -4   1  -4 76671.2  2457.1 
  -4  -1  -5 143775.   3232. 
  -4   1  -5 137092.   3314. 
  -4  -1  -6 11786.9   885.0 
  -4   1  -6 10110.0   919.1 
  -4   1  -7  701.24  300.62 
  -4  -1  -7  622.12  186.89 
  -4  -1  -8 14180.1   926.3 
  -4   1  -8 11766.5   985.5 
  -4   1  -9 26109.7  1487.5 
  -4   1 -10 28585.9  1572.1 
  -4   1 -11 7941.85  859.63 
   4  -1  12  624.62  109.85 
  -4   1 -12  610.31  267.71 
  -4   1 -13 30509.6  1662.0 
   4  -1  13 32096.5   745.9 
   4   1  13 32488.4   718.5 
   4   1  13 32710.8   710.5 
   4  -1  13 31241.8   686.5 
  -4   1 -14 2914.14  524.24 
   4  -1  14 3396.69  244.93 
   4  -1  14 3283.94  227.22 
   4   1  14 3539.37  235.95 
   4   1  14 3416.29  235.71 
   4  -1  14 3340.10  227.16 
   4  -1  15  479.88   99.50 
  -4   1 -15  201.36  102.68 
   4   1  15  406.36   85.36 
   4  -1  15  380.62   85.56 
   4  -1  16 14894.8   492.9 
   4   1  16 14234.5   463.0 
   4  -1  16 15072.0   464.3 
   4  -1  17 4205.94  217.21 
   4   1  17 4689.12  260.37 
   4  -1  17 4393.09  242.38 
   4  -1  17 4183.41  258.97 
   4  -1  18  453.59   65.70 
   4   1  18  585.78   85.94 
   4  -1  18  536.40   96.83 
   4  -1  18  560.25   84.99 
   4   1  18  606.67   95.44 
   4  -1  19 10088.6   331.8 
   4   1  19 9051.37  313.39 
   4  -1  19 9745.08  295.46 
   4  -1  19 9126.09  340.58 
   4  -1  20 1431.78  117.66 
   4  -1  20 1362.33  126.86 
   4   1  20 1133.27  100.61 
   4  -1  20 1351.52  102.90 
   4  -1  20 1425.38  131.28 
   4  -1  21 1982.54  133.33 
   4   1  21 1919.88  118.29 
   4  -1  21 1830.25  106.45 
   4  -1  21 1914.36  137.08 
   4  -1  22 2178.50  132.29 
   4  -1  22 2623.87  129.79 
   4  -1  23  847.17   62.07 
   4  -1  23  732.66   67.46 
   4   1  24 1513.20   67.70 
   4  -1  24 1728.29   79.11 
  -4  -2  25 1274.39   65.43 
  -4  -2  24  632.26   54.31 
  -4  -2  23 1421.01   89.36 
   4  -2 -23 1344.77   77.01 
  -4   2  23 1442.51   91.02 
  -4   2  22   57.65   28.64 
  -4  -2  22   39.03   22.89 
  -4   2  21 2526.06  143.43 
  -4  -2  21 2364.74  134.77 
  -4   2  20  487.12   73.69 
  -4  -2  20  518.41   70.54 
  -4  -2  19 5562.97  230.10 
   4  -2 -19 5911.08  209.84 
  -4   2  19 5912.53  249.64 
  -4  -2  18 5117.96  232.97 
   4  -2 -18 5354.09  215.54 
  -4   2  18 5467.83  249.27 
  -4  -2  17 4189.23  218.56 
   4  -2 -17 4133.08  201.11 
  -4   2  17 4436.71  231.45 
  -4  -2  16 7058.02  290.94 
   4  -2 -16 7410.52  276.12 
  -4   2  16 7263.98  303.55 
  -4  -2  15  701.96   91.36 
   4  -2 -15  690.50   94.76 
  -4   2  15  706.41  102.40 
   4  -2 -14 27480.1   550.6 
  -4  -2  14 27674.1  1458.4 
  -4   2  14 27429.1   606.4 
  -4  -2  14 26734.4   591.0 
  -4  -2  13 3295.50  506.83 
   4  -2 -13 3709.08  203.65 
  -4   2  13 3619.36  220.13 
  -4  -2  13 3085.28  207.80 
  -4  -2  12 21114.3  1275.1 
   4  -2 -12 21234.3   489.1 
  -4   2  12 20771.9   528.6 
  -4  -2  12 20331.3   533.2 
   4  -2 -11 14657.8   408.9 
  -4  -2  11 15440.6   466.3 
  -4  -2  10 1708.52  369.36 
  -4  -2   9 1359.74  323.11 
  -4  -2   8 24295.6  1341.6 
  -4  -2   7 33450.9  1558.6 
  -4  -2   6 1553.00  349.20 
  -4  -2   5 17992.5  1097.0 
  -4  -2   4 6884.07  665.41 
  -4  -2   3  -66.50   91.41 
  -4  -2   2 2050.74  354.02 
  -4  -2   1 17928.7  1029.5 
  -4   2   1 17596.4  1092.5 
  -4   2   0 28580.1  1489.7 
  -4  -2   0 31884.5  1377.6 
  -4   2  -1 30332.8  1560.9 
  -4  -2  -1 29872.6  1337.9 
  -4   2  -2 52862.9  2036.8 
  -4  -2  -2 52134.2  1802.3 
  -4   2  -3 24354.8  1377.3 
  -4   2  -4 24188.1  1378.9 
  -4   2  -5 7644.11  788.33 
  -4   2  -6 21089.7  1308.6 
  -4   2  -7 27864.9  1525.9 
  -4   2  -8 16690.1  1193.2 
   4  -2   8 16658.6   543.4 
  -4   2  -9 3340.54  542.77 
   4  -2   9 3349.53  227.21 
   4  -2   9 2660.00  211.92 
   4  -2  10  -18.95   58.54 
   4  -2  10   76.46   54.31 
  -4   2 -10  -64.86  135.19 
  -4   2 -11 5005.63  671.77 
   4  -2  11 5245.85  294.64 
   4  -2  11 5210.68  291.03 
   4  -2  12   95.42   44.13 
   4  -2  12   96.99   52.12 
  -4   2 -12  213.58  184.72 
   4  -2  13 4678.52  271.54 
   4  -2  13 4412.46  263.98 
   4  -2  14 5943.95  287.80 
   4  -2  14 5627.69  291.72 
   4  -2  15   54.96   50.25 
   4  -2  16 8089.44  328.08 
   4  -2  17    5.98   39.80 
   4  -2  18 2068.51  148.66 
   4  -2  18 2127.45  145.91 
   4  -2  19 3236.74  170.82 
  -4  -2 -19 3611.67  147.60 
   4  -2  19 3350.27  168.15 
   4  -2  19 3794.55  157.60 
   4  -2  20 1734.17  107.56 
   4  -2  20 1917.80  119.50 
   4  -2  21 1031.06   74.66 
   4  -2  21  947.91   65.78 
   4  -2  21 1075.43   66.80 
   4  -2  22 2002.98   84.04 
   4  -2  22 1868.31   68.94 
   4  -3 -21  105.29   27.34 
   4  -3 -20   63.39   26.05 
  -4  -3  20   65.96   23.22 
   4  -3 -19 2708.15  145.73 
  -4  -3  19 2657.26  117.17 
  -4  -3  18   52.79   20.94 
   4  -3 -18   78.82   37.03 
  -4  -3  17  433.45   51.98 
  -4  -3  16 1593.08  111.96 
   4  -3 -16 1674.11  113.65 
   4  -3 -15 6266.73  223.33 
  -4  -3  15 5269.81  211.12 
  -4  -3  14  440.02   68.03 
   4  -3 -14  644.36   77.57 
   4  -3 -13 18192.7   402.0 
  -4  -3  13 16426.4   409.6 
  -4  -3  12  351.55   65.11 
   4  -3 -12  306.37   92.20 
   4  -3 -12  304.48   60.23 
   4  -3 -11  657.07  117.50 
   4  -3 -11  799.14   94.32 
  -4  -3  11  640.92   84.16 
  -4  -3  10 1489.66  130.47 
   4  -3 -10 1469.64  178.19 
   4  -3 -10 1520.86  128.33 
   4  -3  -9 10607.6   459.2 
   4  -3  -9 10770.8   331.9 
   4  -3  -8 6497.81  368.08 
   4  -3  -8 7504.92  275.80 
   4  -3  -7 18280.7   623.0 
   4  -3  -7 18891.0   438.8 
   4  -3  -6  108.10   64.63 
   4  -3  -6  146.75   48.82 
   4  -3  -5 6779.66  388.69 
   4  -3  -5 6820.85  264.61 
   4  -3  -4 2043.74  212.32 
   4  -3  -4 2257.16  151.95 
   4  -3  -3 1586.45  196.43 
   4  -3  -2 4909.34  335.50 
   4  -3  -1   84.63   59.44 
   4  -3   0  280.82  116.20 
   4  -3   1 37466.7   911.8 
   4  -3   2  202.18   72.53 
   4  -3   2  200.95   90.58 
   4  -3   3 8334.00  422.11 
   4  -3   3 8682.24  413.37 
   4  -3   4 1312.36  164.81 
   4  -3   5 1531.45  173.49 
   4  -3   6  186.64   67.75 
   4  -3   7 26408.4   658.5 
   4  -3   8  518.45   77.09 
   4  -3   8  382.01   84.78 
   4  -3   9  216.29   57.30 
   4  -3   9  103.38   52.98 
   4  -3  10 1757.84  143.08 
   4  -3  10 1714.35  161.06 
   4  -3  11 2056.51  147.36 
   4  -3  11 1874.77  162.17 
   4  -3  12 1146.81  125.42 
   4  -3  12 1212.97  110.11 
   4  -3  13 3431.97  191.75 
   4  -3  13 3321.31  176.64 
   4  -3  14  980.75   90.56 
   4  -3  15 2142.89  127.73 
   4  -3  16  137.54   33.19 
  -4  -3 -16  175.56   38.62 
  -4  -3 -17 2534.09  114.47 
   4  -3  17 1833.00   96.60 
  -4  -3 -18  169.63   26.87 
   4  -3  18  114.38   24.52 
   4  -3  18  117.48   20.59 
   4  -3  19   23.13   14.37 
   4  -4 -16   82.02   19.96 
   4  -4 -15   44.88   21.16 
   4  -4 -14 2699.71  130.19 
   4  -4 -13  762.29   75.95 
   4  -4 -12 3033.37  163.87 
   4  -4 -11  239.03   56.18 
   4  -4 -10   15.97   40.88 
   4  -4  -9   92.99   56.73 
   4  -4  -8 9527.76  347.99 
   4  -4  -7 2522.83  188.30 
   4  -4  -6  258.33   66.13 
   4  -4  -5 1044.67  129.89 
   4  -4  -4 2330.09  189.91 
   4  -4  -4 3147.61  211.31 
   4  -4  -3  329.15   80.81 
   4  -4  -3  305.33   78.39 
   4  -4  -2  134.60   67.49 
   4  -4  -2   27.45   48.87 
   4  -4  -1  175.54   60.41 
   4  -4   0 4137.44  236.78 
   4  -4   1 1953.16  159.42 
   4  -4   2 7760.21  305.34 
   4  -4   3  159.19   60.61 
   4  -4   4   82.71   47.02 
   4  -4   5   30.49   39.79 
   4  -4   6 4620.12  204.03 
  -4  -4  -6 5093.62  182.68 
   4  -4   7 3528.53  169.00 
  -4  -4  -7 3174.13  139.94 
   4  -4   8 6561.05  218.38 
  -4  -4  -8 5882.54  181.65 
   4  -4   9  941.60   79.99 
  -4  -4  -9  783.61   63.19 
   4  -4  10 2774.93  124.09 
  -4  -4 -10 1820.10   89.19 
  -4  -4 -11   77.00   20.50 
  -4  -4 -12  437.79   36.39 
  -4  -4 -13 1225.70   50.34 
   5   0 -27    6.13   11.84 
  -5   0  26 3772.18  118.21 
  -5   0  25  -20.84   21.06 
  -5   0  24 13352.5   262.3 
  -5   0  24 13544.4   296.6 
  -5   0  23    0.34   20.75 
  -5   0  23  -12.38   24.06 
  -5   0  22   23.23   27.77 
  -5   0  22   42.61   35.68 
  -5   0  21    0.32   31.65 
  -5   0  20 10052.1   336.8 
  -5   0  19   40.97   40.45 
  -5   0  18 19097.1  1281.9 
  -5   0  18 17869.0   475.4 
  -5   0  17  152.21  175.79 
  -5   0  17   28.47   45.25 
  -5   0  16 54204.3  1917.3 
  -5   0  16 58110.5   854.5 
  -5   0  15 -523.99  196.98 
  -5   0  14 1478.48  310.00 
  -5   0  13   12.65  113.90 
  -5   0  12 1265.20  291.72 
  -5   0  11 -106.24  123.47 
  -5   0  10 151015.   3151. 
  -5   0   9  161.17  171.28 
  -5   0   8 3383.54  493.25 
  -5   0   7 -157.21  168.53 
  -5   0   6 64294.3  2197.9 
  -5   0   5 -108.89  198.94 
  -5   0   4 169522.   3766. 
  -5   0   3  -24.80  211.25 
  -5   0   2 3316.87  539.94 
  -5   0   1  315.07  214.84 
  -5   0   0 1717.99  373.21 
  -5   0  -1  156.71  217.11 
  -5   0  -2 40055.9  1694.8 
  -5   0  -3   30.25  172.32 
  -5   0  -4 272960.   4542. 
  -5   0  -5   21.20  215.10 
  -5   0  -6 21776.2  1335.6 
  -5   0  -7 -190.04  214.83 
  -5   0  -8  118.03  146.62 
  -5   0  -9 -163.19  178.19 
  -5   0 -10 108661.   3166. 
  -5   0 -11 -462.11  226.44 
  -5   0 -12 4823.98  680.74 
   5   0  12 5117.64  311.77 
   5   0  13  -36.36   51.54 
   5   0  13   -8.80   43.49 
  -5   0 -13    1.86  140.99 
   5   0  14 5329.60  287.09 
  -5   0 -14 6970.83  747.78 
   5   0  14 6130.66  332.65 
   5   0  14 6691.85  352.98 
   5   0  15  100.48   59.18 
   5   0  15   30.80   37.15 
   5   0  15  -30.48   60.08 
   5   0  16 2170.48  172.11 
   5   0  16 2444.12  202.50 
   5   0  16 2711.11  220.40 
   5   0  17  -35.79   54.95 
   5   0  17   10.76   48.30 
   5   0  18   38.51   39.13 
   5   0  18  -14.11   43.26 
   5   0  19  -49.14   35.39 
   5   0  19  -51.01   52.92 
   5   0  20 8840.91  305.07 
   5   0  20 10292.5   261.6 
   5   0  21  -21.54   20.01 
   5   0  21   50.76   32.60 
   5   0  22  370.89   50.97 
   5   0  23   13.01   13.11 
   5  -1 -26  532.81   44.81 
  -5  -1  26  486.01   39.43 
   5   1 -25 9402.62  190.79 
  -5  -1  25 10074.0   215.3 
  -5   1  24 1128.69   87.60 
   5   1 -24  996.06   71.60 
  -5  -1  24 1095.45   83.73 
  -5  -1  23 4404.06  179.55 
  -5   1  23 4389.08  186.81 
  -5   1  22 1990.24  137.43 
  -5  -1  22 1930.56  132.05 
  -5   1  21  699.53   92.34 
  -5  -1  21  768.37   93.18 
  -5   1  20  139.35   53.07 
  -5   1  19 10349.8   353.2 
  -5   1  18  636.58  100.09 
  -5  -1  17  100.80   67.12 
  -5   1  17  346.72   74.90 
  -5  -1  16 1501.81  353.58 
  -5  -1  16 1771.62  364.85 
  -5   1  16 1830.61  164.12 
  -5  -1  15 2773.68  478.45 
  -5  -1  15 2419.11  460.20 
  -5   1  15 2566.69  187.80 
  -5  -1  14  590.98  221.94 
  -5  -1  14  776.49  245.48 
  -5   1  14  844.95  109.41 
  -5  -1  13 1626.89  377.96 
  -5  -1  12 4388.20  587.21 
  -5  -1  11 96944.9  2779.8 
  -5  -1  10 18472.8  1202.3 
  -5  -1   9 74176.6  2387.2 
  -5  -1   8 30608.2  1528.8 
  -5   1   8 31234.5  1163.0 
  -5  -1   7 5073.85  629.24 
  -5   1   7 5226.01  479.06 
  -5   1   6 22183.2  1170.2 
  -5  -1   6 21791.0  1327.0 
  -5   1   6 20779.7   987.5 
  -5  -1   5 128687.   3254. 
  -5   1   5 126470.   2594. 
  -5   1   4 94920.0  2460.9 
  -5  -1   4 97659.7  2911.8 
  -5  -1   3 27066.7  1603.5 
  -5   1   3 26106.4  1280.2 
  -5   1   2 23940.3  1233.0 
  -5   1   1 4602.17  565.79 
  -5   1   0 6358.86  728.56 
  -5   1  -1 15169.8  1187.2 
  -5  -1  -1 11797.2  1058.9 
  -5   1  -2 58203.8  2435.3 
  -5  -1  -2 57578.4  2269.4 
  -5   1  -3 37235.1  1971.1 
  -5  -1  -3 43153.5  1892.5 
  -5   1  -4 25733.8  1620.1 
  -5  -1  -4 29710.1  1534.8 
  -5   1  -5 88786.8  2950.0 
  -5  -1  -5 96548.9  2627.6 
  -5   1  -6 9123.97  948.94 
  -5  -1  -6 9339.45  775.10 
  -5   1  -7 7768.84  863.04 
  -5  -1  -7 8090.01  704.41 
  -5   1  -8 26661.1  1590.2 
  -5  -1  -8 28978.7  1288.9 
  -5   1  -9 28567.0  1657.1 
  -5   1 -10 11849.9  1078.5 
   5  -1  11 35588.4   775.4 
  -5   1 -11 31339.4  1780.3 
   5   1  11 34738.5   770.0 
   5  -1  11 32625.9   674.8 
   5   1  11 34868.8   762.7 
   5  -1  11 31380.8   779.4 
   5  -1  12 3038.81  245.76 
  -5   1 -12 3119.69  563.55 
   5   1  12 3568.35  248.17 
   5   1  12 3481.36  248.29 
   5  -1  12 3238.02  235.91 
   5   1  13  334.25   91.32 
   5  -1  13  327.56   81.79 
   5  -1  13  246.26   64.44 
  -5   1 -13  205.60  249.86 
   5   1  13  208.85   68.99 
   5  -1  14 8089.43  380.77 
   5   1  14 8684.75  379.73 
   5   1  14 9015.72  394.80 
   5  -1  14 9314.87  389.96 
   5  -1  15 4488.69  268.22 
   5  -1  15 3742.71  255.40 
   5   1  15 4504.46  267.73 
   5  -1  15 4288.29  263.84 
   5  -1  16 11368.3   424.6 
   5   1  16 11776.5   419.2 
   5  -1  16 12605.7   440.9 
   5  -1  16 12320.3   345.2 
   5  -1  17  300.05   57.28 
   5   1  17  318.69   76.21 
   5  -1  17  299.27   67.55 
   5  -1  17  352.86   77.78 
   5  -1  18 3066.42  195.98 
   5   1  18 2515.10  178.69 
   5  -1  18 2785.09  182.25 
   5   1  18 2712.75  171.38 
   5  -1  18 3053.92  156.37 
   5  -1  19 7464.50  277.70 
   5   1  19 6706.16  246.60 
   5  -1  19 7352.35  219.08 
   5  -1  20 1569.46  116.68 
   5  -1  20 1871.48  126.95 
   5   1  20 1739.79  110.87 
   5  -1  20 1605.15   91.62 
   5  -1  21  393.66   51.05 
   5  -1  21  429.87   42.28 
   5  -1  21  370.12   57.84 
   5  -1  22 2886.45  108.95 
   5  -1  22 2946.45  130.19 
   5   1  23  206.87   25.95 
   5  -1  23  245.33   31.26 
  -5  -2  25 1385.90   64.06 
  -5  -2  24 2136.41   93.42 
  -5  -2  23  369.55   47.32 
   5  -2 -23  335.95   39.32 
   5  -2 -22 8708.95  217.03 
  -5   2  22 8918.19  247.81 
  -5  -2  22 9073.08  240.24 
  -5  -2  21   35.39   28.89 
   5  -2 -21   33.91   21.01 
  -5   2  21   20.99   29.27 
   5  -2 -20  808.84   80.62 
  -5  -2  20  847.76   89.64 
  -5   2  20  812.36   90.76 
  -5  -2  19 1902.16  138.07 
  -5   2  19 1973.69  144.59 
  -5  -2  18  625.25   90.00 
  -5   2  18  614.28   84.22 
  -5   2  17 3487.45  211.73 
  -5  -2  17 3341.09  196.14 
  -5  -2  16   -0.88   42.97 
  -5   2  16   28.32   42.35 
   5  -2 -16   -0.81   28.54 
   5  -2 -15 1581.79  134.17 
  -5   2  15 1575.71  150.50 
  -5  -2  15 1642.48  149.84 
  -5  -2  14 5581.35  662.20 
   5  -2 -14 6185.47  262.00 
  -5   2  14 6209.12  296.76 
  -5  -2  14 6313.10  294.50 
  -5  -2  13 8178.53  810.79 
   5  -2 -13 7387.39  286.79 
  -5   2  13 7638.23  330.56 
  -5  -2  13 7416.97  325.85 
  -5  -2  12 16450.8  1146.4 
   5  -2 -12 17391.2   441.0 
  -5   2  12 18050.6   512.0 
  -5  -2  12 17671.3   507.9 
   5  -2 -11 12473.7   377.6 
  -5   2  11 13129.7   443.5 
  -5  -2  11 13255.0   446.2 
   5  -2 -10 29173.0   576.7 
  -5   2  10 28546.6   664.3 
  -5  -2  10 28584.1   658.0 
  -5  -2   9 7242.12  758.39 
   5  -2  -9 7679.40  298.84 
  -5  -2   8 53888.2  2073.8 
  -5  -2   7 17802.2  1184.6 
  -5  -2   6 29145.4  1494.2 
  -5  -2   5 19319.1  1192.5 
  -5  -2   4 4398.36  579.68 
  -5  -2   3   86.63   67.22 
  -5  -2   2 16900.5  1138.1 
  -5   2   1 20786.3  1147.0 
  -5  -2   1 20729.0  1266.8 
  -5   2   0 2141.71  405.22 
  -5  -2   0 2458.50  456.83 
  -5  -2  -1 20346.9  1302.5 
  -5   2  -1 17395.9  1236.9 
  -5   2  -2 8276.02  898.23 
  -5  -2  -2 9015.74  899.20 
  -5   2  -3 1573.98  407.57 
  -5  -2  -3 1784.63  416.22 
  -5   2  -4 5082.65  703.68 
  -5   2  -5 17461.1  1276.6 
  -5   2  -6 17678.4  1295.9 
   5  -2   6 17605.7   533.1 
   5  -2   7 14953.8   530.5 
  -5   2  -7 17737.9  1293.2 
   5  -2   7 17552.1   522.2 
   5  -2   8 21031.2   614.9 
   5  -2   8 22223.7   584.2 
   5  -2   9  688.29  117.42 
   5  -2   9  553.84   94.75 
   5  -2  10 8219.21  377.63 
   5  -2  10 8580.39  351.64 
   5  -2  11 15190.5   514.6 
   5  -2  11 15054.6   454.2 
   5  -2  12 9093.87  394.98 
   5  -2  12 9721.86  355.36 
   5  -2  13 5453.07  298.99 
   5  -2  13 6024.73  271.76 
   5  -2  14 4718.56  271.84 
   5  -2  15 1012.69  128.49 
   5  -2  16  258.33   70.29 
   5  -2  17  818.10   99.42 
   5  -2  18   -9.45   29.74 
   5  -2  18   22.95   31.35 
   5  -2  18    7.62   20.44 
   5  -2  19 2636.92  136.16 
   5  -2  19 2241.92  120.64 
   5  -2  19 2446.91  107.21 
   5  -2  20  459.61   46.22 
   5  -2  20  461.86   42.79 
   5  -2  20  548.48   54.43 
   5  -2  21  963.00   57.21 
   5  -2  21  923.06   46.60 
   5  -3 -21 3458.31  113.90 
   5  -3 -20  -23.48   19.77 
  -5  -3  20  -25.25   17.46 
  -5  -3  19   70.05   22.37 
   5  -3 -19   89.64   32.89 
   5  -3 -18   49.07   31.36 
  -5  -3  18   43.45   24.54 
  -5  -3  17  403.63   50.56 
   5  -3 -17  416.87   68.32 
   5  -3 -16  146.43   46.30 
  -5  -3  16  161.73   36.44 
  -5  -3  15  -19.67   30.18 
   5  -3 -15  -67.34   42.96 
   5  -3 -14  256.35   61.06 
  -5  -3  14  272.02   55.38 
   5  -3 -13 13137.7   429.6 
  -5  -3  13 12330.5   358.0 
  -5  -3  12   91.02   35.32 
   5  -3 -12   17.61   54.93 
   5  -3 -11    0.16   41.80 
  -5  -3  11  -37.73   41.58 
   5  -3 -11  -25.17   31.84 
   5  -3 -10 4422.97  275.62 
  -5  -3  10 4410.08  229.11 
  -5  -3   9 2744.39  181.37 
   5  -3  -9 2772.74  226.82 
  -5  -3   8  605.40   81.37 
   5  -3  -8  698.59  130.22 
   5  -3  -7 27813.8   736.7 
  -5  -3   7 28124.1   559.0 
   5  -3  -6  584.86  118.49 
   5  -3  -5 3720.11  278.01 
   5  -3  -4 1330.54  171.34 
   5  -3  -3  667.02  136.01 
   5  -3  -2  312.21   98.30 
   5  -3  -1 8950.17  435.84 
   5  -3   0  144.58   75.40 
   5  -3   1 11750.2   483.9 
   5  -3   2  604.82  115.91 
   5  -3   2  734.28  124.04 
   5  -3   3 1560.93  171.97 
   5  -3   4 1936.19  182.27 
   5  -3   5 1514.46  160.00 
   5  -3   6 1156.78  139.43 
   5  -3   7 44421.4   757.7 
   5  -3   7 42945.8   767.2 
   5  -3   8 1650.13  148.48 
   5  -3   8 1688.21  152.89 
   5  -3   9 3425.59  208.63 
   5  -3   9 3296.56  203.15 
   5  -3  10 1546.65  139.12 
   5  -3  10 1484.54  133.26 
   5  -3  11   11.22   36.93 
   5  -3  11  -13.79   55.82 
   5  -3  12  689.69   86.39 
   5  -3  12  767.54   91.18 
   5  -3  13 3540.54  178.02 
   5  -3  13 4471.96  189.80 
   5  -3  14   25.54   29.29 
   5  -3  15   -0.27   26.21 
   5  -3  16  977.93   72.65 
  -5  -3 -16 1178.41   79.29 
   5  -3  17  612.41   46.23 
   5  -3  17  618.39   45.58 
   5  -3  18  105.91   17.42 
   5  -4 -15  116.83   22.34 
   5  -4 -14 1120.51   71.55 
   5  -4 -13  656.97   59.37 
   5  -4 -12 1571.83   99.15 
   5  -4 -11  527.28   61.46 
   5  -4 -10   66.17   35.43 
   5  -4  -9   -5.09   37.38 
   5  -4  -8 4612.14  209.01 
   5  -4  -7 1696.40  132.01 
   5  -4  -6 4656.84  222.52 
   5  -4  -5  550.53   81.21 
   5  -4  -5  668.67   90.81 
   5  -4  -4   61.38   40.76 
   5  -4  -4  150.50   57.42 
   5  -4  -3  -84.36   47.92 
   5  -4  -3   -1.62   47.54 
   5  -4  -2 3879.67  202.48 
   5  -4  -1  380.85   69.95 
   5  -4   0  108.91   45.37 
   5  -4   1  948.81  101.28 
   5  -4   2 3762.20  190.92 
   5  -4   3  -27.43   36.63 
   5  -4   4   11.29   30.48 
   5  -4   5   14.10   33.64 
   5  -4   6 2579.96  133.53 
  -5  -4  -6 1676.61   97.75 
  -5  -4  -7  223.95   37.92 
   5  -4   7  317.69   49.21 
   5  -4   8 5654.76  173.15 
  -5  -4  -8 4857.99  146.11 
   5  -4   9  255.42   38.70 
  -5  -4  -9  241.92   30.78 
  -5  -4 -10   10.03    9.65 
  -5  -4 -11   68.30   13.66 
   6   0 -26  590.72   49.71 
   6   0 -25   35.05   22.73 
  -6   0  24 11154.0   262.8 
  -6   0  23  -13.93   23.37 
  -6   0  22 3452.01  155.80 
  -6   0  22 3430.46  174.26 
  -6   0  21    2.13   29.58 
  -6   0  21   -4.87   34.93 
  -6   0  20 15158.5   365.0 
  -6   0  20 14889.3   399.6 
  -6   0  19   29.94   31.43 
  -6   0  19   23.60   44.17 
  -6   0  18 9952.02  346.83 
  -6   0  18 10496.1   326.9 
  -6   0  17   33.45   25.90 
  -6   0  17   46.58   31.17 
  -6   0  16 4217.39  561.46 
  -6   0  16 4215.96  234.77 
  -6   0  16 4117.98  213.18 
  -6   0  15  -35.71   40.86 
  -6   0  15  -23.10   44.45 
  -6   0  14 11777.1   915.1 
  -6   0  14 13222.5   419.0 
  -6   0  13 -169.21  171.37 
  -6   0  12 2268.13  421.24 
  -6   0  11  -87.49  186.70 
  -6   0  10 112446.   2883. 
  -6   0   9   97.56  137.21 
  -6   0   8 21117.4  1319.2 
  -6   0   7  -84.88  160.05 
  -6   0   6  394.16  143.27 
  -6   0   5   95.76  170.57 
  -6   0   4 231929.   4598. 
  -6   0   3   42.22  196.24 
  -6   0   2 43185.9  1867.2 
  -6   0   1  497.72  294.77 
  -6   0   0 10494.2   906.0 
  -6   0  -1 -105.89  197.68 
  -6   0  -2 114872.   2855. 
  -6   0  -3  -32.56  176.46 
  -6   0  -4  420.78  246.80 
  -6   0  -5   49.55  151.49 
  -6   0  -6 31122.1  1543.8 
  -6   0  -7 -223.40  126.68 
  -6   0  -8 2536.95  440.12 
  -6   0  -9 -546.02  223.68 
  -6   0 -10 70976.6  2383.9 
   6   0  10 64343.2  1166.5 
   6   0  11   81.04   74.48 
   6   0  11   33.88   44.69 
  -6   0 -11   19.23   98.26 
   6   0  12 26219.4   637.6 
   6   0  12 25725.1   723.0 
   6   0  13  -37.20   61.08 
   6   0  13  -34.64   58.91 
   6   0  14  751.22  139.89 
   6   0  14  850.64  133.34 
   6   0  14  873.55  116.70 
   6   0  15  -45.56   35.62 
   6   0  15   45.21   54.57 
   6   0  15 -122.22   81.89 
   6   0  16 33301.4   712.5 
   6   0  16 33740.2   757.0 
   6   0  17   52.15   40.58 
   6   0  17  -36.50   48.66 
   6   0  18 1705.74  144.27 
   6   0  18 1712.48  115.63 
   6   0  19   17.49   37.09 
   6   0  20 4278.61  181.78 
   6   0  21  -22.01   23.44 
   6   0  22  730.42   53.34 
   6  -1 -26   13.07   12.50 
   6  -1 -25 3148.34  120.54 
  -6  -1  25 3029.18  109.71 
   6   1 -24 1346.15   82.08 
   6  -1 -24 1443.94   92.47 
  -6  -1  24 1529.65   93.23 
  -6   1  24 1568.98  100.35 
   6   1 -23 3272.13  142.48 
  -6   1  23 3541.66  166.33 
  -6  -1  23 3360.19  154.80 
   6   1 -22  769.20   78.34 
  -6   1  22  839.72   88.20 
  -6  -1  22  794.81   84.66 
  -6   1  21 2252.76  153.97 
  -6  -1  21 2318.21  150.19 
  -6  -1  20  107.34   48.12 
  -6   1  20   68.74   46.21 
  -6   1  19 30260.0   594.1 
  -6  -1  19 30516.8   574.3 
  -6   1  18 8376.66  320.76 
  -6  -1  18 8399.01  311.78 
  -6   1  17 7435.64  310.43 
  -6  -1  17 7218.95  294.48 
  -6  -1  16 10238.4   907.7 
  -6  -1  16 9610.47  926.85 
  -6   1  16 9230.23  356.87 
  -6  -1  16 9514.53  341.79 
  -6  -1  15 1312.45  345.13 
  -6   1  15 1446.47  147.91 
  -6  -1  15 1619.51  382.40 
  -6  -1  15 1460.29  140.29 
  -6  -1  14  251.71   58.72 
  -6  -1  14  166.80  105.95 
  -6   1  14  260.44   68.20 
  -6  -1  13 12011.4  1019.7 
  -6   1  13 12206.8   414.0 
  -6  -1  13 12601.9   407.8 
  -6  -1  12 1834.56  414.44 
  -6  -1  11  579.30  260.53 
  -6  -1  10 37939.0  1815.2 
  -6  -1   9 27716.9  1550.6 
  -6  -1   8 3010.62  510.46 
  -6   1   7 3263.10  436.11 
  -6  -1   7 3443.40  572.83 
  -6  -1   6 3291.64  583.01 
  -6   1   6 3031.21  427.90 
  -6   1   6 3432.64  501.01 
  -6  -1   5 84416.9  2908.9 
  -6   1   5 85270.9  2463.2 
  -6   1   4 28592.4  1356.1 
  -6  -1   4 26199.2  1660.9 
  -6   1   3 134103.   2932. 
  -6  -1   3 120961.   3625. 
  -6   1   2 12920.7   928.4 
  -6   1   1  522.41  167.96 
  -6   1   0 2569.83  456.14 
  -6   1  -1 102667.   2914. 
  -6  -1  -1 94352.1  2942.7 
  -6   1  -2 40691.1  1927.6 
  -6  -1  -2 42095.6  1890.4 
  -6   1  -3 12330.4  1122.0 
  -6  -1  -3 13709.2  1017.1 
  -6   1  -4 23415.1  1561.0 
  -6  -1  -4 25964.3  1372.1 
  -6   1  -5 24826.9  1615.4 
  -6  -1  -5 29249.6  1408.6 
  -6   1  -6  397.85  285.84 
  -6  -1  -6  828.32  233.35 
  -6   1  -7  973.63  380.07 
  -6  -1  -7 1119.01  238.42 
  -6   1  -8 14992.0  1272.6 
  -6  -1  -8 17964.1  1033.1 
   6   1   9 2869.23  236.02 
   6  -1   9 2801.43  235.97 
  -6   1  -9 2518.57  512.80 
   6  -1   9 2424.94  219.67 
   6  -1  10 19940.7   622.5 
  -6   1 -10 16094.0  1311.8 
   6   1  10 18498.9   586.5 
   6  -1  10 17359.3   580.6 
   6  -1  11 34982.6   824.8 
  -6   1 -11 31123.5  1825.6 
   6   1  11 30684.8   741.6 
   6   1  11 33159.2   786.5 
   6  -1  11 32370.5   775.6 
   6  -1  12 2178.51  196.29 
   6   1  12 1634.95  174.19 
  -6   1 -12 1503.98  433.58 
   6  -1  12 1758.51  182.60 
   6   1  12 1769.46  180.69 
   6  -1  13 2155.63  196.29 
   6   1  13 1743.16  175.65 
   6   1  13 1946.22  189.72 
   6  -1  13 1690.12  172.45 
   6  -1  14 1611.75  161.66 
   6   1  14 1395.84  153.60 
   6   1  14 1476.73  160.06 
   6  -1  14 1415.96  154.53 
   6  -1  15 4633.52  264.22 
   6  -1  15 4529.69  195.66 
   6   1  15 3996.60  239.59 
   6  -1  15 4051.92  253.10 
   6  -1  15 3583.23  240.18 
   6  -1  16 1683.53  152.39 
   6   1  16 1537.99  145.46 
   6  -1  16 1450.35  150.56 
   6  -1  16 1552.98  110.70 
   6  -1  17 9782.51  326.76 
   6   1  17 9192.96  325.00 
   6  -1  17 9153.90  331.16 
   6  -1  17 9565.58  254.26 
   6  -1  18  -42.05   34.33 
   6   1  18  -22.69   40.82 
   6  -1  18   33.88   32.85 
   6   1  18  -19.26   18.58 
   6  -1  18   39.21   20.75 
   6  -1  19 1619.31  109.91 
   6  -1  19 1698.40  116.49 
   6  -1  19 1599.34   86.34 
   6  -1  20  752.94   64.69 
   6  -1  20  815.22   80.85 
   6  -1  21  762.69   52.69 
   6  -1  21  820.65   66.99 
   6  -1  22  327.64   26.04 
   6  -1  22  420.09   37.00 
  -6  -2  24  291.02   34.73 
   6  -2 -23   13.86   10.32 
  -6  -2  23  607.43   57.00 
  -6  -2  22 5406.49  179.72 
   6  -2 -22 4506.75  154.65 
   6  -2 -21 1396.44   96.94 
  -6  -2  21 1344.44  101.95 
   6  -2 -20 5902.25  214.84 
  -6  -2  20 6198.93  228.10 
   6  -2 -19 2398.04  146.77 
  -6  -2  19 2485.25  157.25 
  -6  -2  18 5190.88  233.73 
   6  -2 -18 5436.21  230.58 
  -6   2  18 5431.19  253.36 
  -6  -2  17  388.85   78.97 
   6  -2 -17  349.82   61.56 
  -6   2  17  384.62   75.20 
  -6  -2  16 10584.7   358.4 
   6  -2 -16 10754.4   352.9 
  -6   2  16 10900.1   386.0 
   6  -2 -15 4197.52  229.94 
  -6   2  15 4325.15  250.63 
  -6  -2  15 3867.01  228.34 
   6  -2 -14 1316.51  130.36 
  -6   2  14 1115.01  133.05 
  -6  -2  14 1242.72  142.03 
   6  -2 -13 24489.9   571.2 
  -6   2  13 24652.8   619.7 
  -6  -2  13 24110.9   596.3 
  -6  -2  12 1641.09  350.89 
  -6  -2  12 2216.80  193.62 
  -6  -2  11 3970.68  589.28 
  -6  -2  11 4390.15  260.03 
  -6  -2  10  181.47   73.10 
  -6  -2  10   99.76   99.81 
  -6  -2   9 11438.6  1010.5 
  -6  -2   9 13207.2   471.9 
  -6  -2   8 13485.1  1101.7 
  -6  -2   8 13095.8   475.9 
  -6  -2   7 15839.2   524.2 
  -6  -2   7 16175.3  1198.9 
  -6  -2   6 32563.4  1699.1 
  -6  -2   5 6266.27  756.45 
  -6  -2   4 11677.4  1024.3 
  -6  -2   3 2990.32  535.57 
  -6  -2   2 34878.6  1826.0 
  -6  -2   1 16087.0  1245.2 
  -6   2   1 17001.6  1013.8 
  -6   2   0 31075.0  1467.4 
  -6  -2   0 25901.9  1601.1 
  -6   2  -1 17592.3  1174.4 
  -6  -2  -1 13128.6  1132.7 
  -6   2  -2  628.51  230.98 
  -6  -2  -2  532.80  263.44 
  -6   2  -3 3739.94  617.01 
  -6  -2  -3 3514.13  598.08 
   6  -2   4 3385.68  228.67 
  -6   2  -4 3131.24  572.44 
  -6  -2  -4 3521.18  205.15 
   6  -2   5 33502.9   778.6 
   6  -2   5 31961.5   688.2 
  -6  -2  -5 33594.8   645.9 
   6  -2   6  818.55  126.06 
   6  -2   6  789.98  109.44 
  -6   2  -6  918.75  336.82 
   6  -2   7 8543.40  397.15 
  -6   2  -7 7257.68  854.45 
   6  -2   7 8198.86  340.08 
   6  -2   8 4556.94  290.65 
   6  -2   8 4466.58  249.22 
   6  -2   9  634.82  114.80 
   6  -2   9  528.81   87.28 
   6  -2  10 2234.99  196.56 
   6  -2  10 2439.50  174.98 
   6  -2  11 6109.00  320.09 
   6  -2  11 6604.67  275.20 
   6  -2  12 2285.12  198.69 
   6  -2  12 2242.83  156.87 
   6  -2  13 5731.80  290.51 
   6  -2  13 5001.20  242.40 
   6  -2  14 6397.57  288.49 
   6  -2  14 5527.57  237.88 
   6  -2  15  101.08   44.65 
   6  -2  16  830.62   94.77 
   6  -2  17 4260.34  144.39 
   6  -2  17 4593.48  190.05 
   6  -2  18  661.16   66.65 
   6  -2  18  598.69   59.93 
   6  -2  18  658.82   54.24 
   6  -2  19 1442.32   82.33 
   6  -2  19 1343.45   72.55 
   6  -2  19 1491.06   66.29 
   6  -2  20 1185.09   59.91 
  -6  -3  20   13.40   10.27 
   6  -3 -20    9.75   12.34 
  -6  -3  19  700.34   49.66 
   6  -3 -19  695.32   61.34 
   6  -3 -18  462.98   58.66 
  -6  -3  18  470.95   47.58 
   6  -3 -17 3766.15  170.02 
  -6  -3  17 3198.81  132.67 
  -6  -3  16  205.63   41.72 
   6  -3 -16  123.38   36.74 
   6  -3 -15 4937.14  222.92 
  -6  -3  15 4425.22  183.48 
  -6  -3  14  -28.30   31.55 
   6  -3 -14  -11.85   38.16 
   6  -3 -13 2399.47  176.65 
  -6  -3  13 2413.93  155.37 
  -6  -3  12  302.24   60.02 
   6  -3 -12  285.59   70.37 
   6  -3 -11   11.41   39.72 
  -6  -3  11  -15.04   43.06 
  -6  -3  10  197.08   61.49 
   6  -3 -10  152.91   54.72 
   6  -3  -9  383.40   89.77 
  -6  -3   9  320.03   61.65 
  -6  -3   8   49.20   39.12 
   6  -3  -8   43.36   58.22 
   6  -3  -7 29466.6   731.9 
  -6  -3   7 30213.5   547.8 
   6  -3  -6  303.58   72.03 
  -6  -3   6  432.68   64.53 
   6  -3  -5 1233.89  159.55 
  -6  -3   5 1244.60  106.85 
   6  -3  -4 1763.66  183.35 
  -6  -3   4 1830.83  128.92 
   6  -3  -3 3338.30  252.24 
  -6  -3   3 3443.11  176.69 
   6  -3  -2   62.22   50.72 
   6  -3  -1 33784.2   787.3 
   6  -3   0  -13.97   61.43 
   6  -3   1   49.35   55.24 
   6  -3   2 1037.25  124.90 
   6  -3   3  -46.51   50.85 
   6  -3   4  114.39   55.33 
   6  -3   5 7105.31  302.21 
   6  -3   6  281.95   70.42 
   6  -3   7 4508.44  247.29 
   6  -3   7 6037.23  260.60 
   6  -3   8  181.63   59.71 
   6  -3   8  259.53   64.10 
   6  -3   9 3976.91  220.42 
   6  -3   9 5156.71  219.98 
   6  -3  10   33.58   29.30 
   6  -3  10   48.31   41.15 
   6  -3  11   66.79   32.78 
   6  -3  11   10.41   30.35 
   6  -3  12    6.39   25.95 
   6  -3  12   16.25   25.98 
   6  -3  13 10345.7   270.2 
   6  -3  14   25.16   20.94 
   6  -3  15  648.93   53.80 
   6  -3  16   -2.15   12.54 
  -6  -3 -16   36.29   13.55 
   6  -3  16   30.31   12.60 
   6  -4 -13  383.83   38.38 
   6  -4 -12  397.23   43.95 
   6  -4 -11  241.08   39.88 
   6  -4 -10   32.47   24.54 
   6  -4  -9   80.93   29.78 
   6  -4  -8  333.71   53.08 
   6  -4  -7   48.76   28.72 
   6  -4  -7   38.55   27.16 
   6  -4  -6 5004.29  202.01 
   6  -4  -6 5374.91  198.76 
   6  -4  -5    9.82   29.25 
   6  -4  -5   92.48   34.77 
   6  -4  -4  475.73   64.57 
   6  -4  -3   80.94   36.87 
   6  -4  -2 5918.42  217.92 
   6  -4  -1  479.89   63.98 
   6  -4   0 2555.84  141.47 
   6  -4   1  286.14   50.69 
   6  -4   2  684.51   72.99 
   6  -4   3  140.89   35.69 
   6  -4   4 2004.20  109.92 
   6  -4   5 1435.24   90.07 
   6  -4   6  103.19   30.78 
   6  -4   7  205.28   31.54 
  -6  -4  -7  208.06   26.98 
   6  -4   8 2529.63   97.62 
  -6  -4  -8 2741.42   82.66 
   7   0 -26 1116.52   63.53 
   7   0 -25  -12.48   18.59 
   7   0 -24  904.05   78.18 
   7   0 -23  -16.11   26.35 
   7   0 -22  309.81   55.08 
  -7   0  22  308.83   51.71 
  -7   0  21  -27.09   32.93 
  -7   0  20  971.00  102.19 
  -7   0  19   22.38   33.27 
  -7   0  18 33283.1   629.7 
  -7   0  18 34008.9   580.5 
  -7   0  17   50.32   46.61 
  -7   0  17    8.50   40.08 
  -7   0  16 9015.35  317.03 
  -7   0  16 8005.80  778.78 
  -7   0  16 8811.14  344.89 
  -7   0  15   10.12   42.63 
  -7   0  15   62.96  131.51 
  -7   0  14 24192.9  1387.3 
  -7   0  14 26676.9   609.3 
  -7   0  13  138.09  119.12 
  -7   0  13   13.08   43.00 
  -7   0  12 104175.   2995. 
  -7   0  11   60.85  187.10 
  -7   0  10 2516.31  493.50 
  -7   0   9  -71.78  192.60 
  -7   0   8 5744.27  750.44 
  -7   0   7  -41.39  150.03 
  -7   0   6 15572.9  1263.4 
  -7   0   5 -219.11  285.45 
  -7   0   4 172056.   3971. 
  -7   0   3  114.88  155.26 
  -7   0   2 3112.08  522.44 
  -7   0   1 -220.64  250.70 
  -7   0   0 10630.1   892.0 
  -7   0  -1   79.43  111.07 
  -7   0  -2 200178.   3844. 
  -7   0  -3  -12.81  189.38 
  -7   0  -4 2388.54  427.97 
  -7   0  -5   32.83  111.73 
  -7   0  -6   83.78  109.28 
  -7   0  -7   -6.99  132.76 
   7   0   8 80065.1  1153.2 
   7   0   8 81241.4  1268.2 
  -7   0  -8 79148.5  2450.3 
   7   0   9   -8.80   61.59 
   7   0   9  102.02   53.50 
  -7   0 -10 2258.58  432.37 
   7   0  10 1976.85  166.11 
   7   0  10 2342.66  224.31 
   7   0  11   38.70   57.46 
   7   0  11    6.83   37.19 
  -7   0 -11   91.16   87.11 
   7   0  12 7027.51  303.32 
   7   0  12 6761.20  362.07 
   7   0  13   12.99   55.69 
   7   0  13   -9.59   51.23 
   7   0  14 1871.37  142.26 
   7   0  14 1959.79  177.09 
   7   0  14 2047.10  189.18 
   7   0  15  -24.21   47.78 
   7   0  15  -73.91   63.73 
   7   0  16 20700.2   498.3 
   7   0  16 21778.1   541.8 
   7   0  17   25.09   35.24 
   7   0  18 2493.79  145.12 
   7   0  19  -12.87   27.90 
   7   0  20   27.46   19.95 
   7   0  21    2.49   10.93 
   7  -1 -25  352.21   40.04 
  -7  -1  25  313.56   32.62 
   7  -1 -24 1364.47   89.50 
  -7  -1  24 1341.60   80.48 
   7   1 -23  444.38   52.22 
   7  -1 -23  544.22   65.32 
  -7  -1  23  509.18   58.91 
  -7  -1  22  230.39   46.47 
   7   1 -22  292.92   46.73 
   7  -1 -22  285.91   50.43 
  -7  -1  21  138.85   41.21 
   7   1 -21  202.35   45.78 
   7  -1 -21  102.91   36.94 
  -7   1  21  144.28   42.25 
  -7  -1  20  435.24   69.41 
   7   1 -20  433.14   70.77 
   7  -1 -20  415.20   67.08 
  -7   1  20  448.13   80.92 
   7   1 -19 9213.50  308.78 
  -7   1  19 8703.10  316.80 
  -7  -1  19 8879.24  304.98 
   7   1 -18 1477.82  131.86 
  -7   1  18 1508.20  140.05 
  -7  -1  18 1395.39  131.95 
   7   1 -17 17449.7   454.6 
  -7   1  17 16947.5   470.5 
  -7  -1  17 16990.4   449.7 
   7   1 -16 5351.46  258.12 
  -7   1  16 5278.99  271.12 
  -7  -1  16 4930.68  251.76 
  -7  -1  15  263.26   69.93 
  -7  -1  15  424.25  171.73 
   7   1 -15  230.44   56.47 
  -7   1  15  263.37   77.86 
   7   1 -14 8368.68  342.02 
  -7  -1  14 8798.72  912.09 
  -7   1  14 7903.90  348.24 
  -7  -1  14 8300.26  341.09 
   7   1 -13 58522.2   922.2 
   7  -1 -13 58071.6   915.6 
  -7  -1  13 57450.0  2350.4 
  -7   1  13 55764.6   929.4 
  -7  -1  13 57123.0   908.6 
   7   1 -12 18598.2   535.0 
  -7  -1  12 17858.9  1330.8 
   7  -1 -12 17671.5   510.4 
  -7   1  12 17417.0   523.1 
  -7  -1  12 18315.1   520.7 
  -7  -1  11 18766.3  1375.0 
   7  -1 -11 19206.9   542.1 
  -7   1  11 18561.9   541.7 
  -7  -1  11 19125.0   536.1 
  -7  -1  10 12393.6  1122.6 
  -7  -1   9  702.59  318.66 
  -7  -1   8  669.17  299.35 
  -7  -1   7 6949.29  872.04 
  -7   1   6 8753.03  803.66 
  -7   1   6 7676.42  736.90 
  -7  -1   6 6836.51  865.58 
  -7   1   5 8861.15  793.09 
  -7   1   5 8254.02  802.26 
  -7   1   4 16006.7  1042.0 
  -7  -1   4 14437.0  1289.8 
  -7   1   3 26980.2  1326.5 
  -7  -1   3 30620.7  1848.2 
  -7   1   2 1647.93  359.28 
  -7   1   1 3826.39  520.70 
  -7   1   0 7235.86  744.64 
  -7   1  -1 50483.3  2017.1 
  -7  -1  -1 49103.2  2036.0 
  -7   1  -2 33806.6  1707.3 
  -7  -1  -2 30228.8  1537.0 
  -7   1  -3 91190.4  2838.1 
  -7  -1  -3 81043.2  2431.1 
  -7   1  -4 3640.45  572.03 
  -7  -1  -4 3986.98  520.25 
  -7   1  -5  481.62  218.60 
  -7  -1  -5  136.13   74.60 
   7  -1   6 2089.24  193.52 
  -7   1  -6 2177.65  478.57 
  -7  -1  -6 1816.89  334.49 
   7  -1   7 12606.2   471.2 
  -7   1  -7 12529.7  1078.1 
  -7  -1  -7 11194.0   823.6 
   7  -1   7 12035.3   475.0 
   7   1   7 11780.1   473.6 
   7  -1   8 15995.3   549.7 
   7  -1   8 16928.8   544.6 
  -7   1  -8 16660.5  1237.2 
   7   1   8 15773.2   551.1 
   7  -1   9 2299.48  212.89 
  -7   1  -9 2017.03  462.17 
   7  -1   9 2442.78  209.28 
   7   1   9 2356.52  215.55 
   7  -1  10  517.40  104.08 
   7   1  10  507.16  107.32 
   7  -1  10  472.95   91.98 
  -7   1 -10  189.51  130.37 
   7  -1  11 10844.0   431.4 
   7   1  11 10943.5   423.4 
   7   1  11 10281.1   425.8 
   7  -1  11 10662.5   432.8 
   7   1  12  375.79   90.37 
   7  -1  12  405.58   89.24 
   7  -1  12  526.40  107.29 
   7   1  12  491.97   98.16 
   7   1  13  162.22   68.31 
   7  -1  13   78.69   37.44 
   7  -1  13   46.37   49.67 
   7   1  13  112.33   42.81 
   7  -1  14 5780.00  273.18 
   7   1  14 6209.32  283.15 
   7   1  14 5957.81  296.44 
   7  -1  14 5868.32  289.69 
   7  -1  15  780.81   97.90 
   7  -1  15  773.32   98.84 
   7   1  15  827.57   98.19 
   7  -1  15  762.07  103.58 
   7  -1  16 2193.28  143.77 
   7   1  16 2126.42  144.75 
   7  -1  16 2262.90  159.09 
   7  -1  17 7716.18  238.50 
   7   1  17 7786.74  252.10 
   7  -1  17 8070.71  267.15 
   7  -1  18 1130.07   82.54 
   7  -1  18 1139.17   90.67 
   7  -1  19 1808.08   89.89 
   7  -1  19 1904.53   99.71 
   7  -1  20 1527.24   66.97 
   7  -1  20 1564.32   83.37 
   7  -1  21   13.62   10.99 
  -7  -2  23  444.51   44.38 
  -7  -2  22  129.39   31.79 
   7  -2 -22  118.50   20.93 
   7  -2 -21  989.60   75.26 
  -7  -2  21 1000.68   83.64 
   7  -2 -20 1857.22  117.74 
  -7  -2  20 2205.51  132.05 
   7  -2 -19 2110.08  136.09 
  -7  -2  19 2381.90  145.64 
  -7  -2  18 2583.87  162.05 
   7  -2 -18 2528.68  161.96 
  -7  -2  17  382.03   75.18 
   7  -2 -17  357.60   70.08 
  -7  -2  16 10096.2   346.8 
   7  -2 -16 9599.10  344.59 
   7  -2 -15 2386.87  180.78 
  -7  -2  15 2221.70  171.92 
   7  -2 -14 8624.95  348.75 
  -7  -2  14 9357.84  356.51 
   7  -2 -13 1222.81  136.88 
  -7  -2  13 1666.34  160.33 
  -7  -2  12 1069.51  133.07 
   7  -2 -12 1054.69  132.20 
  -7  -2  11  113.57   56.16 
  -7  -2  10 7890.14  889.78 
  -7  -2  10 7714.97  360.02 
  -7  -2   9 9696.85  975.82 
  -7  -2   9 8625.92  391.93 
  -7  -2   8 3304.77  593.56 
  -7  -2   8 2841.66  233.61 
  -7  -2   7 8555.16  944.09 
  -7  -2   7 8230.13  380.35 
  -7  -2   6  706.53  107.56 
  -7  -2   6  512.02  241.53 
  -7  -2   5   43.67   40.50 
  -7  -2   5  -49.91  236.45 
  -7  -2   4 4518.63  258.16 
  -7  -2   4 4310.26  660.68 
  -7  -2   3 23841.5  1589.7 
  -7  -2   3 31012.8   642.3 
  -7  -2   2 7834.10  924.74 
  -7  -2   2 11207.7   377.4 
  -7  -2   1 19363.0   482.9 
  -7  -2   1 14923.9  1252.9 
  -7  -2   0 25415.1   538.4 
  -7  -2   0 21877.8  1476.8 
   7  -2   1  805.23  108.63 
  -7   2  -1  840.86  227.35 
  -7  -2  -1  824.00  223.78 
  -7  -2  -1  846.67   96.14 
  -7   2  -2 5109.33  633.30 
   7  -2   2 4146.50  248.11 
  -7  -2  -2 3800.21  204.93 
  -7  -2  -2 5046.93  682.47 
  -7   2  -3 19480.2  1263.6 
  -7  -2  -3 18602.3   460.7 
   7  -2   3 18676.2   521.5 
  -7  -2  -3 20755.4  1354.3 
   7  -2   4 16660.1   486.2 
  -7  -2  -4 16258.7   433.5 
  -7  -2  -5 15135.6   421.9 
   7  -2   5 15313.6   505.7 
  -7   2  -5 16785.7  1207.1 
   7  -2   5 15256.7   455.8 
   7  -2   6 11458.4   436.3 
  -7   2  -6 11436.0  1008.4 
   7  -2   6 10716.2   374.8 
   7  -2   7  386.03   94.89 
   7  -2   7  404.56   82.75 
   7  -2   8 3828.93  247.64 
   7  -2   8 3336.42  198.23 
   7  -2   9 3656.87  235.92 
   7  -2   9 3490.91  198.39 
   7  -2  10  -94.89   70.35 
   7  -2  10  -51.29   44.69 
   7  -2  11 9165.30  355.15 
   7  -2  11 8886.49  292.16 
   7  -2  12  224.71   68.71 
   7  -2  13 1545.01  138.53 
   7  -2  13 1351.83  114.13 
   7  -2  14 3927.53  197.45 
   7  -2  14 3926.07  177.39 
   7  -2  15  622.01   74.17 
   7  -2  15  624.28   63.36 
   7  -2  16 1296.35   92.26 
   7  -2  16 1342.57   75.99 
   7  -2  17 6477.64  181.30 
   7  -2  17 6260.19  171.91 
   7  -2  17 6512.46  142.55 
   7  -2  18  735.33   55.00 
   7  -2  18  675.71   46.01 
   7  -2  19 2010.47   70.04 
  -7  -3  19   47.20   11.43 
   7  -3 -18  306.04   35.22 
  -7  -3  18  413.68   37.43 
   7  -3 -17 2595.43  122.42 
  -7  -3  17 2664.42  103.82 
  -7  -3  16  185.77   32.54 
   7  -3 -16  191.86   40.16 
   7  -3 -15 13217.1   328.9 
  -7  -3  15 13089.3   279.3 
  -7  -3  14   74.91   32.63 
   7  -3 -14   18.59   27.11 
   7  -3 -13  577.37   78.65 
  -7  -3  13  679.78   74.13 
  -7  -3  12   86.64   38.79 
   7  -3 -12   39.77   32.15 
   7  -3 -11 2256.17  170.89 
  -7  -3  11 2373.28  147.35 
   7  -3 -10   18.91   39.46 
  -7  -3  10   32.36   32.02 
   7  -3  -9 7992.39  335.96 
  -7  -3   9 8617.61  280.15 
   7  -3  -8  275.04   74.49 
  -7  -3   8  288.26   55.56 
   7  -3  -7 2935.43  212.72 
  -7  -3   7 2970.81  163.03 
   7  -3  -6  -67.99   56.81 
  -7  -3   6   18.36   25.65 
   7  -3  -5  140.54   62.28 
  -7  -3   5   96.44   30.50 
   7  -3  -4  608.97  106.51 
  -7  -3   4  451.74   63.77 
   7  -3  -3  486.42   87.42 
  -7  -3   3  503.03   68.15 
   7  -3  -2  -78.51   70.28 
  -7  -3   2   -6.67   34.02 
   7  -3  -1 27951.4   622.4 
  -7  -3   1 27405.8   478.7 
   7  -3   0  176.50   67.58 
  -7  -3   0   88.20   24.52 
   7  -3   1 1405.11  130.55 
   7  -3   1 1359.18  138.97 
  -7  -3  -1 1372.62  106.90 
   7  -3   2 3563.29  210.85 
   7  -3   2 3444.65  209.10 
   7  -3   3  288.39   63.50 
   7  -3   3  380.36   74.27 
   7  -3   4  -48.23   52.32 
   7  -3   4  -17.06   43.77 
   7  -3   5 15518.3   411.7 
   7  -3   5 14857.5   395.0 
   7  -3   6  431.17   68.16 
   7  -3   6  451.22   74.02 
   7  -3   7 1246.28  110.66 
   7  -3   7  998.35  108.79 
   7  -3   7 1192.52  108.31 
   7  -3   8  252.55   58.77 
   7  -3   8  314.96   56.78 
   7  -3   9  207.53   45.14 
   7  -3   9  211.28   45.68 
   7  -3  10  858.24   85.88 
   7  -3  10  781.93   74.78 
   7  -3  11 2152.13  123.01 
   7  -3  11 1954.24  105.50 
   7  -3  12  303.87   44.41 
   7  -3  13 2883.15  115.84 
   7  -3  14  409.10   38.67 
  -7  -3 -15 1871.03   67.52 
   7  -4 -12  131.73   21.05 
   7  -4 -11  -14.94   18.53 
   7  -4 -10 4117.03  125.48 
   7  -4  -9  215.51   32.53 
   7  -4  -8   80.42   24.78 
   7  -4  -7  530.92   53.24 
   7  -4  -6  611.97   59.85 
   7  -4  -5   -0.91   23.33 
   7  -4  -4  159.39   36.80 
   7  -4  -3   47.47   24.25 
   7  -4  -2 1846.70  102.32 
   7  -4  -1 1720.27   98.94 
   7  -4   0 4613.07  158.08 
   7  -4   1   32.24   22.67 
   7  -4   2   97.09   26.21 
   7  -4   3   79.94   25.19 
   7  -4   4 1869.61   88.45 
   7  -4   5  851.56   57.11 
   7  -4   6 2179.01   83.89 
   7  -4   7   28.84   14.18 
   8   0 -25    2.78   12.99 
   8   0 -24  707.78   67.80 
   8   0 -23   -4.31   27.23 
   8   0 -22 4798.63  201.22 
   8   0 -21   17.26   30.49 
   8   0 -20 3102.15  182.20 
   8   0 -19   33.33   45.71 
   8   0 -18 12302.0   392.4 
   8   0 -17  -21.56   41.84 
   8   0 -16 9326.40  370.14 
   8   0 -15  -22.76   53.08 
  -8   0  14  885.56  317.79 
   8   0 -14 1043.68  135.11 
  -8   0  13  169.24  195.29 
   8   0 -13   64.63   70.13 
  -8   0  12 76595.1  2689.5 
   8   0 -12 86476.6  1239.0 
  -8   0  11 -205.26  185.99 
   8   0 -11   -9.24   73.02 
  -8   0  10 9346.74  967.60 
   8   0 -10 11620.6   469.6 
  -8   0   9    8.43  193.34 
  -8   0   8 12373.1  1138.9 
  -8   0   7   83.29  173.78 
  -8   0   6 75726.4  2741.4 
  -8   0   5 -294.28  281.04 
  -8   0   4 7766.54  827.20 
  -8   0   3   51.50  168.52 
  -8   0   2  204.15  158.99 
  -8   0   1  -61.55  172.23 
  -8   0   0 48366.5  1927.3 
  -8   0  -1 -216.15  195.43 
  -8   0  -2 130564.   3112. 
  -8   0  -3 -161.10  213.00 
  -8   0  -4 11586.0   925.1 
   8   0   5  -14.70   37.99 
  -8   0  -5   44.79   88.60 
   8   0   6 1485.23  163.76 
   8   0   6 1647.53  157.55 
  -8   0  -6 1736.53  364.89 
   8   0   7   -9.22   43.81 
   8   0   7   80.72   51.86 
   8   0   8 47478.9   917.1 
   8   0   8 46548.9   823.0 
  -8   0  -8 47058.5  1859.2 
   8   0   9   21.72   39.78 
   8   0   9   17.70   48.90 
   8   0  10  326.11   91.45 
   8   0  11  -31.86   56.85 
   8   0  12  884.91  123.16 
   8   0  13   25.60   46.45 
   8   0  14 12424.3   378.2 
   8   0  14 13052.5   405.0 
   8   0  15   41.28   36.07 
   8   0  15   10.43   36.74 
   8   0  16 1157.37  102.25 
   8   0  17   13.59   25.78 
   8   0  18 5363.54  168.54 
   8   0  19   -0.75   14.97 
   8   0  20 1634.16   63.37 
   8  -1 -25 1553.81   66.99 
   8  -1 -24  682.28   58.23 
  -8  -1  24  619.54   45.26 
   8  -1 -23 1857.09  109.98 
  -8  -1  23 1681.27   92.25 
  -8  -1  22  350.52   50.04 
   8   1 -22  298.42   44.81 
   8  -1 -22  404.45   59.25 
   8   1 -21 2666.05  144.54 
   8  -1 -21 2945.62  164.13 
  -8  -1  21 2965.50  152.41 
  -8  -1  20  278.91   55.78 
   8   1 -20  253.15   52.62 
   8  -1 -20  238.94   56.77 
  -8  -1  19   26.04   37.97 
   8   1 -19  -50.25   38.40 
   8  -1 -19   27.61   40.46 
   8   1 -18 1947.42  151.45 
   8  -1 -18 2210.43  160.95 
  -8  -1  18 1971.33  147.29 
   8   1 -17  928.26  108.57 
   8  -1 -17  976.44  118.08 
  -8  -1  17 1047.39  115.22 
   8   1 -16 2390.59  181.37 
   8  -1 -16 2476.68  187.87 
  -8  -1  16 2081.76  168.89 
   8   1 -15 2233.97  181.20 
   8  -1 -15 2391.51  191.21 
  -8  -1  15 2507.04  189.17 
   8   1 -14 4166.25  254.55 
   8  -1 -14 4723.20  274.35 
  -8  -1  14 4558.38  258.65 
   8   1 -13 21532.7   596.2 
   8  -1 -13 23581.0   614.3 
  -8  -1  13 23856.0  1584.8 
  -8  -1  13 23563.3   597.6 
   8   1 -12 9880.42  413.12 
   8  -1 -12 10345.0   421.1 
  -8  -1  12 10991.6  1090.8 
  -8  -1  12 10847.2   414.0 
  -8  -1  11 24241.1  1630.2 
   8   1 -11 22579.9   631.4 
   8  -1 -11 23763.1   650.3 
  -8  -1  11 24668.1   633.8 
  -8  -1  10 1888.17  433.62 
   8   1 -10 2277.94  200.86 
   8  -1 -10 2094.30  193.55 
  -8  -1  10 1965.41  183.32 
  -8  -1   9 3983.24  698.81 
   8   1  -9 4821.16  288.54 
   8  -1  -9 4386.97  284.00 
  -8  -1   9 5008.41  293.28 
  -8  -1   8  363.19   71.31 
   8  -1  -8  516.28  106.00 
   8  -1  -7 32101.8   757.5 
  -8  -1   7 32149.5   725.7 
  -8  -1   6 12856.9  1202.4 
  -8   1   5 19792.5  1188.2 
  -8   1   5 20587.5  1254.8 
  -8  -1   5 18947.1  1451.5 
  -8   1   4 16180.6  1052.8 
  -8  -1   4 17013.6  1350.4 
  -8   1   3 1834.28  352.05 
  -8  -1   3 2702.58  544.38 
  -8   1   2  374.51  210.84 
  -8   1   1   50.03  105.60 
  -8   1   0 13010.8   999.0 
  -8   1  -1 1077.10  309.98 
  -8  -1  -2 22309.8   509.8 
   8  -1   2 20723.8   575.8 
  -8   1  -2 23393.5  1382.7 
   8   1   3 38149.0   797.4 
   8  -1   3 37473.9   784.2 
  -8   1  -3 41573.9  1860.3 
  -8  -1  -3 34242.7  1530.7 
  -8  -1  -3 37838.9   669.4 
  -8  -1  -4   -2.09   33.41 
   8   1   4  -14.97   44.55 
   8  -1   4  -47.27   65.91 
  -8   1  -4   87.30  134.13 
  -8  -1  -4  -91.60  106.65 
   8   1   5 5189.71  298.08 
   8  -1   5 5029.12  289.37 
   8  -1   5 4902.83  276.39 
  -8   1  -5 5631.31  681.84 
  -8  -1  -5 4574.64  544.91 
   8   1   6 22920.8   624.1 
   8  -1   6 22286.6   613.0 
   8  -1   6 21749.4   585.2 
  -8   1  -6 23880.7  1402.7 
  -8  -1  -6 21188.1  1134.6 
   8  -1   7 10151.8   417.3 
   8  -1   7 10112.1   399.2 
  -8   1  -7 11051.9   950.0 
  -8  -1  -7 10332.9   797.1 
   8   1   7 10728.8   428.0 
   8  -1   8 6392.39  315.74 
  -8   1  -8 6615.72  728.83 
   8  -1   8 6364.52  327.18 
   8   1   8 6497.68  334.11 
   8  -1   9 22618.1   575.9 
   8   1   9 23417.1   617.9 
   8  -1   9 22874.3   612.3 
   8  -1  10   96.06   51.98 
   8   1  10  228.76   72.62 
   8  -1  10  240.82   79.93 
   8   1  11  144.91   58.55 
   8  -1  11   78.59   41.65 
   8  -1  11  140.28   60.83 
   8   1  11  139.13   45.17 
   8  -1  12 4144.45  222.34 
   8   1  12 4744.57  236.58 
   8   1  12 4379.37  244.39 
   8  -1  12 4278.20  237.81 
   8  -1  13 1521.08  126.04 
   8   1  13 1713.22  136.81 
   8   1  13 1755.91  149.54 
   8  -1  13 1567.94  139.46 
   8   1  14 6329.85  260.54 
   8  -1  14 6203.31  234.04 
   8  -1  14 6410.32  259.71 
   8   1  14 6431.66  240.45 
   8  -1  14 6699.44  267.96 
   8  -1  15 1073.32   91.94 
   8   1  15 1072.50   90.49 
   8  -1  15 1139.49  105.29 
   8  -1  16  574.64   58.95 
   8   1  16  550.70   63.45 
   8  -1  16  663.88   72.91 
   8  -1  17 3953.77  136.97 
   8  -1  17 4251.62  154.79 
   8  -1  18  737.93   51.82 
   8  -1  18  702.32   56.30 
   8  -1  19  382.83   29.35 
   8  -1  19  492.18   42.38 
  -8  -2  23  141.29   20.25 
  -8  -2  22 1735.64   82.73 
   8  -2 -21  400.77   39.38 
  -8  -2  21  493.99   54.02 
   8  -2 -20  537.61   54.05 
  -8  -2  20  521.09   64.18 
   8  -2 -19  804.35   75.88 
  -8  -2  19  766.21   79.66 
  -8  -2  18   73.61   32.67 
   8  -2 -18   72.74   24.44 
   8  -2 -17 3362.03  179.23 
  -8  -2  17 3340.01  186.37 
   8  -2 -16 5012.22  232.40 
  -8  -2  16 4958.64  235.15 
   8  -2 -15 3886.04  212.56 
  -8  -2  15 3555.12  208.82 
   8  -2 -14 8924.18  331.08 
  -8  -2  14 8397.37  328.01 
   8  -2 -13 1714.10  151.41 
  -8  -2  13 1729.37  158.12 
   8  -2 -12 2201.07  173.98 
  -8  -2  12 1972.39  177.35 
   8  -2 -11 5977.84  282.90 
  -8  -2  11 5254.61  286.54 
   8  -2 -10 21110.6   534.9 
  -8  -2  10 18914.7   549.4 
   8  -2  -9 7132.16  311.10 
  -8  -2   9 6217.59  310.28 
  -8  -2   8 13389.7   451.1 
  -8  -2   7 3916.63  643.96 
  -8  -2   7 6881.16  320.23 
  -8  -2   6  949.27  317.08 
  -8  -2   6 1888.88  167.94 
  -8  -2   5  199.02  100.67 
  -8  -2   5  490.95   94.06 
  -8  -2   4 5968.93  789.64 
  -8  -2   4 7497.42  312.98 
  -8  -2   3 9623.34  986.06 
  -8  -2   3 11229.0   375.9 
  -8  -2   2  121.43   48.27 
  -8  -2   2   -6.29  216.28 
  -8  -2   1 16611.8   439.9 
  -8  -2   1 16222.3  1240.9 
  -8  -2   0 2459.08  458.74 
   8  -2   0 2700.22  193.29 
  -8  -2   0 2523.68  170.68 
   8  -2   1  177.69   55.43 
  -8   2  -1  430.21  239.26 
  -8  -2  -1  274.09  165.90 
  -8  -2  -1  224.74   49.60 
   8  -2   2 2298.92  176.35 
  -8   2  -2 2142.43  389.27 
  -8  -2  -2 2728.31  450.64 
  -8  -2  -2 2048.79  151.09 
   8  -2   3 12956.4   405.7 
  -8  -2  -3 12403.7   370.3 
   8  -2   4 8291.18  348.44 
   8  -2   4 8963.61  327.78 
  -8  -2  -4 7842.98  293.20 
   8  -2   5 3204.84  220.88 
   8  -2   5 3472.44  198.83 
   8  -2   6 15314.2   469.2 
   8  -2   6 16022.8   416.8 
   8  -2   7  545.76   92.76 
   8  -2   7  464.86   70.86 
   8  -2   8 4921.73  250.90 
   8  -2   8 5221.51  224.65 
   8  -2   9 4871.15  240.56 
   8  -2   9 5173.05  215.14 
   8  -2  10 6790.55  271.89 
   8  -2  10 6453.43  271.72 
   8  -2  10 6757.68  232.53 
   8  -2  11 4505.62  218.81 
   8  -2  12  606.75   82.41 
   8  -2  12  642.17   73.86 
   8  -2  13  477.25   68.46 
   8  -2  13  534.84   62.10 
   8  -2  14  256.02   47.07 
   8  -2  14  301.64   43.29 
   8  -2  15 1241.02   82.09 
   8  -2  15 1105.24   63.53 
   8  -2  16   28.60   18.22 
   8  -2  17 1339.77   63.84 
  -8  -3  18  458.69   31.98 
  -8  -3  17   16.88   12.73 
  -8  -3  16  392.53   37.69 
  -8  -3  15 3266.32  118.92 
  -8  -3  14  188.43   34.73 
  -8  -3  13  145.61   34.42 
  -8  -3  12 2853.59  134.91 
  -8  -3  11 4056.69  166.86 
  -8  -3  10 1242.91   95.44 
  -8  -3   9 11148.8   286.5 
  -8  -3   8   28.69   25.43 
  -8  -3   7 1335.10  101.38 
  -8  -3   6 3906.65  169.51 
  -8  -3   5  355.04   54.35 
  -8  -3   4 1433.61  101.77 
   8  -3  -3 8534.64  316.75 
  -8  -3   3 7902.89  240.61 
   8  -3  -2  193.94   49.14 
  -8  -3   2  203.85   33.25 
   8  -3  -1 4439.98  223.67 
  -8  -3   1 4282.50  176.92 
   8  -3   0  190.77   55.29 
  -8  -3   0  178.00   37.79 
   8  -3   1 2655.16  163.42 
   8  -3   1 2629.96  165.97 
  -8  -3  -1 2563.95  133.41 
   8  -3   2  593.39   80.61 
   8  -3   2  615.18   79.83 
   8  -3   3  461.07   68.63 
   8  -3   3  414.78   64.69 
   8  -3   4   25.54   29.59 
   8  -3   4   29.44   31.71 
   8  -3   5 10865.4   300.6 
   8  -3   5 10908.7   292.7 
   8  -3   6   39.97   33.86 
   8  -3   6   49.49   24.21 
   8  -3   7 1000.61   91.12 
   8  -3   7  984.10   82.69 
   8  -3   8 1967.61  120.44 
   8  -3   8 1878.04  105.64 
   8  -3   9    4.88   20.41 
   8  -3   9   75.61   26.27 
   8  -3  10   80.70   25.39 
   8  -3  11 3482.78  124.58 
   8  -3  12   14.15   13.54 
   8  -3  13   25.71   11.08 
   8  -4 -10 2051.46   69.18 
   8  -4  -9  786.20   46.49 
   8  -4  -8 1753.34   73.79 
   8  -4  -7  321.64   34.91 
   8  -4  -6   92.20   21.41 
   8  -4  -5   75.09   21.44 
   8  -4  -4 2131.85   91.06 
   8  -4  -3  298.82   36.11 
   8  -4  -2   21.90   14.47 
   8  -4  -1  824.31   55.32 
   8  -4   0 2815.20   99.84 
   8  -4   1   31.05   13.90 
   8  -4   2   37.64   15.02 
   8  -4   3  126.64   20.42 
   8  -4   4  294.31   26.98 
   9   0 -24  447.19   42.96 
   9   0 -23   19.73   20.23 
   9   0 -22 5003.64  193.63 
   9   0 -21   28.09   29.76 
   9   0 -20 13373.6   369.5 
   9   0 -19  -46.11   52.61 
   9   0 -18  618.94   98.27 
   9   0 -17   19.87   45.88 
   9   0 -16  761.39  114.94 
   9   0 -15   36.94   50.69 
   9   0 -14 12236.4   465.3 
   9   0 -13  -10.96   55.04 
  -9   0  12 19385.4  1360.2 
   9   0 -12 21063.8   636.2 
  -9   0  11 -292.55  184.47 
   9   0 -11  -35.32   47.39 
  -9   0  10 1970.95  447.20 
   9   0 -10 2043.36  200.59 
   9   0  -9   29.15   52.10 
  -9   0   9 -121.64  237.47 
   9   0  -8 2362.67  215.75 
  -9   0   8 2154.40  426.24 
   9   0  -7   18.56   54.37 
  -9   0   7 -176.24  196.99 
   9   0  -6 91785.8  1302.9 
  -9   0   6 95476.1  2959.8 
   9   0  -5  -21.22   68.98 
  -9   0   5 -172.52  177.54 
   9   0  -4 1915.84  186.71 
  -9   0   4 1691.38  396.08 
   9   0  -3  -14.99   41.64 
  -9   0   3   88.63  161.53 
   9   0  -2 5890.55  315.30 
  -9   0   2 6396.58  723.76 
   9   0  -1   20.42   47.78 
  -9   0   1   -0.84  179.94 
   9   0   0 68100.7  1061.3 
  -9   0   0 69042.0   861.9 
   9   0   1   16.38   40.48 
  -9   0  -1  126.48  123.29 
  -9   0  -1  -19.17   41.53 
   9   0   2 15096.7   491.2 
  -9   0  -2 10787.9   925.3 
   9   0   3   19.05   39.62 
   9   0   3  -58.01   64.00 
  -9   0  -3  -71.49  115.96 
   9   0   4 12055.5   437.7 
   9   0   4 12479.1   409.0 
  -9   0  -4 12317.8   948.1 
   9   0   5  -34.88   40.07 
   9   0   5    6.36   41.10 
  -9   0  -5   26.89   65.71 
   9   0   6 3433.52  236.07 
   9   0   6 3323.36  212.05 
  -9   0  -6 3532.70  501.95 
   9   0   7  -35.35   49.36 
   9   0   7   -9.57   48.40 
   9   0   8 28879.7   599.0 
   9   0   8 29527.3   663.6 
   9   0   9  -75.95   55.85 
   9   0  10 9156.00  354.71 
   9   0  11   60.04   50.15 
   9   0  12  709.82   99.08 
   9   0  13   58.97   36.93 
   9   0  13   -4.30   31.40 
   9   0  14 11103.3   299.1 
   9   0  14 11577.2   320.0 
   9   0  15  -20.09   27.70 
   9   0  15  -23.64   29.09 
   9   0  16 1543.33   92.09 
   9   0  17   -3.77   14.26 
   9   0  18 2361.53   85.74 
   9  -1 -24    5.95    9.32 
   9  -1 -23 1538.42   82.64 
  -9  -1  23 1412.00   59.45 
   9  -1 -22   70.38   29.87 
  -9  -1  22    5.05   17.86 
   9   1 -21 9609.09  222.70 
   9  -1 -21 9841.16  268.14 
  -9  -1  21 9422.69  234.18 
  -9  -1  20  309.65   52.64 
   9   1 -20  366.61   53.43 
   9  -1 -20  328.92   60.86 
   9   1 -19 3526.34  169.62 
   9  -1 -19 3074.21  179.28 
  -9  -1  19 3256.04  164.42 
   9   1 -18 5644.19  230.84 
   9  -1 -18 5660.42  254.63 
  -9  -1  18 5278.15  224.54 
   9   1 -17  972.42  104.67 
   9  -1 -17 1081.62  122.23 
  -9  -1  17  861.01   98.41 
  -9  -1  16   98.36   50.81 
   9   1 -16  206.63   72.05 
   9  -1 -16  166.59   60.22 
   9   1 -15 3570.71  215.83 
   9  -1 -15 3646.86  236.01 
  -9  -1  15 3531.98  215.30 
   9   1 -14 2991.37  205.19 
   9  -1 -14 2996.98  218.12 
  -9  -1  14 2906.10  202.72 
  -9  -1  13  -44.53   62.95 
   9   1 -13  -71.19   49.89 
   9  -1 -13   46.63   45.04 
   9   1 -12 4880.51  271.01 
   9  -1 -12 4733.74  286.49 
  -9  -1  12 4620.15  263.87 
   9   1 -11 9984.05  391.26 
   9  -1 -11 9198.83  396.28 
  -9  -1  11 9364.34  381.69 
  -9  -1  10  337.60   74.40 
  -9  -1  10  124.75  192.78 
   9   1 -10  338.69   77.18 
   9  -1 -10  336.75   79.05 
  -9  -1   9  851.00  114.73 
   9   1  -9 1108.16  139.23 
   9  -1  -9  779.72  117.98 
  -9  -1   9  997.67  357.32 
   9   1  -8 1242.16  139.33 
   9  -1  -8 1188.02  142.18 
  -9  -1   8 1184.34  132.01 
  -9  -1   8  911.34  225.88 
   9   1  -7 35654.9   749.3 
   9  -1  -7 34167.1   759.8 
  -9  -1   7 34232.5   685.0 
   9   1  -6 13305.2   455.2 
   9  -1  -6 12886.9   464.3 
  -9  -1   6 13743.7   421.1 
   9   1  -5 30190.3   679.1 
   9  -1  -5 29522.3   699.8 
  -9  -1   5 29779.8   617.3 
   9   1  -4 3532.25  226.83 
   9  -1  -4 3475.12  240.08 
  -9   1   4 3957.84  534.58 
  -9  -1   4 3320.46  201.81 
  -9  -1   4 4510.04  681.30 
   9   1  -3  338.88   69.62 
   9  -1  -3  387.50   82.97 
  -9   1   3  473.52  161.88 
  -9  -1   3  609.11  207.31 
  -9  -1   3  378.39   69.30 
   9   1  -2 8100.61  349.29 
   9  -1  -2 8221.98  358.81 
  -9   1   2 9416.96  812.76 
  -9  -1   2 9495.20  951.58 
  -9  -1   2 8174.03  310.26 
   9   1  -1 36399.7   737.5 
   9  -1  -1 35575.1   746.7 
  -9   1   1 37742.3  1658.7 
  -9  -1   1 36674.2   657.5 
   9   1   0 26850.2   632.8 
   9  -1   0 25012.9   624.1 
  -9   1   0 27966.2  1443.0 
  -9  -1   0 26700.0   558.0 
   9   1   1 4244.69  253.88 
   9  -1   1 4272.75  258.81 
  -9   1  -1 4660.59  595.56 
  -9  -1  -1 4213.67  224.11 
   9   1   2 3116.48  217.71 
   9  -1   2 2806.70  213.04 
  -9   1  -2 3057.16  490.76 
  -9  -1  -2 3009.48  186.48 
   9   1   3 3125.18  219.54 
   9  -1   3 3046.42  218.37 
  -9   1  -3 3583.30  526.05 
  -9  -1  -3 3208.25  192.59 
   9   1   4 9960.93  384.87 
   9  -1   4 9562.11  377.35 
   9  -1   4 9747.82  377.99 
  -9   1  -4 10170.1   872.5 
   9  -1   5  148.99   60.62 
   9  -1   5   86.61   52.60 
   9   1   6 4539.55  255.85 
   9  -1   6 4264.17  251.60 
   9  -1   6 4415.88  255.10 
   9  -1   7 2467.77  191.44 
   9  -1   7 2249.38  175.53 
   9   1   7 2414.09  181.93 
   9  -1   8 8192.56  325.38 
   9   1   8 8592.02  343.93 
   9  -1   8 8323.69  337.29 
   9  -1   9 13402.6   404.3 
   9   1   9 13740.2   421.4 
   9  -1   9 13490.1   419.0 
   9  -1  10  -61.87   45.21 
   9   1  10   49.87   35.47 
   9  -1  10   23.35   33.76 
   9   1  10   61.20   34.78 
   9   1  11  207.03   43.88 
   9  -1  11  281.53   59.61 
   9  -1  11  180.47   46.55 
   9   1  11  280.31   54.58 
   9  -1  12 4934.28  202.33 
   9   1  12 5128.26  204.92 
   9   1  12 5126.06  222.36 
   9  -1  12 5002.36  218.77 
   9  -1  13 2064.83  122.49 
   9   1  13 2340.42  129.35 
   9   1  13 2299.42  141.62 
   9  -1  13 2488.53  145.77 
   9  -1  14 4445.23  163.37 
   9   1  14 4304.86  159.06 
   9  -1  14 4694.49  184.39 
   9  -1  14 4745.28  183.02 
   9  -1  15 4918.26  154.14 
   9   1  15 5015.53  154.42 
   9  -1  15 5204.25  174.92 
   9  -1  16   17.03   15.62 
   9  -1  16   12.54   15.19 
   9  -1  17  280.57   27.89 
   9  -1  17  281.03   31.09 
   9  -1  18 2227.76   69.61 
   9  -1  18 2247.38   75.33 
  -9  -2  21 1538.73   70.28 
   9  -2 -20 1886.76   78.20 
  -9  -2  20 2811.27  110.16 
  -9  -2  19   90.94   26.73 
   9  -2 -19  145.25   25.02 
   9  -2 -18 8017.68  216.57 
  -9  -2  18 7966.87  227.18 
  -9  -2  17  416.49   60.84 
   9  -2 -17  524.38   63.54 
   9  -2 -16 2019.23  127.51 
  -9  -2  16 1808.85  126.85 
   9  -2 -15 4808.85  208.03 
  -9  -2  15 4377.72  204.40 
  -9  -2  14  167.62   55.08 
   9  -2 -14  170.17   46.88 
   9  -2 -13 3849.67  202.31 
  -9  -2  13 3487.97  195.82 
   9  -2 -12 1169.27  115.17 
  -9  -2  12 1194.64  119.50 
   9  -2 -11 1670.08  138.80 
  -9  -2  11 1672.66  143.11 
   9  -2 -10 4040.42  219.13 
  -9  -2  10 3894.45  215.15 
   9  -2  -9 3963.35  219.64 
  -9  -2   9 3706.49  212.43 
   9  -2  -8 5123.95  248.28 
  -9  -2   8 5032.45  247.60 
   9  -2  -7 2224.87  164.63 
  -9  -2   7 2498.29  175.97 
   9  -2  -6 5637.28  261.82 
  -9  -2   6 5683.97  261.67 
  -9  -2   5 1980.58  154.63 
  -9  -2   4 24091.4   525.7 
  -9  -2   3 3607.16  203.01 
  -9  -2   2 5092.36  238.07 
  -9  -2   1 1711.27  138.10 
  -9  -2   0  139.61   49.35 
  -9  -2  -1 1415.54  124.81 
  -9  -2  -2 2750.01  169.12 
   9  -2   3 7790.84  319.75 
  -9  -2  -3 7864.21  280.71 
   9  -2   4  354.81   82.75 
   9  -2   5 5111.66  251.67 
   9  -2   6  736.56  102.35 
   9  -2   7  156.82   57.04 
   9  -2   8 1994.26  142.80 
   9  -2   9 5101.51  215.33 
   9  -2  10 1658.80  119.34 
   9  -2  11 2714.76  141.74 
   9  -2  12 3891.99  155.30 
   9  -2  12 3838.69  141.86 
   9  -2  13    7.98   18.49 
   9  -2  13   15.22   13.52 
   9  -2  14  351.68   39.08 
   9  -2  14  252.35   27.59 
   9  -2  15 2163.22   81.01 
   9  -2  16  645.18   36.74 
  -9  -3  17 2308.04   63.32 
  -9  -3  16    3.03    8.44 
  -9  -3  15  487.88   38.76 
  -9  -3  14    6.01   13.44 
  -9  -3  13   13.72   15.29 
  -9  -3  12  178.06   31.38 
  -9  -3  11  208.86   37.53 
  -9  -3  10  166.43   35.80 
  -9  -3   9 7853.31  214.47 
  -9  -3   8  131.43   31.33 
  -9  -3   7  588.48   61.80 
  -9  -3   6  555.43   60.68 
   9  -3  -5 1680.39  120.59 
  -9  -3   5 1584.63   99.40 
   9  -3  -4  -81.37   43.67 
  -9  -3   4  -35.47   39.92 
   9  -3  -3 17370.0   380.5 
  -9  -3   3 16571.1   319.0 
   9  -3  -2  438.64   62.99 
  -9  -3   2  359.68   46.38 
   9  -3  -1  -18.65   27.77 
   9  -3  -1  -25.15   27.22 
  -9  -3   1  -17.20   26.67 
   9  -3   0  765.92   83.63 
   9  -3   0  871.87   83.43 
   9  -3   1   52.15   28.46 
   9  -3   1   63.66   29.53 
   9  -3   2  -29.37   25.71 
   9  -3   2   40.85   24.43 
   9  -3   3 3188.02  149.20 
   9  -3   3 3179.88  141.26 
   9  -3   4  208.83   40.97 
   9  -3   4  241.93   40.82 
   9  -3   5 4260.93  157.60 
   9  -3   5 4340.70  150.41 
   9  -3   6  913.67   76.41 
   9  -3   6  869.99   63.96 
   9  -3   7 1365.84   86.57 
   9  -3   7 1342.83   74.77 
   9  -3   8   66.02   24.50 
   9  -3   9  181.42   27.93 
   9  -3  10  421.26   36.80 
   9  -3  11 5529.44  112.41 
  10   0 -23  -13.95   16.46 
  10   0 -22 3017.49  120.61 
  10   0 -21   -1.28   20.38 
  10   0 -20 10291.7   277.3 
  10   0 -19   -4.18   39.00 
  10   0 -18 3872.42  198.57 
  10   0 -17   45.68   44.28 
  10   0 -16 5807.84  273.98 
  10   0 -15   44.24   44.93 
  10   0 -14 18361.9   522.2 
  10   0 -13  -77.71   60.58 
  10   0 -12   17.17   53.27 
  10   0 -11  -80.80   61.93 
  10   0 -10 3881.77  255.90 
  10   0  -9   10.54   57.49 
 -10   0   8 4545.97  622.46 
  10   0  -8 3680.85  253.67 
  10   0  -7  -23.35   53.46 
 -10   0   7 -497.20  211.85 
  10   0  -6 36585.8   791.4 
 -10   0   6 37942.7  1762.4 
  10   0  -5  -30.75   70.96 
 -10   0   5  -23.94   45.11 
  10   0  -4 6837.50  338.18 
 -10   0   4 6661.02  252.90 
 -10   0   4 7018.13  764.84 
  10   0  -3  -33.59   59.60 
 -10   0   3  -76.76  147.92 
 -10   0   3   38.06   30.56 
  10   0  -2  230.74   70.28 
 -10   0   2  189.63   52.19 
  10   0  -1  -40.82   65.38 
 -10   0   1  -19.36   35.45 
  10   0   0 35400.2   756.6 
 -10   0   0 35140.7   605.0 
  10   0   1   18.09   42.23 
 -10   0  -1  142.43  121.65 
  10   0   2 29035.9   672.3 
  10   0   2 28931.1   604.2 
  10   0   3  -28.17   45.43 
  10   0   3   28.56   43.92 
  10   0   4  258.03   54.51 
  10   0   4  254.69   70.94 
  10   0   5   -7.18   35.99 
  10   0   5   24.22   41.94 
  10   0   6 18458.9   495.9 
  10   0   6 18140.9   449.2 
  10   0   7   10.82   29.01 
  10   0   7    9.53   49.20 
  10   0   8 3566.98  210.77 
  10   0   9   -9.19   42.41 
  10   0  10 5852.52  248.67 
  10   0  11   23.20   35.20 
  10   0  12 5696.99  207.19 
  10   0  12 5670.88  214.91 
  10   0  13  -23.82   23.49 
  10   0  13   -3.12   20.83 
  10   0  14 8926.35  217.81 
  10   0  14 8973.33  229.28 
  10   0  15   11.69   16.24 
  10   0  16 4795.03  123.45 
  10   0  17  -20.93   10.99 
  10  -1 -22   18.08   16.24 
  10  -1 -21 4006.56  141.96 
 -10  -1  21 3688.02  104.04 
  10   1 -20 4640.59  141.31 
  10  -1 -20 4779.69  172.22 
 -10  -1  20 4849.48  141.06 
  10   1 -19 3853.02  146.42 
  10  -1 -19 3910.61  170.60 
 -10  -1  19 3980.89  144.04 
 -10  -1  18   82.52   28.51 
  10   1 -18   68.15   20.07 
  10  -1 -18  129.54   44.57 
  10   1 -17  658.32   73.34 
  10  -1 -17  592.57   78.13 
 -10  -1  17  638.73   71.23 
 -10  -1  16  167.65   37.31 
  10   1 -16  110.89   29.68 
  10  -1 -16  186.50   57.07 
  10   1 -15 19239.7   437.1 
  10  -1 -15 19239.2   478.2 
 -10  -1  15 19403.2   426.8 
  10   1 -14 2141.85  154.04 
  10  -1 -14 2134.32  167.40 
 -10  -1  14 2377.02  158.20 
  10   1 -13 3970.96  217.32 
  10  -1 -13 3748.98  227.67 
 -10  -1  13 4080.81  210.83 
  10   1 -12 1840.29  153.47 
  10  -1 -12 1675.65  150.07 
 -10  -1  12 1924.73  147.44 
  10   1 -11   66.89   53.69 
  10  -1 -11   48.06   44.92 
 -10  -1  11  -44.78   42.04 
  10   1 -10  107.83   58.01 
  10  -1 -10  -17.51   56.60 
 -10  -1  10  -53.39   39.38 
  10   1  -9 3321.97  216.01 
  10  -1  -9 3176.47  220.34 
 -10  -1   9 3278.11  197.14 
  10   1  -8 2929.82  204.45 
  10  -1  -8 2662.83  201.90 
 -10  -1   8 2858.66  181.29 
  10   1  -7 1498.79  145.28 
  10  -1  -7 1435.72  152.59 
 -10  -1   7 1461.88  132.90 
  10   1  -6 12308.6   417.4 
  10  -1  -6 11777.2   421.8 
 -10  -1   6 11783.6   361.2 
  10   1  -5 12132.6   416.3 
  10  -1  -5 11593.7   416.9 
 -10  -1   5 11674.1   360.5 
  10   1  -4 1839.28  164.18 
  10  -1  -4 1981.77  177.55 
 -10  -1   4 1749.79  139.41 
  10   1  -3  717.10  103.29 
  10  -1  -3  625.24  100.25 
 -10   1   3  885.48  286.74 
 -10  -1   3  875.57  100.28 
  10   1  -2 5467.95  275.17 
  10  -1  -2 5289.49  284.16 
 -10  -1   2 5158.72  235.10 
  10   1  -1 16707.9   485.9 
  10  -1  -1 16826.8   500.2 
 -10  -1   1 16803.2   429.1 
  10   1   0 20301.3   533.3 
  10  -1   0 19813.2   540.4 
 -10  -1   0 21291.8   485.4 
  10   1   1 23364.8   569.7 
  10  -1   1 23562.7   583.6 
 -10  -1  -1 23891.2   516.5 
  10   1   2  632.88   97.54 
  10  -1   2  679.98  100.39 
 -10  -1  -2  538.47   80.86 
  10  -1   3  671.46  104.73 
  10   1   3  685.28   99.83 
  10  -1   3  615.16   95.97 
  10  -1   4  241.84   65.20 
  10   1   4  219.34   62.46 
  10  -1   4  343.31   75.20 
  10   1   5 5341.76  258.06 
  10  -1   5 5338.09  257.26 
  10  -1   5 5611.05  268.38 
  10  -1   6 6612.85  280.71 
  10  -1   6 7335.51  296.03 
  10   1   6 6792.34  286.13 
  10  -1   7 2184.45  156.89 
  10   1   7 2317.36  162.58 
  10  -1   7 2228.97  162.59 
  10  -1   8 1607.38  132.21 
  10   1   8 1562.51  130.21 
  10  -1   8 1630.56  135.57 
  10  -1   9 4802.52  214.85 
  10   1   9 4761.29  193.65 
  10   1   9 4419.25  207.24 
  10  -1   9 4833.54  217.07 
  10  -1  10  681.17   74.77 
  10   1  10  704.94   70.56 
  10   1  10  573.47   72.10 
  10  -1  10  651.10   76.90 
  10   1  11   20.26   27.25 
  10  -1  11  -67.44   35.83 
  10  -1  11   16.52   25.55 
  10   1  11  -31.97   22.50 
  10  -1  12 2293.07  114.32 
  10   1  12 2187.89  105.56 
  10   1  12 2183.70  120.38 
  10  -1  12 2359.48  123.54 
  10  -1  13  164.28   33.95 
  10  -1  13  153.68   28.61 
  10   1  13  141.65   25.39 
  10  -1  13  181.39   40.10 
  10  -1  14  853.27   55.97 
  10   1  14  836.30   52.37 
  10  -1  14  868.90   65.25 
  10  -1  15 4643.86  106.43 
  10  -1  15 4780.68  127.46 
  10  -1  16  586.31   37.67 
 -10  -2  20  252.86   25.03 
 -10  -2  19   64.92   16.91 
  10  -2 -18 3533.18  112.61 
 -10  -2  18 3864.06  123.67 
  10  -2 -17 1763.59   90.80 
 -10  -2  17 1633.71   88.60 
  10  -2 -16 3123.67  132.54 
 -10  -2  16 3323.67  135.61 
  10  -2 -15  893.63   77.53 
 -10  -2  15  967.30   79.88 
  10  -2 -14 2622.18  137.86 
 -10  -2  14 2506.34  132.36 
  10  -2 -13  182.77   41.36 
 -10  -2  13  223.71   47.07 
  10  -2 -12 4117.09  186.92 
 -10  -2  12 3987.22  178.81 
  10  -2 -11 2594.06  153.46 
 -10  -2  11 2374.85  143.51 
  10  -2 -10  244.28   47.64 
 -10  -2  10  296.66   63.44 
  10  -2  -9 3827.98  194.02 
 -10  -2   9 4054.13  193.63 
  10  -2  -8  347.78   59.61 
 -10  -2   8  369.44   62.01 
  10  -2  -7  742.42   87.03 
 -10  -2   7  753.27   88.70 
  10  -2  -6  265.33   55.43 
 -10  -2   6  211.54   49.83 
  10  -2  -5 10949.6   339.5 
 -10  -2   5 11275.3   329.5 
  10  -2  -4 3696.47  195.73 
 -10  -2   4 3723.83  187.01 
  10  -2  -3 12362.3   357.7 
 -10  -2   3 12280.7   344.5 
  10  -2  -2 12775.7   360.4 
 -10  -2   2 13788.7   363.6 
  10  -2  -1  866.78   89.63 
 -10  -2   1 1074.05  102.30 
 -10  -2   0 1281.04  113.13 
 -10  -2  -1 4463.45  202.61 
  10  -2   2 2959.39  185.69 
 -10  -2  -2 3139.33  166.67 
  10  -2   3 7465.83  286.39 
  10  -2   4 1363.68  127.53 
  10  -2   5 1826.60  135.74 
  10  -2   6    6.24   38.91 
  10  -2   7  573.79   74.08 
  10  -2   8  659.00   72.86 
  10  -2   9 5804.91  193.53 
  10  -2  10  130.83   33.44 
  10  -2  11 1259.93   78.11 
  10  -2  11 1245.00   70.04 
  10  -2  12 1891.90   85.83 
  10  -2  12 1822.80   72.16 
  10  -2  13  790.28   48.76 
  10  -2  14  135.94   17.38 
 -10  -3  15   87.44   13.38 
 -10  -3  14  301.47   26.73 
 -10  -3  13  970.14   51.39 
  10  -3 -12   42.69   11.96 
 -10  -3  12   24.29   13.07 
  10  -3 -11 4335.55  126.21 
 -10  -3  11 4681.72  129.25 
  10  -3 -10  602.01   48.51 
 -10  -3  10  666.55   51.74 
  10  -3  -9 2478.16  106.26 
 -10  -3   9 2610.06  106.00 
  10  -3  -8  256.92   36.80 
 -10  -3   8  263.62   34.04 
  10  -3  -7   62.74   25.52 
 -10  -3   7   78.91   25.10 
  10  -3  -6  127.42   28.09 
 -10  -3   6   92.04   26.11 
  10  -3  -5   14.16   22.01 
 -10  -3   5    4.05   17.47 
  10  -3  -4  209.30   31.39 
 -10  -3   4  318.03   40.02 
  10  -3  -3 8345.35  230.74 
  10  -3  -3 8096.69  201.98 
  10  -3  -2  -51.48   36.03 
  10  -3  -2  -35.66   28.68 
 -10  -3   2  -64.29   32.23 
  10  -3  -1 1167.32   85.77 
  10  -3  -1 1069.57   70.78 
  10  -3   0  618.86   62.37 
  10  -3   0  573.27   49.47 
  10  -3   1  327.98   46.83 
  10  -3   1  276.68   33.00 
  10  -3   2  307.60   39.50 
  10  -3   3 7327.92  185.61 
  10  -3   4  323.44   38.84 
  10  -3   5   91.17   23.51 
  10  -3   6   78.78   19.55 
  10  -3   7  148.34   23.30 
  10  -3   8  -11.95   10.89 
  11   0 -22 4031.04  103.23 
  11   0 -21  -20.29   17.82 
  11   0 -20 1077.06   74.71 
  11   0 -19  -13.22   19.25 
  11   0 -18   65.66   31.93 
  11   0 -17   -5.70   30.66 
  11   0 -16 1131.36  104.43 
  11   0 -15  -15.96   32.19 
  11   0 -14 15190.7   419.8 
  11   0 -13  -59.77   40.08 
  11   0 -12 3898.27  226.34 
  11   0 -11  -21.33   47.29 
  11   0 -10 4509.50  252.39 
  11   0  -9   -4.38   43.48 
  11   0  -8 30632.1   663.7 
  11   0  -7    4.64   46.56 
  11   0  -6 4031.55  247.96 
  11   0  -5   77.35   57.69 
  11   0  -4   80.83   47.72 
 -11   0   4   63.65   35.12 
  11   0  -3  -23.65   54.08 
 -11   0   3  -58.09   36.83 
  11   0  -2 17952.2   519.7 
 -11   0   2 17043.8   385.9 
  11   0  -1  -56.85   74.26 
  11   0   0 34554.7   707.9 
  11   0   0 33964.9   617.2 
  11   0   1    7.21   37.75 
  11   0   1   14.15   44.92 
  11   0   2  700.56   89.05 
  11   0   2  644.76   98.72 
  11   0   3  106.12   35.30 
  11   0   3  -31.90   45.02 
  11   0   4  502.57   76.04 
  11   0   4  362.05   77.85 
  11   0   5  -20.90   46.24 
  11   0   5   28.20   39.10 
  11   0   6 26059.7   535.1 
  11   0   6 26078.6   468.6 
  11   0   7  -13.63   42.66 
  11   0   8  339.31   65.78 
  11   0   9   22.52   32.98 
  11   0  10  498.77   63.40 
  11   0  11   -0.26   23.05 
  11   0  11  -26.29   24.33 
  11   0  12 6229.11  177.39 
  11   0  12 6213.48  182.65 
  11   0  13  -38.16   21.63 
  11   0  13   -6.90   13.59 
  11   0  14  447.81   37.76 
  11  -1 -21    4.76    9.81 
  11  -1 -20  382.88   40.99 
  11  -1 -19 1812.48   96.29 
 -11  -1  19 1631.78   66.67 
  11   1 -18  435.79   43.65 
 -11  -1  18  482.57   42.08 
  11   1 -17   25.15   22.50 
  11  -1 -17    8.11   27.30 
 -11  -1  17   20.47   13.87 
  11   1 -16    9.49   17.31 
  11  -1 -16   29.77   32.47 
 -11  -1  16   25.54   19.39 
  11   1 -15 5180.76  192.43 
  11  -1 -15 5432.64  222.49 
 -11  -1  15 5157.31  174.87 
  11   1 -14 2491.49  141.73 
  11  -1 -14 2720.14  166.17 
 -11  -1  14 2670.80  134.11 
  11   1 -13 9151.42  285.28 
  11  -1 -13 9307.99  313.59 
 -11  -1  13 9165.63  259.99 
  11   1 -12 3072.57  172.69 
  11  -1 -12 3169.07  189.75 
 -11  -1  12 3000.07  154.25 
  11   1 -11 1187.49  111.21 
  11  -1 -11 1209.32  122.66 
 -11  -1  11 1251.09  104.48 
  11   1 -10   85.83   29.12 
  11  -1 -10  159.42   50.81 
 -11  -1  10   92.69   36.32 
  11   1  -9 13413.9   390.2 
  11  -1  -9 13289.7   404.9 
 -11  -1   9 13160.3   340.9 
  11   1  -8 6064.69  267.85 
  11  -1  -8 5578.61  265.65 
 -11  -1   8 5852.69  226.84 
  11   1  -7 5702.51  260.99 
  11  -1  -7 5489.49  261.48 
 -11  -1   7 5505.56  221.45 
  11   1  -6 5301.32  258.39 
  11  -1  -6 5189.62  256.15 
 -11  -1   6 4798.89  208.91 
  11   1  -5 2097.10  163.83 
  11  -1  -5 1901.15  157.55 
 -11  -1   5 1801.16  131.58 
  11   1  -4  406.61   76.61 
  11  -1  -4  408.79   80.81 
 -11  -1   4  392.55   59.32 
  11   1  -3  501.90   81.49 
  11  -1  -3  592.01   94.60 
 -11  -1   3  636.74   84.04 
  11   1  -2 2861.55  192.43 
  11  -1  -2 2792.32  192.56 
 -11  -1   2 2796.09  164.92 
  11   1  -1  245.45   57.28 
  11  -1  -1  176.38   57.75 
 -11  -1   1  141.01   39.15 
  11   1   0  134.82   45.40 
  11  -1   0   58.86   50.33 
 -11  -1   0  129.22   38.59 
  11   1   1 15283.7   423.1 
  11  -1   1 15830.1   440.3 
 -11  -1  -1 15529.1   385.9 
  11  -1   2  518.12   81.85 
  11   1   2  493.71   78.53 
  11  -1   2  543.07   88.23 
  11  -1   3  112.53   49.42 
  11   1   3   39.77   32.95 
  11  -1   3  114.07   49.18 
  11  -1   4 1364.00  121.45 
  11  -1   4 1375.34  125.70 
  11   1   4 1302.63  117.84 
  11  -1   5 6941.74  262.51 
  11  -1   5 7588.97  275.45 
  11   1   5 7302.25  267.20 
  11  -1   6 5118.99  216.07 
  11   1   6 4895.80  212.39 
  11  -1   6 4576.32  207.26 
  11  -1   7 9098.12  280.32 
  11   1   7 8824.43  272.62 
  11  -1   7 9337.95  284.31 
  11   1   8  270.31   48.51 
  11  -1   8  275.20   48.01 
  11  -1   8  274.04   46.42 
  11  -1   9  606.68   62.04 
  11   1   9  604.97   67.59 
  11  -1   9  627.67   67.64 
  11  -1  10 2775.68  117.65 
  11   1  10 2678.19  124.87 
  11  -1  10 2667.64  124.77 
  11  -1  11  410.49   41.63 
  11   1  11  429.34   47.84 
  11  -1  11  426.70   47.75 
  11  -1  12 3736.07  107.72 
  11  -1  12 3945.55  130.38 
  11  -1  12 3756.89  122.49 
  11  -1  13  703.65   48.70 
  11  -1  14    6.51    8.87 
 -11  -2  18  227.95   23.02 
 -11  -2  17  741.04   46.59 
  11  -2 -16 1562.23   70.84 
 -11  -2  16 2012.29   83.24 
  11  -2 -15  460.24   43.98 
 -11  -2  15  537.23   47.38 
  11  -2 -14 1478.19   83.90 
 -11  -2  14 1409.67   80.27 
  11  -2 -13 1237.49   81.93 
 -11  -2  13 1289.08   81.61 
  11  -2 -12 6513.16  198.84 
 -11  -2  12 6161.15  184.16 
  11  -2 -11 2886.42  136.12 
 -11  -2  11 2669.37  127.30 
  11  -2 -10 3093.04  147.15 
 -11  -2  10 3089.43  140.80 
  11  -2  -9 2057.72  125.24 
 -11  -2   9 2139.21  121.72 
  11  -2  -8 1015.40   88.32 
 -11  -2   8  962.97   85.16 
  11  -2  -7   57.81   21.08 
 -11  -2   7   57.37   35.92 
  11  -2  -6 2513.34  142.59 
 -11  -2   6 2558.93  139.49 
  11  -2  -5 5370.97  208.04 
 -11  -2   5 5268.85  201.49 
  11  -2  -4  370.41   52.70 
 -11  -2   4  308.78   54.74 
  11  -2  -3 3402.82  165.77 
 -11  -2   3 3361.70  161.61 
  11  -2  -2 2100.26  129.07 
 -11  -2   2 2333.07  137.12 
  11  -2  -1  -10.17   32.50 
 -11  -2   1   -4.27   35.67 
  11  -2   0 1612.99  107.56 
  11  -2   0 1625.01  122.18 
 -11  -2   0 1648.32  112.41 
  11  -2   1 8164.67  276.73 
  11  -2   2 3942.22  185.95 
  11  -2   3 1376.83  107.74 
  11  -2   4 7075.62  233.15 
  11  -2   5   86.05   34.72 
  11  -2   6   34.21   29.59 
  11  -2   7 4074.42  151.26 
  11  -2   7 3867.60  145.89 
  11  -2   8 1830.36   93.78 
  11  -2   9 3310.87  115.51 
  11  -2  10 1058.60   58.86 
  11  -2  10 1050.01   51.76 
  11  -2  11  136.80   21.40 
 -11  -3  12   12.84    8.69 
 -11  -3  11 2986.13   79.40 
 -11  -3  10   56.49   13.83 
 -11  -3   9  145.43   21.70 
 -11  -3   8   61.70   16.08 
 -11  -3   7  492.05   39.80 
  11  -3  -6  106.57   22.16 
 -11  -3   6  105.40   20.22 
  11  -3  -5 3845.49  124.45 
 -11  -3   5 3929.84  113.45 
  11  -3  -4    3.19   17.71 
  11  -3  -3 2147.35   93.46 
  11  -3  -2   14.84   20.30 
  11  -3  -1  171.43   27.50 
  11  -3   0  401.45   38.70 
  11  -3   1  227.98   27.91 
  11  -3   2  210.27   24.86 
  11  -3   3 3842.42  103.92 
  11  -3   4  -12.82   11.42 
  12   0 -20  142.23   20.63 
  12   0 -19  -11.95   13.37 
  12   0 -18 2522.49  107.69 
  12   0 -17    0.06   20.83 
  12   0 -16 2119.72  115.94 
  12   0 -15  -41.79   35.74 
  12   0 -14 8406.16  260.24 
  12   0 -13  -44.03   40.18 
  12   0 -12  146.29   50.51 
  12   0 -11  -37.17   46.15 
  12   0 -10  169.45   51.92 
  12   0  -9   32.48   43.68 
  12   0  -8 35857.8   637.6 
  12   0  -7  -85.32   55.25 
  12   0  -6 1391.03  131.60 
  12   0  -5   46.71   43.96 
  12   0  -4  216.77   61.28 
  12   0  -3    0.13   41.60 
  12   0  -2 9930.33  346.33 
  12   0  -1   32.77   41.07 
  12   0   0 6065.40  266.69 
  12   0   1   54.71   45.75 
  12   0   2   41.94   43.70 
  12   0   3   17.33   33.90 
  12   0   4 3060.49  173.66 
  12   0   5  -17.42   42.65 
  12   0   6 15586.6   358.8 
  12   0   7  -37.28   31.26 
  12   0   8 3385.33  147.60 
  12   0   9   18.04   17.68 
  12   0  10 1795.96   87.11 
  12   0  10 1830.66   93.49 
  12   0  11  -17.77   14.89 
  12   0  11   14.05   12.60 
  12   0  12 3718.16   93.78 
  12  -1 -19  835.22   48.45 
  12  -1 -18    6.45   15.93 
  12  -1 -17  624.88   53.93 
 -12  -1  17  561.61   36.03 
  12   1 -16  371.70   38.78 
  12  -1 -16  352.04   47.29 
 -12  -1  16  388.31   34.23 
  12   1 -15   48.82   19.46 
 -12  -1  15   13.79   11.55 
  12   1 -14 1281.11   83.06 
  12  -1 -14 1429.12  100.91 
 -12  -1  14 1267.59   73.77 
  12   1 -13 2022.13  110.42 
  12  -1 -13 2211.67  130.43 
 -12  -1  13 2067.11   98.82 
  12   1 -12  275.03   45.22 
  12  -1 -12  263.25   51.95 
 -12  -1  12  236.70   36.77 
  12   1 -11  154.85   39.44 
  12  -1 -11  151.17   42.94 
 -12  -1  11  120.96   29.46 
  12   1 -10  294.00   50.30 
  12  -1 -10  339.86   58.63 
 -12  -1  10  302.56   48.06 
  12   1  -9 8117.13  263.81 
  12  -1  -9 7497.32  263.23 
 -12  -1   9 7727.19  223.35 
  12   1  -8 3894.32  185.81 
  12  -1  -8 4077.05  197.29 
 -12  -1   8 3885.74  161.22 
  12   1  -7 8677.36  285.22 
  12  -1  -7 8487.51  290.73 
 -12  -1   7 8055.15  235.32 
  12   1  -6  657.25   80.59 
  12  -1  -6  752.75   91.17 
 -12  -1   6  577.92   65.90 
  12   1  -5  225.41   57.54 
  12  -1  -5  195.23   56.29 
 -12  -1   5  217.35   44.28 
  12   1  -4 2131.97  145.88 
  12  -1  -4 2375.22  156.12 
 -12  -1   4 2118.65  125.83 
  12   1  -3 5974.13  241.28 
  12  -1  -3 6325.37  255.17 
 -12  -1   3 5952.09  210.24 
  12   1  -2 3831.09  193.37 
  12  -1  -2 3957.37  201.48 
 -12  -1   2 3632.69  164.81 
  12   1  -1 2973.18  168.39 
  12  -1  -1 3089.67  177.31 
  12  -1  -1 3030.34  172.13 
  12   1   0 4254.44  199.18 
  12  -1   0 4593.74  213.60 
  12  -1   0 4522.46  206.35 
  12  -1   1  290.88   49.59 
  12   1   1  200.90   39.45 
  12  -1   1  281.25   56.44 
  12   1   2 1449.74  109.76 
  12  -1   2 1761.88  125.62 
  12  -1   2 1731.51  124.64 
  12  -1   3  449.99   68.15 
  12   1   3  298.48   51.67 
  12  -1   3  377.60   61.87 
  12  -1   4 6130.71  215.29 
  12   1   4 5717.93  207.68 
  12  -1   4 5986.28  215.50 
  12  -1   5   15.40   24.11 
  12   1   5   70.56   29.43 
  12  -1   5   16.95   24.67 
  12  -1   6 3741.82  153.94 
  12   1   6 3422.97  144.96 
  12  -1   6 3576.48  153.33 
  12  -1   7 5290.72  158.46 
  12   1   7 5161.53  167.15 
  12  -1   7 5359.38  174.08 
  12   1   8   65.09   20.17 
  12  -1   8   71.95   24.18 
  12  -1   8  125.06   24.34 
  12   1   9   69.67   20.38 
  12  -1   9   92.11   22.43 
  12  -1   9   77.57   15.74 
  12  -1  10 3009.02  103.19 
  12  -1  10 2809.71   95.77 
  12  -1  11  436.26   35.16 
 -12  -2  16  -16.38    8.62 
 -12  -2  15   72.60   14.88 
 -12  -2  14   21.89   12.46 
  12  -2 -13  -12.15    7.11 
 -12  -2  13  636.33   45.66 
  12  -2 -12 1403.90   70.45 
 -12  -2  12 1326.16   69.48 
  12  -2 -11 1108.55   67.29 
 -12  -2  11 1002.10   63.37 
  12  -2 -10 3982.99  134.24 
 -12  -2  10 4065.59  131.26 
  12  -2  -9  834.34   62.83 
 -12  -2   9  904.50   66.01 
  12  -2  -8  308.93   40.17 
 -12  -2   8  295.47   41.63 
  12  -2  -7 1587.07   91.54 
 -12  -2   7 1625.36   91.73 
  12  -2  -6 4741.39  159.37 
 -12  -2   6 4657.09  156.34 
  12  -2  -5 3075.92  129.08 
 -12  -2   5 2974.25  127.26 
  12  -2  -4 3287.86  133.12 
 -12  -2   4 3203.63  133.42 
  12  -2  -3  728.17   60.52 
 -12  -2   3  797.69   67.02 
  12  -2  -2 1326.65   81.02 
  12  -2  -2 1270.13   95.62 
 -12  -2   2 1192.11   81.97 
  12  -2  -1  989.76   82.29 
  12  -2   0 1261.21   92.14 
  12  -2   1 3653.17  151.03 
  12  -2   2   37.06   24.37 
  12  -2   3 3246.84  131.67 
  12  -2   4  577.15   54.36 
  12  -2   5   -2.68   18.78 
  12  -2   6  159.45   27.88 
  12  -2   7 3390.49  101.53 
  12  -2   8  983.25   47.88 
  13   0 -17   11.31   11.00 
  13   0 -16 8447.63  177.41 
  13   0 -15   12.28   16.53 
  13   0 -14  150.41   32.56 
  13   0 -13  -15.62   23.69 
  13   0 -12  718.55   69.32 
  13   0 -11  -13.02   25.88 
  13   0 -10 2114.97  127.35 
  13   0  -9  -44.53   38.22 
  13   0  -8 8067.58  258.38 
  13   0  -7  -27.61   34.20 
  13   0  -6 1743.06  123.50 
  13   0  -5  -20.61   35.64 
  13   0  -4  316.36   58.61 
  13   0  -3  -34.55   44.91 
  13   0  -2 21517.1   433.2 
  13   0  -1  -37.15   44.57 
  13   0   0 3118.12  161.18 
  13   0   1  -63.83   38.17 
  13   0   2  970.87   87.28 
  13   0   3  -13.73   31.83 
  13   0   4 12315.0   281.4 
  13   0   5   14.37   21.60 
  13   0   6 1687.57   92.97 
  13   0   7   -6.15   15.16 
  13   0   8 2689.57   87.00 
  13   0   8 2826.79  100.71 
  13   0   9    0.88   10.46 
  13  -1 -16  608.11   43.10 
  13  -1 -15 1446.33   72.57 
  13  -1 -14 1100.22   68.69 
 -13  -1  14  809.12   40.25 
  13   1 -13  141.81   23.51 
  13  -1 -13  147.58   29.71 
 -13  -1  13  100.69   18.38 
  13   1 -12   92.00   20.00 
  13  -1 -12   45.48   22.87 
 -13  -1  12   26.78   13.70 
  13   1 -11  956.63   65.50 
  13  -1 -11 1061.50   80.82 
 -13  -1  11  971.51   58.49 
  13   1 -10 2817.49  117.70 
  13  -1 -10 2874.36  133.91 
 -13  -1  10 2747.34  103.91 
  13   1  -9  193.98   36.67 
  13  -1  -9  106.58   28.70 
 -13  -1   9  145.84   24.34 
  13   1  -8 2651.05  123.35 
  13  -1  -8 2814.05  138.96 
 -13  -1   8 2530.53  107.43 
  13   1  -7 4825.96  170.59 
  13  -1  -7 4641.92  180.25 
 -13  -1   7 4346.35  143.87 
  13   1  -6  109.87   25.15 
  13  -1  -6  123.42   27.99 
 -13  -1   6  147.31   27.88 
  13   1  -5   23.36   24.25 
  13  -1  -5  -12.35   27.80 
 -13  -1   5   -6.74   17.28 
  13   1  -4  638.91   64.00 
  13  -1  -4  615.64   68.19 
  13   1  -3 4041.94  162.46 
  13  -1  -3 4102.12  169.70 
  13  -1  -3 4017.61  160.04 
  13   1  -2 5448.51  186.19 
  13  -1  -2 5646.79  197.36 
  13  -1  -2 5713.53  189.95 
  13   1  -1 5097.30  177.16 
  13  -1  -1 5340.08  189.96 
  13  -1  -1 5376.41  182.47 
  13   1   0  546.51   56.98 
  13  -1   0  546.73   60.36 
  13  -1   0  516.83   56.15 
  13  -1   1  233.12   39.81 
  13   1   1  249.17   39.65 
  13  -1   1  177.54   32.31 
  13  -1   2  628.18   59.84 
  13  -1   2  646.00   58.61 
  13   1   2  599.55   56.21 
  13  -1   3 2817.52  117.80 
  13   1   3 2687.76  114.45 
  13  -1   3 2922.73  125.01 
  13  -1   4 3365.14  120.83 
  13   1   4 3282.32  120.29 
  13  -1   4 3503.96  130.71 
  13  -1   5  944.34   54.46 
  13   1   5 1033.44   63.49 
  13  -1   5 1057.74   67.69 
  13  -1   6  550.25   36.63 
  13   1   6  599.57   44.01 
  13  -1   6  582.90   46.08 
  13  -1   7 1661.04   69.45 
  13  -1   8 1310.17   57.23 
 -13  -2  12   29.94    8.03 
 -13  -2  11 1060.18   47.96 
 -13  -2  10   -1.51   10.56 
 -13  -2   9  292.53   29.79 
 -13  -2   8   81.79   17.16 
 -13  -2   7 1530.95   68.99 
  13  -2  -6 1536.87   79.81 
 -13  -2   6 1459.22   68.52 
  13  -2  -5 1688.52   84.52 
  13  -2  -4  600.33   50.35 
  13  -2  -3  106.08   26.93 
  13  -2  -2   96.25   24.28 
  13  -2  -1  281.33   34.66 
  13  -2   0 2210.92   88.86 
  13  -2   1  847.91   53.39 
  13  -2   2  926.89   52.67 
  13  -2   3  465.26   35.32 
  13  -2   4    2.26    7.55 
  14   0 -14  404.93   31.92 
  14   0 -13   -8.88   15.18 
  14   0 -12  663.58   49.53 
  14   0 -11  -14.61   18.60 
  14   0 -10 8024.91  190.59 
  14   0  -9  -15.10   20.06 
  14   0  -8   -3.20   18.79 
  14   0  -7   -9.21   19.87 
  14   0  -6   28.49   23.99 
  14   0  -5   -2.73   23.84 
  14   0  -4 2680.32  121.00 
  14   0  -3  -54.03   34.39 
  14   0  -2 4184.87  148.05 
  14   0  -1  -20.29   22.34 
  14   0   0 1092.91   73.53 
  14   0   1  -10.22   15.09 
  14   0   2   60.52   21.89 
  14   0   3   14.17   13.32 
  14   0   4 5586.46  132.55 
  14   0   5   24.61   11.82 
  14  -1 -13  220.71   22.98 
  14  -1 -12   11.24   10.39 
  14  -1 -11 3815.60  108.35 
  14  -1 -10  960.76   58.02 
  14  -1 -10  780.14   42.74 
  14  -1  -9 1072.96   63.30 
  14  -1  -9  990.48   52.05 
  14  -1  -8 1010.94   63.32 
  14  -1  -8  998.51   54.39 
  14  -1  -7  210.79   25.65 
  14   1  -7  227.86   25.55 
  14  -1  -7  286.86   35.58 
  14  -1  -6  229.34   30.97 
  14   1  -6  197.99   26.04 
  14  -1  -6  212.88   31.76 
  14  -1  -5  197.53   27.55 
  14   1  -5  210.93   27.34 
  14  -1  -5  219.55   28.96 
  14   1  -4 1916.14   78.02 
  14  -1  -4 2124.42   93.83 
  14  -1  -4 2072.85   83.62 
  14  -1  -3  219.30   25.65 
  14   1  -3  215.79   25.33 
  14  -1  -3  281.79   34.22 
  14  -1  -2 1244.56   69.67 
  14  -1  -2 1113.93   58.78 
  14   1  -2 1082.54   56.92 
  14  -1  -1 3007.93  105.91 
  14  -1  -1 2956.25   92.81 
  14   1  -1 2709.08   88.74 
  14  -1   0   -3.39    9.44 
  14   1   0  -10.58    9.35 
  14  -1   0  -12.42   13.92 
  14  -1   1   40.53   14.36 
  14  -1   2 1165.60   57.58 
  14  -1   3 2506.46   76.28 
  15   0  -7   -7.72   11.00 
  15   0  -6   28.97   11.13 
  15   0  -5  -30.45    9.22 
  15   0  -4 5532.76  115.99 
  15   0  -3  -11.77   12.14 
;
loop_
_symmetry_equiv_pos_as_xyz
x,y,z
-x,-y,-z
x,-y,z+1/2
-x,y,-z+1/2
loop_
_atom_site_label
_atom_site_type_symbol
_atom_site_fract_x
_atom_site_fract_y
_atom_site_fract_z
_atom_site_U_iso_or_equiv
_atom_site_occupancy
_atom_site_adp_type
_atom_site_refinement_flags_posn
_atom_site_refinement_flags_adp
_atom_site_refinement_flags_occupancy
_atom_site_disorder_assembly
_atom_site_disorder_group
_atom_site_attached_hydrogens
Br1 Br 0.44656(3) 0.39792(11) 0.420614(18) 0.0602 1.0000 Uani . . . . . .
Br2 Br 0.35062(3) 0.25787(10) 0.280248(17) 0.0597 1.0000 Uani . . . . . .
C1 C 0.3233(3) 0.4141(9) 0.35607(15) 0.0500 1.0000 Uani . . . . . .
C2 C 0.2203(3) 0.5317(9) 0.36395(14) 0.0490 1.0000 Uani . . . . . .
C3 C 0.2035(3) 0.6557(10) 0.42247(15) 0.0498 1.0000 Uani . . . . . .
C4 C 0.1938(3) 0.7630(9) 0.47188(16) 0.0508 1.0000 Uani . . . . . .
C5 C 0.1890(3) 0.8908(9) 0.53216(15) 0.0500 1.0000 Uani . . . . . .
C6 C 0.0943(3) 0.8425(10) 0.55963(16) 0.0527 1.0000 Uani . . . . . .
C7 C 0.0935(3) 0.9659(11) 0.61811(17) 0.0560 1.0000 Uani . . . . . .
C8 C 0.1865(4) 1.1340(11) 0.64989(16) 0.0575 1.0000 Uani . . . . . .
C9 C 0.2826(3) 1.1788(12) 0.62351(17) 0.0576 1.0000 Uani . . . . . .
C10 C 0.2836(3) 1.0589(10) 0.56449(16) 0.0525 1.0000 Uani . . . . . .
C11 C 0.1274(3) 0.5332(10) 0.31391(14) 0.0506 1.0000 Uani . . . . . .
C12 C 0.0460(3) 0.5373(10) 0.27343(15) 0.0517 1.0000 Uani . . . . . .
H61 H 0.0325 0.7302 0.5389 0.0627 1.0000 Uiso R . . . . .
H71 H 0.0303 0.9382 0.6359 0.0668 1.0000 Uiso R . . . . .
H81 H 0.1845 1.2176 0.6888 0.0691 1.0000 Uiso R . . . . .
H91 H 0.3458 1.2891 0.6456 0.0691 1.0000 Uiso R . . . . .
H101 H 0.3463 1.0917 0.5464 0.0628 1.0000 Uiso R . . . . .
loop_
_atom_site_aniso_label
_atom_site_aniso_U_11
_atom_site_aniso_U_22
_atom_site_aniso_U_33
_atom_site_aniso_U_23
_atom_site_aniso_U_13
_atom_site_aniso_U_12
Br1 0.0493(3) 0.0677(3) 0.0605(3) -0.00128(15) 0.00107(17) 0.00271(14)
Br2 0.0658(3) 0.0627(3) 0.0535(3) -0.00404(14) 0.01847(18) 0.00337(14)
C1 0.0495(15) 0.0551(18) 0.0447(14) -0.0008(11) 0.0066(12) -0.0032(12)
C2 0.0480(14) 0.0548(17) 0.0441(14) 0.0010(12) 0.0076(11) -0.0019(12)
C3 0.0499(14) 0.0535(17) 0.0450(15) 0.0001(13) 0.0059(11) -0.0003(13)
C4 0.0509(15) 0.055(2) 0.0469(16) 0.0021(12) 0.0093(12) 0.0038(12)
C5 0.0514(15) 0.0527(18) 0.0453(15) 0.0038(12) 0.0071(12) 0.0059(12)
C6 0.0532(15) 0.0539(17) 0.0506(16) 0.0023(13) 0.0080(12) 0.0019(13)
C7 0.0597(17) 0.0589(19) 0.0522(16) 0.0066(14) 0.0176(13) 0.0061(14)
C8 0.0679(19) 0.062(2) 0.0428(14) -0.0010(13) 0.0098(13) 0.0094(16)
C9 0.0559(17) 0.0641(19) 0.0509(17) -0.0048(15) 0.0037(13) -0.0014(16)
C10 0.0498(15) 0.0593(19) 0.0482(15) 0.0015(13) 0.0079(12) 0.0017(13)
C11 0.0512(15) 0.0579(18) 0.0435(14) 0.0007(12) 0.0103(13) -0.0001(13)
C12 0.0494(15) 0.0615(19) 0.0441(14) 0.0013(13) 0.0080(13) -0.0009(13)
loop_
_atom_type_symbol
_atom_type_scat_dispersion_real
_atom_type_scat_dispersion_imag
_atom_type_scat_Cromer_Mann_a1
_atom_type_scat_Cromer_Mann_b1
_atom_type_scat_Cromer_Mann_a2
_atom_type_scat_Cromer_Mann_b2
_atom_type_scat_Cromer_Mann_a3
_atom_type_scat_Cromer_Mann_b3
_atom_type_scat_Cromer_Mann_a4
_atom_type_scat_Cromer_Mann_b4
_atom_type_scat_Cromer_Mann_c
_atom_type_scat_source
C 0.0181 0.0091 2.3100 20.8439 1.0200 10.2075 1.5886 0.5687 0.8650 51.6512
0.2156 'International Tables Vol C 4.2.6.8 and 6.1.1.4'
H 0.0000 0.0000 0.4930 10.5109 0.3229 26.1257 0.1402 3.1424 0.0408 57.7998
0.0030 'International Tables Vol C 4.2.6.8 and 6.1.1.4'
Br -0.6763 1.2805 17.1789 2.1723 5.2358 16.5796 5.6377 0.2609 3.9851 41.4328
2.9557 'International Tables Vol C 4.2.6.8 and 6.1.1.4'
loop_
_geom_angle_atom_site_label_1
_geom_angle_site_symmetry_1
_geom_angle_atom_site_label_2
_geom_angle_site_symmetry_2
_geom_angle_atom_site_label_3
_geom_angle_site_symmetry_3
_geom_angle
_geom_angle_publ_flag
Br2 . C1 . Br1 . 115.59(18) yes
Br2 . C1 . C2 . 122.4(2) yes
Br1 . C1 . C2 . 122.0(2) yes
C1 . C2 . C3 . 120.7(3) yes
C1 . C2 . C11 . 120.4(3) yes
C3 . C2 . C11 . 118.8(3) yes
C2 . C3 . C4 . 177.4(4) yes
C3 . C4 . C5 . 176.8(4) yes
C4 . C5 . C6 . 121.7(3) yes
C4 . C5 . C10 . 118.6(3) yes
C6 . C5 . C10 . 119.7(3) yes
C5 . C6 . C7 . 119.9(3) yes
C5 . C6 . H61 . 120.0 no
C7 . C6 . H61 . 120.1 no
C6 . C7 . C8 . 120.5(3) yes
C6 . C7 . H71 . 119.9 no
C8 . C7 . H71 . 119.6 no
C7 . C8 . C9 . 120.3(3) yes
C7 . C8 . H81 . 119.5 no
C9 . C8 . H81 . 120.1 no
C8 . C9 . C10 . 119.6(3) yes
C8 . C9 . H91 . 119.9 no
C10 . C9 . H91 . 120.6 no
C5 . C10 . C9 . 120.1(3) yes
C5 . C10 . H101 . 119.9 no
C9 . C10 . H101 . 120.0 no
C2 . C11 . C12 . 177.2(3) yes
C12 4_555 C12 . C11 . 178.9(4) yes
loop_
_geom_bond_atom_site_label_1
_geom_bond_site_symmetry_1
_geom_bond_atom_site_label_2
_geom_bond_site_symmetry_2
_geom_bond_distance
_geom_bond_publ_flag
Br1 . C1 . 1.865(3) yes
Br2 . C1 . 1.868(3) yes
C1 . C2 . 1.362(5) yes
C2 . C3 . 1.430(5) yes
C2 . C11 . 1.424(5) yes
C3 . C4 . 1.196(5) yes
C4 . C5 . 1.435(5) yes
C5 . C6 . 1.394(5) yes
C5 . C10 . 1.399(5) yes
C6 . C7 . 1.383(5) yes
C6 . H61 . 0.916 no
C7 . C8 . 1.382(6) yes
C7 . H71 . 0.920 no
C8 . C9 . 1.393(6) yes
C8 . H81 . 0.926 no
C9 . C10 . 1.390(5) yes
C9 . H91 . 0.934 no
C10 . H101 . 0.921 no
C11 . C12 . 1.202(5) yes
C12 . C12 4_555 1.374(7) yes

_cod_database_fobs_code 1551448
