#------------------------------------------------------------------------------
#$Date: 2019-06-11 10:05:08 +0300 (Tue, 11 Jun 2019) $
#$Revision: 215814 $
#$URL: file:///home/coder/svn-repositories/cod/cif/1/55/13/1551317.cif $
#------------------------------------------------------------------------------
#
# This file is available in the Crystallography Open Database (COD),
# http://www.crystallography.net/
#
# All data on this site have been placed in the public domain by the
# contributors.
#
data_1551317
loop_
_publ_author_name
'Jun Harada'
'Takafumi Shimojo'
'Hideaki Oyamaguchi'
'Hiroyuki Hasegawa'
'Yukihiro Takahashi'
'Koichiro Satomi'
'Yasutaka Suzuki'
'Jun Kawamata'
'Tamotsu Inabe'
_publ_section_title
;
 Directionally tunable and mechanically deformable ferroelectric crystals
 from rotating polar globular ionic molecules
;
_journal_name_full               'Nature Chemistry'
_journal_page_first              946
_journal_page_last               952
_journal_paper_doi               10.1038/nchem.2567
_journal_volume                  8
_journal_year                    2016
_chemical_formula_moiety         '2(O2 Re0.5), C7 N1'
_chemical_formula_sum            'C7 H14 N O4 Re'
_chemical_formula_weight         362.39
_chemical_name_systematic        'quinuclidinium perrhenate'
_space_group_crystal_system      rhombohedral
_space_group_IT_number           160
_space_group_name_Hall           'P 3* -2'
_space_group_name_H-M_alt        'R 3 m :R'
_atom_sites_solution_hydrogens   .
_atom_sites_solution_primary     direct
_cell_angle_alpha                89.912(3)
_cell_angle_beta                 89.912(3)
_cell_angle_gamma                89.912(3)
_cell_formula_units_Z            1
_cell_length_a                   6.360(2)
_cell_length_b                   6.360(2)
_cell_length_c                   6.360(2)
_cell_measurement_reflns_used    3031
_cell_measurement_temperature    350
_cell_measurement_theta_max      27.447
_cell_measurement_theta_min      3.203
_cell_volume                     257.26(14)
_computing_cell_refinement       'Bruker SAINT v8.34A (Bruker, 2013)'
_computing_data_collection       'Bruker APEX2 2014.1-1 (Bruker, 2014)'
_computing_data_reduction        'Bruker SAINT v8.34A (Bruker, 2013)'
_computing_molecular_graphics    'Mercury (Macrae et al., 2006)'
_computing_publication_material  'Olex2 (Dolomanov et al., 2009)'
_computing_structure_refinement  'SHELXL-2014 (Sheldrick, 2008)'
_computing_structure_solution    'ShelXT (Sheldrick, 2015)'
_diffrn_ambient_temperature      350
_diffrn_detector_area_resol_mean 8.3333
_diffrn_measured_fraction_theta_full 1.000
_diffrn_measured_fraction_theta_max 1.000
_diffrn_measurement_device_type  'Bruker SMART APEXII Ultra'
_diffrn_measurement_method       '\f and \w scans'
_diffrn_radiation_type           MoK\a
_diffrn_radiation_wavelength     0.71073
_diffrn_reflns_av_R_equivalents  0.0428
_diffrn_reflns_av_unetI/netI     0.0242
_diffrn_reflns_Laue_measured_fraction_full 1.000
_diffrn_reflns_Laue_measured_fraction_max 1.000
_diffrn_reflns_limit_h_max       8
_diffrn_reflns_limit_h_min       -8
_diffrn_reflns_limit_k_max       8
_diffrn_reflns_limit_k_min       -8
_diffrn_reflns_limit_l_max       8
_diffrn_reflns_limit_l_min       -8
_diffrn_reflns_number            3513
_diffrn_reflns_point_group_measured_fraction_full 1.000
_diffrn_reflns_point_group_measured_fraction_max 1.000
_diffrn_reflns_theta_full        25.242
_diffrn_reflns_theta_max         27.458
_diffrn_reflns_theta_min         3.203
_diffrn_source                   'rotating-anode X-ray tube'
_diffrn_standards_number         0
_exptl_absorpt_coefficient_mu    11.794
_exptl_absorpt_correction_T_max  0.1054
_exptl_absorpt_correction_T_min  0.0379
_exptl_absorpt_correction_type   multi-scan
_exptl_absorpt_process_details
'SADABS-2014/4 (Bruker,2014/4) was used for absorption correction. wR2(int) was 0.1283 before and 0.0716 after correction. The Ratio of minimum to maximum transmission is 0.3596. The \l/2 correction factor is Not present.'
_exptl_crystal_colour            colourless
_exptl_crystal_colour_primary    colourless
_exptl_crystal_density_diffrn    2.339
_exptl_crystal_description       block
_exptl_crystal_F_000             170
_exptl_crystal_preparation       'ferroelectric crystal'
_exptl_crystal_size_max          0.3
_exptl_crystal_size_mid          0.28
_exptl_crystal_size_min          0.2
_refine_diff_density_max         0.430
_refine_diff_density_min         -0.269
_refine_diff_density_rms         0.084
_refine_ls_abs_structure_details
;
 Refined as an inversion twin.
;
_refine_ls_abs_structure_Flack   0.42(14)
_refine_ls_extinction_coef       .
_refine_ls_extinction_method     none
_refine_ls_goodness_of_fit_ref   1.154
_refine_ls_hydrogen_treatment    undef
_refine_ls_matrix_type           full
_refine_ls_number_parameters     26
_refine_ls_number_reflns         473
_refine_ls_number_restraints     3
_refine_ls_restrained_S_all      1.152
_refine_ls_R_factor_all          0.0255
_refine_ls_R_factor_gt           0.0255
_refine_ls_shift/su_max          0.000
_refine_ls_shift/su_mean         0.000
_refine_ls_structure_factor_coef Fsqd
_refine_ls_weighting_details
'w=1/[\s^2^(Fo^2^)+(0.0309P)^2^+0.0749P] where P=(Fo^2^+2Fc^2^)/3'
_refine_ls_weighting_scheme      calc
_refine_ls_wR_factor_gt          0.0624
_refine_ls_wR_factor_ref         0.0624
_reflns_Friedel_coverage         0.979
_reflns_Friedel_fraction_full    1.000
_reflns_Friedel_fraction_max     1.000
_reflns_number_gt                473
_reflns_number_total             473
_reflns_threshold_expression     'I > 2\s(I)'
_cod_data_source_file            nchem.2567-s3.cif
_cod_data_source_block           Quinuclidiniumreo4_350k
_cod_original_cell_volume        257.2(3)
_cod_original_sg_symbol_H-M      'R 3 m:r'
_cod_database_code               1551317
_shelx_space_group_comment
;
The symmetry employed for this shelxl refinement is uniquely defined
by the following loop, which should always be used as a source of
symmetry information in preference to the above space-group names.
They are only intended as comments.
;
_shelx_estimated_absorpt_t_max   0.201
_shelx_estimated_absorpt_t_min   0.126
_olex2_refinement_description
;
1. Twinned data refinement
 Scales: 0.58(14) 0.42(14)
2. Restrained distances
 Re1-O1
 1.7 with sigma of 0.02
 Re1-O2
 1.7 with sigma of 0.02
3. Others
 Uiso(N1)=Uiso(C1)=Uiso(C2)=Uiso(C3)=Uiso(C4)=Uiso(C5)=FVAR(1)
 Fixed Sof: O1(0.33333) O2(0.33333) N1(0.16667) C1(0.33333) C2(0.33333)
 C3(0.16667) C4(0.16667) C5(0.16667)
;
_shelx_res_file
;
TITL Quinuclidinium ReO4 in R3m at 350 K
CELL 0.71073 6.3599 6.3599 6.3599 89.912 89.912 89.912
ZERR 1 0.0023 0.0023 0.0023 0.003 0.003 0.003
LATT -1
SYMM +Z,+X,+Y
SYMM +Y,+Z,+X
SYMM +Y,+X,+Z
SYMM +X,+Z,+Y
SYMM +Z,+Y,+X
SFAC C H N O Re
UNIT 7 14 1 4 1
SIZE 0.20 0.28 0.30
TEMP 77
L.S. 5
ACTA
BOND $H
CONF
LIST 4
FMAP 2
PLAN 20
TWIN
DFIX 1.7 Re1 O1
DFIX 1.7 Re1 O2
WGHT    0.030900    0.074900
BASF   0.41983
FVAR       0.34210   0.08875
RE1   5    0.014981    0.014981    0.014981    10.16667    0.09087    0.09087 =
         0.09087   -0.00195   -0.00195   -0.00195
O1    4   -0.040072   -0.040072   -0.236657    10.33333    0.25841
O2    4   -0.023399   -0.023399    0.275168    10.33333    0.21866
N1    3    0.540404    0.671219    0.671219    10.16667   21.00000
C1    1    0.585219    0.443827    0.744629    10.33333   21.00000
C2    1    0.485657    0.361067    0.681638    10.33333   21.00000
C3    1    0.444210    0.283550    0.444210    10.16667   21.00000
C4    1    0.354618    0.553071    0.354618    10.16667   21.00000
C5    1    0.445051    0.747529    0.445051    10.16667   21.00000
HKLF 4

REM  Quinuclidinium ReO4 in R3m at 350 K
REM R1 =  0.0255 for     473 Fo > 4sig(Fo)  and  0.0255 for all     473 data
REM     26 parameters refined using      3 restraints

END

WGHT      0.0308      0.0750

REM Highest difference peak  0.430,  deepest hole -0.269,  1-sigma level  0.084
Q1    1   0.0888  0.0888  0.0888  10.16667  0.05    0.38
Q2    1  -0.0548 -0.0548 -0.0548  10.16667  0.05    0.36
Q3    1  -0.1598  0.1401 -0.1598  10.50000  0.05    0.25
Q4    1  -0.1089  0.1866  0.1866  10.50000  0.05    0.25
Q5    1  -0.1000  0.1162 -0.2230  11.00000  0.05    0.21
Q6    1  -0.0813  0.1269  0.2632  11.00000  0.05    0.21
Q7    1   0.5194  0.7830  0.7169  11.00000  0.05    0.20
Q8    1   0.2446  0.5164  0.3173  11.00000  0.05    0.20
Q9    1   0.1515  0.1515  0.1515  10.16667  0.05    0.20
Q10   1   0.5177  0.2619  0.7603  11.00000  0.05    0.19
Q11   1   0.5200  0.7574  0.7573  10.50000  0.05    0.19
Q12   1   0.5372  0.3330  0.8071  11.00000  0.05    0.18
Q13   1   0.5109  0.2230  0.7053  11.00000  0.05    0.18
Q14   1   0.6234  0.3071  0.6234  10.50000  0.05    0.13
Q15   1   0.4110  0.7277  0.4110  10.50000  0.05    0.12
Q16   1   0.2182  0.0341  0.2182  10.50000  0.05    0.11
Q17   1   0.4246  0.3007  0.6346  11.00000  0.05    0.11
Q18   1   0.6159  0.3977  0.7289  11.00000  0.05    0.10
Q19   1   0.6112  0.7326  0.6112  10.50000  0.05    0.10
Q20   1   0.0080 -0.1675  0.2003  11.00000  0.05    0.09
;
_shelx_res_checksum              72523
_shelx_hkl_file
;
  -1   1   0  904.84   51.52
   1   0  -1  948.70   51.17
   1   0  -1  936.55   51.07
   0  -1   1  942.31   51.08
   0   1  -1  813.79   51.10
   1  -1   0  883.69   50.97
   0   1  -1  900.43   50.72
   1  -1   0  881.36   51.55
   0   1  -1  817.65   51.21
   0   1  -1  883.14   51.37
   0   0  -1  338.29   21.36
  -1   0   0  384.71   21.51
   0   0  -1  409.51   21.49
   0   0  -1  361.74   21.36
   0  -1   0  369.71   21.42
   1   0   0  388.05   21.54
   0  -1   0  421.08   21.58
   0  -1   0  351.51   21.95
  -1   0   0  371.59   21.43
   0   0  -1  365.95   21.58
   0   0  -1  365.00   21.47
  -1   0   0  362.91   21.88
   1   0   0  373.12   21.83
  -1  -1   1  372.48   22.13
   1  -1   1  397.64   21.44
  -1   1   1  388.08   21.73
   1  -1  -1  358.50   21.77
   1  -1  -1  368.75   21.40
   1   1  -1  383.44   21.32
  -1   1  -1  357.03   21.71
  -1  -1   1  423.30   21.52
  -1   1  -1  360.49   21.80
  -1   1  -1  370.10   21.63
   1   1  -1  358.94   21.71
   1   1  -1  333.74   21.70
  -1   1  -1  357.77   21.65
  -1   1   1  386.72   21.89
  -1  -1   0  916.56   51.22
   1   0   1  931.08   50.52
  -1   0  -1  812.84   50.18
   1   1   0 1000.00   50.53
  -1   0  -1  828.74   50.38
  -1  -1   0  877.35   50.61
   0  -1  -1  866.80   50.47
  -1   0  -1  852.13   50.49
   1   1   0  816.94   50.77
   0  -1  -1  904.03   50.28
  -1  -1  -1  365.61   20.71
  -1  -1  -1  348.46   20.73
  -1  -1  -1  362.96   21.00
   1   1  -2  192.43   11.68
   1  -2   1  214.81   11.64
  -2   1   1  210.51   12.02
   2  -1  -1  201.54   11.66
   1   1  -2  210.60   11.64
  -1   2  -1  200.19   11.67
  -1  -1   2  217.89   11.66
   1   1  -2  207.20   11.68
   2  -1  -1  196.35   12.61
  -1   2  -1  181.73   11.69
   1   1  -2  200.60   11.87
  -2   1   1  203.90   12.11
   1  -2   1  224.84   11.72
  -2   1   1  198.68   11.71
   2   0  -2  158.30    7.93
  -2   2   0  119.96    7.94
   0  -2   2  137.79    7.90
  -2   2   0  142.92    7.91
   2   0  -2  156.27    7.98
  -2   2   0  127.07    7.89
   2   0  -2  153.93    7.94
   0  -2   2  141.62    7.87
   2  -2   0  132.40    7.90
   0   2  -2  138.10    7.94
   2  -2   0  132.89    7.95
   0   2  -2  133.40    7.90
   0   2  -2  126.08    7.92
   1   0  -2  313.41   20.12
   1   0  -2  349.50   20.15
   1   0  -2  347.86   20.25
  -1   2   0  336.06   20.50
   0  -2   1  358.28   19.67
   2   0  -1  349.20   20.69
  -2   1   0  316.56   19.85
   2   0  -1  345.04   20.19
  -1   2   0  368.42   19.70
   0  -1   2  341.54   20.12
  -2   1   0  318.57   20.43
   1   0  -2  368.71   20.06
  -2   1   0  397.72   19.69
   0  -2   1  355.06   19.73
   0   1  -2  367.27   19.64
  -2   0   1  355.75   19.91
   1  -2   0  341.86   19.78
   0   1  -2  332.03   19.68
  -2   0   1  361.13   19.67
   0   2  -1  347.20   20.32
   0   1  -2  304.30   19.86
   2  -1   0  327.90   19.89
   1  -2   0  343.56   20.36
   1  -2   0  350.80   19.65
  -2   0   1  372.64   20.54
   0   2  -1  310.49   19.70
   2  -1   0  338.57   20.51
   0   0  -2  383.90   23.87
  -2   0   0  428.71   25.02
  -2   0   0  432.82   24.16
   0   2   0  365.40   24.36
   0   0  -2  420.53   23.96
   0  -2   0  421.04   23.97
   2   0   0  415.03   24.56
   2   0   0  378.52   24.33
   0   0  -2  403.24   24.27
   0  -2   0  459.00   23.82
  -2   0   0  425.40   24.08
   0   0  -2  422.64   24.28
   0   2   0  467.16   24.40
   0   0  -2  447.27   24.17
   0  -2   0  403.74   24.84
   2  -1  -2  187.16   11.51
   2   1  -2  187.97   10.61
   2   1  -2  181.34   10.59
  -2   2   1  191.61   10.63
  -2   2  -1  193.09   10.65
  -2   2  -1  186.66   10.66
   2  -1  -2  189.43   10.61
  -1  -2   2  186.02   10.60
  -2   2  -1  191.26   10.61
   2   1  -2  185.68   10.66
  -2   2   1  180.03   10.65
  -2   2   1  182.25   10.57
   2  -2   1  205.56   10.64
  -1   2  -2  192.48   10.60
   1   2  -2  175.58   10.56
   1   2  -2  178.05   10.61
  -2  -1   2  197.98   10.60
   2  -2  -1  174.04   11.32
  -1   2  -2  173.86   10.62
  -1   2  -2  175.72   10.61
   1   2  -2  167.05   11.03
  -1   2  -2  209.41   10.63
   2  -2  -1  179.18   10.59
   1   2  -2  175.38   10.61
  -2   1   2  180.36   10.61
   2  -2   1  196.93   10.59
  -2   1   2  181.31   10.55
  -2   1   2  192.44   10.64
  -2  -1   2  187.14   11.72
  -2   1  -1  181.14   11.60
   1  -1  -2  203.30   11.64
   2   1  -1  193.59   12.67
   1  -1  -2  220.83   11.62
   1  -1  -2  214.54   12.45
   2   1  -1  199.06   11.61
  -1   2   1  215.53   11.66
  -1  -2   1  208.89   11.62
  -2   1  -1  177.14   11.63
  -1  -2   1  193.92   11.66
  -1   2   1  205.23   11.67
   1  -1   2  220.26   11.92
  -2   1  -1  203.26   11.61
   2   1  -1  217.95   11.62
   1   2  -1  209.66   11.71
   1  -2  -1  201.89   11.61
  -2  -1   1  225.58   12.23
  -1   1   2  197.61   11.82
   2  -1   1  213.82   11.61
  -2  -1   1  227.66   11.70
   1  -2  -1  217.61   11.68
   1  -2  -1  196.10   11.67
  -1   1  -2  194.35   11.61
  -1   1  -2  170.40   11.60
  -1   1  -2  206.75   11.97
   1   2  -1  181.63   11.65
   1   2  -1  202.06   12.24
   0   2   1  299.92   19.22
  -1  -2   0  332.20   19.27
   0  -1  -2  339.71   19.28
  -2   0  -1  323.65   19.20
   0  -1  -2  331.94   19.25
  -1  -2   0  353.85   19.22
   2   1   0  348.09   19.80
   0  -1  -2  330.56   19.65
   2   1   0  322.37   20.01
   0  -1  -2  345.71   19.64
   2   1   0  337.49   19.27
  -2   0  -1  333.77   19.49
  -2   0  -1  331.90   20.12
  -1   0  -2  303.59   19.37
   0  -2  -1  338.70   19.39
   1   2   0  325.01   19.23
  -1   0  -2  287.32   19.15
   2   0   1  355.16   19.71
  -1   0  -2  339.82   19.18
   1   2   0  368.15   19.50
  -2  -1   0  372.85   20.31
  -2  -1   0  350.54   19.19
   0  -2  -1  320.74   19.81
  -1   0  -2  303.91   19.25
  -1   0  -2  343.21   19.16
   1   2   0  380.53   19.72
   0   1   2  349.06   19.60
   0  -2  -1  360.64   19.16
   1   2   1  189.74   11.42
   2   1   1  191.03   11.40
  -1  -1  -2  196.04   11.90
  -1  -1  -2  194.20   11.39
  -1  -2  -1  204.76   11.82
   2   1   1  208.10   11.39
   1   1   2  219.55   11.67
  -1  -2  -1  197.01   11.37
  -2  -1  -1  197.14   11.38
  -1  -1  -2  192.95   11.36
   2   1   1  193.87   11.35
  -2  -1  -1  213.01   11.44
  -1  -2  -1  195.46   11.43
   2  -2   2  116.67    6.26
   2  -2  -2  113.42    6.26
  -2  -2   2  111.37    6.25
  -2   2   2  107.96    6.67
   2  -2  -2  110.35    6.29
  -2   2  -2  102.77    6.29
  -2   2   2  113.48    6.27
   2   2  -2  108.75    6.24
  -2   2  -2  105.51    6.27
   2   2  -2  103.63    6.30
   2   2  -2  108.91    6.54
  -2  -2   2  111.91    6.26
  -2   2  -2  104.80    6.26
  -2   2  -2  116.67    6.28
   2   2  -1  172.78   11.22
   2   2  -1  175.15   10.50
  -2   1  -2  178.16   10.50
  -2  -2   1  186.58   11.59
   2   2  -1  191.38   10.49
  -2   1  -2  161.90   10.49
   2  -1   2  207.40   10.51
  -2   1  -2  193.42   10.51
  -1   2   2  181.97   10.52
   1  -2  -2  187.86   10.50
  -2  -2   1  189.44   10.51
  -1   2   2  190.44   10.53
  -2   1  -2  174.73   10.52
   1  -2  -2  184.93   10.55
  -2   0  -2  115.76    7.55
   0  -2  -2  135.42    7.61
   0  -2  -2  145.52    7.67
   0  -2  -2  113.66    7.57
   2   2   0  140.36    7.89
   2   2   0  129.58    7.63
  -2  -2   0  140.31    7.57
   0   2   2  145.01    7.60
   2   0   2  125.04    7.58
   2   2   0  148.65    7.60
  -2  -2   0  149.98    7.67
  -2   0  -2  115.93    7.59
  -2   0  -2  114.58    7.56
   0  -2  -2  140.30    7.90
  -2  -1  -2  193.90   11.08
  -1  -2  -2  194.82   11.10
  -2  -2  -1  191.18   11.16
  -2  -1  -2  201.71   11.13
  -2  -2  -1  191.11   11.42
  -1  -2  -2  195.10   11.08
   2   2   1  194.38   11.13
  -1  -2  -2  184.36   11.13
   2   2   1  199.13   11.58
   2   1   2  198.90   11.64
  -2  -2  -2  116.07    6.43
  -2  -2  -2  107.64    6.43
  -2  -2  -2  114.56    6.45
  -2   3  -2   71.45    3.74
  -2   3  -2   70.28    3.75
   2   2  -3   57.55    3.75
  -3   2   2   64.50    3.75
   3  -2  -2   66.25    3.74
   2   2  -3   60.98    3.73
   2  -3   2   71.42    3.73
  -2   3  -2   67.60    3.75
  -3   2   2   67.94    3.72
   3  -2  -2   65.56    3.76
  -2  -2   3   62.25    3.74
  -3   2   2   62.71    3.74
   2   2  -3   63.56    3.75
   2   2  -3   64.80    3.74
   3  -1  -2  102.64    5.42
  -2   3  -1   88.38    5.38
   2   1  -3  103.58    5.42
   2   1  -3   87.59    5.39
  -3   2   1   85.41    5.40
  -3   2   1   89.77    5.36
   2   1  -3   97.70    5.36
   3  -1  -2  100.55    5.36
   1  -3   2   91.70    5.36
  -2   3  -1   88.78    5.36
   1  -3   2   90.27    5.35
  -3   2   1   92.28    5.36
   2   1  -3  102.16    5.39
  -1  -2   3   92.15    5.36
   2  -3   1   94.13    5.35
  -3   1   2   97.28    5.39
   1   2  -3   89.79    5.36
   3  -2  -1   89.59    5.37
   1   2  -3   95.82    5.35
   1   2  -3   92.41    5.37
   3  -2  -1   88.98    5.36
  -3   1   2   98.49    5.35
  -3   1   2   95.72    5.69
  -1   3  -2   86.54    5.38
   2  -3   1   99.02    5.57
  -2  -1   3  101.04    5.36
  -1   3  -2   96.70    5.37
  -1   3  -2   99.93    5.37
   1   2  -3   88.90    5.37
   1   1  -3  174.91    9.75
  -1  -1   3  171.48    9.73
   3  -1  -1  166.51    9.79
   1  -3   1  173.27    9.72
  -1   3  -1  160.18    9.77
   1  -3   1  182.80    9.73
   3  -1  -1  168.03    9.74
  -3   1   1  163.56    9.71
   1   1  -3  175.95    9.75
   1   1  -3  159.90    9.82
  -1   3  -1  170.10    9.74
  -3   1   1  171.76    9.74
   1  -3   1  180.72    9.77
  -3   1   1  164.41    9.79
   1   1  -3  173.28    9.72
  -3   3   0   60.39    3.71
   3   0  -3   70.67    3.73
   0  -3   3   62.84    3.73
  -3   3   0   60.77    3.73
   3   0  -3   75.10    3.77
  -3   3   0   57.86    3.73
  -3   0   3   73.33    3.73
   3  -3   0   62.43    3.74
   0   3  -3   62.87    3.73
   0   3  -3   66.89    3.74
   0   3  -3   67.19    3.73
   3  -3   0   62.37    3.72
   0  -3   2  139.21    8.16
   2   0  -3  143.97    8.18
   2   0  -3  150.12    8.22
   0  -2   3  138.92    8.16
  -3   2   0  133.80    8.23
  -3   2   0  131.06    8.16
   3   0  -2  153.93    8.20
  -3   2   0  144.66    8.17
   3   0  -2  143.36    8.23
   2   0  -3  142.66    8.19
  -2   3   0  142.05    8.17
  -2   3   0  139.95    8.21
   2  -3   0  142.14    8.20
   3  -2   0  138.07    8.49
  -3   0   2  145.01    8.18
   0   2  -3  136.17    8.18
   2  -3   0  140.05    8.15
   3  -2   0  143.84    8.20
   0   3  -2  149.26    8.16
   0   2  -3  141.11    8.22
   0   3  -2  144.72    8.20
  -3   0   2  147.41    8.24
  -2   0   3  162.61    8.16
   2  -3   0  143.64    8.16
  -3   0   2  151.46    8.34
   0   2  -3  145.34    8.21
   0   2  -3  132.50    8.27
   0   3  -2  142.14    8.18
   1   0  -3  158.40    8.76
   0  -3   1  157.37    8.78
   1   0  -3  160.61    9.09
  -3   1   0  163.74    8.74
   1   0  -3  139.14    8.74
  -3   1   0  142.26    8.74
   3   0  -1  154.65    8.82
   0  -3   1  154.85    8.78
  -3   1   0  142.78    8.79
  -1   3   0  154.58    8.76
   1   0  -3  163.51    8.75
   3   0  -1  157.88    8.76
  -1   3   0  140.25    8.76
   0  -1   3  143.11    9.00
   3  -1   0  142.65    8.75
   1  -3   0  153.72    8.79
   0   3  -1  141.33    8.77
   0   1  -3  149.24    8.75
  -3   0   1  164.65    9.17
   0   1  -3  149.07    8.78
   0   3  -1  156.63    9.36
   0   1  -3  157.96    8.73
  -1   0   3  165.09    8.73
  -3   0   1  160.02    8.74
   1  -3   0  158.31    8.73
  -3   0   1  152.38    8.74
   3  -1   0  148.27    8.79
   1  -3   0  156.05    8.72
   0   1  -3  152.84    8.88
   0   0  -3  247.10   14.10
   0  -3   0  248.73   14.07
   3   0   0  234.20   14.10
   0   0  -3  249.72   14.13
   0   3   0  266.61   14.14
   3   0   0  243.49   14.62
  -3   0   0  255.73   14.10
   0   0  -3  253.26   14.08
   0   0  -3  232.64   14.06
   0  -3   0  252.79   14.09
  -3   0   0  252.51   14.08
   0   0  -3  249.38   14.10
   0   3   0  220.73   14.13
  -3   0   0  252.84   14.46
  -3   3   1   61.53    3.63
   3  -1  -3   63.08    3.62
   1  -3   3   64.61    3.62
   3   1  -3   64.11    3.63
  -3   3  -1   62.37    3.63
  -3   3  -1   61.74    3.62
   1  -3   3   62.33    3.60
   3   1  -3   65.33    3.64
   3  -1  -3   65.35    3.64
  -3   3  -1   66.77    3.61
   3   1  -3   61.56    3.62
  -3   3   1   62.36    3.63
  -1  -3   3   59.35    3.62
  -3   1   3   61.39    3.63
  -3   1   3   62.85    3.60
  -1   3  -3   64.59    3.63
  -1   3  -3   62.75    3.63
   1   3  -3   63.48    3.63
   3  -3   1   67.70    3.61
  -3  -1   3   62.83    3.62
   3  -3  -1   61.97    3.64
   1   3  -3   61.86    3.63
   3  -3  -1   63.50    3.62
   3  -3   1   67.75    3.64
  -2   3   1   93.75    5.51
   2  -1  -3   82.79    5.50
   1  -2   3  103.51    5.49
   3   1  -2  101.26    5.54
   3   1  -2  103.36    5.51
   3   1  -2  100.83    5.51
  -1  -3   2   95.03    5.50
   2  -1  -3  101.68    5.51
  -2   3   1  100.77    5.50
   2  -1  -3   98.43    5.86
  -1  -3   2   96.82    5.51
  -3   2  -1   84.56    5.73
  -3   2  -1   90.59    5.49
  -3   2  -1   90.50    5.50
  -3  -1   2   98.66    5.50
  -1   2  -3   94.15    5.50
   1   3  -2   98.24    5.53
   2  -3  -1   95.96    5.49
  -1   2  -3  108.24    5.61
   2  -3  -1   95.45    5.49
  -2   1   3   99.27    5.48
   2  -3  -1   95.42    5.51
  -1   2  -3   87.22    5.50
  -1   2  -3   87.59    5.50
   3  -2   1  102.45    5.51
   3  -2   1   96.27    5.50
   1   3  -2   96.10    5.52
  -2   1   3   95.78    5.53
  -3  -1   2  101.18    5.53
  -3   1  -1  161.46    9.74
   3   1  -1  168.59    9.75
   1  -1  -3  180.84    9.75
  -1  -3   1  166.74    9.73
   1  -1  -3  178.99    9.77
  -3   1  -1  166.43    9.73
  -3   1  -1  159.43    9.79
  -1  -3   1  170.69    9.79
   1  -1  -3  152.83    9.74
  -1   3   1  181.20    9.77
  -1   3   1  164.87    9.78
   3   1  -1  177.15    9.76
   3   1  -1  169.05    9.82
   1   3  -1  163.60    9.79
  -1   1   3  192.98    9.71
   1   3  -1  170.85   10.31
  -1   1  -3  152.43    9.83
  -3  -1   1  172.20    9.76
  -1   1  -3  175.51    9.74
  -1   1  -3  174.30    9.74
   1   3  -1  165.12    9.71
   1  -3  -1  168.38    9.73
  -1   1   3  172.34    9.77
  -1   1  -3  165.87   10.08
   1  -3  -1  162.27    9.79
  -1   1  -3  178.39    9.76
   1  -3  -1  179.13    9.71
   3  -1   1  176.48    9.78
   3  -1   1  170.04    9.79
  -3  -1   1  185.12   10.45
  -3   0  -1  150.81    8.58
   0  -1  -3  151.27    8.62
  -1  -3   0  152.70    8.60
   3   1   0  145.78    8.66
   0  -1  -3  146.04    8.59
  -1  -3   0  154.37    8.68
   3   1   0  149.97    8.68
   0  -1  -3  140.96    8.60
   3   1   0  152.27    8.63
  -3   0  -1  152.66    8.69
   0   3   1  143.55    8.72
  -3   0  -1  152.69    8.61
   0  -1  -3  153.64    8.62
   0  -3  -1  151.64    8.60
   3   0   1  151.70    8.63
  -1   0  -3  149.24    8.95
  -3  -1   0  163.32    9.70
   0   1   3  149.62    8.62
   0  -3  -1  146.79    8.73
   1   3   0  144.50    9.01
  -1   0  -3  137.69    8.60
   0  -3  -1  154.68    8.58
   1   3   0  166.58    8.64
  -1   0  -3  151.28    8.66
   3   0   1  151.80    8.63
  -3  -1   0  158.90    8.63
   3   1   1  176.16    9.93
  -3  -1  -1  175.43    9.91
  -3  -1  -1  185.69   10.25
  -1  -1  -3  168.95    9.91
   3   1   1  165.97    9.94
   1   3   1  168.89    9.94
   1   1   3  176.97    9.90
  -1  -1  -3  155.58    9.88
  -1  -1  -3  173.25    9.90
  -1  -3  -1  176.28    9.96
  -1  -3  -1  180.04   10.25
  -1  -3  -1  179.67    9.97
  -3   3  -2   48.57    2.79
   3  -2  -3   48.97    2.81
  -2  -3   3   47.25    2.79
  -3   3  -2   49.11    2.78
  -3   3  -2   47.65    2.80
   3   2  -3   48.45    2.78
   2  -3   3   48.11    2.77
   3  -2  -3   49.37    2.79
   3   2  -3   51.27    2.81
   3   2  -3   51.62    2.80
  -3   3   2   46.09    2.79
  -2   3  -3   46.45    2.79
   3  -3  -2   49.91    2.81
   2   3  -3   49.60    2.80
  -3  -2   3   46.90    2.79
  -2   3  -3   48.78    2.79
   2   3  -3   49.53    2.81
  -2   3  -3   47.86    2.78
   2   3  -3   49.23    2.77
   3  -3   2   47.48    2.78
   3  -3  -2   51.10    2.79
  -3   2   3   47.96    2.80
   2  -2  -3   60.44    3.85
   3   2  -2   66.03    3.86
   2  -2  -3   68.67    3.84
  -3   2  -2   66.24    3.84
   2  -2  -3   67.12    3.85
  -2  -3   2   63.11    3.86
  -3   2  -2   69.07    3.84
  -3   2  -2   68.61    3.83
  -2   3   2   66.15    3.85
   3   2  -2   66.90    3.84
   2  -2   3   76.66    3.83
  -2  -3   2   64.13    3.84
  -2   3   2   61.71    3.84
  -3   2  -2   74.63    3.85
   3   2  -2   69.54    3.83
   2   3  -2   66.76    3.84
  -2   2  -3   62.32    3.83
   2   3  -2   60.45    3.82
  -2   2   3   65.35    3.84
   2  -3  -2   68.50    3.83
  -3  -2   2   67.54    3.86
   3  -2   2   73.24    3.94
  -2   2  -3   69.47    3.83
  -2   2  -3   64.15    3.84
  -3  -2   2   64.43    3.84
   2  -3  -2   65.35    3.85
  -2   2  -3   76.65    3.84
   2   3  -2   61.50    3.85
   2  -3  -2   73.95    3.82
   3   2  -1   93.42    5.40
   1  -2  -3   90.21    5.39
  -1   3   2   96.35    5.39
  -3   1  -2   88.37    5.38
  -2  -3   1   98.04    5.53
   1  -2  -3   96.63    5.38
   3   2  -1   97.59    5.38
   1  -2  -3   96.61    5.41
   2  -1   3   94.16    5.37
  -1   3   2   96.34    5.41
  -3   1  -2   88.12    5.40
   3   2  -1   93.42    5.38
  -3   1  -2   92.95    5.38
  -2  -3   1   97.33    5.38
   2   3  -1   95.00    5.57
  -2   1  -3   83.77    5.37
   2   3  -1   96.49    5.38
   1  -3  -2   98.71    5.37
   3  -1   2   96.60    5.39
  -2   1  -3   95.43    5.38
  -1   2   3   91.82    5.38
   2   3  -1   97.90    5.39
  -2   1  -3   87.57    5.38
  -2   1  -3   85.60    5.38
   1  -3  -2  101.83    5.39
  -3  -2   1   98.63    5.41
   1  -3  -2   98.12    5.40
  -3  -2   1   95.33    5.38
   2   0   3  141.17    8.19
  -3   0  -2  132.26    8.02
   3   2   0  145.44    8.15
  -3   0  -2  134.15    8.07
   0  -2  -3  143.40    8.04
  -2  -3   0  141.36    8.12
   0  -2  -3  140.67    8.02
   0  -2  -3  138.48    8.40
   0  -2  -3  126.52    8.04
  -2  -3   0  141.46    8.03
  -3   0  -2  146.66    8.09
   3   2   0  143.64    8.07
  -3   0  -2  145.44    8.25
   3   2   0  141.78    8.10
   0   3   2  155.66    8.08
   0   3   2  128.31    8.07
  -2   0  -3  132.98    8.04
  -2   0  -3  131.58    8.22
  -2   0  -3  122.51    8.06
   0  -3  -2  144.58    8.05
   0  -3  -2  143.94    8.03
   0   2   3  145.44    8.07
   2   3   0  154.11    8.40
  -3  -2   0  151.41    8.14
   0  -3  -2  140.07    8.37
  -2   0  -3  143.64    8.07
   2   3   0  148.01    8.31
   3   0   2  139.28    8.07
   2   3   0  142.99    8.09
  -3  -2   0  146.61    8.05
  -1  -2  -3  106.79    5.73
  -1  -2  -3  102.94    5.73
   3   2   1  102.85    5.75
   2   1   3  104.13    5.72
   3   2   1   96.74    5.71
   1   3   2   86.35    5.73
  -1  -2  -3  100.56    5.76
   3   2   1   99.25    5.74
   1   3   2  113.71    5.76
  -2  -3  -1   99.64    5.73
  -2  -3  -1   96.80    5.75
  -3  -1  -2   95.02    5.72
  -3  -1  -2  100.67    5.80
   2   3   1  100.01    5.73
   3   1   2   93.65    5.73
  -3  -2  -1  105.46    5.73
  -1  -3  -2   96.30    5.76
  -2  -1  -3   96.40    5.80
  -1  -3  -2   99.72    5.72
   2   3   1   96.57    5.73
   1   2   3  107.69    5.85
   2   3   1  111.64    5.74
  -2  -1  -3   89.55    5.72
  -1  -3  -2  100.59    5.73
  -3  -2  -1  109.19    5.79
  -2  -1  -3   99.86    5.74
  -3  -2  -2   75.42    4.24
  -3  -2  -2   73.93    4.22
  -2  -3  -2   74.13    4.22
   3   2   2   73.08    4.22
  -2  -2  -3   70.32    4.22
  -2  -3  -2   72.35    4.24
  -2  -3  -2   74.40    4.21
  -2  -2  -3   75.33    4.22
   2   3   2   70.22    4.22
  -2  -2  -3   74.91    4.23
   3   2   2   78.39    4.20
   3  -3   3   20.25    1.07
  -3   3  -3   18.73    1.09
  -3   3  -3   19.71    1.09
   3   3  -3   18.95    1.10
  -3   3   3   16.64    1.09
   3   3  -3   18.97    1.12
   3  -3  -3   18.38    1.11
   3  -3  -3   18.96    1.09
  -3  -3   3   17.23    1.09
  -3   3  -3   19.35    1.08
   3   3  -3   16.82    1.07
  -2   3   3   47.00    2.85
   3   3  -2   52.83    2.85
  -3   2  -3   47.03    2.85
   3  -2   3   51.49    2.84
  -3   2  -3   52.95    2.86
  -3   2  -3   44.62    2.84
   3   3  -2   51.25    2.85
   3   3  -2   51.57    2.88
  -3   2  -3   46.69    2.84
   2  -3  -3   52.96    2.85
   2  -3  -3   51.33    2.87
  -3  -3   2   47.74    2.85
   1  -3  -3   67.30    3.64
  -3  -3   1   63.26    3.67
  -3   1  -3   61.65    3.64
   3   3  -1   63.53    3.66
   3   3  -1   58.89    3.63
  -3   1  -3   70.23    3.64
  -3  -3   1   61.68    3.64
   3  -1   3   67.77    3.63
  -3   1  -3   59.52    3.63
   1  -3  -3   62.97    3.65
  -1   3   3   61.10    3.64
   3   3  -1   65.55    3.63
  -3   1  -3   64.05    3.63
   3   3   0   68.16    3.72
   0   3   3   65.20    3.70
  -3  -3   0   69.69    3.73
  -3   0  -3   58.60    3.69
  -3   0  -3   59.72    3.70
   0  -3  -3   68.30    3.69
   3   0   3   59.77    3.70
   0  -3  -3   67.04    3.71
   3   3   0   65.85    3.70
   0  -3  -3   67.97    3.70
  -3   0  -3   58.01    3.69
  -3  -3   0   68.48    3.70
   3   3   0   65.06    3.69
  -1  -3  -3   67.25    3.96
  -3  -1  -3   68.15    3.94
  -1  -3  -3   68.34    3.94
  -3  -1  -3   73.33    4.02
   3   3   1   66.53    3.94
   1   3   3   74.84    3.94
  -1  -3  -3   67.52    3.94
   3   3   1   68.90    3.96
  -3  -3  -1   70.61    3.95
   3   3   1   68.51    3.93
   3   1   3   67.41    3.95
  -3  -3  -1   67.22    3.97
  -2  -3  -3   54.69    3.19
  -3  -2  -3   61.25    3.19
  -2  -3  -3   54.69    3.17
   3   2   3   52.46    3.17
  -3  -3  -2   53.33    3.17
   3   3   2   50.75    3.17
   2   3   3   60.49    3.17
  -3  -2  -3   57.30    3.17
  -2  -3  -3   54.79    3.17
  -3  -3  -2   54.00    3.20
  -3  -3  -3   21.60    1.26
  -3  -3  -3   21.50    1.29
   3   3   3   21.48    1.26
  -3   4  -3   14.13    0.81
   4  -3  -3   13.81    0.81
   3   3  -4   13.51    0.83
  -3   4  -3   14.98    0.81
  -4   3   3   12.38    0.81
   3  -4   3   13.52    0.80
  -3  -3   4   12.32    0.81
   4  -3  -3   13.25    0.85
   3   3  -4   13.17    0.84
   3   2  -4   16.26    1.01
  -3   4  -2   16.78    0.99
   4  -2  -3   16.39    0.99
  -3   4  -2   17.57    0.99
   3   2  -4   16.73    1.00
  -4   3   2   15.54    0.99
   4  -2  -3   16.57    1.02
   3   2  -4   15.12    0.97
   2  -4   3   17.03    0.98
  -2  -3   4   15.43    0.98
  -2   4  -3   18.75    0.99
   2   3  -4   16.68    1.01
   2   3  -4   17.04    1.00
   3  -4   2   17.48    0.98
  -4   2   3   15.54    0.99
   4  -3  -2   16.86    1.01
   3  -4   2   17.70    0.96
   4  -3  -2   16.49    0.98
  -3  -2   4   15.91    0.98
  -2   4  -3   18.04    1.00
  -4   2   2   35.68    2.12
   2  -4   2   36.27    2.14
   4  -2  -2   38.53    2.14
   2   2  -4   38.20    2.15
  -2  -2   4   36.62    2.14
  -4   2   2   33.96    2.14
  -4   2   2   36.96    2.16
   2   2  -4   37.91    2.16
   4  -2  -2   39.70    2.17
   2   2  -4   37.69    2.13
  -2   4  -2   38.86    2.16
  -2   4  -2   37.53    2.15
   2  -4   2   36.63    2.13
   1  -4   3   26.34    1.67
  -4   3   1   28.67    1.65
   4  -1  -3   30.73    1.70
  -4   3   1   27.87    1.68
  -4   3   1   27.04    1.68
   3   1  -4   29.17    1.67
   4  -1  -3   30.29    1.68
   3   1  -4   30.09    1.68
  -1  -3   4   28.04    1.67
   3   1  -4   29.34    1.69
  -3   4  -1   28.34    1.68
  -3   4  -1   27.41    1.67
  -1   4  -3   27.66    1.68
  -3  -1   4   31.55    1.66
   4  -3  -1   29.49    1.70
   1   3  -4   29.02    1.68
  -4   1   3   27.91    1.68
   3  -4   1   29.19    1.66
  -1   4  -3   31.60    1.68
   3  -4   1   28.12    1.67
   1   3  -4   29.62    1.68
   4  -3  -1   28.50    1.67
   2   1  -4   48.09    2.71
   4  -1  -2   48.48    2.73
  -4   2   1   46.32    2.71
  -2   4  -1   48.90    2.72
   1  -4   2   47.40    2.71
   2   1  -4   47.51    2.71
  -1  -2   4   46.64    2.70
   2   1  -4   46.69    2.70
  -4   2   1   43.64    2.72
  -2   4  -1   46.34    2.71
   4  -1  -2   48.63    2.71
  -4   2   1   42.73    2.69
   2  -4   1   51.02    2.69
  -2  -1   4   49.39    2.70
   4  -2  -1   48.18    2.73
  -1   4  -2   48.12    2.72
   1   2  -4   45.75    2.71
   2  -4   1   46.90    2.70
  -4   1   2   45.71    2.69
  -4   1   2   44.86    2.71
  -1   4  -2   50.10    2.72
  -4   1   2   44.85    2.72
   4  -2  -1   48.49    2.71
   2  -4   1   50.56    2.73
   1   2  -4   46.22    2.71
   1   2  -4   47.80    2.70
   1   2  -4   46.36    2.71
  -1  -1   4   70.62    4.03
  -4   1   1   69.97    4.07
   1  -4   1   77.99    4.06
   4  -1  -1   71.56    4.06
   1   1  -4   67.25    4.03
  -4   1   1   69.33    4.03
   4  -1  -1   69.56    4.04
   1   1  -4   70.45    4.03
  -1   4  -1   71.00    4.05
   1   1  -4   72.57    4.03
   1   1  -4   69.66    4.04
   1  -4   1   70.68    4.04
   1  -4   1   76.63    4.02
  -4   1   1   67.07    4.03
  -1   4  -1   65.87    4.04
   4   0  -4   13.15    0.86
   4   0  -4   13.69    0.83
  -4   4   0   13.19    0.84
   0  -4   4   13.03    0.83
  -4   4   0   13.88    0.83
   0   4  -4   14.95    0.85
  -4   0   4   14.24    0.84
   0   4  -4   14.10    0.84
   4  -4   0   14.24    0.82
  -4   3   0   33.49    1.93
  -3   4   0   32.47    1.93
   0  -4   3   31.70    1.93
   4   0  -3   34.03    1.96
   3   0  -4   31.70    1.93
  -4   3   0   33.22    1.91
   4   0  -3   33.49    1.93
  -4   3   0   32.65    1.94
   3   0  -4   32.02    1.94
   0  -3   4   32.25    1.93
  -3   4   0   33.22    1.94
   0   4  -3   35.49    1.94
  -3   0   4   34.19    1.94
   4  -3   0   33.20    1.92
  -4   0   3   32.71    1.93
  -4   0   3   34.34    1.91
   3  -4   0   34.08    1.92
   0   3  -4   34.32    1.93
  -3   0   4   35.31    1.91
   4  -3   0   34.57    1.95
   3  -4   0   34.40    1.95
   3  -4   0   33.02    1.92
   0   3  -4   33.69    1.94
   0   4  -3   33.03    1.94
  -4   2   0   50.37    3.17
  -2   4   0   54.36    3.20
   0  -2   4   53.90    3.18
   2   0  -4   55.81    3.19
   4   0  -2   57.58    3.21
   2   0  -4   55.59    3.19
  -2   4   0   52.94    3.19
   0  -4   2   53.57    3.19
   2   0  -4   55.29    3.18
   4   0  -2   58.03    3.19
  -4   2   0   55.55    3.19
  -4   2   0   51.34    3.20
   0   2  -4   52.77    3.18
  -4   0   2   59.66    3.18
  -2   0   4   63.16    3.18
   0   2  -4   59.79    3.18
   2  -4   0   56.82    3.18
   0   2  -4   57.30    3.18
  -4   0   2   55.79    3.20
  -4   0   2   53.64    3.19
   0   4  -2   54.29    3.19
   4  -2   0   57.00    3.21
   4  -2   0   54.47    3.18
   0   4  -2   59.00    3.21
   0   2  -4   53.23    3.19
   2  -4   0   57.25    3.20
   2  -4   0   54.94    3.18
   4   0  -1   84.16    4.72
   0  -4   1   81.71    4.70
   1   0  -4   81.78    4.83
   0  -1   4   78.05    4.69
  -4   1   0   86.07    4.69
   1   0  -4   85.22    4.81
  -4   1   0   79.60    4.70
  -4   1   0   78.22    4.75
   4   0  -1   82.67    4.70
   1   0  -4   82.46    4.70
   1   0  -4   71.67    4.69
   0  -4   1   85.84    4.72
  -1   4   0   81.50    4.70
  -1   4   0   83.43    4.71
   0   1  -4   81.51    4.70
  -4   0   1   83.50    4.75
   1  -4   0   84.14    4.71
   0   4  -1   82.43    4.70
   0   1  -4   84.65    4.69
   0   1  -4   84.44    4.68
   4  -1   0   84.43    4.72
   1  -4   0   83.99    4.68
   4  -1   0   78.79    4.70
   1  -4   0   82.67    4.69
  -1   0   4   88.46    4.69
   0   4  -1   79.45    4.71
  -4   0   1   86.21    4.77
  -4   0   1   77.77    4.69
  -4   0   0   96.33    5.49
   0  -4   0   98.18    5.49
   0   0  -4   95.72    5.51
   0   0  -4   97.49    5.50
   0  -4   0   96.25    5.49
   0   4   0   99.29    5.50
   4   0   0   95.81    5.51
   4   0   0   93.56    5.50
   0   0  -4   93.28    5.48
  -4   0   0   97.13    5.54
   0   4   0   91.88    5.51
  -4   0   0  101.00    5.50
   0  -4   0   96.67    5.52
   1  -4   4   12.88    0.79
  -4   4   1   13.50    0.80
   4   1  -4   12.62    0.80
   4  -1  -4   12.68    0.82
   4   1  -4   12.29    0.79
  -4   4   1   13.06    0.81
   4   1  -4   11.90    0.82
  -1  -4   4   12.08    0.79
   4  -1  -4   12.63    0.80
  -4   4  -1   14.24    0.81
  -4   4  -1   14.00    0.79
  -4   4  -1   13.58    0.77
   1   4  -4   13.23    0.82
   4  -4  -1   13.63    0.79
  -4   1   4   12.47    0.80
   4  -4  -1   13.32    0.83
   4  -4   1   14.15    0.78
   1   4  -4   13.50    0.82
  -1   4  -4   14.86    0.81
  -4  -1   4   12.68    0.78
  -1   4  -4   13.58    0.81
   3  -1  -4   28.69    1.72
  -3   4   1   29.72    1.72
  -3   4   1   29.87    1.73
  -4   3  -1   28.77    1.71
  -1  -4   3   28.40    1.72
   3  -1  -4   28.20    1.73
  -4   3  -1   28.77    1.72
  -4   3  -1   28.22    1.70
   4   1  -3   30.41    1.72
   4   1  -3   31.61    1.75
   1  -3   4   28.96    1.71
   4   1  -3   30.24    1.72
   1   4  -3   31.21    1.74
   3  -4  -1   31.19    1.71
  -3   1   4   29.31    1.72
   1   4  -3   31.81    1.73
  -1   3  -4   28.84    1.72
   3  -4  -1   29.16    1.70
  -4  -1   3   29.43    1.71
   3  -4  -1   31.13    1.74
   4  -3   1   30.02    1.71
  -1   3  -4   29.36    1.72
  -1  -4   2   44.85    2.76
  -2   4   1   46.22    2.78
   1  -2   4   49.61    2.75
   4   1  -2   48.34    2.76
   2  -1  -4   47.40    2.76
  -4   2  -1   48.49    2.76
  -2   4   1   47.69    2.77
  -4   2  -1   46.59    2.77
  -4   2  -1   46.48    2.75
   2  -1  -4   49.85    2.77
   4   1  -2   51.12    2.79
   4   1  -2   50.74    2.77
   4  -2   1   50.53    2.76
   1   4  -2   50.03    2.77
   2  -4  -1   47.28    2.75
  -1   2  -4   47.90    2.76
  -1   2  -4   47.50    2.76
  -4  -1   2   47.75    2.76
  -4  -1   2   47.95    2.78
   1   4  -2   48.90    2.78
  -2   1   4   49.16    2.77
  -1   2  -4   46.57    2.75
   2  -4  -1   47.38    2.78
   2  -4  -1   48.59    2.75
  -1   4   1   75.94    4.28
  -4   1  -1   71.21    4.25
   1  -1  -4   71.43    4.26
  -1  -4   1   72.62    4.26
  -1  -4   1   78.80    4.29
   4   1  -1   67.88    4.26
  -1   4   1   77.90    4.27
  -4   1  -1   73.48    4.26
  -4   1  -1   78.20    4.30
   1  -1  -4   70.54    4.25
  -4  -1   1   68.44    4.27
   1   4  -1   77.04    4.26
   1   4  -1   72.36    4.27
   4  -1   1   82.33    4.28
  -1   1   4   76.92    4.24
  -1   1  -4   73.43    4.25
   1   4  -1   65.12    4.24
   1  -4  -1   78.52    4.25
  -1   1   4   71.72    4.26
  -1   1  -4   78.86    4.25
   1  -4  -1   76.62    4.28
  -4  -1   1   70.19    4.25
   4  -1   1   80.71    4.26
   1  -4  -1   78.59    4.25
  -1   1  -4   75.92    4.26
   0   4   1   89.68    4.72
  -1  -4   0   82.52    4.71
  -4   0  -1   84.21    4.71
   0   4   1   78.62    4.73
  -4   0  -1   77.40    4.70
   4   1   0   82.76    4.73
   4   1   0   78.72    4.71
  -1  -4   0   87.04    4.74
   0  -1  -4   75.51    4.70
  -4   0  -1   84.35    4.76
   0  -1  -4   82.10    4.72
  -1  -4   0   81.91    4.71
   1   4   0   80.82    4.73
  -4  -1   0   77.96    4.70
  -1   0  -4   85.27    4.83
  -1   0  -4   74.61    4.71
   1   4   0   86.50    4.72
   4   0   1   83.63    4.73
   0  -4  -1   85.85    4.71
   0   1   4   85.58    4.71
  -4  -1   0   86.35    4.76
  -4  -1   0   85.02    4.71
  -1   0  -4   84.03    4.71
   4   0   1   81.03    4.71
   0  -4  -1   83.84    4.71
   0  -4  -1   83.24    4.73
   4   1   1   79.40    4.36
   1   4   1   83.92    4.37
  -1  -1  -4   66.14    4.35
  -4  -1  -1   81.85    4.39
  -1  -1  -4   71.16    4.35
  -1  -4  -1   72.52    4.36
  -1  -1  -4   77.01    4.36
   1   1   4   82.45    4.36
   4   1   1   77.16    4.38
  -1  -1  -4   79.78    4.35
  -4  -1  -1   80.36    4.36
  -1  -4  -1   71.98    4.35
  -1  -4  -1   72.73    4.38
   1   4   1   73.28    4.38
  -4   4  -2   10.42    0.61
   4   2  -4    9.21    0.63
  -4   4  -2   10.80    0.62
   4   2  -4    8.26    0.60
  -4   4   2    9.10    0.62
   4  -2  -4    8.89    0.65
   2  -4   4   10.00    0.61
   4  -2  -4    8.99    0.62
  -2  -4   4    9.34    0.61
   4   2  -4    9.18    0.66
  -4   4  -2   10.34    0.58
   2   4  -4    9.68    0.65
   4  -4  -2   10.36    0.61
  -2   4  -4   11.50    0.63
   4  -4  -2   10.14    0.66
  -4   2   4    9.09    0.62
   2   4  -4   10.58    0.64
  -2   4  -4   10.95    0.62
   4  -4   2   10.35    0.59
  -4  -2   4    9.09    0.60
   3  -2  -4   16.66    0.99
  -4   3  -2   16.94    0.98
   4   2  -3   16.94    0.99
  -3   4   2   15.25    0.99
  -4   3  -2   17.58    0.97
  -2  -4   3   15.34    0.99
   3  -2  -4   16.46    1.01
   4   2  -3   17.02    1.00
   4   2  -3   16.64    1.03
  -4   3  -2   17.54    1.00
  -2   3  -4   16.73    0.99
  -4  -2   3   15.19    0.99
  -2   3  -4   17.61    0.99
   3  -4  -2   17.40    0.99
   4  -3   2   17.76    0.98
   3  -4  -2   17.18    1.02
   2   4  -3   16.46    1.02
  -2   3  -4   17.60    0.98
  -3   2   4   16.11    1.00
   2   4  -3   17.06    1.00
  -2   4   2   39.91    2.33
   2  -2   4   41.74    2.32
   4   2  -2   39.39    2.36
  -4   2  -2   41.33    2.33
   4   2  -2   39.24    2.33
   2  -2  -4   37.73    2.33
   2  -2  -4   37.31    2.33
   4   2  -2   40.22    2.33
  -4   2  -2   39.58    2.32
  -2  -4   2   41.30    2.33
  -4   2  -2   41.26    2.32
   2  -4  -2   43.20    2.35
   4  -2   2   43.45    2.32
   2   4  -2   42.38    2.33
  -4  -2   2   35.84    2.32
  -2   2  -4   39.63    2.32
  -2   2   4   38.19    2.33
  -2   2  -4   38.87    2.32
   2  -4  -2   44.33    2.32
  -2   2  -4   44.71    2.32
   2   4  -2   44.89    2.36
  -2   2  -4   36.64    2.32
  -1   4   2   45.81    2.77
   4   2  -1   49.32    2.75
   4   2  -1   49.03    2.75
  -4   1  -2   48.08    2.74
   2  -1   4   49.34    2.75
   1  -2  -4   49.00    2.76
  -4   1  -2   50.02    2.76
  -1   4   2   46.46    2.76
   1  -2  -4   50.65    2.75
   1  -2  -4   42.78    2.75
  -2  -4   1   48.42    2.78
   4   2  -1   49.22    2.78
  -2  -4   1   47.02    2.75
  -4  -2   1   48.00    2.75
  -1   2   4   48.67    2.75
  -2   1  -4   46.95    2.73
   2   4  -1   41.92    2.74
   1  -4  -2   50.16    2.74
  -2   1  -4   41.98    2.73
  -2   1  -4   48.94    2.75
  -4  -2   1   49.50    2.78
  -2   1  -4   45.87    2.74
   2   4  -1   49.23    2.75
   4  -1   2   52.38    2.75
   2   4  -1   48.70    2.78
   1  -4  -2   50.39    2.75
   1  -4  -2   48.68    2.77
   0  -2  -4   49.27    3.25
   4   2   0   55.57    3.27
   0   4   2   52.37    3.28
   0   4   2   60.64    3.27
  -4   0  -2   60.41    3.27
   2   0   4   55.73    3.27
   0  -2  -4   50.10    3.27
  -2  -4   0   56.77    3.27
  -4   0  -2   60.54    3.28
   4   2   0   57.31    3.26
   0  -2  -4   55.59    3.27
   4   2   0   57.87    3.29
  -2  -4   0   61.11    3.30
  -2   0  -4   51.88    3.26
   0   2   4   58.99    3.27
   2   4   0   59.24    3.29
   4   0   2   57.82    3.27
   0  -4  -2   59.80    3.26
  -2   0  -4   57.98    3.26
  -4  -2   0   58.08    3.27
   0  -4  -2   58.24    3.26
   2   4   0   54.50    3.26
   2   4   0   60.54    3.27
   0  -4  -2   57.54    3.29
  -4  -2   0   60.63    3.30
   2   1   4   55.90    3.00
  -1  -2  -4   48.89    3.00
   4   2   1   49.94    3.01
  -2  -4  -1   52.24    3.01
  -1  -2  -4   50.42    3.01
  -4  -1  -2   54.27    3.02
  -4  -1  -2   51.08    3.00
   4   2   1   52.68    3.02
   1   4   2   58.25    3.01
  -1  -2  -4   47.62    2.99
  -2  -1  -4   47.59    3.00
  -2  -1  -4   50.05    3.00
  -1  -4  -2   54.29    3.00
  -1  -4  -2   54.94    3.00
   4   1   2   50.34    3.01
   2   4   1   52.42    3.02
  -1  -4  -2   54.16    3.03
  -2  -1  -4   50.01    2.99
   2   4   1   53.71    3.00
   2   4   1   56.68    3.00
   1   2   4   56.18    3.00
  -4  -2  -1   54.24    3.04
  -4  -2  -1   50.74    3.01
  -2  -2  -4   46.93    2.62
   2   2   4   50.20    2.61
  -2  -4  -2   43.24    2.62
  -2  -2  -4   48.21    2.63
  -2  -2  -4   46.33    2.62
   4   2   2   40.72    2.62
  -2  -4  -2   40.00    2.61
   2   4   2   46.00    2.62
  -4  -2  -2   49.46    2.66
  -4  -2  -2   45.80    2.62
   4   3  -4    4.72    0.44
   4  -3  -4    4.43    0.42
   4   3  -4    4.47    0.39
  -4   4   3    4.21    0.36
  -3  -4   4    4.47    0.37
  -4   4  -3    5.14    0.32
   4  -3  -4    4.90    0.36
  -4   4  -3    5.49    0.36
  -4   4  -3    5.69    0.35
   3  -4   4    5.34    0.35
   3   4  -4    4.79    0.40
   4  -4  -3    4.80    0.43
  -4   3   4    4.22    0.37
  -4  -3   4    4.10    0.36
   3   4  -4    5.09    0.44
   4  -4  -3    4.99    0.36
  -4   3  -3   15.13    0.85
  -3  -4   3   13.24    0.85
  -4   3  -3   14.78    0.82
   4   3  -3   14.11    0.85
  -3   4   3   12.16    0.84
   3  -3  -4   13.46    0.87
  -4   3  -3   15.29    0.83
   3  -3  -4   13.38    0.84
   4   3  -3   12.15    0.83
   4   3  -3   13.96    0.89
   3   4  -3   15.16    0.86
   3  -4  -3   14.92    0.88
   4  -3   3   15.37    0.82
  -3   3  -4   14.40    0.84
  -3   3   4   12.33    0.84
  -3   3  -4   14.65    0.84
   3  -4  -3   14.68    0.84
   3   4  -3   14.88    0.90
  -4  -3   3   12.31    0.84
  -3   3  -4   14.68    0.83
   2  -3  -4   17.14    1.02
   3  -2   4   18.44    1.00
  -4   2  -3   16.18    1.00
   4   3  -2   16.22    1.01
   4   3  -2   18.33    1.07
  -2   4   3   14.63    1.02
  -3  -4   2   15.65    1.02
   2  -3  -4   17.39    1.04
  -4   2  -3   18.08    1.02
   4   3  -2   18.10    1.02
  -4   2  -3   18.50    1.01
  -2   3   4   16.63    1.02
  -3   2  -4   17.51    1.01
   4  -2   3   18.79    1.01
   3   4  -2   17.95    1.03
   2  -4  -3   17.10    1.01
  -3   2  -4   17.97    1.01
  -3   2  -4   17.43    1.01
   2  -4  -3   17.09    1.04
  -4  -3   2   16.30    1.02
   3   4  -2   17.73    1.06
   4   3  -1   31.70    1.75
  -4   1  -3   31.16    1.75
   3  -1   4   29.98    1.75
  -3  -4   1   30.48    1.76
  -4   1  -3   31.73    1.74
  -3  -4   1   30.44    1.79
   4   3  -1   32.05    1.79
   4   3  -1   28.13    1.75
   1  -3  -4   31.29    1.75
   1  -3  -4   29.34    1.76
  -1   4   3   28.32    1.75
  -3   1  -4   28.97    1.74
  -4  -3   1   29.98    1.76
  -1   3   4   29.36    1.75
   1  -4  -3   33.24    1.75
   3   4  -1   26.96    1.74
  -3   1  -4   29.86    1.74
   3   4  -1   32.59    1.79
  -3   1  -4   29.67    1.74
   1  -4  -3   32.06    1.77
  -4  -3   1   28.43    1.78
   3   4  -1   31.96    1.75
   4  -1   3   31.23    1.75
  -3   1  -4   28.98    1.74
  -4   0  -3   36.64    2.02
   4   3   0   36.45    2.02
   4   3   0   33.81    2.03
   3   0   4   36.28    2.03
  -3  -4   0   34.64    2.07
   0  -3  -4   34.37    2.02
  -3  -4   0   34.89    2.03
   0   4   3   34.91    2.03
   0  -3  -4   31.97    2.02
   4   3   0   36.90    2.06
  -4   0  -3   38.94    2.04
   0  -4  -3   35.62    2.05
   0  -4  -3   35.18    2.02
   3   4   0   37.51    2.02
   4   0   3   36.42    2.03
  -3   0  -4   35.90    2.02
  -4  -3   0   34.18    2.06
   3   4   0   33.05    2.02
  -4  -3   0   35.11    2.03
   0   3   4   35.19    2.03
  -3   0  -4   30.16    2.02
  -3   0  -4   35.83    2.01
   3   4   0   35.57    2.05
  -3   0  -4   35.24    2.02
   3   1   4   31.32    1.86
  -4  -1  -3   34.54    1.87
  -3  -4  -1   32.19    1.86
  -1  -3  -4   32.96    1.86
  -3  -4  -1   30.22    1.89
  -1  -3  -4   32.94    1.87
  -4  -1  -3   33.07    1.86
   1   4   3   32.06    1.86
  -1  -3  -4   31.95    1.85
   4   3   1   30.91    1.86
  -1  -4  -3   31.33    1.85
  -1  -4  -3   31.84    1.85
   3   4   1   29.49    1.85
   1   3   4   34.17    1.85
  -4  -3  -1   33.51    1.87
   3   4   1   32.59    1.85
  -4  -3  -1   32.47    1.90
   4   1   3   31.14    1.86
  -3  -1  -4   31.80    1.85
  -3  -1  -4   33.91    1.86
  -1  -4  -3   31.53    1.88
   2   4   3   21.70    1.15
  -4  -2  -3   20.05    1.15
  -4  -2  -3   21.04    1.18
  -3  -4  -2   20.55    1.16
   3   2   4   19.62    1.15
  -2  -3  -4   17.78    1.14
  -2  -3  -4   17.86    1.15
   4   3   2   18.88    1.15
  -2  -3  -4   18.89    1.17
  -2  -4  -3   19.17    1.15
   3   4   2   19.86    1.14
  -2  -4  -3   19.10    1.18
  -3  -2  -4   20.58    1.17
  -2  -4  -3   19.58    1.15
   4   2   3   19.36    1.15
  -4  -3  -2   18.58    1.16
   2   3   4   22.13    1.14
   3   4   2   19.39    1.15
  -4  -3  -2   18.70    1.19
  -3  -2  -4   19.49    1.15
  -4  -3  -3   16.90    1.02
  -3  -4  -3   15.98    0.98
   4   3   3   15.84    0.97
   3   4   3   17.02    0.97
  -3  -4  -3   15.77    1.01
   3   3   4   15.48    0.97
  -3  -3  -4   16.11    0.97
  -4  -3  -3   16.94    0.98
  -3  -3  -4   16.76    1.00
   4  -4  -4    3.34    0.31
  -4  -4   4    2.89    0.32
   4  -4  -4    3.36    0.43
   4   4  -4    3.19    0.37
  -4   4  -4    4.14    0.25
   4   4  -4    3.83    0.45
  -4   4   4    2.72    0.33
  -4  -4   3    4.38    0.38
   3  -4  -4    4.92    0.36
  -3   4   4    4.31    0.37
   4   4  -3    5.47    0.48
   4   4  -3    4.78    0.39
   3  -4  -4    4.86    0.43
  -4   3  -4    5.41    0.33
   4  -3   4    5.75    0.33
   2  -4  -4   10.31    0.69
  -2   4   4    9.45    0.66
   4  -2   4   12.20    0.65
   2  -4  -4   10.42    0.66
  -4   2  -4   11.06    0.64
   4   4  -2   11.68    0.74
  -4  -4   2    9.24    0.67
  -4   2  -4   11.45    0.66
   4   4  -2   10.97    0.67
   1  -4  -4   14.60    0.87
  -4  -4   1   13.31    0.88
  -4   1  -4   16.06    0.87
  -1   4   4   12.91    0.87
   4   4  -1   14.55    0.87
   1  -4  -4   14.17    0.89
   4  -1   4   15.23    0.86
  -4   1  -4   15.67    0.86
   4   4  -1   15.06    0.93
  -4   0  -4   15.83    0.88
   0  -4  -4   14.47    0.88
  -4  -4   0   15.04    0.90
   0  -4  -4   14.96    0.91
   4   4   0   15.69    0.88
   4   4   0   13.15    0.88
   0   4   4   14.31    0.88
  -4   0  -4   15.84    0.88
   4   0   4   14.52    0.88
  -1  -4  -4   14.76    0.92
   1   4   4   16.02    0.89
   4   4   1   13.75    0.89
  -1  -4  -4   13.61    0.88
  -1  -4  -4   14.80    0.89
  -4  -4  -1   14.65    0.90
  -4  -4  -1   13.57    0.94
  -4  -1  -4   16.28    0.89
  -4  -1  -4   16.53    0.90
   4   1   4   15.79    0.89
  -2  -4  -4   11.67    0.75
  -4  -2  -4   12.44    0.72
   4   4   2   11.08    0.71
   2   4   4   12.89    0.70
  -4  -2  -4   13.15    0.74
   4   2   4   11.64    0.71
  -2  -4  -4   10.24    0.71
  -4  -4  -2   11.66    0.73
  -2  -4  -4   10.64    0.70
  -4  -4  -2   10.60    0.77
  -3  -4  -4    5.04    0.42
   3   4   4    6.36    0.42
   4   4   3    6.02    0.42
  -3  -4  -4    6.63    0.51
  -4  -3  -4    6.13    0.48
  -4  -4  -3    5.48    0.50
  -4  -4  -3    5.60    0.45
  -4  -3  -4    5.41    0.42
   4   3   4    5.93    0.42
  -4  -4  -4    4.53    0.46
  -4  -4  -4    3.66    0.39
   4   4   4    4.98    0.38
   4   4  -5    1.03    0.26
   5  -4  -4    0.93    0.28
  -4  -4   5    1.02    0.20
   4   4  -5    1.08    0.29
  -5   4   4    0.96    0.21
   5  -4  -4    1.08    0.22
  -5   4   3    2.13    0.28
   4   3  -5    1.67    0.33
   5  -3  -4    2.16    0.28
  -3  -4   5    2.06    0.29
   5  -3  -4    2.01    0.37
   4   3  -5    2.04    0.37
   3   4  -5    2.16    0.37
   3   4  -5    2.05    0.35
  -5   3   4    2.15    0.29
   5  -4  -3    2.35    0.28
  -4  -3   5    2.06    0.26
   5  -4  -3    2.01    0.36
   3   3  -5    3.74    0.37
   5  -3  -3    4.07    0.33
   3  -5   3    4.55    0.31
  -5   3   3    3.77    0.33
   5  -3  -3    3.78    0.40
   3   3  -5    3.94    0.38
  -3  -3   5    3.69    0.32
  -3   5  -3    4.74    0.33
  -2  -4   5    3.94    0.34
   4   2  -5    3.30    0.38
   5  -2  -4    3.62    0.34
   4   2  -5    3.28    0.36
  -4   5  -2    4.26    0.32
   5  -2  -4    3.28    0.41
  -5   4   2    3.59    0.33
  -4   5  -2    4.57    0.34
   2  -5   4    3.85    0.31
  -5   2   4    3.51    0.35
   2   4  -5    3.75    0.38
   2   4  -5    3.47    0.38
   5  -4  -2    3.94    0.32
   4  -5   2    4.41    0.30
  -2   5  -4    4.77    0.36
  -2  -3   5    7.31    0.48
   2  -5   3    7.78    0.48
  -3   5  -2    8.19    0.49
   5  -2  -3    7.02    0.54
  -5   3   2    7.14    0.49
   5  -2  -3    7.15    0.49
  -3   5  -2    8.58    0.51
   3   2  -5    7.02    0.51
   3   2  -5    6.68    0.51
  -3  -2   5    7.18    0.48
   5  -3  -2    7.55    0.54
   2   3  -5    7.16    0.51
  -5   2   3    6.90    0.49
  -2   5  -3    8.25    0.50
   2   3  -5    7.50    0.52
   5  -3  -2    7.49    0.48
   3  -5   2    7.82    0.47
  -2   5  -2   10.79    0.66
  -2  -2   5   10.65    0.65
   2   2  -5   10.53    0.67
  -5   2   2    9.98    0.65
   2   2  -5   10.44    0.66
  -2   5  -2   12.05    0.69
   2  -5   2   10.99    0.65
   2   2  -5   10.34    0.64
   5  -2  -2   10.87    0.70
   5  -2  -2   10.54    0.65
   5  -1  -4    3.76    0.42
   5  -1  -4    4.38    0.36
  -4   5  -1    4.74    0.35
  -5   4   1    4.41    0.35
   4   1  -5    3.55    0.33
  -4   5  -1    4.73    0.34
   1  -5   4    4.38    0.34
   4   1  -5    4.09    0.37
  -1  -4   5    4.40    0.35
   1   4  -5    4.47    0.37
  -5   1   4    3.96    0.36
   4  -5   1    4.64    0.31
  -1   5  -4    5.05    0.38
   1   4  -5    4.28    0.38
   4  -5   1    4.85    0.30
  -1   5  -4    4.77    0.38
   5  -4  -1    4.81    0.33
   1  -5   3    9.56    0.60
  -3   5  -1   10.17    0.61
   5  -1  -3    9.74    0.66
  -5   3   1    9.42    0.62
   3   1  -5    8.97    0.60
  -3   5  -1   10.03    0.62
  -5   3   1   10.06    0.61
   5  -1  -3    9.58    0.62
   3   1  -5    8.87    0.62
   3   1  -5    9.52    0.62
  -1  -3   5    9.96    0.61
  -1   5  -3   10.72    0.64
   5  -3  -1   10.15    0.60
  -5   1   3    9.44    0.61
  -1   5  -3   10.42    0.63
   1   3  -5    9.76    0.61
   1   3  -5    9.78    0.63
   3  -5   1   10.19    0.60
  -5   2   1   17.09    1.04
   5  -1  -2   17.95    1.05
   2   1  -5   16.93    1.04
   2   1  -5   17.14    1.05
   5  -1  -2   17.78    1.08
   2   1  -5   17.05    1.04
  -2   5  -1   16.99    1.05
  -5   2   1   17.95    1.06
  -1  -2   5   17.72    1.04
  -2   5  -1   20.05    1.07
  -5   2   1   17.26    1.02
   1  -5   2   17.58    1.04
  -5   1   2   16.27    1.04
   5  -2  -1   17.65    1.04
   1   2  -5   17.52    1.05
  -1   5  -2   17.72    1.05
   5  -2  -1   18.70    1.08
  -5   1   2   17.12    1.02
  -1   5  -2   19.04    1.07
   1   2  -5   17.79    1.04
   1   2  -5   18.42    1.03
  -2  -1   5   17.71    1.03
   2  -5   1   18.33    1.04
   1   1  -5   22.19    1.25
   1   1  -5   21.27    1.26
  -1  -1   5   22.70    1.25
   1   1  -5   21.40    1.25
  -1   5  -1   20.14    1.26
   5  -1  -1   21.50    1.26
   1  -5   1   21.52    1.25
  -5   1   1   21.17    1.24
  -5   1   1   19.88    1.25
   5  -1  -1   22.32    1.29
  -5   1   1   21.07    1.27
  -1   5  -1   22.46    1.29
   1   1  -5   22.24    1.24
   0  -5   5    2.07    0.28
  -5   5   0    2.10    0.27
   5   0  -5    1.81    0.28
  -5   5   0    2.16    0.27
   5  -5   0    2.23    0.22
  -5   0   5    1.89    0.32
   0   5  -5    2.40    0.35
   0   5  -5    1.85    0.35
   5   0  -4    5.39    0.48
  -5   4   0    6.22    0.37
  -4   5   0    6.56    0.43
  -4   5   0    6.09    0.43
   4   0  -5    5.59    0.42
  -5   4   0    6.32    0.44
  -5   4   0    6.46    0.42
   5   0  -4    5.70    0.44
   0  -4   5    5.95    0.43
   0  -5   4    5.70    0.42
   4   0  -5    5.26    0.46
   0   5  -4    6.52    0.47
   5  -4   0    6.50    0.41
   0   4  -5    6.45    0.46
  -4   0   5    6.26    0.45
  -5   0   4    5.75    0.44
   4  -5   0    6.72    0.40
   0   5  -4    6.43    0.47
   0   4  -5    6.61    0.44
   4  -5   0    6.02    0.39
  -3   5   0   11.10    0.68
   3   0  -5   10.27    0.65
   0  -5   3    9.88    0.66
  -5   3   0   10.87    0.65
   0  -3   5   10.36    0.66
   5   0  -3   10.88    0.67
  -5   3   0   10.80    0.67
   3   0  -5   10.21    0.67
  -5   3   0   10.54    0.63
   5   0  -3   10.42    0.71
  -3   5   0   10.93    0.67
   0   3  -5   10.80    0.65
   3  -5   0   11.21    0.64
  -5   0   3   10.23    0.66
  -3   0   5   10.86    0.68
   3  -5   0   10.41    0.64
   5  -3   0   11.21    0.65
   0   3  -5   11.18    0.67
   0   5  -3   11.58    0.69
   0   5  -3   11.25    0.69
   5   0  -2   19.39    1.12
   5   0  -2   19.34    1.09
  -2   5   0   18.49    1.11
   2   0  -5   18.19    1.08
   0  -2   5   17.46    1.07
   0  -5   2   17.49    1.08
  -5   2   0   17.53    1.09
   2   0  -5   18.51    1.08
  -5   2   0   17.14    1.06
  -2   5   0   17.27    1.09
  -5   2   0   17.45    1.07
  -5   0   2   19.33    1.07
   0   5  -2   18.42    1.09
   0   2  -5   19.02    1.06
   0   2  -5   18.66    1.06
   0   2  -5   20.31    1.06
   5  -2   0   18.49    1.08
  -5   0   2   18.41    1.08
   2  -5   0   18.55    1.06
   0   5  -2   19.86    1.12
   0   2  -5   18.21    1.09
   2  -5   0   17.30    1.07
   5   0  -1   26.90    1.62
   1   0  -5   27.09    1.61
   0  -1   5   27.80    1.61
   0  -5   1   27.48    1.62
  -1   5   0   27.50    1.63
   5   0  -1   26.46    1.65
  -5   1   0   29.04    1.61
   1   0  -5   27.22    1.60
  -5   1   0   29.73    1.64
  -1   5   0   30.60    1.65
  -5   1   0   29.80    1.61
   1   0  -5   26.07    1.62
   0   1  -5   29.63    1.61
   5  -1   0   27.69    1.62
   1  -5   0   28.54    1.62
  -1   0   5   28.22    1.61
  -5   0   1   25.89    1.64
  -5   0   1   24.40    1.61
   0   5  -1   27.10    1.63
  -5   0   1   27.62    1.61
   0   5  -1   28.72    1.65
   1  -5   0   29.70    1.60
   1  -5   0   29.74    1.64
   0   1  -5   28.02    1.62
   0   5   0   27.98    1.61
   5   0   0   27.71    1.61
  -5   0   0   28.02    1.57
   0  -5   0   27.38    1.58
  -5   0   0   27.22    1.57
   0   5   0   27.44    1.59
   0   0  -5   27.71    1.59
   0  -5   0   27.70    1.56
   0   0  -5   23.42    1.57
   5   0   0   26.62    1.58
  -5   0   0   27.78    1.60
   0  -5   0   28.35    1.61
   0   0  -5   27.86    1.58
   1  -5   5    2.49    0.28
  -5   5  -1    2.82    0.27
   5  -1  -5    2.11    0.30
   5  -1  -5    1.75    0.37
  -1  -5   5    2.23    0.30
   5   1  -5    1.75    0.37
  -5   5  -1    2.71    0.29
  -5   5   1    2.18    0.29
   5   1  -5    1.91    0.28
   5  -5   1    2.45    0.22
  -5   1   5    2.36    0.33
   1   5  -5    2.11    0.36
   5  -5  -1    2.41    0.25
   1   5  -5    2.76    0.38
  -1   5  -5    2.53    0.35
   5  -5   1    2.72    0.23
  -5  -1   5    2.10    0.33
  -1   5  -5    2.93    0.34
   5   1  -4    3.74    0.36
  -1  -5   4    4.10    0.35
  -4   5   1    4.28    0.35
  -5   4  -1    5.01    0.36
   4  -1  -5    3.71    0.39
   4  -1  -5    4.15    0.35
   1  -4   5    4.32    0.34
  -5   4  -1    4.79    0.29
  -5   4  -1    5.00    0.33
  -1   4  -5    5.00    0.36
   1   5  -4    4.95    0.42
   1   5  -4    4.44    0.40
  -1   4  -5    5.40    0.38
   4  -5  -1    4.73    0.32
  -4   1   5    4.00    0.37
  -5  -1   4    4.07    0.36
   5  -4   1    4.86    0.32
  -3   5   1    9.76    0.65
   5   1  -3    9.65    0.67
   1  -3   5   10.16    0.62
   5   1  -3   11.02    0.64
  -5   3  -1   10.15    0.61
  -5   3  -1   10.07    0.63
  -1  -5   3    9.30    0.62
   3  -1  -5    9.66    0.64
  -5   3  -1   10.35    0.59
   3  -1  -5    9.84    0.62
  -3   5   1    9.18    0.63
   3  -5  -1   10.13    0.60
   1   5  -3    9.53    0.64
  -5  -1   3   10.15    0.61
  -1   3  -5   10.71    0.61
  -1   3  -5   10.69    0.63
   1   5  -3   10.69    0.68
  -5  -1   3    9.92    0.63
   3  -5  -1    9.38    0.66
   5  -3   1   10.99    0.61
  -3   1   5    9.46    0.63
   2  -1  -5   17.85    1.12
  -5   2  -1   19.69    1.11
  -2   5   1   18.34    1.13
   5   1  -2   17.60    1.12
  -1  -5   2   18.07    1.12
   5   1  -2   18.66    1.16
  -2   5   1   19.64    1.14
  -5   2  -1   20.23    1.10
  -5   2  -1   20.74    1.13
   2  -1  -5   17.36    1.12
   1  -2   5   19.54    1.11
   1  -2   5   18.77    1.10
  -5  -1   2   17.35    1.11
   2  -5  -1   20.05    1.15
   1   5  -2   18.97    1.13
  -5  -1   2   16.48    1.11
  -1   2  -5   20.40    1.12
   5  -2   1   20.89    1.11
   2  -5  -1   19.82    1.11
   1   5  -2   20.29    1.16
  -2   1   5   18.23    1.12
   2  -5  -1   20.06    1.10
   1  -1  -5   19.55    1.27
   5   1  -1   22.11    1.29
   1  -1  -5   23.08    1.28
  -5   1  -1   22.57    1.30
   5   1  -1   23.95    1.33
   1  -1  -5   23.41    1.29
  -1   5   1   22.49    1.32
  -1  -5   1   21.24    1.29
  -5   1  -1   20.97    1.27
  -1   5   1   20.70    1.29
  -5  -1   1   20.74    1.28
  -1   1  -5   22.88    1.28
   1  -5  -1   21.98    1.27
   5  -1   1   22.16    1.28
   1  -5  -1   22.15    1.31
  -5  -1   1   23.38    1.28
   1   5  -1   21.77    1.30
  -5  -1   1   22.60    1.32
  -1   1  -5   21.91    1.29
  -1   1  -5   20.46    1.28
  -1   1   5   23.14    1.29
   1  -5  -1   21.91    1.28
   1   5  -1   22.85    1.32
  -5   0  -1   31.72    1.71
   0   5   1   30.92    1.70
   5   1   0   26.76    1.69
   0  -1  -5   28.40    1.69
   5   1   0   29.02    1.72
   0   5   1   29.73    1.71
  -5   0  -1   31.54    1.68
  -1  -5   0   29.09    1.72
   0  -1  -5   28.74    1.67
   0  -1  -5   24.72    1.67
  -1  -5   0   28.55    1.69
   0  -5  -1   28.70    1.68
   1   5   0   28.78    1.69
  -1   0  -5   31.16    1.69
  -1   0  -5   27.48    1.68
   1   5   0   29.32    1.72
  -1   0  -5   31.64    1.69
  -5  -1   0   28.67    1.69
   5   0   1   29.60    1.69
   0  -5  -1   29.88    1.69
   0  -5  -1   29.00    1.72
  -5  -1   0   27.73    1.72
   0   1   5   30.57    1.69
   1   5   1   22.66    1.37
  -1  -5  -1   24.27    1.38
  -1  -5  -1   23.53    1.35
  -1  -1  -5   19.67    1.33
  -1  -1  -5   22.72    1.34
   1   1   5   24.69    1.34
   5   1   1   22.43    1.35
  -5  -1  -1   23.54    1.34
   1   5   1   23.93    1.35
  -1  -5  -1   23.89    1.33
  -5  -1  -1   23.01    1.38
   5   2  -5    1.13    0.27
   5  -2  -5    1.13    0.22
  -5   5   2    0.90    0.20
  -2  -5   5    1.19    0.20
   2  -5   5    1.69    0.24
   5   2  -5    1.03    0.22
   5  -2  -5    0.98    0.26
  -5   2   5    1.18    0.23
   2   5  -5    1.13    0.26
   5  -5  -2    1.42    0.24
   2   5  -5    1.67    0.40
   5   2  -4    3.52    0.36
   5   2  -4    3.08    0.32
   4  -2  -5    3.38    0.39
   2  -4   5    4.15    0.32
   5   2  -4    3.51    0.42
  -5   4  -2    4.45    0.27
  -4   5   2    3.35    0.34
  -5   4  -2    4.53    0.30
   4  -2  -5    3.79    0.33
  -2  -5   4    3.65    0.34
  -5   4  -2    4.56    0.34
   4  -5  -2    4.08    0.31
   5  -4   2    4.48    0.28
   2   5  -4    3.77    0.39
   4  -5  -2    3.61    0.39
  -5  -2   4    3.12    0.30
  -4   2   5    3.43    0.36
  -2   4  -5    4.84    0.35
   2   5  -4    4.41    0.44
  -2  -5   3    7.54    0.51
   5   2  -3    7.25    0.57
   3  -2  -5    6.84    0.53
   5   2  -3    6.74    0.51
  -5   3  -2    8.89    0.52
   2  -3   5    8.09    0.50
   3  -2  -5    6.77    0.50
  -3   5   2    6.95    0.51
   5   2  -3    7.44    0.52
  -5   3  -2    8.67    0.48
  -5  -2   3    6.74    0.50
   3  -5  -2    8.01    0.55
  -3   2   5    7.44    0.52
   2   5  -3    8.02    0.54
   3  -5  -2    8.35    0.50
   5  -3   2    9.08    0.49
  -2   3  -5    8.66    0.49
   2   5  -3    8.24    0.58
  -2   3  -5    8.72    0.51
  -2  -5   2   10.35    0.69
   2  -2   5   11.70    0.66
  -5   2  -2   11.39    0.66
  -2   5   2    9.72    0.69
   5   2  -2   11.34    0.69
   5   2  -2   11.18    0.68
   5   2  -2   11.09    0.73
   2  -2  -5   11.28    0.69
  -5   2  -2   11.85    0.69
   2  -2  -5   11.38    0.68
   2  -5  -2   10.91    0.67
  -2   2  -5   11.17    0.67
  -2   2   5   10.89    0.69
   2   5  -2   11.88    0.74
  -5  -2   2   11.00    0.68
  -2   2  -5   11.10    0.67
   2   5  -2   11.17    0.70
   5  -2   2   11.90    0.67
   2  -5  -2   10.69    0.71
   1  -2  -5   17.48    1.15
  -1   5   2   18.54    1.16
   2  -1   5   19.86    1.14
  -2  -5   1   19.37    1.16
   5   2  -1   18.81    1.19
   1  -2  -5   18.21    1.15
   5   2  -1   18.51    1.14
   5   2  -1   16.81    1.15
  -5   1  -2   21.62    1.14
  -5   1  -2   21.93    1.17
  -5  -2   1   17.72    1.15
  -2   1  -5   20.40    1.14
   5  -1   2   21.83    1.15
  -1   2   5   18.79    1.15
   2   5  -1   20.96    1.20
   2   5  -1   19.32    1.16
   1  -5  -2   21.37    1.15
  -2   1  -5   20.07    1.14
   1  -5  -2   20.37    1.14
   1  -5  -2   20.68    1.18
   0   5   2   18.58    1.13
  -5   0  -2   20.02    1.12
  -2  -5   0   20.84    1.17
  -5   0  -2   20.00    1.15
   5   2   0   19.31    1.13
   0  -2  -5   16.71    1.12
  -2  -5   0   19.11    1.13
   0  -2  -5   18.81    1.12
   0  -2  -5   19.19    1.12
  -2   0  -5   17.27    1.11
   0  -5  -2   20.48    1.12
  -2   0  -5   19.61    1.12
  -5  -2   0   19.61    1.17
   5   0   2   18.53    1.12
   2   5   0   20.71    1.17
  -5  -2   0   19.42    1.13
   0  -5  -2   19.39    1.11
  -2   0  -5   18.61    1.12
   0  -5  -2   19.37    1.16
   0   2   5   19.88    1.12
   2   5   0   19.08    1.13
   2   5   0   17.81    1.11
  -5  -1  -2   23.22    1.25
  -2  -5  -1   20.08    1.22
   5   2   1   20.64    1.22
  -1  -2  -5   19.35    1.20
   1   5   2   20.70    1.22
  -5  -1  -2   21.98    1.22
  -1  -2  -5   18.46    1.20
   2   1   5   24.10    1.21
  -1  -2  -5   21.28    1.22
  -1  -2  -5   21.67    1.21
  -2  -5  -1   19.29    1.26
  -1  -5  -2   19.74    1.25
  -2  -1  -5   22.13    1.22
   2   5   1   19.34    1.21
  -5  -2  -1   21.41    1.26
   1   2   5   23.31    1.21
  -1  -5  -2   18.04    1.20
   5   1   2   20.75    1.22
   2   5   1   20.36    1.21
  -2  -1  -5   19.65    1.21
  -5  -2  -1   21.17    1.22
  -1  -5  -2   20.51    1.22
  -5  -2  -2   12.19    0.75
  -2  -2  -5   11.26    0.75
   5   2   2   11.54    0.75
  -2  -5  -2   13.39    0.80
  -2  -5  -2   12.66    0.74
  -5  -2  -2   12.20    0.80
   2   2   5   13.88    0.74
  -2  -5  -2   13.45    0.76
   2   5   2   13.02    0.75
  -2  -2  -5   10.77    0.74
  -2  -2  -5   11.83    0.74
   5   3  -5    0.83    0.29
  -3  -5   5    1.00    0.21
   5   3  -5    0.60    0.24
   5  -3  -5    0.75    0.21
  -5   5   3    0.87    0.21
   5  -3  -5    0.69    0.29
   3  -5   5    1.40    0.19
   3   5  -5    1.00    0.28
   5  -5  -3    0.96    0.20
  -5   3   5    0.96    0.22
   3   5  -5    1.13    0.31
   5  -5   3    1.36    0.24
   5   3  -4    2.00    0.32
   4  -3  -5    2.64    0.29
  -4   5   3    1.98    0.30
   5   3  -4    2.37    0.39
  -3  -5   4    2.47    0.30
   4  -3  -5    1.89    0.38
   3   5  -4    2.55    0.44
   4  -5  -3    2.05    0.35
   4  -5  -3    2.39    0.27
  -5  -3   4    1.99    0.27
   3   5  -4    2.23    0.35
  -4   3   5    2.26    0.31
   3  -3  -5    4.15    0.34
   3  -3  -5    4.29    0.39
  -3  -5   3    4.16    0.36
  -3   5   3    3.49    0.35
   5   3  -3    4.17    0.43
   5   3  -3    4.15    0.36
  -5   3  -3    4.72    0.29
  -5   3  -3    4.87    0.34
  -3   3   5    4.10    0.36
  -5  -3   3    3.62    0.34
  -3   3  -5    4.80    0.32
   3  -5  -3    4.10    0.33
   3   5  -3    4.17    0.39
   5  -3   3    5.05    0.30
   3   5  -3    4.83    0.47
  -3   3  -5    4.30    0.30
   3  -5  -3    4.13    0.40
   3  -2   5    9.05    0.51
   2  -3  -5    7.35    0.56
  -2   5   3    7.25    0.54
  -5   2  -3    9.36    0.54
  -3  -5   2    7.67    0.55
   5   3  -2    8.08    0.61
   2  -3  -5    7.78    0.54
  -5   2  -3    9.48    0.52
   5   3  -2    8.07    0.54
   2  -5  -3    8.51    0.53
  -2   3   5    7.95    0.55
   5  -2   3    9.51    0.53
   2  -5  -3    8.81    0.59
   3   5  -2    8.97    0.63
   3   5  -2    8.58    0.57
  -3   2  -5    8.69    0.52
  -3   2  -5    8.54    0.52
  -3   2  -5    8.91    0.51
   1  -3  -5   10.49    0.66
  -5   1  -3   11.92    0.64
  -5   1  -3   11.65    0.67
   3  -1   5   11.09    0.64
  -1   5   3    9.21    0.66
   5   3  -1   11.07    0.71
   1  -3  -5   10.56    0.65
   5   3  -1    9.75    0.66
  -3  -5   1   10.05    0.67
   3   5  -1   11.22    0.72
  -1   3   5   10.73    0.66
   1  -5  -3   10.59    0.70
   5  -1   3   11.40    0.65
  -3   1  -5   10.68    0.64
  -5  -3   1   10.67    0.67
   1  -5  -3   10.50    0.65
   3   5  -1   10.23    0.66
  -5   0  -3   13.15    0.73
  -3  -5   0   11.72    0.72
  -5   0  -3   12.67    0.70
  -3  -5   0   11.82    0.77
   0  -3  -5   11.56    0.73
   3   0   5   11.99    0.71
   0   5   3   11.39    0.72
   5   3   0   11.20    0.72
   0  -3  -5   11.41    0.71
   0  -5  -3   11.49    0.71
  -3   0  -5   12.54    0.68
   3   5   0   12.01    0.71
   3   5   0   10.10    0.70
   0   3   5   12.66    0.71
   0  -5  -3   12.05    0.76
  -5  -3   0   10.86    0.77
   5   0   3   12.40    0.71
  -3   0  -5   12.18    0.70
  -3   0  -5   10.25    0.68
  -5  -3   0   11.52    0.73
   3   1   5   10.69    0.69
  -1  -3  -5   11.05    0.69
  -5  -1  -3   11.56    0.69
  -3  -5  -1   12.19    0.71
   5   3   1   10.57    0.69
  -1  -3  -5   11.77    0.71
   1   5   3   11.53    0.69
  -5  -1  -3   12.19    0.72
  -3  -5  -1   11.21    0.75
  -3  -1  -5   11.54    0.67
  -3  -1  -5   11.50    0.68
   1   3   5   12.54    0.68
  -5  -3  -1   10.28    0.70
  -1  -5  -3   11.18    0.68
   5   1   3   10.38    0.69
   3   5   1   10.50    0.68
  -5  -3  -1   10.63    0.75
  -1  -5  -3   11.51    0.69
   3   5   1   11.77    0.68
  -1  -5  -3   11.62    0.74
   3   2   5    9.04    0.56
   2   5   3    9.56    0.56
  -2  -3  -5    8.91    0.57
  -3  -5  -2    9.23    0.59
   5   3   2    8.78    0.57
  -2  -3  -5    8.12    0.56
  -3  -5  -2    8.29    0.63
  -2  -3  -5    9.73    0.60
  -5  -2  -3    9.51    0.58
  -5  -2  -3    9.53    0.62
  -2  -5  -3    8.79    0.58
  -5  -3  -2    9.02    0.59
  -2  -5  -3    8.39    0.63
  -2  -5  -3    7.88    0.56
   5   2   3    8.89    0.57
  -3  -2  -5   10.05    0.57
  -5  -3  -2    8.91    0.64
  -3  -2  -5    9.28    0.56
   3   5   2    8.92    0.57
   3   5   2    8.68    0.55
  -3  -5  -3    5.65    0.47
  -3  -3  -5    4.47    0.36
   5   3   3    4.78    0.36
  -5  -3  -3    4.87    0.40
  -3  -3  -5    5.07    0.41
  -3  -5  -3    5.02    0.40
  -5  -3  -3    4.64    0.46
   3   3   5    4.64    0.36
   5  -4  -5    0.24    0.30
   5   4  -5    0.57    0.32
   5   4  -5    0.39    0.26
  -5   5   4    0.38    0.22
   5  -4  -5    0.70    0.22
   4  -5   5    0.92    0.19
  -4  -5   5    0.69    0.21
   4   5  -5    0.66    0.34
   5  -5  -4    0.35    0.28
  -5   4   5    0.34    0.23
   5  -5   4    0.86    0.19
   5  -5  -4    0.53    0.21
   4   5  -5    0.26    0.28
  -5  -4   5    0.50    0.20
   5   4  -4    1.69    0.44
   5   4  -4    0.95    0.23
   4  -4  -5    1.00    0.28
   4  -4  -5    1.03    0.21
  -4  -5   4    1.03    0.21
  -4   5   4    1.02    0.21
   4  -5  -4    0.94    0.27
   4   5  -4    0.90    0.25
   4  -5  -4    1.22    0.21
  -5  -4   4    1.00    0.21
  -4   4   5    0.89    0.22
   3  -4  -5    2.45    0.28
   5   4  -3    2.88    0.43
   5   4  -3    1.97    0.31
  -4  -5   3    2.46    0.31
   3  -4  -5    2.23    0.38
  -3   5   4    2.16    0.29
  -5  -4   3    2.10    0.31
   4   5  -3    3.08    0.47
   3  -5  -4    2.54    0.28
  -3   4   5    2.21    0.30
   3  -5  -4    2.53    0.40
   4   5  -3    2.36    0.34
  -4  -5   2    3.73    0.37
   4  -2   5    4.62    0.30
  -5   2  -4    4.90    0.31
   5   4  -2    4.58    0.46
   2  -4  -5    4.32    0.35
   2  -4  -5    4.23    0.39
  -5   2  -4    5.09    0.35
   5   4  -2    3.94    0.35
  -5  -4   2    3.80    0.37
   2  -5  -4    4.17    0.34
   4   5  -2    4.67    0.48
  -2   4   5    3.86    0.35
   5  -2   4    4.97    0.31
  -4   2  -5    4.67    0.31
   2  -5  -4    4.27    0.43
   4   5  -2    3.92    0.37
  -5   1  -4    5.85    0.37
  -4  -5   1    4.55    0.40
  -5   1  -4    5.89    0.36
   1  -4  -5    4.76    0.37
  -1   5   4    4.44    0.38
   4  -1   5    5.66    0.35
   1  -4  -5    4.91    0.41
  -4   1  -5    5.81    0.36
   4   5  -1    5.47    0.48
  -1   4   5    4.84    0.38
   5  -1   4    5.53    0.36
   1  -5  -4    4.85    0.37
  -5  -4   1    4.44    0.40
   4   5  -1    5.04    0.38
   1  -5  -4    5.29    0.44
   0  -4  -5    6.94    0.52
   4   0   5    6.90    0.45
  -5   0  -4    7.57    0.46
  -4  -5   0    7.04    0.50
  -5   0  -4    7.76    0.48
   0  -4  -5    6.74    0.47
   0   5   4    6.44    0.47
  -4   0  -5    7.73    0.45
   0  -5  -4    6.74    0.46
   0  -5  -4    6.98    0.55
   0   4   5    7.12    0.47
   4   5   0    6.92    0.47
  -5  -4   0    6.83    0.50
  -5  -4   0    5.71    0.53
  -4   0  -5    7.85    0.46
   5   0   4    7.00    0.46
   4   1   5    5.35    0.37
  -4  -5  -1    4.98    0.46
  -1  -4  -5    4.83    0.38
  -4  -5  -1    5.34    0.42
  -5  -1  -4    5.46    0.40
   1   5   4    5.53    0.38
   5   4   1    4.82    0.38
  -1  -4  -5    5.11    0.44
  -5  -1  -4    5.85    0.38
  -1  -5  -4    4.75    0.38
  -5  -4  -1    4.72    0.41
  -1  -5  -4    5.26    0.46
   5   1   4    5.06    0.37
   1   4   5    5.76    0.37
  -4  -1  -5    5.75    0.38
  -4  -1  -5    5.79    0.37
   5   4   2    4.49    0.37
   2   5   4    5.08    0.34
   4   2   5    4.66    0.35
  -5  -2  -4    5.11    0.40
  -5  -2  -4    4.75    0.37
  -4  -5  -2    4.79    0.42
  -4  -5  -2    4.75    0.45
  -2  -4  -5    4.20    0.36
  -2  -5  -4    5.05    0.46
  -5  -4  -2    4.34    0.41
  -2  -5  -4    4.56    0.36
  -4  -2  -5    4.76    0.37
   4   5   2    4.64    0.36
   5   2   4    4.60    0.35
  -2  -5  -4    3.75    0.35
  -5  -4  -2    4.03    0.45
  -4  -2  -5    4.91    0.36
  -4  -5  -3    3.84    0.44
  -5  -3  -4    2.90    0.39
  -5  -3  -4    2.50    0.33
   4   3   5    3.37    0.30
  -4  -5  -3    2.73    0.38
   5   4   3    3.26    0.32
  -5  -4  -3    2.86    0.41
   5   3   4    3.23    0.31
  -3  -5  -4    2.26    0.32
  -5  -4  -3    2.54    0.37
   3   4   5    3.49    0.30
  -4  -3  -5    2.41    0.31
   4   5   3    3.84    0.33
  -4  -3  -5    2.90    0.37
  -4  -4  -5    1.82    0.40
   4   4   5    2.09    0.29
  -5  -4  -4    1.37    0.26
  -5  -4  -4    1.48    0.41
   4   5   4    2.16    0.31
   5   4   4    1.93    0.31
   5   5  -4    0.85    0.36
   4  -5  -5    0.31    0.30
   5   5  -4    0.31    0.25
   4  -5  -5    0.55    0.21
  -5  -5   4    0.55    0.22
  -4   5   5    0.40    0.22
   3  -5  -5    0.94    0.28
  -5  -5   3    1.04    0.23
  -3   5   5    1.01    0.22
   5   5  -3    0.88    0.23
   3  -5  -5    1.05    0.21
   5   5  -3    1.17    0.35
  -5  -5   2    1.50    0.25
   5  -2   5    2.09    0.20
   2  -5  -5    1.73    0.29
   2  -5  -5    1.56    0.40
  -5   2  -5    2.19    0.22
   5  -1   5    2.87    0.25
   1  -5  -5    2.56    0.30
  -5   1  -5    3.27    0.27
  -1   5   5    2.28    0.30
  -5   1  -5    3.27    0.29
  -5  -5   1    2.59    0.36
   0  -5  -5    2.29    0.28
  -5  -5   0    2.52    0.35
  -5   0  -5    2.91    0.27
   0   5   5    2.51    0.28
  -5   0  -5    2.66    0.27
   5   0   5    2.59    0.25
   0  -5  -5    2.33    0.46
   1   5   5    3.00    0.28
  -5  -1  -5    3.05    0.29
   5   5   1    2.01    0.27
  -5  -5  -1    2.92    0.38
  -1  -5  -5    2.62    0.29
  -1  -5  -5    3.07    0.48
   5   1   5    2.74    0.27
  -5  -1  -5    2.84    0.29
  -5  -5  -1    2.31    0.37
  -5  -2  -5    1.42    0.30
  -5  -5  -2    1.65    0.27
  -2  -5  -5    1.94    0.28
   5   5   2    1.54    0.27
  -5  -2  -5    1.59    0.23
   5   2   5    2.13    0.26
  -5  -5  -2    2.01    0.38
   5   3   5    1.70    0.24
  -5  -5  -3    1.05    0.27
  -5  -3  -5    1.15    0.24
   5   5   3    1.58    0.25
  -5  -5  -3    2.10    0.41
  -5  -3  -5    1.40    0.35
   4   5   5    1.00    0.25
   5   4   5    1.01    0.24
  -5  -5  -4    1.84    0.45
   5   5   4    1.13    0.25
  -4   6  -4    0.71    0.21
   4  -6   4    0.74    0.18
  -4   6  -4    1.21    0.30
  -4   6  -3    1.12    0.19
  -3  -4   6    0.72    0.20
   4   3  -6    0.58    0.25
   4   3  -6    0.63    0.25
   6  -3  -4    0.70    0.22
   6  -3  -4    0.56    0.29
   3  -6   4    1.02    0.18
  -6   4   3    0.74    0.20
   3   4  -6    0.69    0.27
  -6   3   4    0.70    0.21
   3   4  -6    0.66    0.26
   6  -4  -3    0.79    0.21
   4  -6   3    1.12    0.18
   6  -3  -3    1.23    0.21
   3   3  -6    0.95    0.23
   6  -3  -3    1.21    0.28
  -6   3   3    1.48    0.26
  -3  -3   6    1.10    0.19
   3   3  -6    1.07    0.24
  -2  -5   6    0.55    0.21
  -6   5   2    0.45    0.19
   6  -2  -5    0.40    0.23
   5   2  -6    0.35    0.27
  -5   6  -2    0.75    0.18
   2  -6   5    0.74    0.19
  -2   6  -5    1.00    0.25
  -6   2   5    0.44    0.23
   2   5  -6    0.53    0.27
   5  -6   2    0.77    0.16
   2   5  -6    0.39    0.28
   6  -5  -2    0.68    0.20
   6  -2  -4    0.79    0.27
  -2  -4   6    0.87    0.19
  -4   6  -2    1.45    0.25
  -6   4   2    0.80    0.18
   6  -2  -4    0.83    0.22
   4   2  -6    0.63    0.23
   2  -6   4    1.41    0.25
   4   2  -6    0.85    0.24
   4  -6   2    1.42    0.22
   2   4  -6    0.85    0.22
  -6   2   4    1.03    0.21
   6  -4  -2    0.93    0.19
   2   4  -6    0.88    0.25
   3   2  -6    2.53    0.33
   2  -6   3    2.47    0.26
  -3   6  -2    2.58    0.28
   6  -2  -3    2.18    0.29
  -6   3   2    2.12    0.26
   3   2  -6    1.96    0.30
   6  -2  -3    2.26    0.37
  -2  -3   6    2.30    0.27
   6  -3  -2    2.18    0.27
   3  -6   2    2.54    0.25
   2   3  -6    2.21    0.29
  -2   6  -3    2.54    0.29
  -6   2   3    2.27    0.27
   2   3  -6    2.39    0.33
   2   2  -6    3.62    0.35
  -6   2   2    3.37    0.30
   2   2  -6    3.38    0.30
  -2  -2   6    3.89    0.30
  -2   6  -2    3.98    0.32
   6  -2  -2    3.66    0.31
   2  -6   2    4.03    0.31
  -5   6  -1    1.10    0.27
   1  -6   5    0.76    0.20
  -1  -5   6    0.62    0.20
  -6   5   1    0.60    0.18
   6  -1  -5    0.50    0.23
   6  -1  -5    0.38    0.27
   5   1  -6    0.41    0.19
  -5   6  -1    0.84    0.18
  -1   6  -5    1.09    0.27
   6  -5  -1    0.76    0.18
   1   5  -6    0.76    0.24
   1   5  -6    0.54    0.27
  -6   1   5    0.61    0.23
  -5  -1   6    0.59    0.24
   4   1  -6    1.29    0.25
  -1  -4   6    1.84    0.28
   4   1  -6    1.51    0.23
   6  -1  -4    1.31    0.30
   6  -1  -4    1.77    0.26
   1  -6   4    2.04    0.27
  -4   6  -1    2.25    0.29
  -6   4   1    1.89    0.26
  -4   6  -1    1.96    0.27
   6  -4  -1    1.80    0.24
  -6   1   4    1.60    0.30
  -4  -1   6    1.30    0.25
   4  -6   1    2.01    0.22
  -1   6  -4    2.05    0.33
   1   4  -6    1.70    0.29
   1   4  -6    1.87    0.34
   3   1  -6    2.83    0.32
   3   1  -6    2.58    0.25
  -1  -3   6    2.93    0.28
   3   1  -6    2.27    0.30
   6  -1  -3    2.41    0.37
   6  -1  -3    2.42    0.30
   1  -6   3    3.03    0.28
  -3   6  -1    2.98    0.28
  -6   3   1    3.07    0.26
  -1   6  -3    2.90    0.31
   1   3  -6    2.98    0.32
  -6   1   3    2.74    0.27
   1   3  -6    2.72    0.26
   3  -6   1    3.08    0.25
   6  -3  -1    2.80    0.27
   2   1  -6    5.46    0.41
   1  -6   2    5.18    0.38
   6  -1  -2    5.18    0.44
   2   1  -6    5.51    0.37
  -6   2   1    5.00    0.36
  -2   6  -1    6.01    0.44
   6  -1  -2    5.11    0.39
   2   1  -6    5.23    0.36
  -1  -2   6    5.45    0.37
  -2   6  -1    4.63    0.38
  -6   1   2    4.89    0.37
  -1   6  -2    5.96    0.46
   6  -2  -1    5.21    0.38
   2  -6   1    5.13    0.37
   1   2  -6    5.32    0.41
  -1   6  -2    4.98    0.40
   1   2  -6    5.73    0.35
   1   1  -6    6.97    0.49
  -1  -1   6    7.14    0.46
   1  -6   1    7.30    0.47
  -6   1   1    7.23    0.51
   1   1  -6    7.32    0.43
  -6   1   1    7.36    0.44
   1   1  -6    7.16    0.46
  -1   6  -1    6.42    0.48
   6  -1  -1    6.78    0.47
  -1   6  -1    8.48    0.55
   5   0  -6    0.59    0.21
  -6   5   0    0.89    0.17
   6   0  -5    0.56    0.23
   0  -6   5    0.71    0.20
   0  -5   6    0.74    0.20
   6   0  -5    0.44    0.29
  -5   6   0    0.96    0.20
   0   5  -6    1.28    0.33
   0   6  -5    0.76    0.28
  -5   0   6    0.50    0.23
   6  -5   0    1.03    0.18
   0   5  -6    0.67    0.26
  -6   0   5    0.68    0.23
   0   6  -5    0.86    0.28
   4   0  -6    1.22    0.24
  -6   4   0    1.55    0.27
  -4   6   0    1.87    0.29
   0  -6   4    1.69    0.27
   6   0  -4    1.27    0.24
   0  -4   6    1.51    0.26
   4   0  -6    1.39    0.24
   6   0  -4    1.27    0.29
  -6   4   0    1.80    0.23
   0   4  -6    1.63    0.31
   0   6  -4    2.02    0.39
   0   6  -4    1.66    0.26
   0   4  -6    1.80    0.25
   6  -4   0    1.78    0.23
  -6   0   4    1.64    0.28
  -4   0   6    1.76    0.33
   6   0  -3    3.77    0.41
   3   0  -6    3.47    0.34
  -6   3   0    3.76    0.33
  -6   3   0    3.56    0.25
   6   0  -3    3.64    0.35
   3   0  -6    3.57    0.30
   0  -3   6    3.73    0.32
   0  -6   3    3.87    0.33
  -3   6   0    3.71    0.34
  -3   6   0    3.96    0.36
   0   3  -6    4.28    0.35
   0   6  -3    3.77    0.37
   3  -6   0    3.65    0.29
   0   6  -3    4.16    0.42
   0   3  -6    4.08    0.27
   6  -3   0    3.88    0.30
  -3   0   6    3.65    0.36
  -6   0   3    3.79    0.32
   6   0  -2    5.26    0.47
  -6   2   0    6.34    0.43
   0  -2   6    5.60    0.39
  -2   6   0    6.63    0.47
  -6   2   0    6.33    0.36
   2   0  -6    5.37    0.39
   0  -6   2    6.05    0.41
   2   0  -6    5.67    0.39
   6   0  -2    5.09    0.41
  -2   6   0    5.45    0.42
   0   6  -2    6.47    0.49
   0   2  -6    6.22    0.42
   2  -6   0    5.90    0.39
  -2   0   6    5.29    0.42
   0   6  -2    5.30    0.41
  -6   0   2    5.61    0.37
   6  -2   0    5.93    0.39
  -6   0   2    4.93    0.38
  -1   6   0    8.97    0.59
   1   0  -6    7.46    0.49
  -6   1   0    8.20    0.56
   0  -6   1    8.21    0.53
   1   0  -6    8.77    0.52
  -1   6   0    7.33    0.53
  -6   1   0    7.97    0.50
   6   0  -1    8.10    0.53
   1   0  -6    8.95    0.49
   0  -1   6    7.81    0.51
   0   6  -1    9.05    0.61
  -6   0   1    7.99    0.56
  -6   0   1    8.84    0.51
  -1   0   6    8.31    0.54
   0   1  -6    8.49    0.54
   1  -6   0    8.36    0.52
   0   6  -1    7.29    0.53
   0   1  -6    8.41    0.51
   6  -1   0    7.85    0.52
   0   0  -6    8.80    0.56
   0  -6   0    9.05    0.56
   6   0   0    8.22    0.55
   0   0  -6    9.05    0.54
  -6   0   0    8.88    0.54
   0   0   6    8.30    0.53
   0   6   0    9.56    0.62
  -6   0   0    8.72    0.58
   0   6   0    7.88    0.55
   5  -1  -6    0.73    0.22
   6   1  -5    0.33    0.27
  -5   6   1    0.69    0.19
  -6   5  -1    0.95    0.19
  -1  -6   5    0.64    0.21
   6   1  -5    0.37    0.22
   1  -5   6    0.92    0.20
   1   6  -5    0.26    0.29
   5  -6  -1    0.81    0.17
   1   6  -5    0.76    0.29
  -1   5  -6    1.32    0.30
  -5   1   6    0.79    0.25
   6  -5   1    1.10    0.17
  -1   5  -6    0.73    0.25
  -6  -1   5    0.57    0.23
   6   1  -4    1.54    0.39
   6   1  -4    1.38    0.25
   1  -4   6    1.73    0.26
  -6   4  -1    2.19    0.17
  -4   6   1    1.84    0.29
  -6   4  -1    2.02    0.28
   4  -1  -6    1.79    0.27
   4  -1  -6    1.38    0.35
  -1  -6   4    1.95    0.29
  -1   4  -6    2.18    0.31
   1   6  -4    2.30    0.44
  -4   1   6    2.20    0.34
   4  -6  -1    1.85    0.22
  -1   4  -6    2.18    0.24
  -6  -1   4    1.62    0.29
   6  -4   1    2.30    0.23
   1   6  -4    1.72    0.29
  -6   3  -1    3.24    0.22
   1  -3   6    3.26    0.28
  -6   3  -1    3.46    0.31
   3  -1  -6    2.73    0.29
   6   1  -3    2.66    0.32
  -3   6   1    2.77    0.31
   6   1  -3    2.65    0.37
   3  -1  -6    2.60    0.31
  -1  -6   3    2.98    0.30
   1   6  -3    2.79    0.34
   3  -6  -1    2.90    0.24
   1   6  -3    3.37    0.43
   6  -3   1    3.64    0.27
  -3   1   6    2.75    0.32
  -6  -1   3    2.57    0.28
  -1   3  -6    3.52    0.30
   6   1  -2    5.48    0.45
  -6   2  -1    5.39    0.41
  -6   2  -1    5.58    0.35
   6   1  -2    5.55    0.41
   1  -2   6    5.31    0.38
   2  -1  -6    5.67    0.39
  -2   6   1    4.85    0.40
  -1  -6   2    5.30    0.40
   2  -1  -6    5.50    0.39
   1   6  -2    5.98    0.50
  -1   2  -6    5.84    0.39
   6  -2   1    5.64    0.38
  -2   1   6    5.62    0.41
  -6  -1   2    5.97    0.38
   1   6  -2    5.14    0.42
   2  -6  -1    5.22    0.35
   1  -1  -6    7.40    0.50
   6   1  -1    6.58    0.50
  -1   6   1    7.15    0.51
  -1  -6   1    7.83    0.51
   1  -1  -6    7.54    0.47
  -6   1  -1    8.84    0.48
   6  -1   1    8.16    0.49
   1   6  -1    6.87    0.52
   1  -6  -1    7.88    0.47
   1  -6  -1    7.96    0.49
   1   6  -1    7.93    0.58
  -6  -1   1    7.20    0.49
  -1   1  -6    8.87    0.50
  -1   1   6    7.61    0.51
  -1   1  -6    7.40    0.47
   6   1   0    7.97    0.54
  -6   0  -1    8.43    0.57
  -6   0  -1    8.34    0.52
  -1  -6   0    8.42    0.54
   0  -1  -6    8.64    0.53
   0   6   1    7.70    0.54
   0  -6  -1    8.52    0.54
   0  -6  -1    8.73    0.59
   6   0   1    7.53    0.53
   0   1   6    9.16    0.54
   1   6   0    7.81    0.54
   1   6   0    8.79    0.60
  -1   0  -6    8.25    0.53
  -1   0  -6    8.52    0.53
  -6  -1   0    8.24    0.58
  -6  -1   0    9.32    0.54
  -1  -6  -1    8.54    0.54
  -1  -6  -1    7.80    0.59
  -6  -1  -1    8.46    0.53
  -6  -1  -1    8.20    0.58
  -1  -1  -6    8.73    0.53
   1   6   1    7.70    0.54
   1   1   6    9.48    0.53
   6   1   1    7.72    0.53
   5  -2  -6    0.12    0.29
  -5   6   2    0.36    0.19
   2  -5   6    0.64    0.18
  -2  -6   5    0.69    0.22
   6   2  -5    0.38    0.30
   5  -2  -6    0.56    0.22
  -5   2   6    0.55    0.25
  -2   5  -6    0.97    0.24
   2   6  -5    0.74    0.33
   5  -6  -2    0.70    0.18
   2   6  -5    0.19    0.29
  -6  -2   5    0.45    0.22
  -6   4  -2    1.44    0.27
   6   2  -4    0.98    0.30
   6   2  -4    0.72    0.21
   2  -4   6    1.40    0.19
  -4   6   2    0.78    0.20
  -6   4  -2    1.60    0.17
   4  -2  -6    0.78    0.25
   4  -2  -6    1.48    0.27
  -2  -6   4    1.17    0.22
   2   6  -4    1.23    0.31
   2   6  -4    0.80    0.27
  -2   4  -6    1.39    0.28
  -2   4  -6    1.66    0.23
  -6  -2   4    0.83    0.19
  -4   2   6    0.86    0.23
   6  -4   2    1.46    0.21
   4  -6  -2    1.23    0.22
  -6   3  -2    3.07    0.30
   6   2  -3    2.86    0.40
   3  -2  -6    2.19    0.34
   3  -2  -6    2.77    0.29
   6   2  -3    2.05    0.29
   2  -3   6    2.83    0.27
  -6   3  -2    3.05    0.22
  -2  -6   3    2.58    0.31
  -6  -2   3    2.47    0.27
   6  -3   2    3.01    0.25
   2   6  -3    3.02    0.46
  -6  -2   3    2.24    0.28
   3  -6  -2    2.60    0.24
   2   6  -3    2.22    0.36
  -3   2   6    2.63    0.32
  -2   3  -6    2.94    0.27
   2  -2  -6    3.61    0.34
  -2   6   2    3.45    0.34
   6   2  -2    3.98    0.42
  -2  -6   2    4.11    0.35
   6   2  -2    3.91    0.35
   2  -2  -6    4.01    0.34
   2  -6  -2    4.40    0.40
   2   6  -2    3.81    0.38
  -2   2   6    4.16    0.35
  -2   2  -6    4.86    0.32
   2  -6  -2    4.31    0.30
   6  -2   2    5.01    0.32
  -6  -2   2    3.55    0.34
  -2   2  -6    4.51    0.30
   2   6  -2    4.58    0.46
   2  -1   6    4.82    0.36
   1  -2  -6    5.75    0.39
   6   2  -1    5.56    0.41
   1  -2  -6    5.96    0.40
  -6   1  -2    5.64    0.37
  -6   1  -2    5.72    0.42
  -2  -6   1    5.63    0.42
   2   6  -1    5.08    0.41
   1  -6  -2    5.63    0.37
  -6  -2   1    6.09    0.41
   2   6  -1    6.29    0.50
  -2   1  -6    5.81    0.38
  -1   2   6    6.02    0.41
  -2   1  -6    5.02    0.37
   6  -1   2    5.66    0.38
   6   2   0    5.85    0.45
   0  -2  -6    6.30    0.44
  -2  -6   0    6.86    0.46
  -6   0  -2    7.50    0.48
   0  -2  -6    7.00    0.43
   0   6   2    5.70    0.44
   0  -6  -2    6.75    0.44
   0  -6  -2    6.06    0.41
   0   2   6    6.95    0.44
  -6  -2   0    6.41    0.45
   2   6   0    6.27    0.45
  -2   0  -6    7.55    0.43
  -6  -2   0    5.40    0.49
   6   0   2    6.56    0.43
  -2   0  -6    6.07    0.41
   0  -6  -2    6.32    0.51
  -1  -2  -6    5.43    0.36
   6   2   1    5.35    0.42
   2   1   6    6.58    0.39
  -1  -2  -6    5.97    0.41
  -6  -1  -2    5.79    0.46
   1   6   2    5.26    0.41
  -6  -1  -2    6.00    0.40
  -1  -2  -6    5.73    0.37
  -2  -6  -1    6.27    0.43
  -2  -6  -1    6.39    0.50
  -6  -2  -1    5.73    0.48
  -1  -6  -2    6.80    0.43
   2   6   1    5.30    0.41
  -1  -6  -2    5.94    0.38
  -1  -6  -2    6.33    0.49
   1   2   6    6.50    0.40
  -6  -2  -1    6.12    0.42
   6   1   2    5.32    0.40
  -2  -1  -6    6.25    0.41
  -2  -1  -6    5.03    0.38
   2   6   2    4.57    0.35
  -6  -2  -2    4.62    0.43
  -2  -2  -6    4.33    0.29
  -2  -6  -2    4.62    0.46
   6   2   2    4.28    0.35
  -2  -6  -2    5.19    0.39
  -6  -2  -2    4.84    0.37
  -2  -2  -6    4.82    0.36
  -2  -2  -6    4.27    0.33
  -2  -2  -6    4.77    0.29
  -4   6   3    0.59    0.21
   6   3  -4    0.56    0.22
   6   3  -4    0.68    0.31
   4  -3  -6    0.83    0.21
   4  -3  -6    0.50    0.27
  -3  -6   4    1.05    0.22
   3   6  -4    0.69    0.27
   4  -6  -3    0.93    0.19
  -6  -3   4    0.52    0.19
   3   6  -4    0.98    0.35
  -4   3   6    0.70    0.24
   3  -3  -6    1.16    0.24
   3  -3  -6    1.72    0.28
  -3   6   3    0.99    0.20
   6   3  -3    1.36    0.38
  -3  -6   3    1.27    0.22
   3  -6  -3    1.43    0.23
  -6  -3   3    1.21    0.21
   3  -6  -3    1.41    0.33
   3   6  -3    2.16    0.50
   3   6  -3    1.17    0.26
  -3   3   6    1.32    0.23
   2  -3  -6    2.81    0.30
   2  -3  -6    2.71    0.32
   6   3  -2    2.32    0.29
  -6   2  -3    3.34    0.25
  -3  -6   2    2.74    0.33
  -6   2  -3    3.17    0.31
   6  -2   3    3.34    0.27
   2  -6  -3    3.11    0.39
  -6  -3   2    2.42    0.33
  -2   3   6    2.60    0.32
   2  -6  -3    2.68    0.27
   3   6  -2    2.60    0.35
  -3   2  -6    3.09    0.25
   3   6  -2    3.15    0.45
  -6   1  -3    4.18    0.28
   6   3  -1    2.85    0.30
  -6   1  -3    3.91    0.32
   3  -1   6    3.51    0.26
  -3  -6   1    3.50    0.34
  -1   6   3    2.68    0.30
   1  -3  -6    3.31    0.31
  -3   1  -6    3.55    0.27
   6  -1   3    3.77    0.29
   3   6  -1    3.88    0.48
  -6  -3   1    2.77    0.34
  -1   3   6    3.39    0.32
   3   6  -1    2.92    0.33
   1  -6  -3    3.29    0.28
   0  -3  -6    4.83    0.39
  -6   0  -3    4.65    0.32
  -3  -6   0    4.58    0.38
   0   6   3    3.62    0.34
   6   3   0    4.01    0.36
   3   0   6    4.00    0.31
  -6   0  -3    4.51    0.36
   0  -3  -6    4.07    0.34
   0   3   6    4.61    0.34
   3   6   0    4.09    0.34
   6   0   3    4.05    0.32
  -6  -3   0    4.02    0.37
  -6  -3   0    3.73    0.41
  -3   0  -6    4.32    0.31
   0  -6  -3    4.23    0.46
   0  -6  -3    4.31    0.32
  -3  -6  -1    3.48    0.40
   1   6   3    3.29    0.30
  -3  -6  -1    3.80    0.36
  -6  -1  -3    3.92    0.31
  -1  -3  -6    3.36    0.32
  -6  -1  -3    3.67    0.36
   6   3   1    3.35    0.32
   3   1   6    3.57    0.29
  -1  -6  -3    3.74    0.44
  -6  -3  -1    3.39    0.35
  -3  -1  -6    3.44    0.29
  -6  -3  -1    3.14    0.40
  -1  -6  -3    3.25    0.28
   3   6   1    3.68    0.30
   6   1   3    3.33    0.29
   1   3   6    4.19    0.30
   6   3   2    2.81    0.30
  -2  -3  -6    3.15    0.33
  -3  -6  -2    3.53    0.36
   3   2   6    2.56    0.27
   2   6   3    2.94    0.27
  -6  -2  -3    2.87    0.31
  -6  -2  -3    2.94    0.37
  -2  -3  -6    2.91    0.30
   3   6   2    3.13    0.29
  -3  -2  -6    3.15    0.24
  -2  -6  -3    2.97    0.28
  -3  -2  -6    2.85    0.28
   6   2   3    2.67    0.29
  -2  -6  -3    3.40    0.44
  -6  -3  -2    2.60    0.34
  -6  -3  -2    2.71    0.40
  -2  -6  -3    3.30    0.35
   6   3   3    1.94    0.28
  -3  -3  -6    1.90    0.30
  -3  -3  -6    1.42    0.24
  -6  -3  -3    1.51    0.25
  -6  -3  -3    1.52    0.39
  -3  -6  -3    1.75    0.26
   3   6   3    2.36    0.29
   3   3   6    1.89    0.25
  -6   4  -4    0.86    0.14
  -4   6   4    0.42    0.22
   4  -4   6    0.70    0.21
  -6   4  -4    1.15    0.25
   3  -4  -6    0.72    0.26
  -4  -6   3    1.25    0.24
   6   4  -3    1.59    0.44
  -3   6   4    0.66    0.21
  -6   3  -4    1.42    0.31
   3  -4  -6    0.96    0.22
   4   6  -3    0.58    0.24
  -6  -4   3    0.72    0.22
   3  -6  -4    0.90    0.28
  -3   4   6    0.94    0.23
   3  -6  -4    0.93    0.20
   4   6  -3    1.17    0.36
   2  -4  -6    1.25    0.34
  -2   6   4    0.89    0.20
  -4  -6   2    1.31    0.23
   2  -4  -6    1.19    0.22
   2  -6  -4    1.77    0.42
   6  -2   4    1.52    0.21
  -2   4   6    1.06    0.21
   4   6  -2    0.92    0.23
  -6  -4   2    1.18    0.24
   4   6  -2    1.21    0.31
  -4   2  -6    1.68    0.21
   2  -6  -4    1.09    0.20
  -6   1  -4    2.81    0.25
  -6   1  -4    2.43    0.29
   1  -4  -6    2.17    0.29
  -1   6   4    1.75    0.28
  -4  -6   1    2.25    0.34
   6   4  -1    1.63    0.25
   4  -1   6    2.25    0.22
   6  -1   4    2.37    0.24
   1  -6  -4    2.27    0.26
  -1   4   6    2.21    0.29
   4   6  -1    2.03    0.30
   1  -6  -4    1.70    0.31
  -6  -4   1    1.94    0.27
  -4   1  -6    2.42    0.24
   0  -4  -6    1.86    0.42
  -4  -6   0    2.15    0.34
   0   6   4    1.71    0.26
  -6   0  -4    2.25    0.25
   0  -4  -6    1.99    0.29
   6   4   0    1.59    0.27
  -6   0  -4    2.05    0.29
   4   0   6    2.04    0.23
   6   0   4    2.04    0.24
  -4   0  -6    2.41    0.25
   0  -6  -4    2.06    0.26
   0   4   6    2.17    0.27
  -6  -4   0    1.72    0.26
   0  -6  -4    1.81    0.33
   1   6   4    2.14    0.27
  -4  -6  -1    2.29    0.36
   6   4   1    1.55    0.28
  -6  -1  -4    2.21    0.33
   4   1   6    2.17    0.25
  -1  -4  -6    1.99    0.29
  -6  -1  -4    2.51    0.28
  -4  -1  -6    2.54    0.27
   1   4   6    2.51    0.27
  -6  -4  -1    2.18    0.36
  -4  -1  -6    2.44    0.20
  -1  -6  -4    2.20    0.27
   6   1   4    2.16    0.26
  -1  -6  -4    2.64    0.52
  -4  -6  -2    1.57    0.26
  -2  -4  -6    1.37    0.23
   4   2   6    1.29    0.24
   6   4   2    1.55    0.23
  -6  -2  -4    1.48    0.23
  -6  -2  -4    1.28    0.34
  -4  -2  -6    1.23    0.20
   6   2   4    1.53    0.21
  -6  -4  -2    1.08    0.27
   4   6   2    1.48    0.21
  -2  -6  -4    2.23    0.55
  -4  -2  -6    1.31    0.23
  -2  -6  -4    1.58    0.26
   3   6   4    1.88    0.31
   4   3   6    1.25    0.21
  -4  -6  -3    0.94    0.27
   6   4   3    1.26    0.23
  -6  -3  -4    0.93    0.24
  -6  -3  -4    0.91    0.27
   6   3   4    1.57    0.24
   4   6   3    1.32    0.23
  -4  -3  -6    0.83    0.20
  -6  -4  -3    0.70    0.26
  -6  -4  -3    0.70    0.27
   3   4   6    1.74    0.26
  -4  -3  -6    1.43    0.30
  -4  -4  -6    0.58    0.24
   6   4   4    0.73    0.23
   4   4   6    0.65    0.21
  -6  -4  -4    0.39    0.28
   4   6   4    0.74    0.25
  -4  -6  -4    0.51    0.27
  -6  -4  -4    0.21    0.26
   2  -5  -6    0.74    0.22
  -6   2  -5    1.15    0.17
   2  -5  -6    0.85    0.27
  -5  -6   2    0.75    0.25
  -2   6   5    0.65    0.21
   2  -6  -5    0.68    0.21
  -6  -5   2    0.65    0.25
  -2   5   6    0.69    0.21
   6  -2   5    0.92    0.16
  -5  -6   1    0.87    0.26
  -1   6   5    0.71    0.19
   5  -1   6    1.04    0.16
  -6   1  -5    1.25    0.19
   1  -5  -6    0.85    0.23
  -6   1  -5    1.25    0.20
   1  -5  -6    0.56    0.34
  -5   1  -6    1.23    0.18
  -6  -5   1    0.75    0.26
   1  -6  -5    0.48    0.34
  -1   5   6    0.74    0.19
   1  -6  -5    0.71    0.21
  -5   1  -6    1.24    0.20
   6  -1   5    0.97    0.17
  -6   0  -5    1.25    0.20
   0  -5  -6    0.90    0.36
   5   0   6    1.22    0.17
   0   6   5    0.81    0.18
  -6   0  -5    1.03    0.20
   0  -5  -6    0.98    0.22
  -5  -6   0    1.01    0.26
  -6  -5   0    0.92    0.27
   0  -6  -5    0.76    0.38
  -5   0  -6    0.98    0.22
   6   0   5    1.17    0.18
   0   5   6    0.93    0.18
   0  -6  -5    1.08    0.22
  -5   0  -6    1.25    0.19
  -6  -1  -5    0.84    0.21
  -5  -6  -1    0.93    0.27
  -1  -5  -6    1.03    0.23
   6   5   1    0.76    0.20
   1   6   5    0.96    0.18
  -6  -1  -5    0.95    0.20
   5   1   6    1.01    0.18
  -1  -5  -6    1.21    0.39
  -6  -5  -1    0.91    0.28
  -5  -1  -6    0.84    0.16
  -1  -6  -5    1.03    0.22
  -1  -6  -5    1.12    0.42
   6   1   5    1.11    0.19
  -5  -1  -6    0.94    0.20
  -2  -5  -6    0.78    0.23
  -6  -2  -5    0.82    0.22
  -5  -6  -2    0.96    0.28
   6   5   2    0.65    0.21
   5   2   6    0.85    0.20
  -6  -2  -5    0.64    0.22
  -6  -5  -2    0.49    0.28
  -5  -2  -6    0.85    0.18
  -2  -6  -5    1.58    0.46
  -6  -5  -2    0.74    0.28
   6   2   5    0.90    0.21
  -5  -2  -6    0.79    0.21
   5   6   2    0.74    0.21
  -2  -6  -5    0.82    0.22
  -3   7  -3    0.64    0.20
   7  -3  -3    0.32    0.21
  -7   3   3    0.30    0.18
   3   3  -7    0.25    0.20
   3  -7   3    0.57    0.18
   3   3  -7    0.31    0.26
  -3   7  -2    0.76    0.19
   2  -7   3    0.66    0.18
   3   2  -7    0.79    0.25
  -3   7  -2    0.89    0.24
   7  -2  -3    0.50    0.22
   3   2  -7    0.45    0.19
   7  -3  -2    0.46    0.20
  -2   7  -3    1.07    0.29
   3  -7   2    0.74    0.17
   2   3  -7    0.51    0.24
   2   3  -7    0.54    0.16
  -2   7  -3    0.66    0.20
  -2   7  -2    1.25    0.21
   7  -2  -2    1.09    0.21
   2  -7   2    1.35    0.25
   2   2  -7    1.22    0.24
   2   2  -7    0.98    0.21
   1  -7   4    0.48    0.19
   7  -1  -4    0.27    0.24
   4   1  -7    0.06    0.21
  -1  -4   7    0.38    0.20
  -4   7  -1    0.55    0.19
   7  -1  -4    0.22    0.28
  -7   1   4    0.21    0.20
   1   4  -7    0.32    0.15
   7  -4  -1    0.40    0.19
   1   4  -7    0.31    0.25
  -4  -1   7    0.14    0.25
  -1   7  -4    0.30    0.23
  -3   7  -1    0.96    0.20
  -1  -3   7    0.84    0.19
   3   1  -7    0.67    0.19
   7  -1  -3    0.81    0.22
   1  -7   3    1.05    0.20
  -3   7  -1    1.56    0.35
   1   3  -7    0.93    0.23
   1   3  -7    1.00    0.14
  -3  -1   7    0.36    0.24
   3  -7   1    0.99    0.17
   7  -3  -1    1.10    0.21
  -1   7  -3    0.93    0.23
   2   1  -7    1.86    0.32
  -2   7  -1    1.43    0.29
   2   1  -7    1.47    0.20
   1  -7   2    1.51    0.26
   7  -1  -2    1.62    0.24
  -2   7  -1    2.11    0.39
  -1   7  -2    2.06    0.46
   1   2  -7    1.59    0.31
   7  -2  -1    1.48    0.22
  -1   7  -2    1.52    0.24
   2  -7   1    1.67    0.24
  -1   7  -1    2.73    0.41
   7  -1  -1    2.13    0.28
  -1   7  -1    1.96    0.30
   1   1  -7    2.49    0.32
   1  -7   1    2.23    0.27
   4   0  -7    0.14    0.23
   0  -4   7    0.58    0.19
   4   0  -7    0.54    0.19
   0  -7   4    0.48    0.20
  -4   7   0    0.57    0.21
   7   0  -4    0.24    0.27
   7   0  -4    0.22    0.24
   0   7  -4    0.83    0.32
  -4   0   7    0.50    0.25
   0   4  -7    0.67    0.24
   7  -4   0    0.89    0.19
   0   7  -4    0.54    0.26
   3   0  -7    1.02    0.19
   0  -7   3    0.89    0.20
  -3   7   0    0.95    0.21
   0  -3   7    0.89    0.18
   3   0  -7    0.66    0.19
   7   0  -3    0.88    0.23
   0   7  -3    0.69    0.24
   7  -3   0    1.10    0.19
  -3   0   7    0.92    0.24
   0   7  -3    1.32    0.32
   0   3  -7    1.06    0.22
  -7   2   0    1.63    0.29
   2   0  -7    1.72    0.21
   2   0  -7    1.89    0.24
   0  -7   2    1.86    0.28
   0  -2   7    1.85    0.25
  -7   2   0    1.85    0.18
  -2   7   0    1.82    0.30
   7   0  -2    1.84    0.30
   0   2  -7    2.02    0.29
  -2   0   7    1.54    0.33
   2  -7   0    1.76    0.24
   7  -2   0    1.98    0.26
   0   7  -2    1.37    0.23
   0   7  -2    2.30    0.47
   1   0  -7    2.38    0.26
   7   0  -1    2.12    0.30
   0  -7   1    2.64    0.29
  -7   1   0    2.19    0.32
  -7   1   0    2.50    0.22
  -1   7   0    2.00    0.29
   7  -1   0    2.37    0.28
   0   1  -7    2.72    0.30
   0   7  -1    2.56    0.44
   1  -7   0    2.41    0.27
  -1   0   7    2.12    0.31
   0   7  -1    2.17    0.31
  -7   0   1    2.26    0.23
   0   0  -7    3.14    0.28
   0   0   7    3.05    0.32
   7   0   0    2.75    0.30
   0   7   0    2.38    0.31
  -7   0   0    3.25    0.27
  -7   0   0    2.65    0.34
   0  -7   0    3.29    0.31
   4  -1  -7    0.10    0.23
  -1  -7   4    0.65    0.21
   1  -4   7    0.55    0.19
   7   1  -4    0.06    0.23
   4  -1  -7    0.38    0.21
   7   1  -4    0.42    0.29
  -7   4  -1    0.59    0.19
  -4   7   1    0.43    0.21
  -4   1   7    0.36    0.25
  -1   4  -7    0.52    0.22
   1   7  -4    0.27    0.28
   7  -4   1    0.69    0.18
   1   7  -4    0.57    0.35
  -7   3  -1    1.28    0.17
   1  -3   7    1.08    0.19
   3  -1  -7    0.89    0.20
   7   1  -3    0.91    0.24
  -1  -7   3    1.11    0.21
  -3   7   1    0.84    0.21
   3  -1  -7    0.79    0.20
  -7   3  -1    1.27    0.21
   7  -3   1    1.38    0.24
  -3   1   7    1.08    0.24
   1   7  -3    1.16    0.32
  -1   3  -7    1.25    0.21
   1   7  -3    0.75    0.25
  -7   2  -1    1.76    0.30
   2  -1  -7    1.46    0.22
   1  -2   7    1.50    0.24
   2  -1  -7    1.73    0.26
   7   1  -2    1.65    0.25
  -7   2  -1    1.93    0.20
  -1  -7   2    1.91    0.29
  -2   7   1    1.25    0.22
   7  -2   1    2.09    0.27
   1   7  -2    1.25    0.24
  -1   2  -7    1.93    0.26
  -7  -1   2    1.72    0.25
  -2   1   7    1.70    0.31
   1   7  -2    1.77    0.47
  -1  -7   1    2.72    0.30
  -7   1  -1    2.75    0.24
  -7   1  -1    2.23    0.32
   7   1  -1    2.20    0.31
   1  -1   7    1.99    0.25
  -1   7   1    1.86    0.30
   1  -1  -7    2.64    0.28
   1   7  -1    2.71    0.45
  -1   1  -7    2.41    0.28
  -1   1   7    2.32    0.31
  -7  -1   1    2.67    0.27
   1   7  -1    2.04    0.32
   7  -1   1    2.62    0.28
   0  -1  -7    2.60    0.28
  -1  -7   0    2.81    0.31
  -7   0  -1    2.51    0.33
   0   7   1    2.19    0.30
   1   0   7    2.66    0.30
  -7   0  -1    2.87    0.26
   7   1   0    2.47    0.30
  -7  -1   0    2.78    0.28
   0  -7  -1    2.96    0.29
   7   0   1    2.47    0.28
   0   1   7    2.73    0.30
   1   7   0    2.14    0.31
  -7  -1   0    2.00    0.33
  -1   0  -7    3.04    0.27
  -7  -1  -1    2.11    0.34
   1   7   1    1.99    0.29
  -1  -7  -1    2.55    0.30
  -1  -1  -7    2.61    0.28
   7   1   1    2.32    0.29
  -7  -1  -1    2.52    0.28
   1   1   7    2.72    0.27
  -7   3  -2    0.93    0.20
  -7   3  -2    0.93    0.13
  -2  -7   3    0.86    0.22
   2  -3   7    0.81    0.19
   7   2  -3    0.49    0.22
   3  -2  -7    0.63    0.20
   2   7  -3    0.90    0.33
   2   7  -3    0.44    0.26
  -3   2   7    0.79    0.24
   7  -3   2    1.08    0.18
  -2   3  -7    0.81    0.18
   2  -2   7    1.58    0.20
   7   2  -2    1.16    0.24
  -7   2  -2    1.70    0.21
  -7   2  -2    1.41    0.31
  -2  -7   2    1.45    0.23
   2  -2  -7    1.03    0.24
   2  -2  -7    1.48    0.27
   2   7  -2    0.97    0.24
   7  -2   2    1.63    0.25
   2   7  -2    1.28    0.33
  -2   2  -7    1.50    0.23
  -7  -2   2    1.03    0.20
  -2   2   7    1.24    0.23
  -2  -7   1    2.08    0.32
   1  -2  -7    1.73    0.28
  -7   1  -2    1.75    0.31
  -1   7   2    1.25    0.21
   7   2  -1    1.71    0.25
   1  -2  -7    1.54    0.28
  -7   1  -2    2.08    0.23
   2  -1   7    1.43    0.19
   2   7  -1    1.40    0.23
  -2   1  -7    1.55    0.20
   7  -1   2    1.93    0.26
  -1   2   7    2.12    0.30
  -7  -2   1    1.79    0.28
  -2  -7   0    2.32    0.31
  -7   0  -2    1.93    0.32
   0   7   2    1.30    0.28
   2   0   7    1.51    0.22
   0  -2  -7    2.32    0.28
  -7   0  -2    2.37    0.25
   7   2   0    1.79    0.29
   7   0   2    1.84    0.26
   0   2   7    2.20    0.28
   2   7   0    1.79    0.29
  -2   0  -7    1.86    0.21
   0  -7  -2    1.84    0.41
  -7  -2   0    2.28    0.30
   1   7   2    1.55    0.27
  -1  -2  -7    1.94    0.28
  -7  -1  -2    1.66    0.34
   7   2   1    1.69    0.29
  -2  -7  -1    2.09    0.31
  -7  -1  -2    2.08    0.28
   1   2   7    2.14    0.27
  -1  -7  -2    1.88    0.41
   7   1   2    1.64    0.26
  -1  -7  -2    2.15    0.31
  -2  -1  -7    1.93    0.26
  -7  -2  -1    1.81    0.30
  -7  -2  -1    1.27    0.35
   2   7   1    1.63    0.27
  -7  -2  -2    1.07    0.26
  -2  -7  -2    1.55    0.23
  -2  -2  -7    1.53    0.27
  -7  -2  -2    1.53    0.23
  -2  -7  -2    1.61    0.40
   2   7   2    1.36    0.25
   7   2   2    1.33    0.22
  -3   7   3    0.35    0.20
  -7   3  -3    0.76    0.21
  -3  -7   3    0.67    0.23
   3  -3  -7    0.61    0.22
   3  -3   7    0.66    0.20
   3  -3  -7    0.34    0.23
  -7   3  -3    0.89    0.14
   3  -7  -3    0.51    0.17
   3   7  -3    0.70    0.35
  -3   3   7    0.50    0.24
   3   7  -3    0.07    0.26
  -7  -3   3    0.19    0.22
   7  -3   3    0.91    0.17
  -2   7   3    0.47    0.19
  -3  -7   2    0.99    0.23
  -7   2  -3    1.09    0.16
   2  -3  -7    0.71    0.21
   2  -3  -7    0.68    0.20
   7   3  -2    0.70    0.21
  -7   2  -3    0.89    0.21
  -7  -3   2    0.40    0.22
   3   7  -2    0.45    0.22
   3   7  -2    0.76    0.32
  -3   2  -7    0.77    0.14
   2  -7  -3    0.68    0.17
   7  -2   3    1.02    0.18
  -2   3   7    0.60    0.22
  -7   1  -3    1.62    0.25
  -1   7   3    0.89    0.19
   1  -3  -7    1.28    0.23
  -7   1  -3    1.25    0.30
  -3  -7   1    1.29    0.23
   7   3  -1    0.86    0.21
   1  -3  -7    1.03    0.24
   3  -1   7    1.14    0.19
   1  -7  -3    1.32    0.22
   7  -1   3    1.48    0.24
  -1   3   7    1.17    0.21
  -7  -3   1    0.81    0.22
   1  -7  -3    1.01    0.29
   3   7  -1    0.86    0.22
  -3   1  -7    1.49    0.21
   0  -3  -7    1.19    0.22
   7   3   0    1.20    0.23
   3   0   7    1.04    0.20
  -7   0  -3    1.56    0.26
   0   7   3    0.80    0.18
  -7   0  -3    1.14    0.23
  -3  -7   0    1.40    0.23
   0  -7  -3    0.88    0.31
   0  -7  -3    1.17    0.22
   7   0   3    1.39    0.24
   3   7   0    0.89    0.19
  -3   0  -7    1.15    0.17
  -7  -3   0    0.96    0.24
   0   3   7    1.17    0.20
  -1  -3  -7    1.39    0.23
  -3  -7  -1    1.71    0.24
   3   1   7    1.14    0.18
  -7  -1  -3    1.14    0.25
   1   7   3    0.93    0.18
   7   3   1    1.19    0.23
  -7  -1  -3    1.83    0.29
   7   1   3    1.14    0.20
  -7  -3  -1    0.81    0.28
  -1  -7  -3    1.28    0.22
  -1  -7  -3    1.09    0.32
  -7  -3  -1    1.06    0.25
  -3  -1  -7    1.21    0.22
   3   2   7    0.67    0.17
  -2  -3  -7    1.11    0.19
  -7  -2  -3    0.80    0.22
  -2  -3  -7    1.04    0.22
   7   3   2    0.82    0.21
  -3  -7  -2    0.81    0.28
  -3  -7  -2    0.97    0.24
  -7  -2  -3    0.59    0.26
  -7  -3  -2    0.61    0.24
  -7  -3  -2    0.46    0.26
  -2  -7  -3    0.89    0.31
   7   2   3    0.74    0.20
  -3  -7  -3    0.73    0.27
   3   3   7    0.68    0.18
  -3  -7  -3    1.05    0.38
  -7  -3  -3    0.34    0.26
   7   3   3    0.73    0.22
  -3  -3  -7    0.75    0.20
  -7  -3  -3    0.43    0.25
   4  -1   7    0.57    0.14
   1  -4  -7    0.17    0.30
  -7   1  -4    0.56    0.21
   1  -4  -7    0.62    0.23
   7   4  -1    0.32    0.20
  -1   7   4    0.39    0.18
  -4  -7   1    0.71    0.24
  -7   1  -4    0.92    0.18
  -1   4   7    0.60    0.20
  -4   1  -7    0.63    0.17
  -7  -4   1    0.31    0.26
   7  -1   4    0.76    0.17
   1  -7  -4    0.17    0.32
   1  -7  -4    0.55    0.19
  -4  -7   0    0.83    0.25
  -7   0  -4    0.58    0.22
   0   7   4    0.65    0.18
  -7   0  -4    1.13    0.20
   4   0   7    0.87    0.16
   0  -4  -7    0.81    0.23
   7   4   0    0.47    0.21
   0  -4  -7    0.61    0.30
  -7  -4   0    0.39    0.26
   0  -7  -4    0.74    0.20
   0   4   7    0.76    0.19
   0  -7  -4    0.38    0.38
  -4   0  -7    0.74    0.17
   7   0   4    0.83    0.19
   4   1   7    0.53    0.16
   7   4   1    0.61    0.21
  -1  -4  -7    0.80    0.23
  -7  -1  -4    0.33    0.22
  -4  -7  -1    0.63    0.25
  -7  -1  -4    0.62    0.21
   1   7   4    0.52    0.17
  -4  -1  -7    0.65    0.19
  -1  -7  -4    0.65    0.41
   7   1   4    0.53    0.19
  -1  -7  -4    0.66    0.19
  -7  -4  -1    0.40    0.27
  -1   8  -1    0.52    0.22
   8  -1  -1    0.65    0.22
   1  -8   1    0.54    0.19
   0  -8   2    0.53    0.20
  -2   8   0    0.35    0.21
   0   8  -2    0.42    0.23
   0   2  -8    0.58    0.21
   8  -2   0    0.64    0.21
   8   0  -1    0.50    0.23
   0  -8   1    0.61    0.20
  -8   1   0    0.56    0.14
  -1   8   0    0.31    0.21
   8  -1   0    0.68    0.22
  -1   0   8    0.46    0.22
   0   1  -8    0.72    0.20
   0   8  -1    0.31    0.22
   0   8   0    0.57    0.22
   8   0   0    0.88    0.24
   0   0   8    0.73    0.21
  -8   0   0    0.97    0.17
   0   0  -8    0.90    0.19
   0  -8   0    0.82    0.20
  -1   8   1    0.44    0.21
   8   1  -1    0.76    0.25
  -1  -8   1    0.75    0.21
  -8   1  -1    0.37    0.22
  -8   1  -1    0.63    0.15
   1  -1  -8    0.90    0.20
  -8  -1   1    0.60    0.18
  -1   1  -8    0.82    0.19
   8  -1   1    0.61    0.21
   1   8  -1    0.43    0.22
  -1   1   8    0.65    0.22
   1   0   8    0.55    0.20
   0   8   1    0.39    0.19
   0  -1  -8    0.61    0.21
  -8   0  -1    0.64    0.18
   8   1   0    0.43    0.22
  -8   0  -1    0.28    0.21
  -1  -8   0    0.81    0.22
   0   1   8    0.63    0.20
  -8  -1   0    0.59    0.19
   8   0   1    0.75    0.22
   1   8   0    0.33    0.20
  -1   0  -8    0.83    0.19
  -1  -1  -8    0.97    0.22
   1   8   1    0.43    0.20
  -1  -8  -1    0.91    0.21
   8   1   1    0.69    0.22
  -8  -1  -1    0.86    0.20
  -8   0  -2    0.73    0.19
   2   0   8    0.37    0.14
   0  -2  -8    0.79    0.23
   0   8   2    0.32    0.19
  -8   0  -2    0.31    0.23
   2   8   0    0.33    0.20
   8   0   2    0.60    0.21
   0   2   8    0.76    0.21
   0   0   0    0.00    0.00
;
_shelx_hkl_checksum              41843
_olex2_submission_special_instructions 'No special instructions were received'
loop_
_space_group_symop_operation_xyz
'x, y, z'
'z, x, y'
'y, z, x'
'y, x, z'
'x, z, y'
'z, y, x'
loop_
_atom_site_label
_atom_site_type_symbol
_atom_site_fract_x
_atom_site_fract_y
_atom_site_fract_z
_atom_site_U_iso_or_equiv
_atom_site_adp_type
_atom_site_occupancy
_atom_site_site_symmetry_order
_atom_site_calc_flag
_atom_site_refinement_flags_posn
_atom_site_refinement_flags_adp
_atom_site_refinement_flags_occupancy
_atom_site_disorder_assembly
_atom_site_disorder_group
Re1 Re 0.01498(2) 0.01498(2) 0.01498(2) 0.0909(3) Uani 1 6 d DS T P . .
O1 O -0.040(8) -0.040(8) -0.237(5) 0.26(3) Uiso 0.6667 2 d DS T P . .
O2 O -0.023(6) -0.023(6) 0.275(4) 0.219(18) Uiso 0.6667 2 d DS T P . .
N1 N 0.540(7) 0.671(5) 0.671(5) 0.089(4) Uiso 0.3333 2 d S T P . .
C1 C 0.585(5) 0.444(5) 0.745(5) 0.089(4) Uiso 0.3333 1 d . . . . .
C2 C 0.486(6) 0.361(7) 0.682(7) 0.089(4) Uiso 0.3333 1 d . . . . .
C3 C 0.444(5) 0.284(7) 0.444(5) 0.089(4) Uiso 0.3333 2 d S T P . .
C4 C 0.355(6) 0.553(7) 0.355(6) 0.089(4) Uiso 0.3333 2 d S T P . .
C5 C 0.445(5) 0.748(8) 0.445(5) 0.089(4) Uiso 0.3333 2 d S T P . .
loop_
_atom_site_aniso_label
_atom_site_aniso_U_11
_atom_site_aniso_U_22
_atom_site_aniso_U_33
_atom_site_aniso_U_23
_atom_site_aniso_U_13
_atom_site_aniso_U_12
Re1 0.0909(3) 0.0909(3) 0.0909(3) -0.00195(16) -0.00195(16) -0.00195(16)
loop_
_atom_type_symbol
_atom_type_description
_atom_type_scat_dispersion_real
_atom_type_scat_dispersion_imag
_atom_type_scat_source
C C 0.0033 0.0016 'International Tables Vol C Tables 4.2.6.8 and 6.1.1.4'
H H 0.0000 0.0000 'International Tables Vol C Tables 4.2.6.8 and 6.1.1.4'
N N 0.0061 0.0033 'International Tables Vol C Tables 4.2.6.8 and 6.1.1.4'
O O 0.0106 0.0060 'International Tables Vol C Tables 4.2.6.8 and 6.1.1.4'
Re Re -1.0185 7.2310 'International Tables Vol C Tables 4.2.6.8 and 6.1.1.4'
loop_
_geom_angle_atom_site_label_1
_geom_angle_atom_site_label_2
_geom_angle_atom_site_label_3
_geom_angle
_geom_angle_site_symmetry_1
_geom_angle_site_symmetry_3
O1 Re1 O1 64(4) 3 2
O1 Re1 O1 64(4) 3 .
O1 Re1 O1 64(4) 2 .
O1 Re1 O2 151(3) 3 3
O1 Re1 O2 92(3) . 2
O1 Re1 O2 92(3) 3 2
O1 Re1 O2 92(3) 2 3
O1 Re1 O2 92(3) 3 .
O1 Re1 O2 151(3) 2 2
O1 Re1 O2 92(3) 2 .
O1 Re1 O2 151(3) . .
O1 Re1 O2 92(3) . 3
O2 Re1 O2 105(2) . 2
O2 Re1 O2 105(2) . 3
O2 Re1 O2 105(2) 3 2
Re1 O1 O1 58.2(19) . 2
Re1 O1 O1 58.2(19) . 3
O1 O1 O1 60.000(2) 2 3
N1 N1 N1 59.999(5) 3 2
N1 N1 C1 37.7(18) 3 5
N1 N1 C1 94.8(18) 3 .
N1 N1 C1 94.8(18) 2 5
N1 N1 C1 37.7(18) 2 .
N1 N1 C2 121.3(19) 2 3
N1 N1 C2 89.0(17) 3 3
N1 N1 C2 89.0(17) 2 4
N1 N1 C2 121.3(19) 3 4
N1 N1 C5 118(2) 2 .
N1 N1 C5 68.9(15) 2 2
N1 N1 C5 68.9(15) 3 .
N1 N1 C5 118(2) 3 2
C1 N1 N1 93(3) 4 2
C1 N1 N1 144(3) 4 3
C1 N1 N1 144(3) 3 2
C1 N1 N1 93(3) 3 3
C1 N1 C1 55(4) 3 5
C1 N1 C1 99(6) 3 4
C1 N1 C1 55(4) 4 .
C1 N1 C1 139(5) 4 5
C1 N1 C1 139(5) 3 .
C1 N1 C1 122(4) 5 .
C1 N1 C2 56(2) . 4
C1 N1 C2 28(3) 4 4
C1 N1 C2 112(3) . 3
C1 N1 C2 28(3) 3 3
C1 N1 C2 112(3) 5 4
C1 N1 C2 86(4) 4 3
C1 N1 C2 56(2) 5 3
C1 N1 C2 86(4) 3 4
C1 N1 C5 111(4) 4 .
C1 N1 C5 128(3) . .
C1 N1 C5 32.4(13) . 2
C1 N1 C5 111(4) 3 2
C1 N1 C5 128(3) 5 2
C1 N1 C5 26(2) 4 2
C1 N1 C5 26(2) 3 .
C1 N1 C5 32.4(13) 5 .
C2 N1 C2 65(4) 3 4
C5 N1 C2 25.6(15) . 3
C5 N1 C2 89(3) 2 3
C5 N1 C2 25.6(15) 2 4
C5 N1 C2 89(3) . 4
C5 N1 C5 113(4) 2 .
N1 C1 N1 49(4) 2 .
N1 C1 C1 41(3) 2 6
N1 C1 C1 87(3) 2 4
N1 C1 C2 63(3) 2 6
N1 C1 C2 108(4) 2 4
N1 C1 C2 93(2) . 6
N1 C1 C4 108(3) 2 2
N1 C1 C4 87(2) . 2
C1 C1 N1 85.2(18) 6 .
C1 C1 N1 37.7(18) 4 .
C1 C1 C1 119.998(12) 4 6
C1 C1 C2 37(2) 4 4
C1 C1 C2 29(2) 6 6
C1 C1 C2 116.0(13) 4 6
C1 C1 C2 119(2) 6 4
C1 C1 C4 95.1(14) 6 2
C1 C1 C4 71.4(11) 4 2
C2 C1 N1 124(5) . 2
C2 C1 N1 65(3) 4 .
C2 C1 N1 106(3) . .
C2 C1 C1 85(4) . 4
C2 C1 C1 100(4) . 6
C2 C1 C2 71(5) . 6
C2 C1 C2 48(3) . 4
C2 C1 C2 97(3) 4 6
C2 C1 C4 67(2) 6 2
C2 C1 C4 20(2) . 2
C2 C1 C4 36(2) 4 2
C5 C1 N1 79(4) 2 .
C5 C1 N1 126(5) 2 2
C5 C1 C1 136(4) 2 6
C5 C1 C1 45(3) 2 4
C5 C1 C2 47(3) 2 .
C5 C1 C2 19(3) 2 4
C5 C1 C2 111(5) 2 6
C5 C1 C4 44(4) 2 2
N1 C2 C1 30.9(14) 2 6
N1 C2 C2 57.6(18) 2 6
C1 C2 N1 29(2) . 2
C1 C2 N1 59(3) 4 2
C1 C2 C1 50(3) . 6
C1 C2 C1 89(3) 4 6
C1 C2 C1 57(5) . 4
C1 C2 C2 95(4) . 4
C1 C2 C2 80(4) . 6
C1 C2 C2 108.2(17) 4 6
C1 C2 C3 121(3) 4 .
C1 C2 C3 134(4) . .
C1 C2 C4 145(4) . 2
C2 C2 N1 91.0(17) 4 2
C2 C2 C1 37(2) 4 4
C2 C2 C1 115.6(17) 4 6
C2 C2 C1 29(2) 6 6
C2 C2 C2 120.000(10) 4 6
C2 C2 C3 96(2) 4 .
C2 C2 C4 61(3) 4 2
C3 C2 N1 107(2) . 2
C3 C2 C1 86(2) . 6
C3 C2 C2 56.9(15) . 6
C4 C2 N1 121(3) 2 2
C4 C2 C1 115(3) 2 6
C4 C2 C1 95(3) 2 4
C4 C2 C2 91(3) 2 6
C4 C2 C3 38(2) 2 .
C5 C2 N1 77(5) 2 2
C5 C2 C1 65(6) 2 .
C5 C2 C1 24(4) 2 4
C5 C2 C1 107(6) 2 6
C5 C2 C2 40(4) 2 4
C5 C2 C2 131(5) 2 6
C5 C2 C3 135(5) 2 .
C5 C2 C4 100(5) 2 2
C2 C3 C2 66(3) 6 .
C2 C3 C4 93(3) . .
C2 C3 C4 93(3) 6 .
C3 C3 C2 84(2) 3 .
C3 C3 C2 116(2) 3 6
C3 C3 C2 84(2) 2 6
C3 C3 C2 116(2) 2 .
C3 C3 C3 59.999(6) 3 2
C3 C3 C4 31.5(6) 2 .
C3 C3 C4 31.5(6) 3 .
C4 C3 C2 106(4) 3 .
C4 C3 C2 46(3) 2 .
C4 C3 C2 106(4) 2 6
C4 C3 C2 46(3) 3 6
C4 C3 C3 100(3) 3 3
C4 C3 C3 44(4) 2 3
C4 C3 C3 100(3) 2 2
C4 C3 C3 44(4) 3 2
C4 C3 C4 68(3) 3 .
C4 C3 C4 125(7) 3 2
C4 C3 C4 68(3) 2 .
C1 C4 C1 37(2) 5 3
C2 C4 C1 49(3) 3 5
C2 C4 C1 49(3) 5 3
C2 C4 C1 15(2) 5 5
C2 C4 C1 15(2) 3 3
C2 C4 C2 57(6) 5 3
C2 C4 C3 114(3) 5 .
C2 C4 C3 114(3) 3 .
C2 C4 C4 118(3) 3 3
C2 C4 C4 89(3) 5 3
C2 C4 C4 118(3) 5 2
C2 C4 C4 89(3) 3 2
C2 C4 C5 29(3) 5 .
C2 C4 C5 29(3) 3 .
C3 C4 C1 126(4) 3 5
C3 C4 C1 98(4) 3 3
C3 C4 C1 104(3) . 5
C3 C4 C1 126(4) 2 3
C3 C4 C1 104(3) . 3
C3 C4 C1 98(4) 2 5
C3 C4 C2 142(6) 3 5
C3 C4 C2 95(4) 2 5
C3 C4 C2 142(6) 2 3
C3 C4 C2 95(4) 3 3
C3 C4 C3 49(4) 3 .
C3 C4 C3 92(7) 3 2
C3 C4 C3 49(4) 2 .
C3 C4 C4 80(3) 2 2
C3 C4 C4 27(3) 2 3
C3 C4 C4 27(3) 3 2
C3 C4 C4 80(3) 3 3
C3 C4 C5 122(4) 2 .
C3 C4 C5 122(4) 3 .
C4 C4 C1 84.9(14) 2 3
C4 C4 C1 84.9(14) 3 5
C4 C4 C1 103.4(17) 3 3
C4 C4 C1 103.4(17) 2 5
C4 C4 C3 31.5(6) 2 .
C4 C4 C3 31.5(6) 3 .
C4 C4 C4 60.000(4) 3 2
C5 C4 C1 24.6(15) . 3
C5 C4 C1 24.6(15) . 5
C5 C4 C3 121(4) . .
C5 C4 C4 108(2) . 2
C5 C4 C4 108(2) . 3
N1 C5 N1 42(3) . 3
C1 C5 N1 28(3) 3 .
C1 C5 N1 68(4) 5 .
C1 C5 N1 68(4) 3 3
C1 C5 N1 28(3) 5 3
C1 C5 C1 91(7) 5 3
C1 C5 C4 112(5) 3 .
C1 C5 C4 112(5) 5 .
C2 C5 N1 110(5) 3 3
C2 C5 N1 110(5) 5 .
C2 C5 N1 78(5) 5 3
C2 C5 N1 78(5) 3 .
C2 C5 C1 137(7) 3 5
C2 C5 C1 68(5) 3 3
C2 C5 C1 68(5) 5 5
C2 C5 C1 137(7) 5 3
C2 C5 C2 101(8) 5 3
C2 C5 C4 51(4) 5 .
C2 C5 C4 51(4) 3 .
C4 C5 N1 104(3) . 3
C4 C5 N1 104(3) . .
loop_
_geom_bond_atom_site_label_1
_geom_bond_atom_site_label_2
_geom_bond_distance
_geom_bond_site_symmetry_2
Re1 O1 1.68(3) 3
Re1 O1 1.68(3) 2
Re1 O1 1.68(3) .
Re1 O2 1.69(3) 3
Re1 O2 1.69(3) 2
Re1 O2 1.69(3) .
O1 O1 1.77(10) 2
O1 O1 1.77(10) 3
N1 N1 1.18(8) 3
N1 N1 1.18(8) 2
N1 C1 0.95(4) 3
N1 C1 1.55(4) .
N1 C1 0.95(4) 4
N1 C1 1.55(4) 5
N1 C2 1.64(5) 4
N1 C2 1.64(5) 3
N1 C5 1.63(5) 2
N1 C5 1.63(5) .
C1 N1 0.95(4) 2
C1 C1 1.43(7) 6
C1 C1 1.27(7) 4
C1 C2 1.50(6) 4
C1 C2 0.92(7) .
C1 C2 1.83(5) 6
C1 C4 1.99(6) 2
C1 C5 0.89(4) 2
C2 N1 1.64(5) 2
C2 C1 1.83(5) 6
C2 C1 1.50(6) 4
C2 C2 1.76(7) 6
C2 C2 1.12(7) 4
C2 C3 1.61(6) .
C2 C4 1.17(7) 2
C2 C5 0.73(4) 2
C3 C2 1.61(6) 6
C3 C3 1.44(9) 3
C3 C3 1.44(9) 2
C3 C4 1.00(4) 3
C3 C4 1.00(4) 2
C3 C4 1.89(7) .
C4 C1 1.99(6) 3
C4 C1 1.99(6) 5
C4 C2 1.17(7) 5
C4 C2 1.17(7) 3
C4 C3 1.00(4) 2
C4 C3 1.00(4) 3
C4 C4 1.78(8) 2
C4 C4 1.78(8) 3
C4 C5 1.48(8) .
C5 N1 1.63(5) 3
C5 C1 0.89(4) 3
C5 C1 0.89(4) 5
C5 C2 0.73(4) 3
C5 C2 0.73(4) 5
loop_
_geom_torsion_atom_site_label_1
_geom_torsion_atom_site_label_2
_geom_torsion_atom_site_label_3
_geom_torsion_atom_site_label_4
_geom_torsion
_geom_torsion_site_symmetry_1
_geom_torsion_site_symmetry_2
_geom_torsion_site_symmetry_3
_geom_torsion_site_symmetry_4
O1 Re1 O1 O1 72.1(17) 3 . . 2
O1 Re1 O1 O1 -72.1(17) 2 . . 3
O2 Re1 O1 O1 -91.3(15) 3 . . 2
O2 Re1 O1 O1 91.3(15) 2 . . 3
O2 Re1 O1 O1 -163.4(12) 3 . . 3
O2 Re1 O1 O1 163.4(12) 2 . . 2
O2 Re1 O1 O1 36.0(9) . . . 2
O2 Re1 O1 O1 -36.0(9) . . . 3
N1 N1 C1 N1 22(3) 3 . . 2
N1 N1 C1 C1 -158(3) 3 . . 4
N1 N1 C1 C1 -22(3) 2 . . 6
N1 N1 C1 C1 180.002(14) 2 . . 4
N1 N1 C1 C1 0.000(13) 3 . . 6
N1 N1 C1 C2 -28(2) 3 . . 6
N1 N1 C1 C2 -146(4) 2 . . 4
N1 N1 C1 C2 -50(3) 2 . . 6
N1 N1 C1 C2 -125(2) 3 . . 4
N1 N1 C1 C2 -99(4) 3 . . .
N1 N1 C1 C2 -121(6) 2 . . .
N1 N1 C1 C4 -95.3(14) 3 . . 2
N1 N1 C1 C4 -117(3) 2 . . 2
N1 N1 C1 C5 -160(5) 2 . . 2
N1 N1 C1 C5 -139(4) 3 . . 2
N1 N1 C5 N1 -35.5(19) 2 . . 3
N1 N1 C5 C1 -13(3) 3 . . 5
N1 N1 C5 C1 -48(5) 2 . . 5
N1 N1 C5 C1 -154(7) 3 . . 3
N1 N1 C5 C1 170(7) 2 . . 3
N1 N1 C5 C2 104(3) 2 . . 3
N1 N1 C5 C2 42(4) 3 . . 5
N1 N1 C5 C2 140(4) 3 . . 3
N1 N1 C5 C2 7(5) 2 . . 5
N1 N1 C5 C4 95.5(14) 3 . . .
N1 N1 C5 C4 60.0(16) 2 . . .
N1 C1 C2 N1 52(5) . . . 2
N1 C1 C2 C1 -32(3) . . . 4
N1 C1 C2 C1 -83(6) 2 . . 4
N1 C1 C2 C1 88(2) . . . 6
N1 C1 C2 C1 36(6) 2 . . 6
N1 C1 C2 C2 88(2) . . . 6
N1 C1 C2 C2 36(6) 2 . . 6
N1 C1 C2 C2 -83(6) 2 . . 4
N1 C1 C2 C2 -32(3) . . . 4
N1 C1 C2 C3 71(7) . . . .
N1 C1 C2 C3 20(11) 2 . . .
N1 C1 C2 C4 -40(14) 2 . . 2
N1 C1 C2 C4 12(11) . . . 2
N1 C1 C2 C5 -58(5) . . . 2
N1 C1 C2 C5 -110(7) 2 . . 2
N1 C2 C3 C2 29(3) 2 . . 6
N1 C2 C3 C3 -41(3) 2 . . 2
N1 C2 C3 C3 -93(2) 2 . . 3
N1 C2 C3 C4 6(5) 2 . . 3
N1 C2 C3 C4 -118(5) 2 . . 2
N1 C2 C3 C4 -63(2) 2 . . .
C1 N1 C1 N1 179.998(2) 4 . . 2
C1 N1 C1 N1 49(5) 5 . . 2
C1 N1 C1 N1 122(5) 3 . . 2
C1 N1 C1 C1 100(6) 3 . . 6
C1 N1 C1 C1 28(3) 5 . . 6
C1 N1 C1 C1 -131(5) 5 . . 4
C1 N1 C1 C1 158(3) 4 . . 6
C1 N1 C1 C1 -58(5) 3 . . 4
C1 N1 C1 C2 59(6) 4 . . .
C1 N1 C1 C2 -72(5) 5 . . .
C1 N1 C1 C2 72(6) 3 . . 6
C1 N1 C1 C2 130(3) 4 . . 6
C1 N1 C1 C2 -97(4) 5 . . 4
C1 N1 C1 C2 -25(5) 3 . . 4
C1 N1 C1 C2 34(4) 4 . . 4
C1 N1 C1 C2 1(7) 3 . . .
C1 N1 C1 C2 -1(4) 5 . . 6
C1 N1 C1 C4 5(6) 3 . . 2
C1 N1 C1 C4 63(3) 4 . . 2
C1 N1 C1 C4 -68(4) 5 . . 2
C1 N1 C1 C5 -39(6) 3 . . 2
C1 N1 C1 C5 -111(5) 5 . . 2
C1 N1 C1 C5 20(5) 4 . . 2
C1 N1 C5 N1 154(7) 3 . . 3
C1 N1 C5 N1 13(3) 5 . . 3
C1 N1 C5 N1 -79(3) . . . 3
C1 N1 C5 N1 -141(4) 4 . . 3
C1 N1 C5 C1 -142(11) 5 . . 3
C1 N1 C5 C1 142(11) 3 . . 5
C1 N1 C5 C1 -154(5) 4 . . 5
C1 N1 C5 C1 126(8) . . . 3
C1 N1 C5 C1 64(9) 4 . . 3
C1 N1 C5 C1 -92(5) . . . 5
C1 N1 C5 C2 152(6) 5 . . 3
C1 N1 C5 C2 -2(6) 4 . . 3
C1 N1 C5 C2 -163(9) 3 . . 5
C1 N1 C5 C2 60(5) . . . 3
C1 N1 C5 C2 55(5) 5 . . 5
C1 N1 C5 C2 -99(6) 4 . . 5
C1 N1 C5 C2 -66(7) 3 . . 3
C1 N1 C5 C2 -37(6) . . . 5
C1 N1 C5 C4 -110(7) 3 . . .
C1 N1 C5 C4 16(4) . . . .
C1 N1 C5 C4 -46(4) 4 . . .
C1 N1 C5 C4 108(4) 5 . . .
C1 C1 C2 N1 83(6) 4 . . 2
C1 C1 C2 N1 -36(6) 6 . . 2
C1 C1 C2 C1 -119.7(6) 6 . . 4
C1 C1 C2 C1 119.7(6) 4 . . 6
C1 C1 C2 C2 -119.7(6) 6 . . 4
C1 C1 C2 C2 119.7(6) 4 . . 6
C1 C1 C2 C2 -0.001(8) 4 . . 4
C1 C1 C2 C2 0.001(2) 6 . . 6
C1 C1 C2 C3 103(5) 4 . . .
C1 C1 C2 C3 -17(6) 6 . . .
C1 C1 C2 C4 44(9) 4 . . 2
C1 C1 C2 C4 -76(10) 6 . . 2
C1 C1 C2 C5 -146(4) 6 . . 2
C1 C1 C2 C5 -26(4) 4 . . 2
C1 C2 C3 C2 20(7) . . . 6
C1 C2 C3 C2 7(3) 6 . . 6
C1 C2 C3 C2 93(3) 4 . . 6
C1 C2 C3 C3 -115.3(16) 6 . . 3
C1 C2 C3 C3 -30(3) 4 . . 3
C1 C2 C3 C3 -63(2) 6 . . 2
C1 C2 C3 C3 -50(7) . . . 2
C1 C2 C3 C3 23(3) 4 . . 2
C1 C2 C3 C3 -102(6) . . . 3
C1 C2 C3 C4 -141(5) 6 . . 2
C1 C2 C3 C4 -55(5) 4 . . 2
C1 C2 C3 C4 69(5) 4 . . 3
C1 C2 C3 C4 -72(6) . . . .
C1 C2 C3 C4 -4(9) . . . 3
C1 C2 C3 C4 -128(7) . . . 2
C1 C2 C3 C4 -17(5) 6 . . 3
C1 C2 C3 C4 -85(2) 6 . . .
C1 C2 C3 C4 1(3) 4 . . .
C1 C4 C5 N1 72(5) 3 . . 3
C1 C4 C5 N1 28(4) 3 . . .
C1 C4 C5 N1 -28(4) 5 . . 3
C1 C4 C5 N1 -72(5) 5 . . .
C1 C4 C5 C1 100(8) 3 . . 5
C1 C4 C5 C1 -100(8) 5 . . 3
C1 C4 C5 C2 133(7) 3 . . 5
C1 C4 C5 C2 33(4) 5 . . 5
C1 C4 C5 C2 -133(7) 5 . . 3
C1 C4 C5 C2 -33(4) 3 . . 3
C2 N1 C1 N1 113(3) 3 . . 2
C2 N1 C1 N1 146(4) 4 . . 2
C2 N1 C1 C1 125(2) 4 . . 6
C2 N1 C1 C1 -34(4) 4 . . 4
C2 N1 C1 C1 -67(3) 3 . . 4
C2 N1 C1 C1 91(2) 3 . . 6
C2 N1 C1 C2 63(3) 3 . . 6
C2 N1 C1 C2 25(3) 4 . . .
C2 N1 C1 C2 -8(6) 3 . . .
C2 N1 C1 C2 96(4) 4 . . 6
C2 N1 C1 C2 -34(3) 3 . . 4
C2 N1 C1 C4 29(2) 4 . . 2
C2 N1 C1 C4 -4(3) 3 . . 2
C2 N1 C1 C5 -14(3) 4 . . 2
C2 N1 C1 C5 -48(5) 3 . . 2
C2 N1 C5 N1 -140(4) 3 . . 3
C2 N1 C5 N1 -124.1(18) 4 . . 3
C2 N1 C5 C1 82(7) 4 . . 3
C2 N1 C5 C1 66(7) 3 . . 3
C2 N1 C5 C1 -137(4) 4 . . 5
C2 N1 C5 C1 -152(6) 3 . . 5
C2 N1 C5 C2 -97(8) 3 . . 5
C2 N1 C5 C2 -82(6) 4 . . 5
C2 N1 C5 C2 16(3) 4 . . 3
C2 N1 C5 C4 -29(2) 4 . . .
C2 N1 C5 C4 -44(3) 3 . . .
C2 C1 C2 N1 83(6) 4 . . 2
C2 C1 C2 N1 -36(6) 6 . . 2
C2 C1 C2 C1 0.001(10) 4 . . 4
C2 C1 C2 C1 -0.001(3) 6 . . 6
C2 C1 C2 C1 119.7(6) 4 . . 6
C2 C1 C2 C1 -119.7(6) 6 . . 4
C2 C1 C2 C2 119.7(6) 4 . . 6
C2 C1 C2 C2 -119.7(6) 6 . . 4
C2 C1 C2 C3 -17(6) 6 . . .
C2 C1 C2 C3 103(5) 4 . . .
C2 C1 C2 C4 44(9) 4 . . 2
C2 C1 C2 C4 -76(10) 6 . . 2
C2 C1 C2 C5 -26(4) 4 . . 2
C2 C1 C2 C5 -146(4) 6 . . 2
C2 C2 C3 C2 122.3(13) 4 . . 6
C2 C2 C3 C3 0.000(10) 4 . . 3
C2 C2 C3 C3 -70.0(12) 6 . . 2
C2 C2 C3 C3 52.3(9) 4 . . 2
C2 C2 C3 C3 -122.3(13) 6 . . 3
C2 C2 C3 C4 -148(5) 6 . . 2
C2 C2 C3 C4 30.3(12) 4 . . .
C2 C2 C3 C4 -92.0(17) 6 . . .
C2 C2 C3 C4 98(4) 4 . . 3
C2 C2 C3 C4 -25(4) 4 . . 2
C2 C2 C3 C4 -24(3) 6 . . 3
C2 C3 C4 C1 14.0(19) . . . 3
C2 C3 C4 C1 -14.0(19) 6 . . 5
C2 C3 C4 C1 52(2) . . . 5
C2 C3 C4 C1 -52(2) 6 . . 3
C2 C3 C4 C2 -2(4) 6 . . 5
C2 C3 C4 C2 65(4) . . . 5
C2 C3 C4 C2 2(4) . . . 3
C2 C3 C4 C2 -65(4) 6 . . 3
C2 C3 C4 C3 140(3) . . . 2
C2 C3 C4 C3 -74(4) . . . 3
C2 C3 C4 C3 74(4) 6 . . 2
C2 C3 C4 C3 -140(3) 6 . . 3
C2 C3 C4 C4 -106(4) 6 . . 2
C2 C3 C4 C4 106(4) . . . 3
C2 C3 C4 C4 -40(3) . . . 2
C2 C3 C4 C4 40(3) 6 . . 3
C2 C3 C4 C5 -33.2(15) 6 . . .
C2 C3 C4 C5 33.2(15) . . . .
C2 C4 C5 N1 105(5) 3 . . 3
C2 C4 C5 N1 61(4) 3 . . .
C2 C4 C5 N1 -105(5) 5 . . .
C2 C4 C5 N1 -61(4) 5 . . 3
C2 C4 C5 C1 -33(4) 5 . . 5
C2 C4 C5 C1 33(4) 3 . . 3
C2 C4 C5 C1 133(7) 3 . . 5
C2 C4 C5 C1 -133(7) 5 . . 3
C2 C4 C5 C2 166(9) 3 . . 5
C2 C4 C5 C2 -166(9) 5 . . 3
C3 C3 C4 C1 -126(4) 2 . . 3
C3 C3 C4 C1 88(3) 3 . . 3
C3 C3 C4 C1 126(4) 3 . . 5
C3 C3 C4 C1 -88(3) 2 . . 5
C3 C3 C4 C2 75(3) 3 . . 3
C3 C3 C4 C2 -75(3) 2 . . 5
C3 C3 C4 C2 -139(6) 2 . . 3
C3 C3 C4 C2 139(6) 3 . . 5
C3 C3 C4 C3 146(6) 2 . . 3
C3 C3 C4 C3 -146(6) 3 . . 2
C3 C3 C4 C4 34(6) 3 . . 2
C3 C3 C4 C4 180.000(10) 3 . . 3
C3 C3 C4 C4 180.000(19) 2 . . 2
C3 C3 C4 C4 -34(6) 2 . . 3
C3 C3 C4 C5 107(3) 3 . . .
C3 C3 C4 C5 -107(3) 2 . . .
C3 C4 C5 N1 80(5) 3 . . 3
C3 C4 C5 N1 21.7(17) . . . 3
C3 C4 C5 N1 -21.7(17) . . . .
C3 C4 C5 N1 -36(6) 2 . . 3
C3 C4 C5 N1 36(6) 3 . . .
C3 C4 C5 N1 -80(5) 2 . . .
C3 C4 C5 C1 108(6) 3 . . 5
C3 C4 C5 C1 -108(6) 2 . . 3
C3 C4 C5 C1 8(7) 3 . . 3
C3 C4 C5 C1 -50(4) . . . 3
C3 C4 C5 C1 50(4) . . . 5
C3 C4 C5 C1 -8(7) 2 . . 5
C3 C4 C5 C2 -83(5) . . . 3
C3 C4 C5 C2 -141(7) 2 . . 3
C3 C4 C5 C2 -25(6) 3 . . 3
C3 C4 C5 C2 25(6) 2 . . 5
C3 C4 C5 C2 83(5) . . . 5
C3 C4 C5 C2 141(7) 3 . . 5
C4 C1 C2 N1 40(14) 2 . . 2
C4 C1 C2 C1 -44(9) 2 . . 4
C4 C1 C2 C1 76(10) 2 . . 6
C4 C1 C2 C2 -44(9) 2 . . 4
C4 C1 C2 C2 76(10) 2 . . 6
C4 C1 C2 C3 59(7) 2 . . .
C4 C1 C2 C5 -70(11) 2 . . 2
C4 C2 C3 C2 148(5) 2 . . 6
C4 C2 C3 C3 78(4) 2 . . 2
C4 C2 C3 C3 25(4) 2 . . 3
C4 C2 C3 C4 56(4) 2 . . .
C4 C2 C3 C4 124(7) 2 . . 3
C4 C3 C4 C1 54(4) 2 . . 3
C4 C3 C4 C1 -54(4) 3 . . 5
C4 C3 C4 C1 -92(3) 3 . . 3
C4 C3 C4 C1 92(3) 2 . . 5
C4 C3 C4 C2 -41(6) 3 . . 5
C4 C3 C4 C2 41(6) 2 . . 3
C4 C3 C4 C2 -105(3) 3 . . 3
C4 C3 C4 C2 105(3) 2 . . 5
C4 C3 C4 C3 180.000(3) 2 . . 2
C4 C3 C4 C3 180.000(4) 3 . . 3
C4 C3 C4 C3 -34(6) 2 . . 3
C4 C3 C4 C3 34(6) 3 . . 2
C4 C3 C4 C4 -146(6) 3 . . 2
C4 C3 C4 C4 146(6) 2 . . 3
C4 C3 C4 C5 73(3) 2 . . .
C4 C3 C4 C5 -73(3) 3 . . .
C4 C4 C5 N1 -53.5(16) 3 . . .
C4 C4 C5 N1 53.5(16) 2 . . 3
C4 C4 C5 N1 10.1(18) 2 . . .
C4 C4 C5 N1 -10.1(18) 3 . . 3
C4 C4 C5 C1 -18(4) 2 . . 3
C4 C4 C5 C1 82(4) 2 . . 5
C4 C4 C5 C1 18(4) 3 . . 5
C4 C4 C5 C1 -82(4) 3 . . 3
C4 C4 C5 C2 -115(5) 3 . . 3
C4 C4 C5 C2 -51(5) 2 . . 3
C4 C4 C5 C2 115(5) 2 . . 5
C4 C4 C5 C2 51(5) 3 . . 5
C5 N1 C1 N1 89(4) . . . 2
C5 N1 C1 N1 160(5) 2 . . 2
C5 N1 C1 C1 67(3) . . . 6
C5 N1 C1 C1 -20(5) 2 . . 4
C5 N1 C1 C1 -91(4) . . . 4
C5 N1 C1 C1 139(4) 2 . . 6
C5 N1 C1 C2 -58(4) . . . 4
C5 N1 C1 C2 39(4) . . . 6
C5 N1 C1 C2 39(3) 2 . . .
C5 N1 C1 C2 14(3) 2 . . 4
C5 N1 C1 C2 110(5) 2 . . 6
C5 N1 C1 C2 -32(6) . . . .
C5 N1 C1 C4 -28(3) . . . 2
C5 N1 C1 C4 43(4) 2 . . 2
C5 N1 C1 C5 -72(5) . . . 2
C5 N1 C5 N1 -113(2) 2 . . 3
C5 N1 C5 C1 93(8) 2 . . 3
C5 N1 C5 C1 -125(4) 2 . . 5
C5 N1 C5 C2 -70(5) 2 . . 5
C5 N1 C5 C2 27(5) 2 . . 3
C5 N1 C5 C4 -17(3) 2 . . .
C5 C1 C2 N1 110(7) 2 . . 2
C5 C1 C2 C1 146(4) 2 . . 6
C5 C1 C2 C1 26(4) 2 . . 4
C5 C1 C2 C2 146(4) 2 . . 6
C5 C1 C2 C2 26(4) 2 . . 4
C5 C1 C2 C3 129(7) 2 . . .
C5 C1 C2 C4 70(11) 2 . . 2
C5 C2 C3 C2 117(7) 2 . . 6
C5 C2 C3 C3 47(8) 2 . . 2
C5 C2 C3 C3 -5(7) 2 . . 3
C5 C2 C3 C4 25(8) 2 . . .
C5 C2 C3 C4 94(8) 2 . . 3
C5 C2 C3 C4 -30(8) 2 . . 2
loop_
_twin_individual_id
_twin_individual_mass_fraction_refined
1 0.58(14)
2 0.42(14)
