#------------------------------------------------------------------------------
#$Date: 2019-06-20 14:23:39 +0300 (Thu, 20 Jun 2019) $
#$Revision: 216244 $
#$URL: file:///home/coder/svn-repositories/cod/cif/1/55/16/1551633.cif $
#------------------------------------------------------------------------------
#
# This file is available in the Crystallography Open Database (COD),
# http://www.crystallography.net/
#
# All data on this site have been placed in the public domain by the
# contributors.
#
data_1551633
loop_
_publ_author_name
'UEJI, Kan'
'TAMAKI, Yoshinori'
'MIYAMURA, Kazuo'
_publ_section_title
;
 Crystal Structure of
 4,4&amp;prime;-Bi(3-(1-methylethoxy)-3-cyclobutene-1,2-dione)
;
_journal_issue                   0
_journal_name_full               'X-ray Structure Analysis Online'
_journal_page_first              57
_journal_paper_doi               10.2116/xraystruct.31.57
_journal_volume                  31
_journal_year                    2015
_chemical_formula_moiety         'C14 H14 O6'
_chemical_formula_sum            'C14 H14 O6'
_chemical_formula_weight         278.25
_chemical_name_systematic
4,4'-Bi(3-(1-methylethoxy)-3-cyclobutene-1,2-dione
_space_group_crystal_system      monoclinic
_space_group_IT_number           14
_space_group_name_Hall           '-P 2ybc'
_space_group_name_H-M_alt        'P 1 21/c 1'
_symmetry_space_group_name_Hall  '-P 2ybc'
_symmetry_space_group_name_H-M   'P 1 21/c 1'
_atom_sites_solution_hydrogens   difmap
_atom_sites_solution_primary     direct
_atom_sites_solution_secondary   difmap
_audit_creation_method           SHELXL-2014/7
_audit_update_record
;
2015-08-18 # Formatted by publCIF

;
_cell_angle_alpha                90
_cell_angle_beta                 106.414(2)
_cell_angle_gamma                90
_cell_formula_units_Z            2
_cell_length_a                   5.6929(5)
_cell_length_b                   13.3409(13)
_cell_length_c                   9.5865(9)
_cell_measurement_reflns_used    1268
_cell_measurement_temperature    293(2)
_cell_measurement_theta_max      23.24
_cell_measurement_theta_min      2.69
_cell_volume                     698.41(11)
_computing_cell_refinement       'Bruker SMART'
_computing_data_collection       'Bruker SMART'
_computing_data_reduction        'Bruker SAINT'
_computing_molecular_graphics    Mercury
_computing_publication_material  'Bruker SHELXTL'
_computing_structure_refinement  'SHELXL-2014/7 (Sheldrick, 2014)'
_computing_structure_solution    SHELXS
_diffrn_ambient_temperature      293(2)
_diffrn_detector_area_resol_mean 8.366
_diffrn_measured_fraction_theta_full 1.000
_diffrn_measured_fraction_theta_max 0.964
_diffrn_measurement_device_type  'CCD area detector'
_diffrn_measurement_method       'phi and omega scans'
_diffrn_radiation_type           MoK\a
_diffrn_radiation_wavelength     0.71073
_diffrn_reflns_av_R_equivalents  0.0681
_diffrn_reflns_av_unetI/netI     0.0524
_diffrn_reflns_Laue_measured_fraction_full 1.000
_diffrn_reflns_Laue_measured_fraction_max 0.964
_diffrn_reflns_limit_h_max       6
_diffrn_reflns_limit_h_min       -7
_diffrn_reflns_limit_k_max       16
_diffrn_reflns_limit_k_min       -14
_diffrn_reflns_limit_l_max       10
_diffrn_reflns_limit_l_min       -12
_diffrn_reflns_number            4174
_diffrn_reflns_point_group_measured_fraction_full 1.000
_diffrn_reflns_point_group_measured_fraction_max 0.964
_diffrn_reflns_theta_full        25.000
_diffrn_reflns_theta_max         27.555
_diffrn_reflns_theta_min         2.690
_exptl_absorpt_coefficient_mu    0.104
_exptl_absorpt_correction_T_max  0.9967
_exptl_absorpt_correction_T_min  0.9780
_exptl_absorpt_correction_type   analytical
_exptl_absorpt_process_details
;
XPREP; Bruker AXS 2000
;
_exptl_crystal_colour            Orange
_exptl_crystal_density_diffrn    1.323
_exptl_crystal_description       Plate
_exptl_crystal_F_000             292
_exptl_crystal_size_max          0.240
_exptl_crystal_size_mid          0.130
_exptl_crystal_size_min          0.060
_refine_diff_density_max         0.201
_refine_diff_density_min         -0.233
_refine_diff_density_rms         0.065
_refine_ls_extinction_method     none
_refine_ls_goodness_of_fit_ref   0.903
_refine_ls_hydrogen_treatment    refall
_refine_ls_matrix_type           full
_refine_ls_number_parameters     119
_refine_ls_number_reflns         1564
_refine_ls_number_restraints     0
_refine_ls_restrained_S_all      0.903
_refine_ls_R_factor_all          0.0683
_refine_ls_R_factor_gt           0.0423
_refine_ls_shift/su_max          0.000
_refine_ls_shift/su_mean         0.000
_refine_ls_structure_factor_coef Fsqd
_refine_ls_weighting_details
'w=1/[\s^2^(Fo^2^)+(0.0533P)^2^] where P=(Fo^2^+2Fc^2^)/3'
_refine_ls_weighting_scheme      calc
_refine_ls_wR_factor_gt          0.0894
_refine_ls_wR_factor_ref         0.0991
_reflns_Friedel_coverage         0.000
_reflns_number_gt                1057
_reflns_number_total             1564
_reflns_threshold_expression     'I > 2\s(I)'
_cod_data_source_file            31_57_1.txt
_cod_data_source_block           BiSQiPr
_cod_database_code               1551633
_publcif_datablock.id            {22d54557-14d0-4555-a2ff-a6fe35f833db}
_shelx_shelxl_version_number     2014/7
_shelx_space_group_comment
; 
The symmetry employed for this shelxl refinement is uniquely defined 
by the following loop, which should always be used as a source of 
symmetry information in preference to the above space-group names. 
They are only intended as comments. 
;
_shelx_estimated_absorpt_t_min   0.975
_shelx_estimated_absorpt_t_max   0.994
_shelx_res_file
; 
  
    BiSQiPr.res created by SHELXL-2014/7 
  
  
TITL BiSQiPr in P2(1)/c 
CELL 0.71073   5.6929  13.3409   9.5865  90.000 106.414  90.000 
ZERR    2.00   0.0005   0.0013   0.0009   0.000   0.002   0.000 
LATT  1 
SYMM -X, 0.5+Y, 0.5-Z 
SFAC C H O 
UNIT 28 28 12 
ACTA 50 
CONF 
LIST 4 
TEMP 20 
L.S. 64 
BOND $h 
FMAP 2 
PLAN 5 
SIZE 0.24 0.13 0.06 
WGHT    0.053300 
FVAR       0.39113 
MOLE   1 
C1    1    0.392421    0.475615    0.957229    11.00000    0.03983    0.04174 = 
         0.04253    0.00251    0.01161   -0.00016 
C2    1    0.144092    0.510875    0.882762    11.00000    0.04275    0.05154 = 
         0.04858    0.00820    0.01124    0.00455 
C3    1    0.074246    0.402601    0.833995    11.00000    0.04120    0.05939 = 
         0.04945   -0.00231    0.00701   -0.00193 
C4    1    0.335317    0.377284    0.917118    11.00000    0.04050    0.04527 = 
         0.04411   -0.00041    0.00994   -0.00092 
C5    1    0.346735    0.199608    0.892866    11.00000    0.04951    0.04121 = 
         0.05983   -0.00986    0.00343   -0.00346 
C6    1    0.540409    0.137871    0.857194    11.00000    0.07016    0.05716 = 
         0.09568   -0.02133    0.02198    0.00136 
C9    1    0.251960    0.158534    1.010629    11.00000    0.07762    0.06882 = 
         0.08990   -0.00438    0.02743   -0.01696 
H5    2    0.216406    0.214847    0.806704    11.00000    0.05578 
H6    2    0.463091    0.076598    0.819995    11.00000    0.08812 
H7    2    0.676225    0.125187    0.942145    11.00000    0.09234 
H8    2    0.608781    0.172418    0.787532    11.00000    0.10592 
H9    2    0.392424    0.144089    1.097012    11.00000    0.09461 
H10   2    0.177925    0.097123    0.977865    11.00000    0.09022 
H11   2    0.130995    0.202273    1.032972    11.00000    0.11047 
O1    3    0.034966    0.589227    0.868051    11.00000    0.05457    0.05756 = 
         0.08098    0.01317    0.00863    0.01445 
O2    3   -0.101766    0.358597    0.763900    11.00000    0.04933    0.08245 = 
         0.08166   -0.01489   -0.00453   -0.00769 
O3    3    0.467493    0.296957    0.945750    11.00000    0.04518    0.04065 = 
         0.07139   -0.00753    0.00183    0.00019 
HKLF 4 
  
REM  BiSQiPr in P2(1)/c 
REM R1 =  0.0423 for    1057 Fo > 4sig(Fo)  and  0.0683 for all    1564 data 
REM    119 parameters refined using      0 restraints 
  
END 
  
WGHT      0.0533      0.0000 
  
REM Highest difference peak  0.201,  deepest hole -0.233,  1-sigma level  0.065 
Q1    1   0.1763  0.3733  0.8931  11.00000  0.05    0.20 
Q2    1   0.8482  0.1000  1.0036  11.00000  0.05    0.18 
Q3    1   0.2375  0.0134  1.0600  11.00000  0.05    0.18 
Q4    1   0.1082  0.1102  0.9891  11.00000  0.05    0.18 
Q5    1   0.5699  0.0375  0.8944  11.00000  0.05    0.17 
;
_shelx_res_checksum              28716
_shelx_hkl_file
; 
   0   0  -1    0.11    0.05 
   0   0  -2  156.98    1.27 
   0   0   2  146.75    1.29 
   0   0  -3    0.03    0.11 
   0   0   3   -0.03    0.05 
   0   0  -4   69.12    1.15 
   0   0   4   74.99    0.73 
   0   0  -5    0.03    0.14 
   0   0   5   -0.04    0.05 
   0   0  -6    7.92    0.52 
   0   0  -7   -0.07    0.18 
   0   0  -8    2.91    0.43 
   0   0  -9   -0.16    0.13 
   0   0  -9   -0.07    0.23 
   0   0 -10    1.09    0.36 
   0   0 -11   -0.07    0.18 
   0   1   0   -0.01    0.02 
   0  -1  -1  369.02    3.39 
   0  -1  -1  352.18    3.05 
   0   1  -1  401.97    3.57 
   0   1   1    0.00    0.01 
   0  -1  -2  490.89    2.61 
   0  -1  -2  470.77    4.13 
   0   1  -2  512.50    3.95 
   0   1  -2  506.52    3.12 
   0   1   2  476.18    3.65 
   0  -1  -3   77.16    1.16 
   0  -1  -3   74.85    1.00 
   0   1  -3   77.11    1.11 
   0   1   3   72.78    0.74 
   0  -1  -4   16.74    0.56 
   0   1  -4   18.18    0.63 
   0   1   4   18.07    0.39 
   0  -1  -5   17.74    0.74 
   0  -1  -5   17.19    0.65 
   0   1  -5   18.33    0.35 
   0   1  -5   18.26    0.70 
   0   1  -5   18.05    0.35 
   0   1   5   18.41    0.41 
   0  -1  -6   10.61    0.65 
   0  -1  -6   10.50    0.58 
   0   1  -6   11.00    0.62 
   0  -1  -7    0.97    0.28 
   0  -1  -7    1.16    0.29 
   0   1  -7    0.92    0.30 
   0  -1  -8    0.98    0.31 
   0  -1  -8    0.77    0.31 
   0   1  -8    0.72    0.32 
   0  -1  -9    0.90    0.33 
   0  -1  -9    0.86    0.34 
   0   1  -9    0.82    0.35 
   0  -1 -10    1.01    0.38 
   0   1 -10    0.58    0.30 
   0   1 -10    0.73    0.37 
   0  -1 -11    0.22    0.27 
   0   1 -11    0.52    0.30 
   0   2   0    1.71    0.13 
   0  -2  -1   25.97    0.49 
   0  -2  -1   25.60    0.42 
   0   2  -1   27.83    0.47 
   0   2   1   27.84    0.49 
   0  -2  -2    6.22    0.33 
   0  -2  -2    6.39    0.27 
   0   2  -2    7.26    0.33 
   0   2  -2    7.05    0.24 
   0  -2  -3   23.76    0.69 
   0  -2  -3   22.36    0.56 
   0   2  -3   23.92    0.66 
   0   2  -3   25.02    0.46 
   0   2   3   23.78    0.50 
   0  -2  -4   31.70    0.75 
   0   2  -4   34.74    0.89 
   0   2  -4   35.93    0.56 
   0   2   4   33.94    0.62 
   0  -2  -5  159.01    2.18 
   0  -2  -5  149.73    1.83 
   0   2  -5  162.11    2.12 
   0   2  -5  169.84    1.30 
   0   2   5  163.56    1.43 
   0  -2  -6    4.37    0.45 
   0  -2  -6    4.36    0.40 
   0   2  -6    4.56    0.45 
   0  -2  -7    6.24    0.56 
   0  -2  -7    5.60    0.49 
   0   2  -7    6.38    0.57 
   0  -2  -8    0.99    0.31 
   0  -2  -8    0.66    0.29 
   0   2  -8    0.43    0.30 
   0  -2  -9    0.93    0.34 
   0   2  -9    1.16    0.39 
   0  -2 -10    0.43    0.28 
   0   2 -10    0.32    0.33 
   0  -2 -11    2.07    0.52 
   0   2 -11    2.21    0.52 
   0   3   0    0.04    0.07 
   0  -3  -1  214.73    1.66 
   0  -3  -1  224.04    1.55 
   0   3  -1  235.43    1.71 
   0   3   1  230.71    1.73 
   0  -3  -2    6.34    0.36 
   0  -3  -2    6.36    0.28 
   0   3  -2    7.00    0.30 
   0   3   2    6.89    0.32 
   0  -3  -3   -0.02    0.12 
   0  -3  -3    0.02    0.10 
   0   3  -3    0.00    0.11 
   0   3  -3    0.06    0.07 
   0   3   3   -0.01    0.08 
   0  -3  -4   10.23    0.55 
   0  -3  -4    9.25    0.43 
   0   3  -4   10.48    0.54 
   0   3  -4   11.13    0.37 
   0   3   4   10.56    0.41 
   0  -3  -5    0.87    0.26 
   0  -3  -5    0.92    0.21 
   0   3  -5    1.19    0.26 
   0   3  -5    1.29    0.15 
   0   3   5    1.41    0.19 
   0  -3  -6    9.01    0.63 
   0  -3  -6    7.90    0.51 
   0   3  -6    8.34    0.58 
   0  -3  -7   21.71    1.00 
   0  -3  -7   18.05    0.79 
   0   3  -7   21.80    0.98 
   0  -3  -8    0.27    0.23 
   0   3  -8    0.48    0.28 
   0  -3  -9    2.57    0.49 
   0   3  -9    2.68    0.50 
   0  -3 -10    2.57    0.53 
   0   3 -10    2.60    0.55 
   0  -3 -11   -0.03    0.25 
   0   3 -11    0.11    0.38 
   0   4   0  432.55    2.68 
   0  -4  -1    9.19    0.42 
   0  -4  -1    8.88    0.35 
   0   4  -1    9.01    0.39 
   0   4   1    9.74    0.41 
   0  -4  -2   97.93    1.33 
   0  -4  -2  101.34    1.16 
   0   4  -2  105.34    1.27 
   0   4   2  105.62    1.33 
   0  -4  -3    5.30    0.39 
   0  -4  -3    5.54    0.31 
   0   4  -3    5.36    0.38 
   0   4  -3    5.62    0.31 
   0   4   3    5.41    0.34 
   0  -4  -4    0.24    0.17 
   0  -4  -4    0.27    0.13 
   0   4  -4    0.25    0.16 
   0   4  -4    0.30    0.11 
   0   4   4    0.31    0.14 
   0  -4  -5   11.83    0.66 
   0  -4  -5   11.07    0.52 
   0   4  -5   12.12    0.65 
   0   4  -5   12.37    0.45 
   0   4   5   12.16    0.50 
   0  -4  -6    0.04    0.18 
   0  -4  -6    0.14    0.17 
   0   4  -6    0.00    0.17 
   0  -4  -7    0.29    0.22 
   0  -4  -7    0.25    0.20 
   0   4  -7    0.39    0.25 
   0  -4  -8    0.68    0.30 
   0   4  -8    0.90    0.34 
   0  -4  -9    0.36    0.28 
   0   4  -9    0.60    0.34 
   0  -4 -10    0.06    0.23 
   0   4 -10    0.21    0.35 
   0  -4 -11   -0.10    0.29 
   0   4 -11    0.11    0.40 
   0   5   0    0.04    0.11 
   0  -5  -1    0.31    0.15 
   0   5  -1    0.38    0.14 
   0   5   1    0.23    0.13 
   0  -5  -2   57.21    1.11 
   0  -5  -2   57.56    0.95 
   0   5  -2   61.16    1.09 
   0   5   2   60.61    1.12 
   0  -5  -3  121.80    1.74 
   0  -5  -3  118.38    1.43 
   0   5  -3  135.20    1.61 
   0   5   3  129.32    1.67 
   0  -5  -4   11.13    0.60 
   0  -5  -4   10.24    0.47 
   0   5  -4   10.69    0.58 
   0   5  -4   11.43    0.48 
   0   5   4   -0.01    0.04 
   0  -5  -5    1.93    0.33 
   0  -5  -5    1.82    0.26 
   0   5  -5    1.86    0.32 
   0   5  -5    2.20    0.24 
   0   5   5    2.19    0.27 
   0  -5  -6    8.98    0.65 
   0  -5  -6    8.57    0.52 
   0   5  -6    8.61    0.64 
   0   5   6    9.56    0.50 
   0  -5  -7    3.05    0.46 
   0   5  -7    3.33    0.49 
   0  -5  -8    4.37    0.57 
   0   5  -8    4.90    0.59 
   0  -5  -9    0.65    0.35 
   0   5  -9    0.70    0.37 
   0  -5 -10   -0.13    0.23 
   0   5 -10    0.34    0.36 
   0  -5 -11    2.16    0.58 
   0   5 -11    2.00    0.60 
   0   6   0   60.60    1.20 
   0   6  -1   39.81    0.97 
   0   6   1   37.91    0.96 
   0  -6  -2   25.11    0.81 
   0  -6  -2   24.63    0.69 
   0   6  -2   26.04    0.78 
   0   6   2   25.97    0.81 
   0  -6  -3   23.48    0.83 
   0  -6  -3   23.11    0.69 
   0   6  -3   25.53    0.78 
   0   6   3   24.90    0.81 
   0  -6  -4   23.61    0.90 
   0  -6  -4   23.54    0.73 
   0   6  -4   22.26    0.88 
   0   6  -4   25.63    0.78 
   0   6   4   26.16    0.85 
   0  -6  -5    3.63    0.44 
   0  -6  -5    3.14    0.32 
   0   6  -5    3.91    0.44 
   0   6  -5    4.19    0.34 
   0   6   5    1.09    0.21 
   0  -6  -6    6.30    0.56 
   0  -6  -6    5.52    0.43 
   0   6  -6    7.32    0.62 
   0   6   6    6.30    0.45 
   0  -6  -7   19.90    1.02 
   0   6  -7   20.44    1.05 
   0  -6  -8    1.12    0.37 
   0   6  -8    0.70    0.33 
   0  -6  -9    2.48    0.51 
   0   6  -9    2.42    0.53 
   0  -6 -10   -0.14    0.24 
   0   6 -10    0.12    0.35 
   0  -6 -11    0.20    0.33 
   0   6 -11    0.18    0.41 
   0   7   0   -0.06    0.10 
   0   7  -1   10.83    0.56 
   0   7   1   11.31    0.59 
   0  -7  -2    2.46    0.32 
   0   7  -2    2.66    0.30 
   0   7   2    2.57    0.32 
   0  -7  -3    1.00    0.26 
   0  -7  -3    0.88    0.20 
   0   7  -3    0.93    0.22 
   0   7   3    1.01    0.24 
   0  -7  -4    8.29    0.60 
   0  -7  -4    8.70    0.48 
   0   7  -4    7.97    0.57 
   0   7  -4    8.87    0.51 
   0   7   4    8.40    0.53 
   0  -7  -5    5.73    0.54 
   0  -7  -5    5.73    0.43 
   0   7  -5    5.60    0.53 
   0   7  -5    5.89    0.42 
   0   7   5    5.76    0.47 
   0  -7  -6    2.05    0.38 
   0   7  -6    1.84    0.39 
   0   7   6    2.02    0.32 
   0  -7  -7    4.86    0.57 
   0   7  -7    5.13    0.59 
   0  -7  -8    0.18    0.25 
   0   7  -8    0.35    0.30 
   0  -7  -9    3.95    0.61 
   0   7  -9    3.69    0.62 
   0  -7 -10    0.99    0.39 
   0   7 -10    0.92    0.47 
   0   8   0   14.63    0.70 
   0   8  -1    4.83    0.42 
   0   8   1    5.50    0.45 
   0  -8  -2    6.76    0.51 
   0   8  -2    6.86    0.49 
   0   8   2    7.12    0.52 
   0  -8  -3    0.11    0.19 
   0  -8  -3    0.26    0.16 
   0   8  -3    0.30    0.16 
   0   8   3    0.40    0.20 
   0  -8  -4    0.89    0.27 
   0  -8  -4    0.58    0.20 
   0   8  -4    0.44    0.19 
   0   8   4    0.82    0.25 
   0  -8  -5    2.51    0.41 
   0   8  -5    2.35    0.40 
   0   8  -5    2.51    0.33 
   0   8   5    2.94    0.38 
   0  -8  -6    0.92    0.31 
   0   8  -6    1.29    0.36 
   0   8   6    0.02    0.07 
   0  -8  -7    1.39    0.38 
   0   8  -7    1.89    0.43 
   0   8  -8    0.78    0.35 
   0  -8  -9    1.10    0.40 
   0   8  -9    1.50    0.48 
   0  -8 -10    0.23    0.27 
   0   8 -10   -0.08    0.34 
   0   9   0   -0.02    0.14 
   0   9  -1   52.46    1.39 
   0   9   1   53.09    1.41 
   0   9  -2    0.26    0.17 
   0   9   2    0.34    0.19 
   0  -9  -3    0.04    0.15 
   0   9  -3    0.16    0.16 
   0   9   3    0.15    0.17 
   0  -9  -4    2.13    0.37 
   0  -9  -4    2.48    0.33 
   0   9  -4    2.19    0.34 
   0   9   4    2.23    0.36 
   0  -9  -5    0.67    0.28 
   0   9  -5    1.69    0.37 
   0   9   5    0.91    0.27 
   0  -9  -6    0.11    0.21 
   0   9  -6   -0.08    0.15 
   0   9   6    0.11    0.16 
   0  -9  -7    0.13    0.21 
   0   9  -7    0.06    0.22 
   0  -9  -8    0.38    0.29 
   0   9  -8    0.75    0.36 
   0  -9  -9    0.30    0.25 
   0   9  -9    0.10    0.33 
   0  -9 -10    0.62    0.36 
   0   9 -10    0.26    0.36 
   0  10   0   45.07    1.38 
   0  10  -1    5.28    0.51 
   0  10   1    5.13    0.50 
   0  10  -2    8.31    0.61 
   0  10   2    8.36    0.62 
   0 -10  -3    2.85    0.41 
   0  10  -3    2.39    0.38 
   0  10   3    2.83    0.42 
   0 -10  -4   23.12    1.05 
   0  10  -4   23.97    1.02 
   0  10   4   23.41    1.04 
   0 -10  -5   10.29    0.77 
   0  10  -5    9.29    0.73 
   0  10  -5    8.95    0.64 
   0  10   5    9.10    0.68 
   0 -10  -6    0.66    0.29 
   0  10  -6    0.52    0.29 
   0  10   6    0.53    0.25 
   0 -10  -7    0.72    0.33 
   0  10  -7    0.89    0.38 
   0 -10  -8   -0.02    0.23 
   0  10  -8    0.12    0.30 
   0 -10  -9   -0.13    0.23 
   0  10  -9    0.39    0.38 
   0  11   0    0.03    0.16 
   0  11  -1    4.88    0.52 
   0  11   1    5.29    0.53 
   0  11  -2   19.89    0.98 
   0  11   2   18.80    0.97 
   0  11  -3   13.08    0.80 
   0  11   3   13.16    0.83 
   0 -11  -4   15.77    0.91 
   0  11  -4   15.77    0.88 
   0  11   4   16.27    0.92 
   0 -11  -5    0.11    0.21 
   0  11  -5    0.25    0.20 
   0  11  -5    0.15    0.18 
   0  11   5    0.02    0.15 
   0 -11  -6    3.33    0.54 
   0  11  -6    2.34    0.49 
   0  11   6    3.04    0.47 
   0 -11  -7    5.17    0.68 
   0  11  -7    5.04    0.70 
   0 -11  -8    0.84    0.38 
   0  11  -8    0.85    0.42 
   0 -11  -9    0.07    0.34 
   0  12   0    5.18    0.56 
   0  12  -1    0.03    0.18 
   0  12   1    0.01    0.16 
   0  12  -2    3.50    0.50 
   0  12   2    3.42    0.49 
   0  12  -3    0.25    0.22 
   0  12   3    0.49    0.25 
   0  12  -4   -0.07    0.16 
   0  12   4   -0.01    0.14 
   0 -12  -5   -0.09    0.14 
   0  12  -5    0.01    0.15 
   0  12  -5    0.10    0.21 
   0  12   5   -0.17    0.14 
   0 -12  -6    6.12    0.68 
   0  12  -6    5.99    0.68 
   0  12   6    6.17    0.63 
   0 -12  -7    6.06    0.73 
   0  12  -7    6.59    0.75 
   0 -12  -8    0.92    0.44 
   0  12  -8    0.53    0.41 
   0  13   0    0.14    0.21 
   0  13  -1    1.53    0.40 
   0  13   1    1.76    0.41 
   0  13  -2   10.53    0.81 
   0  13   2   10.18    0.80 
   0  13  -3    4.51    0.55 
   0  13   3    4.70    0.57 
   0  13  -4    1.29    0.37 
   0  13   4    1.57    0.40 
   0  13  -5    0.51    0.27 
   0  13  -5    0.54    0.27 
   0  13   5    0.52    0.26 
   0 -13  -6    2.47    0.50 
   0  13  -6    2.97    0.57 
   0  13   6    2.73    0.50 
   0 -13  -7    0.73    0.37 
   0  13  -7    0.39    0.29 
   0  14   0    2.95    0.53 
   0  14  -1    0.36    0.26 
   0  14   1    0.74    0.31 
   0  14  -2    0.05    0.20 
   0  14   2    0.38    0.24 
   0  14  -3    1.11    0.35 
   0  14   3    0.67    0.30 
   0  14  -4    0.01    0.19 
   0  14   4   -0.01    0.18 
   0  14  -5    0.00    0.16 
   0  14   5   -0.03    0.17 
   0  14  -6   -0.06    0.21 
   0  14   6   -0.11    0.18 
   0 -14  -7    0.88    0.44 
   0  15   0   -0.11    0.14 
   0  15  -1    0.22    0.24 
   0  15   1   -0.14    0.17 
   0  15  -2    0.73    0.35 
   0  15   2    1.33    0.40 
   0  15  -3    2.84    0.55 
   0  15   3    2.70    0.54 
   0  15  -4    0.22    0.21 
   0  15  -4    0.36    0.26 
   0  15   4    0.49    0.28 
   0  15  -5    0.18    0.23 
   0  15   5    0.33    0.28 
   0  15   6    2.33    0.53 
   0  16   0    0.35    0.27 
   0  16  -1    0.90    0.35 
   0  16   1    0.87    0.35 
   0  16  -2   -0.16    0.18 
   0  16   2   -0.09    0.17 
   0  16  -3    0.13    0.22 
   0  16   3   -0.11    0.20 
   0  16  -4    0.70    0.33 
   0  16  -4    0.64    0.30 
   0  16   4    0.80    0.37 
   1   0 -11   -0.11    0.25 
   1   0 -10    0.62    0.33 
   1   0  -9    0.05    0.22 
   1   0  -8   21.20    1.04 
   1   0  -8   22.03    0.89 
   1   0  -7   -0.17    0.13 
   1   0  -7    0.10    0.16 
  -1   0   6   42.93    0.88 
   1   0  -6   41.07    1.19 
   1   0  -6   40.53    0.98 
  -1   0   5   -0.04    0.10 
   1   0  -5   -0.05    0.11 
   1   0  -5   -0.03    0.09 
  -1   0   4   85.86    1.13 
   1   0  -4   80.12    1.31 
   1   0  -4   84.46    1.08 
  -1   0   3   -0.01    0.08 
   1   0  -3   -0.03    0.09 
  -1   0   2 1660.47   11.01 
   1   0  -2 1787.41   11.17 
  -1   0   1    0.02    0.04 
  -1   0   1    0.06    0.07 
   1   0  -1    0.04    0.05 
  -1   0   0   11.77    0.33 
  -1   0   0   12.11    0.33 
  -1   0  -1    0.04    0.10 
  -1   0  -1    0.08    0.06 
  -1   0  -2    9.88    0.44 
  -1   0  -2   11.09    0.25 
  -1   0  -3    0.06    0.13 
  -1   0  -4   16.57    0.68 
  -1   0  -5   -0.06    0.15 
  -1   0  -6    0.12    0.20 
  -1   0  -7    0.00    0.22 
  -1   0  -8    7.84    0.69 
  -1   0  -9    0.05    0.20 
  -1   0  -9   -0.09    0.26 
  -1   0 -10    0.12    0.22 
  -1   0 -10   -0.26    0.29 
  -1   0 -11    0.27    0.29 
   1  -1 -11    0.18    0.30 
   1   1 -11    0.19    0.27 
   1  -1 -10    0.32    0.28 
   1   1 -10    0.21    0.27 
   1  -1  -9    1.72    0.41 
   1   1  -9    1.61    0.40 
   1   1  -9    1.38    0.36 
   1  -1  -8    0.87    0.31 
   1   1  -8    0.56    0.26 
   1  -1  -7   11.23    0.72 
   1  -1  -7   12.88    0.61 
   1   1  -7   11.77    0.63 
  -1  -1   6    2.14    0.25 
  -1   1   6    2.11    0.26 
   1  -1  -6    2.09    0.33 
   1  -1  -6    1.98    0.26 
   1   1  -6    1.83    0.27 
  -1  -1   5    1.71    0.21 
  -1   1   5    1.84    0.22 
   1  -1  -5    1.82    0.28 
   1  -1  -5    1.64    0.21 
   1   1  -5    1.57    0.22 
  -1  -1   4  148.65    1.50 
  -1   1   4   86.45    1.15 
   1  -1  -4  142.57    1.78 
   1  -1  -4  146.61    1.31 
   1   1  -4  149.01    1.57 
  -1  -1   3 1275.75    9.30 
  -1   1   3 1227.46    9.01 
   1  -1  -3 1268.25    9.91 
   1  -1  -3 1283.86    7.78 
  -1  -1   2    8.38    0.34 
  -1   1   2    8.39    0.34 
   1  -1  -2    8.52    0.35 
  -1  -1   1    2.33    0.17 
  -1  -1   1    2.17    0.19 
  -1   1   1    2.34    0.12 
  -1   1   1    2.29    0.18 
   1  -1  -1    2.36    0.18 
  -1  -1   0  241.09    1.65 
  -1  -1   0  242.95    1.62 
  -1   1   0  231.33    1.53 
  -1   1   0  234.82    1.57 
  -1  -1  -1  167.06    1.49 
  -1  -1  -1  177.77    1.30 
  -1   1  -1  182.80    1.56 
  -1   1  -1  180.92    1.29 
  -1  -1  -2  704.79    5.20 
  -1   1  -2  802.73    7.04 
  -1   1  -2  776.96    5.34 
   1   1   2  799.14    5.32 
   1   1   2  847.41    5.59 
  -1  -1  -3   27.87    0.78 
  -1   1  -3   29.55    0.82 
   1   1   3   31.83    0.44 
  -1  -1  -4   36.56    0.99 
  -1   1  -4   39.10    1.05 
  -1  -1  -5    4.75    0.44 
  -1   1  -5    4.71    0.45 
  -1  -1  -6    0.40    0.23 
  -1   1  -6    0.37    0.24 
  -1  -1  -7   18.47    0.93 
  -1   1  -7   19.75    0.97 
  -1  -1  -8    0.12    0.19 
  -1  -1  -8    0.06    0.27 
  -1   1  -8    0.08    0.26 
  -1  -1  -9    2.07    0.44 
  -1  -1  -9    1.83    0.45 
  -1   1  -9    1.69    0.46 
  -1  -1 -10    0.56    0.32 
  -1  -1 -10    0.54    0.39 
  -1   1 -10    0.97    0.44 
  -1  -1 -11    0.37    0.31 
  -1   1 -11    0.22    0.28 
  -1   1 -11    0.30    0.41 
   1  -2 -11   -0.06    0.21 
   1   2 -11    0.16    0.28 
   1  -2 -10   -0.01    0.22 
   1  -2  -9    2.89    0.50 
   1   2  -9    3.13    0.48 
   1  -2  -8    0.00    0.22 
   1   2  -8   -0.06    0.19 
   1  -2  -7    4.26    0.50 
   1  -2  -7    3.77    0.37 
   1   2  -7    4.40    0.44 
  -1  -2   6    1.14    0.20 
  -1   2   6    1.34    0.21 
   1  -2  -6    0.98    0.27 
   1  -2  -6    1.09    0.21 
   1   2  -6    1.36    0.26 
  -1  -2   5   36.57    0.81 
  -1   2   5   35.37    0.82 
   1  -2  -5   36.45    1.05 
   1  -2  -5   34.00    0.71 
   1   2  -5   35.42    0.92 
  -1  -2   4   88.09    1.19 
  -1   2   4    0.01    0.03 
   1  -2  -4  103.76    1.57 
   1  -2  -4  100.25    1.00 
  -1  -2   3  336.14    2.29 
  -1   2   3  322.49    2.29 
   1  -2  -3  321.81    2.47 
   1  -2  -3  305.09    1.99 
  -1  -2   2    7.63    0.34 
  -1   2   2    8.16    0.35 
   1  -2  -2    7.90    0.37 
  -1  -2   1   54.70    0.81 
  -1  -2   1   57.12    0.85 
  -1   2   1   57.18    0.59 
  -1   2   1   56.21    0.84 
   1  -2  -1   54.73    0.80 
  -1  -2   0  251.44    1.82 
  -1  -2   0  254.10    1.78 
  -1   2   0  256.87    1.77 
  -1  -2  -1  124.85    1.06 
  -1  -2  -1  112.03    1.28 
  -1   2  -1  117.94    1.29 
  -1   2  -1  119.67    1.11 
   1   2   1   23.82    0.51 
  -1  -2  -2    0.02    0.03 
  -1  -2  -2   33.57    0.78 
  -1   2  -2   36.69    0.83 
  -1   2  -2   37.53    0.57 
   1   2   2   39.06    0.64 
  -1  -2  -3  114.72    1.48 
  -1  -2  -3  105.56    1.51 
  -1   2  -3  114.44    1.64 
  -1   2  -3  121.07    0.99 
   1   2   3  127.88    1.14 
  -1  -2  -4   47.06    1.09 
  -1  -2  -4   42.81    1.06 
  -1   2  -4   47.76    1.17 
   1   2   4   50.32    0.67 
  -1  -2  -5    0.14    0.17 
  -1  -2  -5    0.04    0.16 
  -1   2  -5    0.23    0.19 
  -1  -2  -6   -0.05    0.12 
  -1  -2  -6    0.20    0.20 
  -1   2  -6   -0.03    0.18 
  -1  -2  -7    1.13    0.31 
  -1  -2  -7    1.08    0.33 
  -1   2  -7    1.36    0.38 
  -1  -2  -8    2.41    0.44 
  -1   2  -8    2.71    0.50 
  -1  -2  -9    4.94    0.60 
  -1   2  -9    4.58    0.64 
  -1  -2 -10    1.09    0.40 
  -1   2 -10    0.55    0.41 
  -1  -2 -11    0.67    0.38 
  -1   2 -11    0.28    0.42 
   1  -3 -11    0.01    0.23 
   1  -3 -10    0.81    0.37 
   1   3 -10    1.74    0.45 
   1  -3  -9    1.48    0.40 
   1   3  -9    1.32    0.38 
   1  -3  -8    1.69    0.38 
   1   3  -8    1.90    0.38 
   1  -3  -7    0.94    0.30 
   1   3  -7    1.04    0.29 
  -1   3   6   26.61    0.79 
   1  -3  -6   25.66    1.00 
   1  -3  -6   23.31    0.66 
   1   3  -6   25.49    0.91 
  -1  -3   5    8.64    0.44 
  -1   3   5    7.32    0.40 
   1  -3  -5    8.51    0.55 
   1  -3  -5    7.55    0.34 
   1   3  -5    8.13    0.49 
  -1  -3   4    0.06    0.05 
  -1   3   4    1.49    0.21 
   1  -3  -4    1.34    0.25 
   1  -3  -4    1.31    0.15 
  -1  -3   3   63.71    1.05 
  -1   3   3   63.19    1.07 
   1  -3  -3   60.44    1.13 
   1  -3  -3   59.95    0.61 
  -1  -3   2    0.82    0.16 
  -1   3   2    0.79    0.16 
   1  -3  -2    0.70    0.17 
  -1   3   1   51.36    0.62 
  -1   3   1   48.84    0.87 
   1  -3  -1   47.24    0.84 
   1   3  -1   48.86    0.86 
   1   3  -1   49.20    0.87 
  -1  -3   0    2.44    0.22 
  -1   3   0    0.25    0.08 
  -1   3   0    2.66    0.23 
   1   3   0    3.00    0.24 
   1   3   0    2.90    0.24 
  -1  -3  -1   28.89    0.55 
  -1  -3  -1   27.99    0.69 
  -1   3  -1   29.43    0.69 
  -1   3  -1   30.59    0.63 
   1   3   1   30.24    0.66 
  -1  -3  -2   -0.02    0.03 
  -1  -3  -2   68.84    1.15 
  -1   3  -2   74.38    1.23 
  -1   3  -2   77.19    0.96 
   1   3   2   53.75    0.86 
  -1  -3  -3   12.74    0.53 
  -1  -3  -3   11.09    0.52 
  -1   3  -3   13.22    0.60 
  -1   3  -3   12.64    0.38 
   1   3   3   13.15    0.44 
  -1  -3  -4    0.47    0.19 
  -1  -3  -4    0.35    0.17 
  -1   3  -4    0.30    0.19 
  -1   3  -4    0.37    0.08 
   1   3   4    0.46    0.12 
  -1  -3  -5    3.65    0.41 
  -1  -3  -5    3.92    0.40 
  -1   3  -5    3.59    0.42 
  -1  -3  -6    5.75    0.51 
  -1  -3  -6    5.18    0.49 
  -1   3  -6    5.89    0.57 
  -1  -3  -7    8.27    0.65 
  -1  -3  -7    7.15    0.60 
  -1   3  -7    8.64    0.71 
  -1  -3  -8    4.34    0.53 
  -1  -3  -8    4.16    0.53 
  -1   3  -8    3.61    0.58 
  -1  -3  -9    0.76    0.34 
  -1  -3  -9    0.49    0.33 
  -1   3  -9    0.80    0.39 
  -1  -3 -10    0.17    0.27 
  -1   3 -10    0.42    0.37 
  -1  -3 -11    1.33    0.48 
  -1   3 -11    1.37    0.55 
   1  -4 -11    0.71    0.38 
   1  -4 -10    0.36    0.28 
   1   4 -10    0.15    0.30 
   1  -4  -9    0.38    0.27 
   1   4  -9    0.45    0.29 
   1  -4  -8    0.08    0.19 
   1   4  -8    0.04    0.20 
   1  -4  -7    9.73    0.70 
   1   4  -7   10.17    0.68 
  -1   4   6    0.96    0.22 
   1  -4  -6    1.08    0.28 
   1   4  -6    0.98    0.20 
   1   4  -6    0.84    0.24 
   1   4  -6    1.02    0.19 
   1  -4  -5   19.06    0.82 
   1  -4  -5   18.14    0.49 
   1   4  -5   20.33    0.67 
   1   4  -5   20.64    0.67 
  -1   4   4   37.93    0.93 
   1  -4  -4   37.73    1.03 
   1  -4  -4   36.62    0.58 
   1   4  -4   41.32    0.93 
   1   4  -4   40.31    0.91 
  -1   4   3    1.64    0.23 
   1  -4  -3    1.57    0.24 
   1  -4  -3    1.53    0.13 
   1   4  -3    1.59    0.22 
   1   4  -3    1.76    0.22 
  -1   4   2    1.01    0.20 
   1  -4  -2    0.96    0.20 
   1   4  -2    0.99    0.18 
   1   4  -2    1.04    0.18 
  -1   4   1    1.22    0.19 
   1   4  -1    1.03    0.19 
   1   4  -1    0.94    0.17 
  -1  -4   0   96.57    1.32 
  -1   4   0  101.99    1.33 
   1   4   0  102.79    1.37 
  -1  -4  -1  159.39    1.45 
  -1  -4  -1  154.64    1.72 
  -1   4  -1  167.26    1.74 
  -1   4  -1  167.96    1.67 
   1   4   1  173.12    1.76 
  -1  -4  -2    0.05    0.04 
  -1  -4  -2   25.33    0.74 
  -1   4  -2   27.82    0.80 
  -1   4  -2   27.27    0.66 
   1   4   2   29.22    0.72 
  -1  -4  -3    0.90    0.20 
  -1  -4  -3    1.07    0.22 
  -1   4  -3    0.94    0.23 
  -1   4  -3    0.96    0.15 
   1   4   3    1.12    0.18 
  -1  -4  -4   17.64    0.72 
  -1  -4  -4   16.83    0.70 
  -1   4  -4   17.63    0.78 
  -1   4  -4   18.51    0.51 
   1   4   4   18.79    0.58 
  -1  -4  -5    2.10    0.33 
  -1  -4  -5    2.32    0.34 
  -1   4  -5    2.38    0.38 
  -1  -4  -6    0.14    0.17 
  -1  -4  -6    0.16    0.20 
  -1   4  -6   -0.07    0.20 
  -1  -4  -7    6.82    0.61 
  -1  -4  -7    5.74    0.56 
  -1   4  -7    7.08    0.67 
  -1  -4  -8    0.75    0.31 
  -1  -4  -8    0.88    0.32 
  -1   4  -8    1.18    0.40 
  -1  -4  -9    1.18    0.39 
  -1   4  -9    1.36    0.49 
  -1  -4 -10    8.06    0.82 
  -1   4 -10    8.69    0.92 
  -1  -4 -11    0.79    0.44 
  -1   4 -11    0.45    0.47 
   1  -5 -11    0.27    0.30 
   1   5 -11    0.49    0.44 
   1  -5 -10    4.71    0.67 
   1   5 -10    5.44    0.68 
   1  -5  -9    1.46    0.41 
   1   5  -9    1.64    0.44 
   1  -5  -8    0.27    0.25 
   1   5  -8    0.31    0.25 
  -1   5   7    3.92    0.38 
   1  -5  -7    3.60    0.47 
   1   5  -7    3.44    0.45 
  -1   5   6    0.01    0.05 
   1  -5  -6    5.64    0.52 
   1   5  -6    6.13    0.51 
   1   5  -6    6.41    0.42 
  -1   5   5   28.97    0.90 
   1  -5  -5   28.22    1.02 
   1   5  -5   30.16    0.87 
   1   5  -5   29.55    0.86 
  -1   5   4    0.96    0.21 
   1  -5  -4    1.11    0.25 
   1  -5  -4    0.96    0.14 
   1   5  -4    0.99    0.21 
   1   5  -4    1.16    0.21 
  -1   5   3   13.04    0.58 
   1  -5  -3   12.74    0.62 
   1   5  -3   13.50    0.57 
   1   5  -3   13.48    0.57 
  -1   5   2   63.71    1.22 
   1  -5  -2   61.05    1.21 
   1   5  -2   66.33    1.22 
  -1   5   1   91.44    1.42 
   1   5  -1   94.27    1.44 
  -1  -5   0   -0.01    0.11 
  -1   5   0   -0.04    0.10 
   1   5   0    0.18    0.12 
  -1  -5  -1  168.78    1.65 
  -1  -5  -1  197.18    2.07 
  -1   5  -1  205.97    2.06 
  -1   5  -1  207.35    2.06 
   1   5   1  212.45    2.14 
  -1  -5  -2    0.04    0.06 
  -1  -5  -2   29.13    0.83 
  -1   5  -2   30.67    0.89 
  -1   5  -2   32.13    0.79 
   1   5   2   33.13    0.85 
  -1  -5  -3    1.16    0.23 
  -1  -5  -3    1.24    0.23 
  -1   5  -3    1.15    0.25 
  -1   5  -3    1.26    0.19 
   1   5   3    0.01    0.03 
  -1  -5  -4    6.20    0.49 
  -1  -5  -4    5.71    0.44 
  -1   5  -4    6.04    0.50 
  -1   5  -4    5.60    0.33 
   1   5   4    6.21    0.38 
  -1  -5  -5    0.23    0.20 
  -1  -5  -5    0.28    0.20 
  -1   5  -5    0.47    0.24 
   1   5   5    0.17    0.13 
  -1  -5  -6    2.11    0.37 
  -1  -5  -6    1.61    0.34 
  -1   5  -6    1.97    0.41 
  -1  -5  -7   -0.10    0.16 
  -1  -5  -7   -0.06    0.20 
  -1   5  -7   -0.17    0.21 
  -1  -5  -8    0.10    0.19 
  -1  -5  -8    0.00    0.24 
  -1   5  -8   -0.10    0.22 
  -1  -5  -9   13.19    0.96 
  -1   5  -9   12.81    1.02 
  -1  -5 -10   -0.13    0.26 
  -1   5 -10    0.02    0.37 
   1  -6 -11    0.31    0.34 
   1   6 -11    0.41    0.44 
   1  -6 -10    0.20    0.28 
   1   6 -10    0.28    0.32 
   1  -6  -9    6.17    0.69 
   1   6  -9    6.52    0.72 
   1  -6  -8    1.81    0.41 
   1   6  -8    2.07    0.43 
  -1   6   7    6.63    0.49 
   1  -6  -7    5.45    0.57 
   1   6  -7    5.31    0.55 
  -1   6   6    2.18    0.32 
   1  -6  -6    1.79    0.36 
   1   6  -6    2.23    0.37 
   1   6  -6    2.24    0.28 
  -1   6   5    1.23    0.26 
   1  -6  -5    0.90    0.27 
   1   6  -5    1.14    0.24 
  -1   6   4    3.17    0.35 
   1  -6  -4    2.83    0.38 
   1  -6  -4    2.84    0.23 
   1   6  -4    3.30    0.32 
  -1   6   3   16.59    0.70 
   1  -6  -3   16.35    0.73 
   1   6  -3   17.81    0.70 
  -1   6   2    5.48    0.41 
   1  -6  -2    4.94    0.41 
   1   6  -2    5.77    0.41 
  -1   6   1  105.81    1.66 
   1   6  -1  110.67    1.69 
  -1  -6   0   91.00    1.50 
  -1   6   0   94.75    1.54 
   1   6   0   99.19    1.59 
  -1  -6  -1    0.01    0.04 
  -1  -6  -1   15.38    0.63 
  -1   6  -1   16.47    0.64 
  -1   6  -1   16.46    0.64 
   1   6   1   17.03    0.67 
  -1  -6  -2    3.03    0.32 
  -1  -6  -2    3.42    0.33 
  -1   6  -2    3.81    0.37 
  -1   6  -2    3.52    0.31 
   1   6   2    4.84    0.38 
  -1  -6  -3   20.17    0.75 
  -1  -6  -3   18.55    0.73 
  -1   6  -3   21.43    0.86 
  -1   6  -3   20.53    0.69 
   1   6   3   21.04    0.75 
  -1  -6  -4   44.70    1.19 
  -1  -6  -4   43.09    1.17 
  -1   6  -4   44.48    1.30 
  -1   6  -4   45.78    1.01 
   1   6   4   45.62    1.09 
  -1  -6  -5   50.31    1.38 
  -1  -6  -5   46.45    1.27 
  -1   6  -5   52.37    1.52 
   1   6   5   52.21    1.18 
  -1  -6  -6    9.55    0.68 
  -1  -6  -6    9.03    0.62 
  -1   6  -6   10.63    0.77 
  -1  -6  -7    6.25    0.62 
  -1  -6  -7    5.90    0.56 
  -1   6  -7    5.93    0.66 
  -1  -6  -8    0.09    0.23 
  -1   6  -8    0.05    0.28 
  -1  -6  -9    0.47    0.33 
  -1   6  -9    0.36    0.36 
  -1  -6 -10    1.35    0.49 
  -1   6 -10    1.88    0.58 
   1   7 -11    1.25    0.52 
   1  -7 -10    0.04    0.24 
   1   7 -10    0.00    0.31 
   1  -7  -9    0.11    0.24 
   1   7  -9   -0.07    0.24 
   1  -7  -8    1.02    0.36 
   1   7  -8    0.66    0.32 
  -1   7   7    0.04    0.06 
   1  -7  -7    0.06    0.18 
   1   7  -7   -0.04    0.17 
  -1   7   6    4.51    0.43 
   1  -7  -6    3.93    0.50 
   1   7  -6    3.93    0.47 
   1   7  -6    4.99    0.42 
  -1   7   5    2.85    0.37 
   1  -7  -5    3.02    0.42 
   1   7  -5    2.83    0.33 
  -1   7   4    0.43    0.20 
   1  -7  -4    0.58    0.25 
   1   7  -4    0.36    0.17 
  -1   7   3   25.83    0.93 
   1  -7  -3   23.92    0.92 
   1   7  -3   26.47    0.91 
  -1   7   2    1.96    0.31 
   1  -7  -2    1.61    0.29 
   1   7  -2    1.69    0.27 
  -1   7   1    0.03    0.13 
   1   7  -1    0.18    0.14 
  -1   7   0    5.59    0.42 
   1   7   0    6.19    0.46 
  -1  -7  -1   14.15    0.65 
  -1   7  -1   13.87    0.64 
   1   7   1   15.17    0.69 
  -1  -7  -2   18.18    0.71 
  -1  -7  -2   18.38    0.74 
  -1   7  -2   18.58    0.77 
  -1   7  -2   19.55    0.75 
   1   7   2   20.05    0.79 
  -1  -7  -3   62.05    1.35 
  -1  -7  -3   59.34    1.35 
  -1   7  -3   59.94    1.47 
  -1   7  -3   62.31    1.31 
   1   7   3   63.03    1.38 
  -1  -7  -4   11.65    0.68 
  -1  -7  -4   10.69    0.62 
  -1   7  -4   11.59    0.71 
  -1   7  -4   10.82    0.56 
   1   7   4   12.42    0.63 
  -1  -7  -5    0.07    0.17 
  -1  -7  -5    0.03    0.16 
  -1   7  -5   -0.03    0.16 
   1   7   5    0.01    0.13 
  -1  -7  -6    5.59    0.55 
  -1  -7  -6    5.60    0.53 
  -1   7  -6    6.09    0.63 
  -1  -7  -7    2.62    0.45 
  -1   7  -7    3.42    0.56 
  -1  -7  -8    2.77    0.50 
  -1   7  -8    2.37    0.53 
  -1  -7  -9   -0.24    0.23 
  -1   7  -9   -0.07    0.30 
  -1  -7 -10    0.33    0.38 
  -1   7 -10    0.55    0.43 
   1  -8 -10    0.03    0.26 
   1   8 -10   -0.03    0.32 
   1  -8  -9   -0.12    0.20 
   1   8  -9   -0.04    0.25 
   1   8  -8    0.11    0.24 
  -1   8   7    1.61    0.32 
   1  -8  -7    1.90    0.42 
   1   8  -7    1.28    0.36 
  -1   8   6    2.16    0.36 
   1  -8  -6    2.30    0.42 
   1   8  -6    2.27    0.35 
  -1   8   5    1.00    0.28 
   1  -8  -5    0.92    0.31 
   1   8  -5    1.23    0.28 
  -1   8   4   -0.11    0.13 
   1  -8  -4   -0.07    0.15 
   1   8  -4   -0.02    0.12 
  -1   8   3    0.45    0.23 
   1  -8  -3    0.46    0.23 
   1   8  -3    0.56    0.21 
  -1   8   2    2.60    0.37 
   1   8  -2    3.45    0.38 
  -1   8   1    6.84    0.52 
   1   8  -1    7.16    0.52 
  -1   8   0    9.01    0.57 
   1   8   0    9.55    0.59 
  -1  -8  -1   14.87    0.71 
  -1   8  -1   14.40    0.70 
   1   8   1   16.44    0.76 
  -1  -8  -2    0.56    0.21 
  -1  -8  -2    0.56    0.20 
  -1   8  -2    0.65    0.22 
  -1   8  -2    0.62    0.22 
   1   8   2    0.73    0.24 
  -1  -8  -3    0.81    0.26 
  -1  -8  -3    0.46    0.20 
  -1   8  -3    0.77    0.24 
  -1   8  -3    0.60    0.20 
   1   8   3    0.69    0.23 
  -1  -8  -4    4.80    0.51 
  -1  -8  -4    3.70    0.41 
  -1   8  -4    4.10    0.47 
  -1   8  -4    4.22    0.39 
   1   8   4    4.94    0.46 
  -1  -8  -5    3.40    0.45 
  -1  -8  -5    3.59    0.43 
  -1   8  -5    3.11    0.47 
   1   8   5    0.01    0.05 
  -1  -8  -6    2.71    0.43 
  -1  -8  -6    2.79    0.42 
  -1   8  -6    2.57    0.48 
  -1  -8  -7    0.37    0.27 
  -1   8  -7    0.55    0.32 
  -1  -8  -8    0.26    0.24 
  -1   8  -8   -0.03    0.26 
  -1  -8  -9    0.33    0.29 
  -1   8  -9    0.57    0.41 
   1  -9 -10    0.09    0.28 
   1   9 -10   -0.15    0.30 
   1  -9  -9    1.04    0.42 
   1   9  -9    0.91    0.40 
   1  -9  -8    3.27    0.56 
   1   9  -8    4.08    0.60 
  -1   9   7    4.65    0.50 
   1  -9  -7    5.53    0.65 
   1   9  -7    5.18    0.61 
  -1   9   6    0.40    0.21 
   1  -9  -6    0.28    0.25 
   1   9  -6    0.41    0.22 
  -1   9   5    1.26    0.32 
   1  -9  -5    1.33    0.35 
   1   9  -5    1.34    0.32 
  -1   9   4    7.13    0.58 
   1  -9  -4    6.25    0.58 
   1   9  -4    6.92    0.56 
  -1   9   3   29.98    1.12 
   1  -9  -3   27.76    1.09 
   1   9  -3   31.38    1.13 
  -1   9   2   18.20    0.87 
   1   9  -2   19.13    0.88 
  -1   9   1    7.04    0.56 
   1   9  -1    6.40    0.54 
  -1   9   0    5.77    0.50 
   1   9   0    6.47    0.52 
  -1   9  -1    2.02    0.34 
   1   9   1    2.14    0.36 
  -1  -9  -2    1.63    0.31 
  -1   9  -2    1.33    0.29 
  -1   9  -2    1.59    0.32 
   1   9   2    1.58    0.32 
  -1  -9  -3    0.20    0.20 
  -1  -9  -3    0.29    0.19 
  -1   9  -3    0.32    0.19 
  -1   9  -3    0.12    0.17 
   1   9   3    0.30    0.19 
  -1  -9  -4    0.16    0.19 
  -1  -9  -4    0.19    0.21 
  -1   9  -4    0.12    0.17 
  -1   9  -4    0.13    0.16 
   1   9   4    0.06    0.14 
  -1  -9  -5    1.36    0.34 
  -1  -9  -5    1.66    0.35 
  -1   9  -5    1.35    0.37 
   1   9   5    1.22    0.29 
  -1  -9  -6    0.56    0.27 
  -1   9  -6    0.61    0.29 
  -1  -9  -7    1.35    0.38 
  -1   9  -7    1.36    0.43 
  -1  -9  -8   -0.04    0.23 
  -1   9  -8   -0.05    0.29 
  -1  -9  -9    0.41    0.31 
  -1   9  -9    0.22    0.37 
   1  10 -10    0.14    0.33 
   1 -10  -9    0.02    0.25 
   1  10  -9   -0.06    0.29 
   1 -10  -8    1.35    0.42 
   1  10  -8    0.83    0.38 
  -1  10   7    2.98    0.46 
   1 -10  -7    3.60    0.57 
   1  10  -7    2.93    0.53 
  -1  10   6   11.81    0.79 
   1 -10  -6   11.84    0.88 
   1  10  -6   11.96    0.77 
  -1  10   5    6.96    0.61 
   1 -10  -5    6.72    0.65 
   1  10  -5    6.70    0.59 
  -1  10   4   15.97    0.89 
   1 -10  -4   15.47    0.89 
   1  10  -4   17.54    0.91 
  -1  10   3   -0.02    0.17 
   1  10  -3    0.07    0.17 
  -1  10   2   47.71    1.47 
   1  10  -2   48.32    1.46 
  -1  10   1   16.20    0.87 
   1  10  -1   16.84    0.88 
  -1  10   0    0.02    0.18 
   1  10   0   -0.02    0.12 
  -1  10  -1    3.74    0.45 
   1  10   1    3.99    0.45 
  -1  10  -2    7.59    0.58 
  -1  10  -2    7.38    0.59 
   1  10   2    6.71    0.57 
  -1 -10  -3   12.71    0.74 
  -1 -10  -3   11.66    0.72 
  -1  10  -3   11.69    0.75 
  -1  10  -3   11.78    0.72 
   1  10   3   12.63    0.77 
  -1 -10  -4    8.30    0.64 
  -1 -10  -4    8.30    0.64 
  -1  10  -4    8.45    0.69 
  -1  10  -4    8.13    0.60 
   1  10   4    8.31    0.64 
  -1 -10  -5    3.41    0.48 
  -1 -10  -5    3.92    0.47 
  -1  10  -5    4.06    0.56 
   1  10   5    4.47    0.48 
  -1 -10  -6    2.85    0.48 
  -1  10  -6    2.95    0.53 
  -1 -10  -7    0.12    0.24 
  -1  10  -7   -0.06    0.21 
  -1 -10  -8    0.39    0.29 
  -1  10  -8    0.36    0.38 
  -1 -10  -9    1.03    0.45 
   1 -11  -9    0.40    0.34 
   1  11  -9    0.28    0.36 
   1 -11  -8   -0.05    0.25 
   1  11  -8    0.12    0.29 
  -1  11   7    0.39    0.23 
   1 -11  -7    0.58    0.32 
   1  11  -7    0.16    0.26 
  -1  11   6    5.62    0.58 
   1 -11  -6    5.01    0.64 
   1  11  -6    5.92    0.59 
  -1  11   5    0.09    0.17 
   1 -11  -5    0.17    0.21 
   1  11  -5    0.00    0.17 
  -1  11   4   25.17    1.16 
   1  11  -4   26.73    1.17 
  -1  11   3    0.00    0.17 
   1  11  -3    0.03    0.18 
  -1  11   2    7.79    0.66 
   1  11  -2    8.47    0.67 
  -1  11   1    0.53    0.25 
   1  11  -1    0.15    0.20 
  -1  11   0    6.72    0.61 
   1  11   0    7.03    0.61 
  -1  11  -1    8.91    0.68 
   1  11   1    8.89    0.68 
  -1  11  -2   11.11    0.73 
  -1  11  -2   11.45    0.76 
   1  11   2   11.36    0.77 
  -1  11  -3    6.80    0.61 
  -1  11  -3    7.32    0.63 
   1  11   3    6.88    0.61 
  -1 -11  -4    9.11    0.68 
  -1 -11  -4    9.22    0.70 
  -1  11  -4    8.45    0.72 
  -1  11  -4    9.24    0.68 
   1  11   4    8.73    0.68 
  -1 -11  -5    2.79    0.46 
  -1  11  -5    2.15    0.46 
   1  11   5    2.36    0.41 
  -1 -11  -6    0.02    0.22 
  -1  11  -6    0.15    0.23 
  -1 -11  -7   -0.10    0.24 
  -1  11  -7    0.10    0.26 
  -1  11  -8    1.68    0.56 
   1 -12  -8    0.29    0.34 
   1  12  -8    0.43    0.36 
  -1  12   7    0.13    0.20 
   1 -12  -7   -0.15    0.20 
   1  12  -7    0.15    0.26 
  -1  12   6    0.17    0.19 
   1 -12  -6    0.00    0.16 
   1  12  -6    0.15    0.18 
  -1  12   5    0.21    0.22 
   1 -12  -5    0.26    0.25 
   1  12  -5    0.30    0.25 
  -1  12   4    0.71    0.30 
   1  12  -4    0.80    0.30 
  -1  12   3   -0.02    0.18 
   1  12  -3   -0.03    0.15 
  -1  12   2    9.53    0.76 
   1  12  -2    9.31    0.74 
  -1  12   1    2.05    0.43 
   1  12  -1    1.90    0.42 
  -1  12   0   32.68    1.34 
   1  12   0   32.70    1.34 
  -1  12  -1    4.81    0.55 
   1  12   1    4.26    0.52 
  -1  12  -2    0.55    0.24 
  -1  12  -2    0.43    0.27 
   1  12   2    0.41    0.24 
  -1  12  -3    5.11    0.56 
  -1  12  -3    6.06    0.61 
   1  12   3    5.73    0.58 
  -1  12  -4   13.45    0.92 
  -1  12  -4   15.31    0.92 
   1  12   4   15.12    0.93 
  -1 -12  -5    7.94    0.70 
  -1  12  -5    6.52    0.70 
   1  12   5    7.36    0.66 
  -1 -12  -6    0.54    0.30 
  -1  12  -6    0.53    0.31 
  -1  12  -7    0.30    0.29 
   1 -13  -8   -0.05    0.24 
  -1  13   7   -0.09    0.16 
   1 -13  -7   -0.14    0.20 
   1  13  -7    0.00    0.26 
  -1  13   6    1.12    0.35 
   1 -13  -6    1.20    0.40 
  -1  13   5    1.12    0.37 
   1  13  -5    1.04    0.35 
  -1  13   4    2.35    0.49 
   1  13  -4    2.38    0.47 
  -1  13   3    0.25    0.23 
   1  13  -3    0.43    0.25 
  -1  13   2    0.32    0.26 
   1  13  -2    0.38    0.26 
  -1  13   1    3.58    0.55 
   1  13  -1    3.25    0.52 
  -1  13   0    0.18    0.23 
   1  13   0    0.17    0.18 
  -1  13  -1    3.86    0.56 
   1  13   1    4.30    0.58 
  -1  13  -2    0.96    0.30 
  -1  13  -2    1.29    0.38 
   1  13   2    0.81    0.30 
  -1  13  -3   -0.02    0.15 
  -1  13  -3   -0.13    0.15 
   1  13   3    0.03    0.13 
  -1  13  -4    3.19    0.53 
  -1  13  -4    3.79    0.54 
   1  13   4    3.71    0.53 
  -1  13  -5    0.70    0.33 
   1  13   5    0.75    0.30 
  -1  13  -6    0.59    0.33 
  -1  14   7    0.94    0.37 
   1 -14  -7    1.02    0.41 
  -1  14   6    0.10    0.23 
  -1  14   5    1.42    0.43 
   1  14  -5    1.79    0.46 
  -1  14   4    0.37    0.27 
   1  14  -4    0.32    0.27 
  -1  14   3    0.63    0.31 
   1  14  -3    0.86    0.34 
  -1  14   2    0.12    0.21 
   1  14  -2    0.12    0.20 
  -1  14   1    1.97    0.46 
   1  14  -1    2.27    0.48 
  -1  14   0    0.52    0.29 
   1  14   0    1.00    0.34 
  -1  14  -1    0.04    0.17 
   1  14   1    0.10    0.18 
  -1  14  -2    0.43    0.23 
  -1  14  -2    0.21    0.23 
   1  14   2    0.27    0.21 
  -1  14  -3    0.25    0.23 
  -1  14  -3    0.17    0.23 
   1  14   3    0.32    0.23 
  -1  14  -4    0.46    0.28 
  -1  14  -4    0.17    0.23 
   1  14   4    0.24    0.22 
  -1  14  -5    0.11    0.23 
   1  14   5    0.27    0.21 
  -1  14  -6    0.97    0.41 
  -1  15   6    0.55    0.34 
  -1  15   5    0.04    0.22 
   1  15  -5    0.19    0.23 
  -1  15   4    0.75    0.34 
   1  15  -4    1.00    0.38 
  -1  15   3    0.16    0.23 
   1  15  -3   -0.03    0.19 
  -1  15   2    0.45    0.28 
   1  15  -2    0.10    0.23 
  -1  15   1   -0.16    0.17 
   1  15  -1   -0.17    0.13 
  -1  15   0    0.46    0.29 
   1  15   0    0.44    0.25 
  -1  15  -1    0.69    0.28 
  -1  15  -1    0.89    0.35 
   1  15   1    0.74    0.32 
  -1  15  -2    1.96    0.44 
  -1  15  -2    2.67    0.54 
   1  15   2    2.11    0.49 
  -1  15  -3   -0.21    0.16 
  -1  15  -3   -0.04    0.19 
   1  15   3    0.18    0.22 
  -1  15  -4    1.06    0.38 
   1  15   4    1.41    0.42 
  -1  15  -5   -0.14    0.24 
   1  15   5   -0.26    0.17 
  -1  16   4    0.38    0.31 
   1  16  -4    0.49    0.32 
  -1  16   3    0.09    0.23 
   1  16  -3   -0.09    0.20 
  -1  16   2    0.05    0.18 
   1  16  -2    0.06    0.21 
  -1  16   1    0.16    0.21 
   1  16  -1    0.16    0.26 
  -1  16   0    1.21    0.41 
   1  16   0    0.66    0.32 
  -1  16  -1   -0.03    0.21 
   1  16   1    0.02    0.20 
  -1  16  -2    0.39    0.26 
  -1  16  -2    0.35    0.31 
   1  16   2    0.53    0.31 
  -1  16  -3    3.24    0.59 
  -1  16  -3    3.31    0.61 
   1  16   3    3.01    0.60 
   2   0 -12    0.73    0.42 
   2   0 -11   -0.17    0.30 
   2   0 -10    6.57    0.70 
   2   0  -9    0.00    0.21 
   2   0  -8    7.20    0.64 
  -2   0   7    0.00    0.13 
   2   0  -7    0.06    0.18 
  -2   0   6   68.31    1.36 
   2   0  -6   69.15    1.52 
   2   0  -6   71.21    1.17 
  -2   0   5   -0.03    0.12 
   2   0  -5    0.07    0.14 
  -2   0   4   23.99    0.76 
   2   0  -4   23.38    0.71 
  -2   0   3   -0.01    0.11 
   2   0  -3    0.02    0.09 
  -2   0   2   55.19    0.81 
  -2   0   2   55.23    1.04 
   2   0  -2   54.46    0.77 
  -2   0   1   -0.03    0.09 
  -2   0   1    0.00    0.10 
  -2   0   0  200.98    1.87 
  -2   0   0  212.35    1.88 
  -2   0  -1   -0.09    0.13 
  -2   0  -1   -0.04    0.08 
  -2   0  -2   13.16    0.61 
  -2   0  -2   14.75    0.45 
  -2   0  -3    0.22    0.18 
  -2   0  -3    0.03    0.07 
  -2   0  -4  116.17    2.02 
  -2   0  -5    0.07    0.19 
  -2   0  -6   14.79    0.88 
  -2   0  -7   -0.30    0.22 
  -2   0  -8    0.94    0.39 
  -2   0  -9    0.00    0.31 
  -2   0 -10    2.89    0.58 
  -2   0 -10    2.06    0.59 
   2  -1 -12   -0.03    0.30 
   2   1 -12    0.07    0.31 
   2  -1 -11    1.11    0.43 
   2  -1 -10    0.23    0.30 
   2   1 -10    0.35    0.27 
   2  -1  -9    0.24    0.25 
   2   1  -9    0.06    0.23 
   2  -1  -8    1.93    0.39 
   2   1  -8    2.08    0.39 
  -2  -1   7   11.30    0.60 
  -2   1   7   11.81    0.62 
   2  -1  -7   11.24    0.71 
   2   1  -7   11.36    0.71 
   2   1  -7   11.83    0.59 
  -2  -1   6  105.15    1.68 
  -2   1   6  111.04    1.74 
   2  -1  -6  106.17    1.90 
   2  -1  -6  109.37    1.32 
   2   1  -6  105.94    1.86 
   2   1  -6  109.38    1.57 
  -2  -1   5  174.30    2.09 
  -2   1   5  180.50    2.14 
   2  -1  -5  170.66    2.17 
   2  -1  -5  180.74    1.50 
   2   1  -5  173.01    2.13 
  -2  -1   4    4.00    0.35 
  -2   1   4    4.19    0.35 
   2  -1  -4    4.00    0.35 
   2   1  -4    3.80    0.32 
  -2  -1   3    1.11    0.21 
  -2   1   3    0.99    0.20 
   2  -1  -3    0.89    0.17 
   2   1  -3    1.05    0.16 
  -2  -1   2    0.35    0.10 
  -2  -1   2    1.82    0.23 
  -2   1   2    1.72    0.17 
  -2   1   2    1.85    0.24 
   2  -1  -2    1.82    0.22 
   2   1  -2    1.85    0.18 
  -2  -1   1   69.46    1.06 
  -2  -1   1   70.42    1.14 
  -2   1   1   61.25    0.88 
  -2   1   1   70.40    1.13 
  -2  -1   0  198.11    1.92 
  -2  -1   0  200.41    1.85 
  -2   1   0  193.24    1.80 
  -2   1   0  202.99    1.85 
  -2  -1  -1   37.97    0.92 
  -2  -1  -1   40.13    0.79 
  -2   1  -1   37.73    0.90 
  -2   1  -1   39.72    0.77 
  -2  -1  -2    7.57    0.48 
  -2  -1  -2    7.60    0.34 
  -2   1  -2    7.59    0.48 
  -2   1  -2    7.55    0.33 
  -2  -1  -3    2.61    0.35 
  -2   1  -3    2.53    0.34 
  -2   1  -3    2.34    0.19 
  -2  -1  -4    2.55    0.38 
  -2   1  -4    2.70    0.39 
  -2  -1  -5   35.47    1.21 
  -2   1  -5   37.15    1.25 
  -2  -1  -6    2.45    0.44 
  -2   1  -6    2.62    0.45 
  -2  -1  -7   -0.09    0.24 
  -2   1  -7    0.07    0.25 
  -2  -1  -8    4.53    0.54 
  -2  -1  -8    3.55    0.57 
  -2   1  -8    4.11    0.62 
  -2  -1  -9    0.24    0.26 
  -2  -1  -9    0.20    0.36 
  -2   1  -9   -0.01    0.34 
  -2  -1 -10    0.03    0.25 
  -2  -1 -10    0.18    0.39 
  -2   1 -10    0.05    0.39 
   2  -2 -12   -0.12    0.29 
   2   2 -12    0.06    0.31 
   2  -2 -11    0.07    0.28 
   2   2 -11    0.35    0.31 
   2  -2 -10   -0.10    0.22 
   2   2 -10    0.17    0.24 
   2  -2  -9    1.10    0.36 
   2   2  -9    1.12    0.36 
   2  -2  -8    9.28    0.73 
   2   2  -8    9.49    0.70 
   2   2  -8    9.23    0.60 
  -2  -2   7   15.50    0.69 
  -2   2   7    0.05    0.07 
   2  -2  -7   15.30    0.84 
   2   2  -7   15.15    0.69 
  -2  -2   6   49.88    1.18 
  -2   2   6   50.11    1.20 
   2  -2  -6   49.10    1.33 
  -2  -2   5   38.05    1.00 
  -2   2   5   36.88    1.00 
   2  -2  -5   35.73    1.04 
   2  -2  -5   37.54    0.56 
  -2  -2   4    1.28    0.22 
  -2   2   4    1.17    0.22 
   2  -2  -4    0.94    0.21 
  -2  -2   3   31.68    0.85 
  -2   2   3   32.13    0.86 
   2  -2  -3   31.82    0.81 
  -2  -2   2  129.79    1.52 
  -2  -2   2  125.88    1.63 
  -2   2   2  128.53    1.07 
  -2   2   2  127.46    1.64 
   2  -2  -2  128.76    1.47 
   2   2  -2  129.84    1.09 
  -2  -2   1  127.70    1.54 
  -2  -2   1  129.62    1.60 
  -2   2   1  124.87    1.25 
  -2   2   1  128.70    1.58 
  -2  -2   0    0.33    0.16 
  -2  -2   0    0.51    0.14 
  -2   2   0    0.66    0.17 
  -2   2   0    0.48    0.14 
  -2  -2  -1   29.22    0.51 
  -2  -2  -1   25.37    0.78 
  -2  -2  -1   27.43    0.69 
  -2   2  -1   27.42    0.78 
  -2   2  -1   26.95    0.67 
  -2  -2  -2   24.45    0.82 
  -2  -2  -2   26.43    0.66 
  -2   2  -2   25.29    0.83 
  -2   2  -2   25.84    0.62 
  -2  -2  -3    4.85    0.44 
  -2   2  -3    4.61    0.44 
  -2   2  -3    5.38    0.27 
   2   2   3    5.87    0.32 
   2   2   3    5.89    0.32 
  -2  -2  -4    3.17    0.41 
  -2   2  -4    3.58    0.40 
  -2  -2  -5    5.88    0.49 
  -2  -2  -5    4.44    0.50 
  -2   2  -5    5.03    0.53 
  -2  -2  -6    2.74    0.39 
  -2  -2  -6    2.75    0.45 
  -2   2  -6    2.32    0.44 
  -2  -2  -7    0.90    0.28 
  -2  -2  -7    0.73    0.33 
  -2   2  -7    0.43    0.31 
  -2  -2  -8    0.46    0.23 
  -2  -2  -8    0.49    0.34 
  -2   2  -8    0.27    0.33 
  -2  -2  -9   -0.10    0.18 
  -2  -2  -9    0.26    0.33 
  -2   2  -9   -0.10    0.31 
  -2  -2 -10    0.48    0.35 
  -2  -2 -10    0.08    0.38 
  -2   2 -10    0.29    0.41 
   2   3 -12    0.21    0.31 
   2  -3 -11    0.05    0.29 
   2   3 -11    0.17    0.27 
   2  -3 -10   -0.02    0.24 
   2   3 -10   -0.03    0.22 
   2  -3  -9   -0.15    0.17 
   2  -3  -8   -0.10    0.19 
   2   3  -8    0.10    0.19 
  -2  -3   7   12.15    0.63 
  -2   3   7   -0.09    0.06 
   2  -3  -7   11.08    0.74 
   2   3  -7   11.80    0.65 
  -2  -3   6   11.55    0.61 
  -2   3   6   11.48    0.61 
   2  -3  -6   11.18    0.69 
  -2  -3   5    6.92    0.48 
  -2   3   5    6.44    0.46 
   2  -3  -5    5.57    0.46 
  -2  -3   4   55.27    1.20 
  -2   3   4   56.19    1.22 
   2  -3  -4   53.35    1.20 
  -2  -3   3    7.53    0.45 
  -2   3   3    7.63    0.46 
   2  -3  -3    7.34    0.45 
  -2  -3   2   12.63    0.53 
  -2  -3   2   12.46    0.55 
  -2   3   2   12.16    0.32 
  -2   3   2   12.87    0.56 
   2  -3  -2   12.65    0.52 
  -2  -3   1  286.27    2.47 
  -2  -3   1  288.70    2.52 
  -2   3   1  291.36    1.98 
  -2   3   1  294.48    2.52 
  -2  -3   0   12.94    0.56 
  -2  -3   0   13.37    0.54 
  -2   3   0   13.77    0.51 
  -2   3   0   14.03    0.54 
  -2  -3  -1    0.76    0.13 
  -2  -3  -1    0.73    0.19 
  -2  -3  -1    0.86    0.17 
  -2   3  -1    0.81    0.21 
  -2   3  -1    0.57    0.14 
  -2  -3  -2   13.32    0.47 
  -2  -3  -2   12.77    0.62 
  -2   3  -2   13.63    0.64 
  -2   3  -2   13.00    0.48 
   2   3   2   13.72    0.52 
   2   3   2   14.28    0.53 
  -2  -3  -3   30.06    0.80 
  -2  -3  -3   27.29    0.95 
  -2   3  -3   30.16    1.01 
  -2   3  -3   28.87    0.66 
   2   3   3   33.86    0.78 
  -2  -3  -4    0.00    0.06 
  -2  -3  -4    2.89    0.40 
  -2   3  -4    3.64    0.43 
  -2  -3  -5    0.27    0.18 
  -2  -3  -5    0.05    0.20 
  -2   3  -5   -0.07    0.19 
  -2  -3  -6    5.83    0.51 
  -2  -3  -6    4.97    0.55 
  -2   3  -6    5.78    0.61 
  -2  -3  -7    4.17    0.48 
  -2  -3  -7    4.38    0.57 
  -2   3  -7    4.24    0.60 
  -2  -3  -8    0.64    0.28 
  -2  -3  -8    0.35    0.31 
  -2   3  -8    0.34    0.34 
  -2  -3  -9    0.54    0.32 
  -2  -3  -9    0.16    0.31 
  -2   3  -9    0.04    0.34 
  -2  -3 -10   -0.20    0.25 
  -2  -3 -10    0.13    0.37 
  -2   3 -10    0.18    0.43 
   2   4 -12    0.05    0.28 
   2  -4 -11    0.04    0.31 
   2   4 -11    0.24    0.29 
   2  -4 -10    0.37    0.30 
   2  -4  -9    1.35    0.40 
   2   4  -9    1.42    0.38 
   2  -4  -8    5.09    0.58 
   2   4  -8    4.42    0.49 
  -2  -4   7   -0.01    0.11 
  -2   4   7    0.40    0.19 
   2  -4  -7    0.32    0.23 
   2   4  -7    0.22    0.18 
  -2  -4   6    0.10    0.15 
  -2   4   6    0.17    0.15 
   2  -4  -6   -0.09    0.16 
  -2  -4   5    8.35    0.52 
  -2   4   5    8.84    0.55 
   2  -4  -5    8.05    0.56 
  -2  -4   4   42.57    1.10 
  -2   4   4   42.07    1.11 
   2  -4  -4   40.82    1.11 
  -2  -4   3   33.11    0.95 
  -2   4   3   32.22    0.94 
   2  -4  -3   31.65    0.92 
  -2  -4   2  136.55    1.86 
  -2   4   2  136.49    1.14 
  -2   4   2  134.38    1.84 
   2  -4  -2  128.25    1.73 
  -2  -4   1   66.75    1.27 
  -2  -4   1   67.56    1.28 
  -2   4   1   72.10    1.00 
  -2   4   1   69.77    1.29 
  -2  -4   0   14.35    0.62 
  -2   4   0   14.95    0.59 
   2   4   0   15.78    0.62 
  -2  -4  -1    2.91    0.22 
  -2  -4  -1    2.91    0.32 
  -2   4  -1    2.91    0.32 
  -2   4  -1    3.26    0.29 
   2   4   1    3.46    0.32 
   2   4   1    2.98    0.30 
  -2  -4  -2   35.94    0.77 
  -2  -4  -2   32.65    0.99 
  -2   4  -2   35.11    1.02 
  -2   4  -2   34.31    0.82 
   2   4   2    0.04    0.04 
  -2  -4  -3   13.95    0.58 
  -2  -4  -3   12.53    0.67 
  -2   4  -3   13.55    0.72 
  -2   4  -3   12.23    0.48 
   2   4   3   14.54    0.57 
  -2  -4  -4   17.03    0.70 
  -2  -4  -4   17.71    0.84 
  -2   4  -4   18.74    0.89 
   2   4   4   21.28    0.66 
  -2  -4  -5   20.39    0.86 
  -2  -4  -5   19.97    0.94 
  -2   4  -5   22.12    1.03 
  -2  -4  -6    3.49    0.43 
  -2  -4  -6    3.55    0.50 
  -2   4  -6    4.14    0.57 
  -2  -4  -7    0.98    0.30 
  -2  -4  -7    1.53    0.42 
  -2   4  -7    1.10    0.40 
  -2  -4  -8   14.64    0.93 
  -2  -4  -8   13.91    0.96 
  -2   4  -8   14.86    1.06 
  -2  -4  -9    0.68    0.34 
  -2  -4  -9    0.69    0.39 
  -2   4  -9    0.31    0.40 
  -2  -4 -10    0.15    0.35 
  -2   4 -10    0.05    0.38 
   2  -5 -11    0.80    0.44 
   2  -5 -10    0.24    0.30 
   2  -5  -9    0.37    0.29 
   2   5  -9    0.44    0.29 
  -2   5   8    0.05    0.06 
   2  -5  -8    0.56    0.28 
   2   5  -8    0.93    0.30 
  -2   5   7    5.37    0.48 
   2  -5  -7    6.03    0.60 
   2   5  -7    6.52    0.50 
   2   5  -7    6.03    0.48 
  -2   5   6    2.99    0.38 
   2  -5  -6    2.81    0.42 
   2   5  -6    2.76    0.34 
  -2   5   5   -0.08    0.12 
   2  -5  -5    0.02    0.17 
  -2   5   4   28.65    0.96 
   2  -5  -4   26.52    0.95 
  -2   5   3   16.66    0.72 
   2  -5  -3   16.13    0.71 
  -2   5   2   59.68    0.81 
  -2   5   2   56.81    1.27 
   2   5  -2   59.97    1.30 
   2   5  -2   60.49    1.30 
  -2  -5   1   10.15    0.55 
  -2   5   1   10.84    0.44 
  -2   5   1   10.12    0.54 
   2   5  -1   10.94    0.57 
   2   5  -1   10.56    0.55 
  -2  -5   0    1.85    0.28 
  -2   5   0   -0.04    0.06 
  -2   5   0    1.44    0.24 
   2   5   0    1.91    0.28 
   2   5   0    1.75    0.26 
  -2  -5  -1   29.55    0.64 
  -2  -5  -1   28.72    0.93 
  -2   5  -1   30.80    0.90 
  -2   5  -1   29.42    0.85 
   2   5   1   32.23    0.92 
   2   5   1   32.52    0.92 
  -2  -5  -2    5.34    0.35 
  -2  -5  -2    4.76    0.43 
  -2   5  -2    5.30    0.46 
  -2   5  -2    5.42    0.37 
   2   5   2    5.71    0.41 
  -2  -5  -3   45.76    1.04 
  -2  -5  -3   41.52    1.22 
  -2   5  -3   45.38    1.29 
  -2   5  -3   43.82    0.97 
   2   5   3   47.76    1.09 
  -2  -5  -4    0.02    0.17 
  -2  -5  -4    0.09    0.20 
  -2   5  -4    0.03    0.19 
   2   5   4    0.08    0.12 
  -2  -5  -5    0.10    0.18 
  -2  -5  -5    0.28    0.24 
  -2   5  -5    0.15    0.21 
  -2  -5  -6    7.73    0.61 
  -2  -5  -6    6.84    0.63 
  -2   5  -6    6.35    0.66 
  -2  -5  -7   41.91    1.45 
  -2  -5  -7   38.36    1.47 
  -2   5  -7   40.38    1.61 
  -2  -5  -8    0.58    0.31 
  -2  -5  -8    0.57    0.34 
  -2   5  -8    0.70    0.40 
  -2  -5  -9    1.21    0.45 
  -2   5  -9    1.35    0.55 
   2  -6 -11    1.04    0.47 
   2  -6 -10    0.52    0.35 
   2   6 -10    0.45    0.33 
   2  -6  -9    2.41    0.50 
   2   6  -9    3.11    0.51 
  -2   6   8    0.30    0.17 
   2  -6  -8    0.02    0.21 
   2   6  -8    0.16    0.22 
  -2   6   7    0.42    0.20 
   2  -6  -7    0.57    0.29 
   2   6  -7    0.43    0.21 
   2   6  -7    0.63    0.22 
  -2   6   6    0.08    0.15 
   2  -6  -6   -0.15    0.17 
   2   6  -6    0.11    0.13 
   2   6  -6    0.03    0.12 
  -2   6   5    1.72    0.32 
   2  -6  -5    1.76    0.35 
   2   6  -5    1.74    0.31 
   2   6  -5    1.70    0.30 
  -2   6   4    4.28    0.43 
   2  -6  -4    4.37    0.46 
   2   6  -4    4.60    0.42 
   2   6  -4    4.57    0.42 
  -2   6   3   16.47    0.76 
   2  -6  -3   15.11    0.73 
   2   6  -3   17.24    0.76 
   2   6  -3   16.64    0.74 
  -2   6   2    0.93    0.24 
   2   6  -2    0.86    0.24 
   2   6  -2    1.07    0.24 
  -2  -6   1   15.10    0.70 
  -2   6   1   16.47    0.57 
  -2   6   1   15.53    0.70 
   2   6  -1   17.27    0.74 
   2   6  -1   17.68    0.75 
  -2  -6   0   28.49    0.95 
  -2   6   0   -0.01    0.07 
  -2   6   0   28.98    0.92 
   2   6   0   30.18    0.96 
  -2  -6  -1   14.40    0.70 
  -2   6  -1   14.99    0.67 
  -2   6  -1   14.35    0.65 
   2   6   1   14.48    0.67 
  -2  -6  -2   10.26    0.49 
  -2  -6  -2    8.82    0.58 
  -2   6  -2   10.18    0.62 
  -2   6  -2   10.14    0.54 
   2   6   2    9.78    0.56 
  -2  -6  -3   91.74    1.52 
  -2  -6  -3   84.29    1.78 
  -2   6  -3   96.44    1.92 
  -2   6  -3   90.37    1.51 
  -2  -6  -4    5.70    0.48 
  -2  -6  -4    5.80    0.53 
  -2   6  -4    6.17    0.56 
   2   6   4    6.80    0.46 
  -2  -6  -5   -0.02    0.11 
  -2  -6  -5   13.56    0.83 
  -2   6  -5   14.96    0.89 
  -2  -6  -6   11.68    0.75 
  -2  -6  -6   11.16    0.79 
  -2   6  -6   10.76    0.82 
  -2  -6  -7    0.37    0.26 
  -2  -6  -7    0.16    0.29 
  -2   6  -7    0.51    0.35 
  -2  -6  -8    2.71    0.54 
  -2   6  -8    2.40    0.59 
  -2   6  -9    1.91    0.59 
   2  -7 -11   -0.06    0.29 
   2  -7 -10    0.71    0.40 
   2   7 -10    0.96    0.40 
   2  -7  -9    0.54    0.33 
   2   7  -9    0.47    0.30 
  -2   7   8    0.06    0.14 
   2  -7  -8    0.03    0.23 
   2   7  -8   -0.10    0.19 
  -2   7   7    0.23    0.19 
   2  -7  -7    0.27    0.27 
   2   7  -7    0.09    0.17 
   2   7  -7    0.47    0.22 
  -2   7   6    0.16    0.18 
   2  -7  -6    0.20    0.24 
   2   7  -6    0.19    0.17 
   2   7  -6    0.11    0.16 
  -2   7   5   16.71    0.83 
   2  -7  -5   18.41    0.94 
   2   7  -5   19.92    0.89 
   2   7  -5   19.66    0.88 
  -2   7   4   13.43    0.73 
   2  -7  -4   12.57    0.75 
   2   7  -4   13.15    0.71 
   2   7  -4   13.46    0.72 
  -2   7   3   16.01    0.78 
   2  -7  -3   16.13    0.79 
   2   7  -3   17.16    0.80 
   2   7  -3   16.40    0.78 
  -2   7   2    1.55    0.21 
  -2   7   2    1.59    0.30 
   2   7  -2    1.56    0.30 
   2   7  -2    1.28    0.27 
  -2   7   1    0.19    0.14 
  -2   7   1    0.25    0.16 
   2   7  -1    0.27    0.16 
  -2  -7   0   15.36    0.75 
  -2   7   0    0.00    0.08 
  -2   7   0   15.56    0.73 
   2   7   0   18.94    0.81 
  -2  -7  -1  131.34    2.16 
  -2   7  -1  138.82    2.05 
  -2   7  -1  131.74    2.04 
   2   7   1  146.42    2.22 
  -2  -7  -2   19.04    0.69 
  -2  -7  -2   18.44    0.85 
  -2   7  -2   20.11    0.87 
  -2   7  -2   19.29    0.78 
   2   7   2   21.65    0.86 
  -2  -7  -3   15.78    0.70 
  -2  -7  -3   14.08    0.78 
  -2   7  -3   14.87    0.80 
  -2   7  -3   14.67    0.67 
   2   7   3   15.28    0.73 
  -2  -7  -4    3.88    0.44 
  -2  -7  -4    3.49    0.46 
  -2   7  -4    3.51    0.48 
   2   7   4    4.39    0.39 
  -2  -7  -5   -0.01    0.07 
  -2  -7  -5    1.28    0.35 
  -2   7  -5    1.72    0.40 
  -2  -7  -6    1.37    0.38 
  -2   7  -6    0.87    0.34 
  -2  -7  -7    0.18    0.27 
  -2   7  -7    0.18    0.31 
  -2   7  -8    0.34    0.36 
  -2   7  -9    0.39    0.43 
   2   8 -11    0.44    0.40 
   2  -8 -10    0.80    0.37 
   2   8 -10    0.57    0.38 
   2  -8  -9    0.06    0.24 
   2   8  -9    0.18    0.28 
  -2   8   8    1.00    0.30 
   2  -8  -8    0.68    0.35 
   2   8  -8    0.81    0.31 
  -2   8   7    3.79    0.45 
   2  -8  -7    3.86    0.55 
   2   8  -7    4.18    0.47 
  -2   8   6   12.13    0.77 
   2  -8  -6   12.28    0.85 
   2   8  -6   14.13    0.80 
  -2   8   5    2.45    0.39 
   2  -8  -5    2.10    0.41 
   2   8  -5    2.59    0.40 
  -2   8   4    0.22    0.20 
   2  -8  -4    0.22    0.21 
   2   8  -4    0.19    0.18 
  -2   8   3    1.43    0.32 
   2   8  -3    1.43    0.32 
  -2   8   2   27.44    0.75 
  -2   8   2   24.98    1.00 
   2   8  -2   28.15    1.06 
  -2   8   1    7.10    0.45 
  -2   8   1    6.47    0.53 
   2   8  -1    7.07    0.54 
  -2  -8   0    4.40    0.46 
  -2   8   0    0.06    0.10 
  -2   8   0    4.07    0.42 
   2   8   0    4.50    0.45 
  -2  -8  -1    5.23    0.50 
  -2   8  -1    6.29    0.51 
  -2   8  -1    5.18    0.46 
   2   8   1    6.65    0.53 
  -2  -8  -2    0.57    0.20 
  -2  -8  -2    0.52    0.25 
  -2   8  -2    0.44    0.22 
  -2   8  -2    0.44    0.20 
   2   8   2    0.53    0.22 
  -2  -8  -3    5.42    0.48 
  -2  -8  -3    5.72    0.54 
  -2   8  -3    6.12    0.56 
  -2   8  -3    5.85    0.47 
   2   8   3    6.43    0.51 
  -2  -8  -4    0.00    0.20 
  -2   8  -4    0.04    0.18 
   2   8   4   -0.06    0.08 
  -2  -8  -5   -0.05    0.19 
  -2   8  -5    0.12    0.22 
  -2  -8  -6    1.22    0.38 
  -2   8  -6    1.00    0.36 
  -2  -8  -7    2.50    0.51 
  -2   8  -7    2.52    0.55 
  -2   8  -8    0.86    0.46 
   2  -9 -10    2.43    0.58 
   2   9 -10    2.43    0.59 
   2  -9  -9    2.37    0.53 
   2   9  -9    1.76    0.49 
  -2   9   8    0.55    0.25 
   2  -9  -8    0.97    0.36 
   2   9  -8    0.96    0.36 
  -2   9   7    0.31    0.22 
   2  -9  -7    0.18    0.24 
   2   9  -7    0.37    0.23 
  -2   9   6    3.50    0.48 
   2  -9  -6    2.92    0.50 
   2   9  -6    3.78    0.49 
  -2   9   5    7.77    0.64 
   2  -9  -5    7.75    0.70 
   2   9  -5    7.95    0.64 
  -2   9   4   22.33    1.04 
   2  -9  -4   21.53    1.04 
   2   9  -4   21.95    1.01 
  -2   9   3    0.84    0.29 
   2   9  -3    0.68    0.26 
  -2   9   2    6.17    0.55 
   2   9  -2    7.48    0.60 
  -2   9   1    3.71    0.36 
  -2   9   1    3.64    0.45 
   2   9  -1    3.78    0.44 
  -2   9   0    1.29    0.25 
  -2   9   0    6.14    0.54 
   2   9   0    6.85    0.57 
  -2  -9  -1    3.84    0.46 
  -2   9  -1    3.92    0.44 
  -2   9  -1    3.69    0.43 
   2   9   1    4.33    0.46 
  -2  -9  -2    1.21    0.33 
  -2   9  -2    1.06    0.30 
  -2   9  -2    1.14    0.29 
   2   9   2    1.17    0.30 
  -2  -9  -3    1.39    0.36 
  -2   9  -3    1.27    0.34 
  -2   9  -3    1.50    0.31 
   2   9   3    1.58    0.33 
  -2  -9  -4    0.74    0.30 
  -2   9  -4    0.73    0.30 
   2   9   4    0.85    0.25 
  -2  -9  -5    4.91    0.57 
  -2   9  -5    4.95    0.59 
  -2  -9  -6    5.11    0.61 
  -2   9  -6    5.93    0.68 
  -2   9  -7    0.15    0.29 
  -2   9  -8   -0.14    0.30 
   2  10 -10    0.08    0.30 
   2 -10  -9    0.85    0.42 
   2  10  -9    0.76    0.40 
  -2  10   8    0.57    0.23 
   2 -10  -8    0.46    0.34 
   2  10  -8    0.71    0.34 
  -2  10   7    2.78    0.47 
   2 -10  -7    2.84    0.54 
   2  10  -7    3.11    0.49 
  -2  10   6    1.28    0.36 
   2 -10  -6    0.80    0.32 
   2  10  -6    0.93    0.31 
  -2  10   5    2.33    0.43 
   2 -10  -5    2.51    0.45 
   2  10  -5    2.23    0.42 
  -2  10   4    7.93    0.67 
   2  10  -4    8.93    0.70 
  -2  10   3    0.27    0.22 
   2  10  -3    0.38    0.22 
  -2  10   2    4.79    0.53 
   2  10  -2    5.37    0.55 
  -2  10   1    9.55    0.58 
  -2  10   1    9.02    0.69 
   2  10  -1   10.93    0.74 
  -2  10   0    4.19    0.42 
  -2  10   0    8.72    0.67 
   2  10   0    9.14    0.68 
  -2 -10  -1   17.29    0.92 
  -2  10  -1   18.57    0.88 
  -2  10  -1   17.32    0.90 
   2  10   1   19.32    0.97 
  -2 -10  -2    7.11    0.63 
  -2  10  -2    7.32    0.60 
  -2  10  -2    8.04    0.63 
   2  10   2    7.83    0.63 
  -2 -10  -3    0.26    0.24 
  -2  10  -3    0.14    0.21 
  -2  10  -3    0.20    0.21 
   2  10   3    0.14    0.17 
  -2 -10  -4    2.54    0.47 
  -2  10  -4    2.64    0.48 
   2  10   4    3.29    0.45 
  -2 -10  -5    1.37    0.41 
  -2  10  -5    1.04    0.36 
  -2 -10  -6    0.05    0.27 
  -2  10  -6   -0.17    0.21 
  -2  10  -7    0.00    0.28 
   2 -11  -9    0.39    0.33 
   2  11  -9    0.17    0.30 
  -2  11   8    0.29    0.23 
   2 -11  -8    0.86    0.42 
   2  11  -8    0.72    0.35 
  -2  11   7    1.81    0.42 
   2 -11  -7    1.78    0.47 
   2  11  -7    2.64    0.49 
  -2  11   6    5.08    0.58 
   2 -11  -6    5.42    0.64 
   2  11  -6    5.13    0.59 
  -2  11   5    0.05    0.18 
   2 -11  -5    0.24    0.22 
   2  11  -5    0.03    0.17 
  -2  11   4    4.61    0.55 
   2  11  -4    5.29    0.58 
  -2  11   3   11.52    0.82 
   2  11  -3   13.38    0.87 
  -2  11   2    4.54    0.54 
   2  11  -2    5.20    0.57 
  -2  11   1    2.80    0.46 
   2  11  -1    2.79    0.47 
  -2  11   0   13.59    0.74 
  -2  11   0   18.76    1.00 
   2  11   0   19.32    1.02 
  -2  11  -1   36.18    1.26 
  -2  11  -1   33.56    1.31 
   2  11   1   37.54    1.41 
  -2 -11  -2   11.54    0.81 
  -2  11  -2   12.40    0.81 
  -2  11  -2   12.10    0.80 
   2  11   2   12.50    0.82 
  -2 -11  -3    0.44    0.28 
  -2  11  -3    0.29    0.23 
  -2  11  -3    0.27    0.20 
   2  11   3    0.32    0.20 
  -2 -11  -4    0.27    0.27 
  -2  11  -4    0.32    0.25 
   2  11   4    0.56    0.24 
  -2 -11  -5    1.49    0.43 
  -2  11  -5    0.98    0.37 
  -2  11  -6    0.64    0.34 
  -2  11  -7   -0.05    0.26 
  -2  12   8    0.02    0.19 
   2 -12  -8    0.38    0.31 
   2  12  -8    0.19    0.30 
  -2  12   7    1.15    0.34 
   2 -12  -7    0.94    0.38 
  -2  12   6    0.27    0.23 
   2 -12  -6    0.21    0.23 
   2  12  -6    0.05    0.22 
  -2  12   5    0.34    0.25 
   2  12  -5    0.15    0.23 
  -2  12   4    9.40    0.79 
   2  12  -4   10.44    0.82 
  -2  12   3    0.36    0.25 
   2  12  -3    0.69    0.32 
  -2  12   2   23.80    1.20 
   2  12  -2   25.99    1.25 
  -2  12   1    0.31    0.26 
   2  12  -1    0.07    0.18 
  -2  12   0    0.08    0.20 
   2  12   0    0.21    0.19 
  -2  12  -1    4.63    0.51 
  -2  12  -1    4.93    0.56 
   2  12   1    4.05    0.55 
  -2  12  -2    2.07    0.42 
  -2  12  -2    2.52    0.46 
   2  12   2    1.92    0.42 
  -2 -12  -3    6.14    0.67 
  -2  12  -3    6.89    0.67 
  -2  12  -3    6.06    0.61 
   2  12   3    6.43    0.63 
  -2 -12  -4    0.09    0.26 
  -2  12  -4   -0.03    0.22 
   2  12   4    0.09    0.14 
  -2  12  -5    0.54    0.32 
  -2  12  -6    0.13    0.26 
  -2  13   7    0.13    0.21 
   2 -13  -7   -0.03    0.20 
  -2  13   6    0.14    0.21 
   2  13  -6    0.09    0.24 
  -2  13   5    0.19    0.21 
   2  13  -5    0.06    0.24 
  -2  13   4   -0.05    0.19 
   2  13  -4    0.15    0.23 
  -2  13   3    1.50    0.41 
   2  13  -3    1.52    0.43 
  -2  13   2    2.45    0.50 
   2  13  -2    2.60    0.52 
  -2  13   1    0.01    0.19 
   2  13  -1    0.21    0.19 
  -2  13   0    0.01    0.20 
   2  13   0    0.08    0.18 
  -2  13  -1   -0.12    0.13 
  -2  13  -1   -0.02    0.20 
   2  13   1    0.10    0.17 
  -2  13  -2   -0.03    0.18 
  -2  13  -2    0.20    0.22 
   2  13   2    0.23    0.21 
  -2  13  -3    0.90    0.34 
  -2  13  -3    0.98    0.34 
   2  13   3    1.16    0.35 
  -2 -13  -4    0.56    0.36 
  -2  13  -4    0.67    0.31 
   2  13   4    0.73    0.27 
  -2  13  -5    0.68    0.35 
  -2  13  -6    0.04    0.29 
  -2  14   7    0.45    0.29 
  -2  14   6   -0.06    0.19 
   2  14  -6   -0.10    0.17 
  -2  14   5    0.29    0.27 
   2  14  -5    0.04    0.21 
  -2  14   4    0.24    0.26 
   2  14  -4    0.36    0.28 
  -2  14   3    0.25    0.24 
   2  14  -3    0.47    0.29 
  -2  14   2   -0.03    0.20 
   2  14  -2   -0.14    0.18 
  -2  14   1    1.17    0.39 
   2  14  -1    1.21    0.37 
  -2  14   0    0.45    0.28 
   2  14   0    0.47    0.25 
  -2  14  -1    0.37    0.28 
   2  14   1    0.28    0.22 
  -2  14  -2   -0.04    0.20 
  -2  14  -2    0.05    0.23 
   2  14   2   -0.02    0.14 
  -2  14  -3    0.79    0.34 
  -2  14  -3    0.94    0.33 
   2  14   3    0.50    0.28 
  -2  14  -4    0.57    0.32 
   2  14   4    0.37    0.26 
  -2  14  -5    0.04    0.32 
   2  15  -6    0.34    0.29 
  -2  15   5   -0.23    0.18 
   2  15  -5   -0.09    0.20 
  -2  15   4    0.01    0.21 
   2  15  -4    0.18    0.22 
  -2  15   3    0.18    0.25 
   2  15  -3    0.13    0.23 
  -2  15   2   -0.02    0.16 
   2  15  -2   -0.10    0.18 
  -2  15   1    0.19    0.21 
   2  15  -1    0.05    0.19 
  -2  15   0    1.16    0.39 
   2  15   0    1.29    0.40 
  -2  15  -1    0.36    0.27 
   2  15   1    0.40    0.25 
  -2  15  -2    0.55    0.31 
   2  15   2    0.13    0.22 
  -2  15  -3    1.25    0.43 
   2  15   3    1.37    0.42 
  -2  15  -4    0.53    0.39 
   2  15   4    0.61    0.32 
   2  16  -3    0.67    0.33 
  -2  16   2    0.77    0.36 
   2  16  -2    0.52    0.33 
  -2  16   1    0.53    0.33 
   2  16  -1    0.32    0.26 
  -2  16   0    0.37    0.29 
   2  16   0    0.82    0.36 
  -2  16  -1    0.55    0.32 
   2  16   1    0.48    0.28 
  -2  16  -2    0.70    0.34 
   2  16   2    0.09    0.22 
   3   0 -12    0.07    0.34 
   3   0 -11    0.05    0.29 
   3   0 -10   -0.10    0.24 
   3   0  -9    0.15    0.24 
  -3   0   8   10.22    0.67 
   3   0  -8    9.48    0.72 
  -3   0   7   -0.03    0.13 
   3   0  -7   -0.16    0.17 
  -3   0   6    3.89    0.43 
   3   0  -6    4.31    0.44 
  -3   0   5   -0.06    0.13 
   3   0  -5    0.05    0.15 
  -3   0   4   74.88    1.55 
   3   0  -4   75.32    1.26 
  -3   0   3    0.00    0.12 
  -3   0   3   -0.05    0.11 
   3   0  -3   -0.06    0.10 
  -3   0   2   48.13    1.17 
  -3   0   1    0.06    0.13 
  -3   0   1    0.00    0.09 
  -3   0   0    0.95    0.23 
  -3   0   0    1.04    0.21 
  -3   0  -1    0.00    0.17 
  -3   0  -1   -0.12    0.09 
  -3   0  -2   72.31    1.60 
  -3   0  -2   79.36    1.31 
  -3   0  -3    0.01    0.17 
  -3   0  -4    0.15    0.24 
  -3   0  -5    0.04    0.25 
  -3   0  -6   -0.03    0.25 
  -3   0  -7    0.24    0.31 
  -3   0  -8    2.32    0.57 
  -3   0  -9    0.07    0.37 
   3  -1 -12    0.23    0.35 
   3   1 -12    0.27    0.35 
   3  -1 -11   -0.28    0.25 
   3   1 -11   -0.11    0.28 
   3  -1 -10    0.78    0.35 
   3   1 -10    0.67    0.34 
   3  -1  -9    4.33    0.57 
   3   1  -9    5.24    0.60 
  -3  -1   8   19.63    0.91 
  -3   1   8   19.02    0.90 
   3  -1  -8   18.43    0.98 
   3   1  -8   18.92    0.96 
  -3  -1   7    3.50    0.40 
  -3   1   7    3.52    0.41 
   3  -1  -7    4.34    0.49 
   3   1  -7    4.10    0.47 
  -3  -1   6    3.54    0.41 
  -3   1   6    2.88    0.38 
   3  -1  -6    3.64    0.42 
   3   1  -6    3.16    0.38 
  -3  -1   5    9.39    0.60 
  -3   1   5   10.70    0.63 
   3  -1  -5    9.03    0.54 
   3   1  -5    9.30    0.52 
  -3  -1   4    1.84    0.32 
  -3   1   4    1.85    0.31 
   3  -1  -4    2.12    0.27 
   3   1  -4    2.25    0.27 
  -3  -1   3   64.86    1.16 
  -3  -1   3   80.54    1.56 
  -3   1   3   81.05    1.11 
  -3   1   3   83.56    1.59 
   3  -1  -3   79.83    1.23 
   3   1  -3   79.04    1.05 
  -3  -1   2   10.01    0.50 
  -3  -1   2    9.72    0.55 
  -3   1   2   10.53    0.46 
  -3   1   2   11.98    0.60 
   3   1  -2   10.42    0.32 
  -3  -1   1    2.41    0.30 
  -3  -1   1    2.39    0.29 
  -3   1   1    1.88    0.25 
  -3   1   1    2.45    0.30 
  -3  -1   0    8.81    0.53 
  -3  -1   0    9.51    0.51 
  -3   1   0    8.92    0.52 
  -3   1   0    9.92    0.51 
  -3  -1  -1   32.33    1.02 
  -3  -1  -1   34.95    0.92 
  -3   1  -1   33.52    1.02 
  -3   1  -1   33.65    0.89 
  -3  -1  -2   18.48    0.84 
  -3  -1  -2   19.40    0.67 
  -3   1  -2   18.73    0.84 
  -3   1  -2   20.12    0.67 
  -3  -1  -3   22.30    0.97 
  -3   1  -3   23.49    0.99 
  -3  -1  -4    5.97    0.60 
  -3   1  -4    6.52    0.60 
  -3  -1  -5    3.77    0.54 
  -3   1  -5    3.65    0.54 
  -3  -1  -6    2.39    0.50 
  -3   1  -6    2.21    0.49 
  -3  -1  -7    1.57    0.47 
  -3   1  -7    2.75    0.57 
  -3  -1  -8    0.07    0.35 
  -3   1  -8   -0.07    0.34 
  -3  -1  -9    0.19    0.41 
  -3   1  -9    0.05    0.38 
   3  -2 -12   -0.18    0.28 
   3   2 -12    0.13    0.35 
   3  -2 -11    0.14    0.31 
   3   2 -11   -0.15    0.25 
   3  -2 -10    4.45    0.63 
   3   2 -10    4.28    0.61 
   3  -2  -9    6.73    0.68 
   3   2  -9    7.00    0.66 
  -3  -2   8   10.00    0.66 
  -3   2   8    9.99    0.67 
   3  -2  -8    9.38    0.73 
   3   2  -8    9.86    0.72 
  -3  -2   7    3.99    0.43 
  -3   2   7    3.91    0.43 
   3  -2  -7    4.30    0.50 
   3   2  -7    3.84    0.44 
  -3  -2   6    0.99    0.27 
  -3   2   6    0.72    0.26 
   3  -2  -6    0.72    0.26 
   3   2  -6    0.67    0.23 
  -3  -2   5    5.79    0.48 
  -3   2   5    4.87    0.46 
   3  -2  -5    5.46    0.46 
   3   2  -5    5.61    0.40 
  -3  -2   4   29.64    1.00 
  -3   2   4   31.13    1.02 
   3  -2  -4   30.35    0.90 
   3   2  -4   30.46    0.76 
  -3  -2   3    8.85    0.49 
  -3  -2   3    9.21    0.56 
  -3   2   3    8.94    0.36 
  -3   2   3    8.71    0.54 
   3  -2  -3    8.70    0.47 
   3   2  -3    9.02    0.35 
  -3  -2   2    1.04    0.23 
  -3  -2   2    0.85    0.22 
  -3   2   2    1.08    0.18 
  -3   2   2    1.33    0.25 
  -3  -2   1    8.41    0.50 
  -3  -2   1    8.57    0.50 
  -3   2   1    7.89    0.48 
  -3  -2   0    4.49    0.41 
  -3  -2   0    4.52    0.37 
  -3   2   0    4.69    0.41 
  -3   2   0    4.84    0.38 
  -3  -2  -1   30.38    1.01 
  -3  -2  -1   33.37    0.92 
  -3   2  -1   30.40    0.97 
  -3   2  -1   32.41    0.89 
  -3  -2  -2   20.29    0.89 
  -3  -2  -2   21.71    0.73 
  -3   2  -2   20.58    0.88 
  -3   2  -2   21.16    0.69 
  -3  -2  -3    1.19    0.32 
  -3   2  -3    1.16    0.32 
  -3  -2  -4    2.31    0.42 
  -3   2  -4    2.37    0.43 
  -3  -2  -5    1.85    0.42 
  -3   2  -5    2.38    0.47 
  -3  -2  -6    0.26    0.28 
  -3   2  -6    0.29    0.31 
  -3  -2  -7    0.07    0.28 
  -3   2  -7   -0.31    0.26 
  -3  -2  -8    0.95    0.43 
  -3   2  -8    1.14    0.49 
  -3  -2  -9    0.36    0.39 
  -3   2  -9    0.24    0.41 
   3   3 -12   -0.16    0.27 
   3  -3 -11    1.64    0.49 
   3   3 -11    1.65    0.48 
   3  -3 -10    2.27    0.51 
   3   3 -10    2.38    0.48 
   3  -3  -9    3.56    0.55 
   3   3  -9    3.88    0.53 
  -3  -3   8    4.75    0.47 
  -3   3   8    4.87    0.50 
   3  -3  -8    4.61    0.57 
   3   3  -8    4.52    0.52 
  -3  -3   7    0.99    0.27 
  -3   3   7    1.18    0.29 
   3  -3  -7    0.79    0.30 
   3   3  -7    1.11    0.29 
  -3  -3   6   30.63    1.09 
  -3   3   6   30.11    1.09 
   3  -3  -6   28.83    1.07 
   3   3  -6   30.46    0.98 
  -3  -3   5    3.25    0.39 
  -3   3   5    3.85    0.42 
   3  -3  -5    2.94    0.38 
   3   3  -5    3.29    0.33 
  -3  -3   4   18.81    0.81 
  -3   3   4   20.52    0.86 
   3  -3  -4   19.16    0.77 
   3   3  -4   19.56    0.60 
  -3  -3   3   33.25    0.96 
  -3  -3   3   34.37    1.07 
  -3   3   3   33.58    0.61 
  -3   3   3   34.03    1.06 
   3  -3  -3   33.34    0.93 
   3   3  -3   34.00    0.63 
  -3  -3   2    3.51    0.36 
  -3  -3   2    3.81    0.37 
  -3   3   2    3.69    0.29 
  -3   3   2    3.51    0.37 
  -3  -3   1    1.07    0.25 
  -3  -3   1    0.95    0.23 
  -3   3   1    1.08    0.22 
  -3   3   1    1.32    0.24 
  -3  -3   0   12.64    0.66 
  -3  -3   0   13.16    0.63 
  -3   3   0   13.14    0.62 
  -3   3   0   13.24    0.62 
  -3  -3  -1   10.58    0.64 
  -3  -3  -1   11.90    0.58 
  -3   3  -1   11.19    0.62 
  -3   3  -1   11.95    0.57 
  -3  -3  -2    0.81    0.27 
  -3  -3  -2    0.75    0.20 
  -3   3  -2    1.15    0.30 
  -3   3  -2    0.88    0.19 
  -3  -3  -3    0.72    0.29 
  -3   3  -3    0.52    0.26 
   3   3   3    0.75    0.20 
   3   3   3    0.46    0.17 
  -3  -3  -4    7.53    0.64 
  -3   3  -4    7.36    0.64 
  -3  -3  -5   11.65    0.83 
  -3   3  -5   11.66    0.82 
  -3  -3  -6    0.42    0.31 
  -3   3  -6    0.23    0.32 
  -3  -3  -7    3.24    0.57 
  -3   3  -7    2.50    0.61 
  -3  -3  -8    0.87    0.44 
  -3   3  -8    1.09    0.51 
  -3  -3  -9   -0.03    0.34 
  -3   3  -9   -0.16    0.35 
   3  -4 -11    0.09    0.30 
   3   4 -11    0.08    0.27 
   3  -4 -10    3.05    0.56 
   3   4 -10    2.83    0.51 
   3  -4  -9    0.70    0.34 
   3   4  -9    0.94    0.33 
  -3  -4   8    0.21    0.15 
  -3   4   8    0.23    0.17 
   3  -4  -8    0.36    0.29 
  -3  -4   7    0.51    0.22 
  -3   4   7    0.66    0.24 
   3  -4  -7    1.19    0.34 
  -3  -4   6    0.35    0.19 
  -3   4   6    0.24    0.18 
   3  -4  -6    0.51    0.25 
  -3  -4   5   18.04    0.84 
  -3   4   5   17.25    0.83 
   3  -4  -5   16.78    0.81 
  -3  -4   4    1.75    0.32 
  -3   4   4    1.13    0.28 
   3  -4  -4    1.16    0.27 
  -3  -4   3    5.91    0.47 
  -3   4   3    6.00    0.49 
   3  -4  -3    5.47    0.44 
  -3  -4   2   18.58    0.77 
  -3  -4   2   18.66    0.80 
  -3   4   2   18.42    0.56 
  -3   4   2   18.22    0.79 
  -3  -4   1    0.51    0.22 
  -3  -4   1    0.42    0.19 
  -3   4   1    0.46    0.18 
  -3   4   1    0.42    0.18 
  -3  -4   0   16.98    0.77 
  -3  -4   0   17.53    0.74 
  -3   4   0   17.92    0.72 
  -3   4   0   18.55    0.75 
  -3  -4  -1   13.28    0.73 
  -3   4  -1   12.98    0.68 
  -3   4  -1   12.30    0.60 
  -3  -4  -2    4.26    0.47 
  -3   4  -2    3.76    0.45 
  -3   4  -2    3.47    0.34 
   3   4   2    0.03    0.06 
   3   4   2   -0.02    0.04 
  -3  -4  -3   18.91    0.94 
  -3   4  -3   18.10    0.90 
   3   4   3   22.64    0.81 
   3   4   3   21.99    0.79 
  -3  -4  -4   19.53    1.01 
  -3   4  -4   19.27    0.99 
  -3  -4  -5    3.20    0.52 
  -3   4  -5    3.14    0.52 
  -3  -4  -6    4.87    0.63 
  -3   4  -6    4.02    0.60 
  -3  -4  -7    0.09    0.29 
  -3   4  -7   -0.05    0.30 
  -3  -4  -8    0.16    0.33 
  -3   4  -8    0.02    0.37 
  -3  -4  -9    0.03    0.35 
   3  -5 -11   -0.06    0.33 
   3   5 -11    0.35    0.36 
   3  -5 -10   -0.36    0.22 
   3   5 -10    0.07    0.26 
   3  -5  -9    1.57    0.44 
  -3  -5   8    1.73    0.35 
  -3   5   8    1.78    0.36 
   3  -5  -8    1.77    0.43 
  -3  -5   7    0.22    0.18 
  -3   5   7    0.12    0.17 
   3  -5  -7    0.15    0.25 
  -3  -5   6    0.31    0.18 
  -3   5   6    0.28    0.19 
   3  -5  -6    0.11    0.23 
  -3  -5   5   -0.02    0.12 
  -3   5   5    0.10    0.16 
   3  -5  -5   -0.11    0.18 
  -3  -5   4    7.07    0.55 
  -3   5   4    7.34    0.56 
   3  -5  -4    7.23    0.55 
  -3  -5   3   11.54    0.68 
  -3   5   3   12.35    0.70 
   3  -5  -3   10.51    0.62 
  -3  -5   2    0.16    0.17 
  -3  -5   2   -0.05    0.11 
  -3   5   2    0.00    0.13 
  -3   5   2    0.02    0.13 
  -3  -5   1   62.62    1.48 
  -3  -5   1   61.50    1.46 
  -3   5   1   62.92    1.18 
  -3   5   1   62.82    1.46 
  -3  -5   0   52.93    1.40 
  -3   5   0   53.54    1.32 
   3   5   0   58.27    1.40 
   3   5   0   56.01    1.37 
  -3  -5  -1   89.11    1.86 
  -3   5  -1   95.74    1.78 
  -3   5  -1   93.44    1.69 
   3   5   1  101.60    1.83 
   3   5   1  100.68    1.81 
  -3  -5  -2    0.22    0.21 
  -3   5  -2    0.10    0.19 
  -3   5  -2    0.09    0.13 
   3   5   2    0.22    0.17 
   3   5   2    0.33    0.18 
  -3  -5  -3    9.17    0.69 
  -3   5  -3    9.79    0.69 
   3   5   3   11.73    0.62 
  -3  -5  -4   12.23    0.82 
  -3   5  -4   13.59    0.86 
  -3  -5  -5   55.68    1.76 
  -3   5  -5   58.57    1.83 
  -3  -5  -6   -0.14    0.22 
  -3   5  -6   -0.08    0.23 
  -3  -5  -7    0.11    0.26 
  -3   5  -7    0.04    0.31 
  -3  -5  -8    0.22    0.34 
  -3   5  -8   -0.02    0.37 
   3  -6 -11    0.03    0.32 
   3   6 -11    0.22    0.34 
   3  -6 -10    0.54    0.37 
   3  -6  -9    0.09    0.27 
   3   6  -9    0.20    0.26 
  -3   6   8    1.46    0.35 
   3  -6  -8    1.19    0.39 
   3   6  -8    1.47    0.37 
   3   6  -8    1.86    0.38 
  -3   6   7    2.15    0.39 
   3  -6  -7    2.45    0.46 
  -3  -6   6    2.22    0.38 
  -3   6   6    2.36    0.39 
   3  -6  -6    2.25    0.42 
  -3  -6   5    0.39    0.20 
  -3   6   5    0.12    0.17 
   3  -6  -5    0.27    0.23 
  -3  -6   4    0.52    0.22 
  -3   6   4    0.42    0.22 
   3  -6  -4    0.54    0.25 
  -3   6   3    9.15    0.64 
  -3  -6   2   10.08    0.64 
  -3   6   2    9.94    0.65 
   3   6  -2   11.03    0.67 
   3   6  -2   10.76    0.66 
  -3  -6   1    0.28    0.18 
  -3   6   1    0.25    0.18 
  -3   6   1    0.05    0.15 
   3   6  -1    0.29    0.18 
   3   6  -1    0.32    0.16 
  -3  -6   0   20.03    0.90 
  -3   6   0   -0.01    0.08 
  -3   6   0   21.27    0.88 
   3   6   0   23.10    0.94 
   3   6   0   22.77    0.92 
  -3  -6  -1   14.46    0.80 
  -3   6  -1   16.34    0.78 
  -3   6  -1   14.92    0.72 
   3   6   1   17.41    0.82 
   3   6   1   17.96    0.82 
  -3  -6  -2    1.23    0.33 
  -3   6  -2    1.32    0.32 
  -3   6  -2    1.24    0.26 
   3   6   2    1.01    0.27 
  -3  -6  -3   39.26    1.38 
  -3   6  -3   40.78    1.38 
  -3  -6  -4   28.10    1.24 
  -3   6  -4   31.16    1.30 
  -3  -6  -5    0.74    0.35 
  -3   6  -5    1.10    0.38 
  -3  -6  -6    0.16    0.28 
  -3   6  -6    0.01    0.26 
  -3  -6  -7    2.52    0.56 
  -3   6  -7    1.44    0.48 
  -3  -6  -8    0.75    0.46 
  -3   6  -8    0.80    0.50 
   3  -7 -10    0.45    0.37 
   3  -7  -9    0.93    0.40 
   3   7  -9    0.64    0.29 
  -3   7   8   -0.10    0.14 
   3  -7  -8   -0.13    0.22 
   3   7  -8    0.23    0.22 
   3   7  -8    0.28    0.21 
  -3   7   7    1.34    0.34 
   3  -7  -7    1.31    0.40 
   3   7  -7    1.48    0.37 
   3   7  -7    1.56    0.36 
  -3   7   6   12.11    0.79 
   3  -7  -6   11.69    0.83 
   3   7  -6   11.76    0.77 
   3   7  -6   11.44    0.76 
  -3   7   5    0.50    0.25 
   3  -7  -5    0.52    0.28 
   3   7  -5    0.66    0.26 
   3   7  -5    0.51    0.24 
  -3   7   4    1.64    0.36 
   3  -7  -4    1.23    0.32 
   3   7  -4    1.32    0.33 
   3   7  -4    1.50    0.33 
  -3   7   3    0.11    0.16 
   3   7  -3    0.08    0.17 
   3   7  -3    0.04    0.16 
  -3   7   2   10.78    0.70 
   3   7  -2   10.84    0.69 
   3   7  -2   11.18    0.70 
  -3  -7   1   23.51    1.00 
  -3   7   1   24.85    0.82 
  -3   7   1   23.87    0.99 
   3   7  -1   25.00    1.02 
   3   7  -1   25.70    1.03 
  -3  -7   0    2.65    0.42 
  -3   7   0   -0.03    0.10 
  -3   7   0    2.88    0.40 
   3   7   0    2.77    0.41 
   3   7   0    2.31    0.37 
  -3  -7  -1    0.13    0.20 
  -3   7  -1    0.09    0.22 
  -3   7  -1    0.13    0.15 
   3   7   1    0.07    0.13 
  -3  -7  -2    0.14    0.22 
  -3   7  -2    0.18    0.22 
  -3   7  -2    0.32    0.18 
   3   7   2    0.23    0.17 
  -3  -7  -3   10.12    0.76 
  -3   7  -3   10.84    0.75 
   3   7   3    9.82    0.63 
  -3  -7  -4   -0.04    0.23 
  -3   7  -4    0.08    0.22 
  -3  -7  -5    5.32    0.64 
  -3   7  -5    4.56    0.61 
  -3  -7  -6    0.12    0.28 
  -3   7  -6   -0.11    0.23 
  -3  -7  -7    2.39    0.58 
  -3   7  -7    2.15    0.57 
  -3  -7  -8    0.13    0.39 
  -3   7  -8   -0.07    0.33 
   3  -8 -10    0.03    0.33 
   3   8 -10   -0.12    0.30 
   3  -8  -9    1.11    0.44 
   3   8  -9    1.08    0.38 
  -3   8   8    6.35    0.62 
   3  -8  -8    6.50    0.73 
   3   8  -8    6.98    0.67 
   3   8  -8    5.80    0.60 
  -3   8   7    0.79    0.29 
   3  -8  -7    0.61    0.35 
   3   8  -7    0.59    0.28 
   3   8  -7    0.86    0.31 
  -3   8   6    1.08    0.33 
   3  -8  -6    0.79    0.35 
   3   8  -6    1.21    0.35 
   3   8  -6    0.86    0.29 
  -3   8   5    0.24    0.21 
   3  -8  -5    0.36    0.26 
   3   8  -5    0.30    0.23 
   3   8  -5    0.12    0.18 
  -3   8   4    6.01    0.57 
   3   8  -4    6.48    0.59 
   3   8  -4    6.45    0.59 
  -3   8   3   40.18    1.38 
   3   8  -3   41.71    1.40 
   3   8  -3   41.09    1.39 
  -3   8   2   14.19    0.83 
   3   8  -2   15.60    0.86 
   3   8  -2   14.32    0.82 
  -3  -8   1   21.50    1.00 
  -3   8   1   22.77    1.02 
   3   8  -1   24.34    1.06 
   3   8  -1   23.56    1.04 
  -3  -8   0    0.19    0.20 
  -3   8   0    0.04    0.12 
  -3   8   0    0.53    0.25 
   3   8   0    0.44    0.22 
  -3  -8  -1    0.95    0.32 
  -3   8  -1    0.80    0.28 
  -3   8  -1    0.80    0.27 
   3   8   1    0.88    0.26 
  -3  -8  -2    3.29    0.50 
  -3   8  -2    3.68    0.48 
  -3   8  -2    3.55    0.42 
   3   8   2    3.49    0.45 
  -3  -8  -3    3.57    0.53 
  -3   8  -3    3.80    0.51 
   3   8   3    3.86    0.44 
  -3  -8  -4    2.41    0.48 
  -3   8  -4    2.43    0.48 
  -3  -8  -5    0.04    0.26 
  -3   8  -5    0.13    0.26 
  -3  -8  -6    0.63    0.38 
  -3   8  -6    0.68    0.35 
  -3  -8  -7    0.66    0.42 
  -3   8  -7    0.30    0.33 
  -3  -8  -8    1.83    0.59 
   3  -9 -10   -0.02    0.33 
   3   9 -10   -0.02    0.31 
   3  -9  -9    0.55    0.39 
  -3   9   8    0.27    0.20 
   3  -9  -8    0.04    0.29 
   3   9  -8   -0.02    0.17 
  -3   9   7    1.71    0.41 
   3  -9  -7    1.81    0.46 
   3   9  -7    2.02    0.43 
  -3   9   6    0.61    0.28 
   3  -9  -6    0.56    0.31 
   3   9  -6    0.68    0.29 
   3   9  -6    0.57    0.27 
  -3   9   5    0.03    0.15 
   3  -9  -5    0.09    0.22 
   3   9  -5    0.17    0.20 
   3   9  -5   -0.01    0.16 
  -3   9   4    4.69    0.54 
   3   9  -4    6.22    0.60 
   3   9  -4    5.92    0.58 
  -3   9   3    1.77    0.39 
   3   9  -3    1.84    0.39 
  -3   9   2   13.81    0.86 
   3   9  -2   13.65    0.84 
  -3  -9   1    6.54    0.62 
  -3   9   1    7.23    0.64 
   3   9  -1    7.05    0.61 
  -3  -9   0    7.31    0.65 
  -3   9   0    5.01    0.47 
  -3   9   0    8.26    0.66 
   3   9   0    7.74    0.64 
  -3  -9  -1    2.21    0.44 
  -3   9  -1    2.65    0.41 
  -3   9  -1    2.46    0.42 
   3   9   1    2.41    0.41 
  -3  -9  -2   -0.09    0.20 
  -3   9  -2    0.06    0.19 
  -3   9  -2    0.09    0.19 
   3   9   2    0.20    0.19 
  -3  -9  -3    1.62    0.42 
  -3   9  -3    1.52    0.39 
   3   9   3    1.42    0.33 
  -3  -9  -4    5.81    0.66 
  -3   9  -4    4.40    0.59 
  -3  -9  -5    0.10    0.27 
  -3   9  -5    0.36    0.29 
  -3  -9  -6    0.16    0.31 
  -3   9  -6    0.01    0.24 
  -3  -9  -7   -0.02    0.34 
  -3   9  -7   -0.18    0.31 
   3 -10  -9    0.86    0.46 
  -3  10   8   -0.12    0.15 
   3 -10  -8    0.24    0.32 
  -3  10   7    0.98    0.34 
   3 -10  -7    1.00    0.39 
   3  10  -7    0.43    0.26 
  -3  10   6    0.38    0.23 
   3 -10  -6    0.46    0.32 
   3  10  -6    0.74    0.29 
  -3  10   5    0.25    0.22 
   3  10  -5    0.16    0.21 
  -3  10   4    0.48    0.26 
   3  10  -4    0.70    0.27 
  -3  10   3    9.91    0.78 
   3  10  -3   10.33    0.78 
  -3  10   2   29.24    1.27 
   3  10  -2   27.52    1.23 
  -3  10   1   10.68    0.77 
   3  10  -1   10.25    0.76 
  -3 -10   0    0.33    0.25 
  -3  10   0    0.25    0.23 
   3  10   0    0.21    0.20 
  -3 -10  -1    0.49    0.28 
  -3  10  -1    0.25    0.22 
  -3  10  -1    0.40    0.26 
   3  10   1    0.18    0.19 
  -3 -10  -2    3.61    0.56 
  -3  10  -2    3.74    0.51 
  -3  10  -2    4.00    0.51 
   3  10   2    4.04    0.49 
  -3 -10  -3    5.27    0.63 
  -3  10  -3    5.13    0.59 
   3  10   3    5.29    0.54 
  -3 -10  -4    2.92    0.55 
  -3  10  -4    3.28    0.56 
  -3 -10  -5    0.09    0.28 
  -3  10  -5   -0.02    0.24 
  -3 -10  -6    0.10    0.33 
  -3  10  -6   -0.01    0.26 
  -3 -10  -7    0.44    0.43 
  -3  11   8    1.64    0.43 
   3 -11  -8    1.41    0.49 
  -3  11   7    0.64    0.30 
   3 -11  -7    0.28    0.33 
   3  11  -7    0.39    0.27 
  -3  11   6    0.60    0.27 
   3 -11  -6    0.19    0.27 
   3  11  -6    0.54    0.28 
  -3  11   5    3.33    0.55 
   3  11  -5    2.98    0.51 
  -3  11   4    2.53    0.49 
   3  11  -4    3.15    0.52 
  -3  11   3    0.57    0.30 
   3  11  -3    0.91    0.32 
  -3  11   2   16.93    1.02 
   3  11  -2   16.23    1.00 
  -3  11   1    7.31    0.68 
   3  11  -1    6.67    0.65 
  -3  11   0   10.75    0.81 
   3  11   0   11.40    0.83 
  -3 -11  -1    0.83    0.35 
  -3  11  -1    0.88    0.31 
  -3  11  -1    1.14    0.35 
   3  11   1    0.91    0.31 
  -3 -11  -2    0.60    0.32 
  -3  11  -2    0.44    0.26 
  -3  11  -2    0.45    0.27 
   3  11   2    0.61    0.26 
  -3 -11  -3   -0.14    0.24 
  -3  11  -3    0.02    0.22 
   3  11   3    0.10    0.16 
  -3 -11  -4    0.59    0.38 
  -3  11  -4    0.59    0.33 
  -3 -11  -5    0.48    0.37 
  -3  11  -5    0.19    0.29 
  -3 -11  -6    1.59    0.53 
  -3  11  -6    1.24    0.50 
  -3  12   8   -0.02    0.24 
  -3  12   7    0.42    0.25 
   3 -12  -7    0.65    0.40 
   3  12  -7    0.49    0.30 
  -3  12   6    3.55    0.58 
   3  12  -6    4.25    0.62 
  -3  12   5    1.21    0.40 
   3  12  -5    1.43    0.42 
  -3  12   4    3.13    0.55 
   3  12  -4    3.22    0.55 
  -3  12   3   -0.07    0.19 
   3  12  -3   -0.07    0.19 
  -3  12   2    1.37    0.41 
   3  12  -2    1.05    0.35 
  -3  12   1    0.13    0.24 
   3  12  -1    0.11    0.20 
  -3  12   0    0.10    0.24 
   3  12   0    0.02    0.17 
  -3  12  -1    0.13    0.24 
   3  12   1   -0.04    0.14 
  -3 -12  -2    0.04    0.26 
  -3  12  -2    0.06    0.21 
  -3  12  -2    0.08    0.21 
   3  12   2   -0.06    0.15 
  -3 -12  -3    0.68    0.37 
  -3  12  -3    0.55    0.32 
   3  12   3    0.62    0.27 
  -3 -12  -4    0.11    0.32 
  -3  12  -4    0.06    0.27 
  -3 -12  -5    0.71    0.43 
  -3  12  -5    0.14    0.33 
  -3  13   7    0.62    0.32 
   3  13  -7    0.65    0.33 
  -3  13   6    1.56    0.45 
   3  13  -6    1.76    0.47 
  -3  13   5    1.35    0.43 
   3  13  -5    1.37    0.42 
  -3  13   4    0.64    0.31 
   3  13  -4    0.15    0.26 
  -3  13   3    0.03    0.20 
   3  13  -3   -0.10    0.18 
  -3  13   2    0.18    0.26 
   3  13  -2    0.21    0.21 
  -3  13   1    0.38    0.28 
   3  13  -1    0.13    0.22 
  -3  13   0    0.90    0.37 
   3  13   0    0.79    0.32 
  -3  13  -1   -0.26    0.16 
   3  13   1    0.20    0.20 
  -3  13  -2    1.33    0.41 
   3  13   2    0.86    0.30 
  -3 -13  -3    0.20    0.34 
  -3  13  -3    0.41    0.30 
   3  13   3   -0.21    0.14 
  -3 -13  -4   -0.33    0.31 
  -3  13  -4    0.16    0.32 
  -3  14   6    0.01    0.23 
   3  14  -6    0.05    0.23 
  -3  14   5    1.82    0.50 
   3  14  -5    2.47    0.56 
  -3  14   4    0.23    0.26 
   3  14  -4    0.04    0.25 
  -3  14   3    1.54    0.45 
   3  14  -3    1.55    0.46 
  -3  14   2    0.18    0.28 
   3  14  -2    0.23    0.24 
  -3  14   1    0.61    0.31 
   3  14  -1    0.36    0.28 
  -3  14   0    1.59    0.46 
   3  14   0    1.09    0.37 
  -3  14  -1    0.02    0.22 
   3  14   1   -0.07    0.15 
  -3  14  -2    1.18    0.39 
   3  14   2    0.69    0.30 
   3  14   3   -0.34    0.14 
   3  15  -4   -0.09    0.20 
  -3  15   3    0.27    0.26 
   3  15  -3    0.20    0.24 
  -3  15   2   -0.07    0.21 
   3  15  -2   -0.17    0.21 
  -3  15   1    0.44    0.32 
   3  15  -1    0.45    0.29 
  -3  15   0    0.01    0.21 
   3  15   0    0.22    0.25 
  -3  15  -1    3.33    0.63 
   3  15   1    2.97    0.59 
   3  15   2    1.25    0.41 
   4   0 -11    0.09    0.35 
   4   0 -10    0.38    0.33 
  -4   0   9    0.15    0.19 
   4   0  -9   -0.11    0.22 
  -4   0   8    0.05    0.17 
   4   0  -8   -0.03    0.22 
  -4   0   7   -0.10    0.13 
   4   0  -7    0.04    0.20 
  -4   0   6   54.02    1.58 
   4   0  -6   51.47    1.31 
  -4   0   5   -0.12    0.12 
  -4   0   4   11.11    0.54 
  -4   0   4   10.47    0.68 
  -4   0   3    0.06    0.14 
  -4   0   3    0.00    0.13 
  -4   0   2    5.43    0.43 
  -4   0   2    6.19    0.51 
  -4   0   1   -0.12    0.16 
  -4   0   1   -0.03    0.12 
  -4   0   0   13.36    0.73 
  -4   0   0   13.18    0.69 
  -4   0  -1    0.01    0.17 
  -4   0  -1    0.01    0.13 
  -4   0  -2   28.65    1.16 
  -4   0  -2   30.71    0.98 
  -4   0  -3   -0.02    0.19 
  -4   0  -4    3.01    0.51 
  -4   0  -5    0.21    0.26 
  -4   0  -6    0.23    0.34 
  -4   0  -7   -0.19    0.33 
   4  -1 -11    0.74    0.42 
   4   1 -11    0.99    0.43 
   4  -1 -10   -0.09    0.27 
   4   1 -10    0.06    0.28 
  -4  -1   9    0.90    0.30 
  -4   1   9    0.89    0.30 
   4  -1  -9    0.78    0.35 
   4   1  -9    0.67    0.33 
  -4  -1   8    0.72    0.27 
  -4   1   8    0.78    0.28 
   4  -1  -8    0.91    0.33 
   4   1  -8    0.84    0.32 
  -4  -1   7    0.01    0.16 
  -4   1   7    0.03    0.13 
   4  -1  -7    0.19    0.22 
  -4  -1   6    1.72    0.37 
  -4   1   6    1.83    0.36 
   4  -1  -6    2.03    0.35 
  -4  -1   5    2.69    0.41 
  -4   1   5    2.74    0.41 
   4  -1  -5    2.69    0.35 
  -4  -1   4    6.83    0.47 
  -4  -1   4    6.05    0.53 
  -4   1   4    6.18    0.53 
   4  -1  -4    6.42    0.45 
  -4  -1   3    0.03    0.07 
  -4  -1   3    1.91    0.35 
  -4   1   3    1.68    0.25 
  -4   1   3    2.05    0.35 
  -4  -1   2    4.37    0.41 
  -4  -1   2    5.01    0.48 
  -4   1   2    5.01    0.41 
  -4   1   2    5.01    0.47 
  -4  -1   1   17.91    0.80 
  -4  -1   1   18.00    0.82 
  -4   1   1   16.82    0.75 
  -4   1   1   17.56    0.81 
  -4  -1   0    0.44    0.23 
  -4  -1   0    0.70    0.22 
  -4   1   0    0.29    0.23 
  -4   1   0    0.54    0.21 
  -4  -1  -1    6.18    0.55 
  -4  -1  -1    6.84    0.49 
  -4   1  -1    6.01    0.54 
  -4   1  -1    6.85    0.50 
  -4  -1  -2    1.65    0.38 
  -4  -1  -2    1.30    0.27 
  -4   1  -2    1.31    0.35 
  -4  -1  -3    0.30    0.23 
  -4   1  -3    0.20    0.23 
  -4  -1  -4    6.70    0.67 
  -4   1  -4    6.05    0.64 
  -4  -1  -5    3.70    0.60 
  -4   1  -5    3.23    0.57 
  -4  -1  -6   -0.02    0.29 
  -4   1  -6    0.23    0.34 
  -4  -1  -7    0.69    0.45 
  -4   1  -7    0.39    0.40 
   4  -2 -11    2.23    0.56 
   4  -2 -10    1.96    0.48 
  -4  -2   9    0.65    0.27 
  -4   2   9    0.81    0.28 
   4  -2  -9    1.04    0.37 
  -4  -2   8   -0.02    0.15 
  -4   2   8   -0.07    0.14 
   4  -2  -8    0.21    0.25 
  -4  -2   7    0.02    0.15 
  -4   2   7   -0.03    0.13 
   4  -2  -7    0.07    0.22 
  -4  -2   6    1.42    0.34 
  -4   2   6    1.31    0.33 
   4  -2  -6    1.61    0.34 
  -4  -2   5    1.19    0.30 
  -4   2   5    1.26    0.31 
   4  -2  -5    1.65    0.32 
  -4  -2   4    0.04    0.08 
  -4  -2   4    0.34    0.19 
  -4   2   4    0.29    0.20 
   4  -2  -4    0.31    0.18 
  -4  -2   3    2.62    0.35 
  -4  -2   3    2.45    0.37 
  -4   2   3    2.34    0.28 
  -4   2   3    2.44    0.38 
  -4  -2   2   15.11    0.73 
  -4  -2   2   15.16    0.78 
  -4   2   2   16.28    0.67 
  -4   2   2   16.56    0.82 
  -4  -2   1   34.60    1.13 
  -4  -2   1   36.79    1.18 
  -4   2   1   27.25    0.92 
  -4   2   1   35.36    1.15 
  -4  -2   0   13.08    0.74 
  -4  -2   0   14.66    0.74 
  -4   2   0   13.48    0.73 
  -4   2   0   13.05    0.69 
  -4  -2  -1    6.03    0.55 
  -4  -2  -1    6.22    0.49 
  -4   2  -1    5.62    0.53 
  -4   2  -1    6.03    0.48 
  -4  -2  -2    6.53    0.60 
  -4  -2  -2    6.48    0.48 
  -4   2  -2    6.24    0.59 
  -4  -2  -3    0.98    0.34 
  -4   2  -3    1.03    0.35 
  -4  -2  -4    0.72    0.33 
  -4   2  -4    0.82    0.35 
  -4  -2  -5    0.06    0.26 
  -4   2  -5    0.36    0.30 
  -4  -2  -6    0.83    0.42 
  -4   2  -6    0.49    0.36 
  -4  -2  -7    0.53    0.40 
  -4   2  -7    0.75    0.47 
   4  -3 -11    0.99    0.44 
   4  -3 -10    0.26    0.33 
  -4  -3   9    0.03    0.17 
  -4   3   9    0.04    0.15 
   4  -3  -9   -0.09    0.22 
  -4  -3   8    4.59    0.51 
  -4   3   8    4.66    0.53 
   4  -3  -8    4.69    0.58 
  -4  -3   7    0.58    0.25 
  -4   3   7    0.73    0.29 
   4  -3  -7    0.72    0.31 
  -4  -3   6    1.15    0.32 
  -4   3   6    1.16    0.33 
   4  -3  -6    1.38    0.34 
  -4  -3   5    6.09    0.55 
  -4   3   5    5.53    0.54 
   4  -3  -5    5.79    0.52 
  -4  -3   4    2.70    0.41 
  -4   3   4    2.86    0.42 
   4  -3  -4    2.68    0.35 
  -4  -3   3    0.76    0.26 
  -4  -3   3    0.85    0.27 
  -4   3   3    0.90    0.28 
  -4  -3   2    3.21    0.40 
  -4  -3   2    3.08    0.41 
  -4   3   2    3.22    0.35 
  -4   3   2    3.52    0.42 
  -4  -3   1   15.87    0.80 
  -4  -3   1   16.37    0.81 
  -4   3   1   16.78    0.82 
  -4  -3   0    2.07    0.37 
  -4  -3   0    1.89    0.33 
  -4   3   0    1.99    0.36 
  -4   3   0    2.33    0.35 
  -4  -3  -1    1.58    0.36 
  -4  -3  -1    1.90    0.32 
  -4   3  -1    1.50    0.34 
  -4   3  -1    1.60    0.30 
  -4  -3  -2    9.19    0.71 
  -4  -3  -2    8.56    0.56 
  -4   3  -2    9.24    0.70 
  -4  -3  -3    2.17    0.44 
  -4   3  -3    1.80    0.42 
  -4  -3  -4    0.54    0.31 
  -4   3  -4    0.48    0.30 
  -4  -3  -5    6.29    0.72 
  -4   3  -5    6.75    0.74 
  -4  -3  -6    1.75    0.51 
  -4   3  -6    2.60    0.59 
  -4  -3  -7   -0.05    0.30 
  -4   3  -7    0.21    0.33 
   4  -4 -11   -0.23    0.29 
   4  -4 -10    0.00    0.28 
  -4  -4   9    0.40    0.23 
  -4   4   9    0.45    0.25 
   4  -4  -9    0.84    0.39 
  -4  -4   8    0.52    0.24 
  -4   4   8    0.91    0.31 
   4  -4  -8    1.09    0.37 
  -4  -4   7    2.33    0.42 
  -4   4   7    2.90    0.46 
   4  -4  -7    2.35    0.44 
  -4  -4   6    7.26    0.62 
  -4   4   6    7.00    0.62 
   4  -4  -6    7.38    0.63 
  -4  -4   5    1.17    0.30 
  -4   4   5    0.92    0.29 
   4  -4  -5    1.12    0.31 
  -4  -4   4   10.19    0.70 
  -4   4   4   10.50    0.72 
   4  -4  -4    9.87    0.62 
  -4  -4   3   22.32    0.93 
  -4  -4   3   23.11    1.02 
  -4   4   3   23.36    1.03 
  -4  -4   2    8.23    0.59 
  -4  -4   2    8.43    0.62 
  -4   4   2    8.35    0.62 
  -4  -4   1    0.13    0.17 
  -4  -4   1    0.13    0.16 
  -4   4   1    0.29    0.21 
  -4   4   1    0.17    0.19 
  -4  -4   0    1.66    0.35 
  -4  -4   0    1.60    0.32 
  -4   4   0    1.69    0.34 
  -4   4   0    1.60    0.32 
  -4  -4  -1   14.83    0.85 
  -4  -4  -1   13.62    0.74 
  -4   4  -1   13.96    0.79 
  -4   4  -1   14.79    0.75 
  -4  -4  -2   47.63    1.57 
  -4   4  -2   47.73    1.50 
   4   4   2    0.00    0.08 
   4   4   2    0.05    0.09 
  -4  -4  -3    7.40    0.70 
  -4   4  -3    6.99    0.67 
  -4  -4  -4    1.29    0.41 
  -4   4  -4    1.19    0.41 
  -4  -4  -5   -0.05    0.25 
  -4   4  -5    0.07    0.28 
  -4  -4  -6    0.73    0.40 
  -4   4  -6    0.90    0.42 
  -4  -4  -7    0.03    0.35 
  -4   4  -7    0.08    0.35 
   4  -5 -11    0.46    0.40 
   4  -5 -10    0.03    0.30 
  -4  -5   9    0.44    0.22 
  -4   5   9    0.34    0.24 
   4  -5  -9    0.20    0.30 
  -4  -5   8    0.65    0.26 
  -4   5   8    0.83    0.29 
   4  -5  -8    0.45    0.31 
  -4  -5   7    1.45    0.36 
  -4   5   7    1.63    0.38 
   4  -5  -7    1.55    0.40 
  -4  -5   6    0.06    0.13 
  -4   5   6   -0.03    0.15 
   4  -5  -6   -0.01    0.23 
  -4  -5   5    0.18    0.17 
  -4   5   5    0.17    0.19 
   4  -5  -5    0.12    0.22 
  -4  -5   4    1.81    0.37 
  -4   5   4    2.03    0.40 
  -4  -5   3   30.04    1.12 
  -4  -5   3   32.00    1.22 
  -4   5   3   31.29    1.21 
  -4  -5   2    4.93    0.49 
  -4  -5   2    4.97    0.51 
  -4   5   2    5.54    0.53 
  -4  -5   1   24.76    1.05 
  -4  -5   1   23.19    1.01 
  -4   5   1   23.69    0.87 
  -4   5   1   25.24    1.04 
  -4  -5   0    2.04    0.39 
  -4  -5   0    1.81    0.35 
  -4   5   0    1.89    0.35 
  -4   5   0    1.87    0.34 
  -4  -5  -1   13.84    0.85 
  -4   5  -1   14.34    0.80 
  -4   5  -1   14.92    0.78 
   4   5   1   16.11    0.82 
   4   5   1   14.30    0.78 
  -4  -5  -2    2.49    0.46 
  -4   5  -2    2.54    0.44 
   4   5   2    2.81    0.39 
   4   5   2    2.90    0.39 
  -4  -5  -3   15.03    0.97 
  -4   5  -3   14.05    0.91 
  -4  -5  -4    1.18    0.40 
  -4   5  -4    0.73    0.36 
  -4  -5  -5    0.23    0.30 
  -4   5  -5    0.26    0.31 
  -4  -5  -6    0.38    0.35 
  -4   5  -6    0.40    0.33 
  -4  -5  -7    1.39    0.53 
  -4   5  -7    1.46    0.54 
   4  -6 -11   -0.05    0.34 
   4  -6 -10    0.12    0.32 
  -4  -6   9    0.19    0.18 
  -4   6   9    0.16    0.19 
   4  -6  -9    0.46    0.36 
  -4  -6   8    0.23    0.19 
  -4   6   8    0.00    0.14 
   4  -6  -8   -0.10    0.25 
  -4  -6   7   -0.05    0.14 
  -4   6   7    0.07    0.16 
   4  -6  -7    0.01    0.24 
  -4  -6   6    1.27    0.34 
  -4   6   6    0.54    0.26 
   4  -6  -6    0.98    0.35 
  -4  -6   5    1.13    0.32 
  -4   6   5    1.22    0.34 
   4  -6  -5    1.24    0.34 
  -4  -6   4    2.55    0.43 
  -4   6   4    2.85    0.46 
  -4  -6   3    0.01    0.14 
  -4  -6   3    0.05    0.17 
  -4   6   3    0.24    0.20 
  -4  -6   2   17.25    0.90 
  -4  -6   2   15.91    0.88 
  -4   6   2   17.50    0.93 
  -4  -6   1    0.14    0.18 
  -4   6   1    0.26    0.20 
  -4  -6   0    7.04    0.62 
  -4   6   0    0.11    0.17 
  -4   6   0    7.53    0.61 
   4   6   0    8.19    0.63 
   4   6   0    8.64    0.64 
  -4  -6  -1   33.10    1.32 
  -4   6  -1   35.07    1.24 
  -4   6  -1   33.90    1.20 
   4   6   1   36.48    1.28 
   4   6   1   37.05    1.28 
  -4  -6  -2    3.11    0.51 
  -4   6  -2    4.32    0.55 
   4   6   2    4.58    0.47 
   4   6   2    4.08    0.44 
  -4  -6  -3    4.67    0.62 
  -4   6  -3    4.56    0.60 
  -4  -6  -4    2.91    0.56 
  -4   6  -4    2.97    0.55 
  -4  -6  -5    0.22    0.32 
  -4   6  -5    0.05    0.27 
  -4  -6  -6    1.14    0.49 
  -4   6  -6    0.98    0.46 
  -4  -6  -7    5.98    0.86 
   4  -7 -10   -0.03    0.33 
  -4   7   9    0.42    0.23 
   4  -7  -9    0.27    0.35 
   4   7  -9    0.22    0.26 
   4   7  -9    0.34    0.26 
  -4   7   8    0.29    0.23 
   4  -7  -8    0.38    0.34 
   4   7  -8    0.49    0.29 
   4   7  -8    0.39    0.29 
  -4   7   7    0.12    0.16 
   4  -7  -7    0.21    0.29 
  -4   7   6    2.04    0.43 
   4  -7  -6    1.61    0.40 
  -4   7   5    1.17    0.34 
   4  -7  -5    1.19    0.35 
  -4   7   4    1.50    0.37 
  -4   7   3    2.06    0.42 
   4   7  -3    1.59    0.37 
   4   7  -3    1.10    0.32 
  -4  -7   2   -0.04    0.14 
  -4   7   2    0.09    0.19 
   4   7  -2   -0.04    0.14 
   4   7  -2   -0.09    0.13 
  -4  -7   1   11.35    0.78 
  -4   7   1   12.79    0.81 
   4   7  -1   11.96    0.78 
   4   7  -1   12.14    0.79 
  -4  -7   0    2.69    0.47 
  -4   7   0   -0.02    0.08 
  -4   7   0    3.80    0.47 
   4   7   0    3.82    0.46 
   4   7   0    2.97    0.44 
  -4  -7  -1   41.89    1.53 
  -4   7  -1   41.01    1.36 
  -4   7  -1   42.04    1.38 
   4   7   1   46.82    1.50 
   4   7   1   43.26    1.44 
  -4  -7  -2    2.38    0.49 
  -4   7  -2    2.12    0.43 
   4   7   2    2.32    0.39 
  -4  -7  -3    4.72    0.64 
  -4   7  -3    5.20    0.61 
  -4  -7  -4   -0.02    0.26 
  -4   7  -4   -0.05    0.25 
  -4  -7  -5    6.73    0.79 
  -4   7  -5    5.74    0.76 
  -4  -7  -6    0.50    0.42 
  -4   7  -6    0.22    0.34 
   4  -8 -10    0.59    0.43 
  -4   8   9    0.26    0.24 
   4  -8  -9    0.47    0.38 
  -4   8   8    0.05    0.17 
   4  -8  -8    0.02    0.29 
   4   8  -8    0.19    0.26 
   4   8  -8   -0.09    0.20 
  -4   8   7    0.65    0.30 
   4  -8  -7    0.71    0.34 
   4   8  -7    0.77    0.33 
   4   8  -7    0.94    0.34 
  -4   8   6    0.34    0.23 
   4  -8  -6    0.37    0.29 
   4   8  -6    0.35    0.27 
   4   8  -6    0.07    0.19 
  -4   8   5   16.99    1.02 
   4   8  -5   19.10    1.08 
   4   8  -5   17.98    1.04 
  -4   8   4    0.95    0.33 
   4   8  -4    0.96    0.34 
   4   8  -4    0.95    0.33 
  -4   8   3    0.00    0.19 
   4   8  -3    0.03    0.15 
   4   8  -3   -0.02    0.15 
  -4  -8   2    3.01    0.48 
  -4   8   2    3.11    0.49 
   4   8  -2    3.17    0.49 
   4   8  -2    2.80    0.45 
  -4  -8   1   -0.14    0.13 
  -4   8   1    0.01    0.18 
   4   8  -1    0.05    0.16 
   4   8  -1    0.06    0.16 
  -4  -8   0    8.99    0.74 
  -4   8   0   10.35    0.75 
   4   8   0   11.08    0.78 
   4   8   0   10.32    0.75 
  -4  -8  -1    1.32    0.40 
  -4   8  -1    1.17    0.34 
  -4   8  -1    1.60    0.36 
   4   8   1    1.48    0.35 
  -4  -8  -2    0.35    0.29 
  -4   8  -2    0.37    0.27 
   4   8   2    0.28    0.22 
  -4  -8  -3    0.10    0.24 
  -4   8  -3    0.57    0.30 
  -4  -8  -4    0.36    0.34 
  -4   8  -4    0.39    0.30 
  -4  -8  -5    0.57    0.38 
  -4   8  -5    0.14    0.33 
  -4  -8  -6    1.57    0.56 
  -4   8  -6    1.13    0.49 
  -4   9   9    0.30    0.23 
   4  -9  -9    0.11    0.33 
  -4   9   8    0.00    0.18 
   4  -9  -8    0.09    0.31 
   4   9  -8    0.18    0.26 
   4   9  -8   -0.03    0.20 
  -4   9   7   -0.16    0.16 
   4  -9  -7   -0.05    0.25 
   4   9  -7   -0.15    0.18 
   4   9  -7   -0.02    0.18 
  -4   9   6   10.29    0.85 
   4  -9  -6   10.93    0.88 
   4   9  -6   11.97    0.91 
   4   9  -6   10.27    0.84 
  -4   9   5    2.66    0.50 
   4   9  -5    2.62    0.52 
   4   9  -5    2.67    0.50 
  -4   9   4   10.12    0.82 
   4   9  -4    9.43    0.78 
   4   9  -4    9.87    0.80 
  -4   9   3    2.36    0.48 
   4   9  -3    2.44    0.48 
   4   9  -3    1.63    0.39 
  -4   9   2    5.59    0.61 
   4   9  -2    5.17    0.57 
   4   9  -2    5.39    0.58 
  -4  -9   1    0.82    0.32 
  -4   9   1    1.13    0.37 
   4   9  -1    1.16    0.34 
   4   9  -1    0.85    0.30 
  -4  -9   0    1.47    0.41 
  -4   9   0    1.89    0.43 
   4   9   0    1.46    0.37 
  -4  -9  -1    0.83    0.35 
  -4   9  -1    1.09    0.35 
   4   9   1    1.01    0.31 
  -4  -9  -2    0.15    0.27 
  -4   9  -2    0.29    0.26 
   4   9   2    0.17    0.20 
  -4  -9  -3    0.98    0.42 
  -4   9  -3    1.30    0.41 
  -4  -9  -4    0.17    0.30 
  -4   9  -4    0.17    0.29 
  -4  -9  -5    0.11    0.34 
  -4   9  -5    0.04    0.30 
  -4  -9  -6    3.35    0.70 
  -4  10   9   -0.15    0.20 
  -4  10   8    0.33    0.24 
   4 -10  -8    0.21    0.35 
   4  10  -8    0.29    0.31 
   4  10  -8    0.29    0.25 
  -4  10   7    1.36    0.40 
   4 -10  -7    2.29    0.53 
   4  10  -7    2.04    0.51 
   4  10  -7    2.01    0.47 
  -4  10   6   -0.09    0.17 
   4  10  -6   -0.23    0.16 
   4  10  -6    0.12    0.22 
  -4  10   5    8.39    0.78 
   4  10  -5    8.12    0.77 
   4  10  -5    7.31    0.73 
  -4  10   4    4.51    0.63 
   4  10  -4    5.18    0.62 
   4  10  -4    4.48    0.61 
  -4  10   3    0.89    0.35 
   4  10  -3    0.93    0.33 
   4  10  -3    1.35    0.36 
  -4  10   2    2.36    0.49 
   4  10  -2    2.40    0.47 
  -4 -10   1    0.00    0.17 
  -4  10   1    0.19    0.23 
   4  10  -1   -0.05    0.15 
  -4 -10   0    0.18    0.27 
  -4  10   0    0.21    0.23 
   4  10   0    0.19    0.20 
  -4 -10  -1    0.21    0.27 
  -4  10  -1    0.16    0.23 
   4  10   1    0.11    0.19 
  -4 -10  -2    0.70    0.36 
  -4  10  -2    0.35    0.29 
   4  10   2    0.66    0.27 
  -4 -10  -3    0.26    0.32 
  -4  10  -3    0.11    0.29 
  -4 -10  -4    0.11    0.33 
  -4  10  -4   -0.21    0.21 
  -4 -10  -5    0.37    0.41 
  -4  10  -5    0.41    0.40 
  -4  11   8    0.19    0.22 
   4 -11  -8    0.05    0.29 
   4  11  -8    0.67    0.33 
  -4  11   7    0.62    0.32 
   4  11  -7    0.46    0.29 
  -4  11   6    0.51    0.29 
   4  11  -6    0.32    0.24 
  -4  11   5    1.02    0.37 
   4  11  -5    0.93    0.36 
  -4  11   4    2.42    0.53 
   4  11  -4    3.09    0.56 
  -4  11   3   -0.14    0.18 
   4  11  -3    0.13    0.19 
  -4  11   2    1.16    0.39 
   4  11  -2    0.63    0.30 
  -4  11   1    0.29    0.24 
   4  11  -1    0.35    0.24 
  -4 -11   0    0.38    0.31 
  -4  11   0    0.53    0.28 
   4  11   0    0.51    0.26 
  -4 -11  -1    4.48    0.68 
  -4  11  -1    4.29    0.60 
   4  11   1    3.48    0.54 
  -4 -11  -2    0.80    0.41 
   4  11   2    0.71    0.29 
  -4 -11  -3    0.57    0.40 
  -4  11  -3    0.56    0.38 
  -4 -11  -4    0.45    0.40 
  -4  11  -4    0.30    0.38 
  -4  12   7    0.19    0.27 
   4  12  -7    0.39    0.30 
  -4  12   6    1.13    0.40 
   4  12  -6    0.88    0.36 
  -4  12   5    0.12    0.24 
   4  12  -5    0.07    0.20 
  -4  12   4    0.14    0.22 
   4  12  -4   -0.01    0.21 
  -4  12   3    1.44    0.44 
   4  12  -3    1.54    0.42 
   4  12  -2    0.13    0.22 
  -4  12   1    0.60    0.30 
   4  12  -1    0.22    0.23 
  -4  12   0    0.29    0.27 
   4  12   0    1.03    0.35 
  -4 -12  -1    0.77    0.44 
  -4  12  -1    1.34    0.40 
   4  12   1    1.04    0.37 
  -4 -12  -2   -0.02    0.30 
   4  12   2    0.03    0.17 
  -4 -12  -3    0.71    0.44 
   4  13  -6    0.47    0.31 
  -4  13   5   -0.01    0.22 
   4  13  -5    0.22    0.26 
  -4  13   4    0.07    0.22 
   4  13  -4    0.18    0.26 
  -4  13   3    0.20    0.24 
   4  13  -3    0.13    0.22 
  -4  13   2    0.82    0.37 
   4  13  -2    0.64    0.32 
  -4  13   1    0.14    0.24 
   4  13  -1    0.05    0.19 
  -4  13   0    0.16    0.27 
   4  13   0    0.29    0.24 
  -4  13  -1    0.47    0.24 
   4  13   1    0.42    0.28 
  -4 -13  -2   -0.16    0.33 
   4  13   2   -0.13    0.18 
  -4  14   3    0.90    0.37 
   4  14  -3    0.69    0.35 
  -4  14   2    0.84    0.35 
   4  14  -2    0.92    0.40 
  -4  14   1    0.03    0.22 
   4  14  -1   -0.02    0.20 
  -4  14   0    0.40    0.26 
   4  14   0    0.21    0.28 
   4  14   1    0.01    0.22 
  -5   0  10    0.00    0.20 
  -5   0   9    0.01    0.20 
  -5   0   8    2.37    0.47 
  -5   0   7    0.12    0.17 
  -5   0   6    1.20    0.34 
  -5   0   5    0.00    0.15 
  -5   0   4    3.43    0.50 
  -5   0   3    0.01    0.16 
  -5   0   3    0.12    0.19 
  -5   0   2   12.86    0.72 
  -5   0   2   13.37    0.83 
  -5   0   1    0.13    0.17 
  -5   0   1   -0.08    0.15 
  -5   0   0    7.45    0.63 
  -5   0   0    8.64    0.66 
  -5   0  -1    0.01    0.18 
  -5   0  -1    0.11    0.19 
  -5   0  -2    0.84    0.34 
  -5   0  -3    0.09    0.25 
  -5   0  -4    2.44    0.56 
  -5   0  -5    0.09    0.30 
  -5   0  -6    3.02    0.68 
  -5  -1  10    0.06    0.21 
  -5   1  10    0.21    0.24 
  -5  -1   9    0.68    0.32 
  -5   1   9    0.58    0.30 
  -5  -1   8    0.57    0.27 
  -5  -1   7    0.67    0.28 
  -5   1   7    0.68    0.28 
  -5  -1   6    0.95    0.32 
  -5   1   6    1.37    0.37 
  -5  -1   5    2.10    0.42 
  -5   1   5    1.95    0.41 
  -5  -1   4    9.74    0.75 
  -5   1   4    9.56    0.74 
  -5  -1   3    3.27    0.37 
  -5  -1   3    4.60    0.52 
  -5   1   3    4.07    0.50 
  -5  -1   2    1.57    0.33 
  -5  -1   2    1.70    0.37 
  -5   1   2   -0.03    0.08 
  -5   1   2    1.80    0.38 
  -5  -1   1    0.15    0.19 
  -5  -1   1    0.32    0.21 
  -5   1   1    0.20    0.18 
  -5   1   1    0.17    0.21 
  -5  -1   0    0.23    0.22 
  -5  -1   0    0.37    0.23 
  -5   1   0    0.38    0.23 
  -5   1   0    0.42    0.23 
  -5  -1  -1    2.32    0.39 
  -5   1  -1    2.31    0.44 
  -5   1  -1    2.75    0.42 
  -5  -1  -2    6.15    0.67 
  -5   1  -2    6.32    0.65 
  -5  -1  -3    0.27    0.28 
  -5   1  -3    0.28    0.28 
  -5  -1  -4    3.17    0.61 
  -5   1  -4    3.84    0.64 
  -5  -1  -5    0.48    0.35 
  -5   1  -5    0.89    0.40 
  -5  -2  10   -0.08    0.20 
  -5   2  10    0.37    0.26 
  -5  -2   9    0.08    0.19 
  -5   2   9    0.19    0.20 
  -5  -2   8    0.51    0.26 
  -5   2   8    0.21    0.20 
  -5  -2   7    0.78    0.29 
  -5   2   7    0.67    0.30 
  -5  -2   6   -0.04    0.15 
  -5   2   6    0.05    0.16 
  -5  -2   5    0.07    0.16 
  -5   2   5    0.02    0.14 
  -5  -2   4    0.01    0.07 
  -5  -2   4    6.52    0.62 
  -5   2   4    6.96    0.64 
  -5  -2   3    1.08    0.28 
  -5  -2   3    0.95    0.32 
  -5   2   3    1.09    0.33 
  -5  -2   2    3.88    0.44 
  -5  -2   2    4.03    0.49 
  -5   2   2    4.46    0.51 
  -5  -2   1   10.31    0.71 
  -5  -2   1   11.30    0.76 
  -5   2   1   10.26    0.66 
  -5   2   1   10.80    0.74 
  -5  -2   0    4.65    0.53 
  -5  -2   0    4.74    0.52 
  -5   2   0    4.44    0.49 
  -5   2   0    4.69    0.50 
  -5  -2  -1    5.64    0.60 
  -5  -2  -1    7.07    0.60 
  -5   2  -1    5.87    0.60 
  -5  -2  -2    0.87    0.33 
  -5   2  -2    0.88    0.33 
  -5  -2  -3    2.65    0.54 
  -5   2  -3    2.52    0.53 
  -5  -2  -4    0.30    0.30 
  -5   2  -4   -0.03    0.25 
  -5  -2  -5    0.60    0.36 
  -5   2  -5    0.41    0.38 
  -5  -3  10    0.23    0.23 
  -5   3  10    0.35    0.25 
  -5  -3   9    0.14    0.18 
  -5   3   9    0.07    0.17 
  -5  -3   8    0.22    0.21 
  -5   3   8   -0.02    0.16 
  -5  -3   7    1.65    0.42 
  -5   3   7    1.68    0.41 
  -5  -3   6    4.92    0.57 
  -5   3   6    4.93    0.57 
  -5  -3   5    0.14    0.19 
  -5   3   5    0.06    0.17 
  -5  -3   4    6.15    0.54 
  -5  -3   4    5.79    0.60 
  -5   3   4    6.44    0.63 
  -5  -3   3   11.60    0.72 
  -5  -3   3   12.02    0.82 
  -5   3   3   11.72    0.81 
  -5  -3   2    6.78    0.58 
  -5  -3   2    7.61    0.66 
  -5   3   2    6.69    0.61 
  -5  -3   1   20.21    1.01 
  -5  -3   1   18.34    0.97 
  -5   3   1   21.00    1.02 
  -5  -3   0    2.02    0.39 
  -5   3   0    2.54    0.41 
  -5   3   0    2.90    0.44 
  -5  -3  -1    0.14    0.22 
  -5  -3  -1    0.19    0.21 
  -5   3  -1    0.22    0.26 
  -5  -3  -2   -0.07    0.19 
  -5   3  -2    0.40    0.28 
  -5  -3  -3    1.85    0.48 
  -5   3  -3    1.68    0.47 
  -5  -3  -4    0.99    0.40 
  -5   3  -4    1.19    0.45 
  -5  -3  -5    0.56    0.42 
  -5   3  -5    0.62    0.39 
  -5  -4  10    0.10    0.22 
  -5   4  10    0.08    0.19 
  -5  -4   9    0.08    0.18 
  -5   4   9    0.15    0.23 
  -5  -4   8    0.07    0.19 
  -5   4   8    0.02    0.19 
  -5  -4   7    1.23    0.37 
  -5   4   7    1.07    0.36 
  -5  -4   6    2.51    0.47 
  -5   4   6    2.74    0.49 
  -5  -4   5   17.15    1.01 
  -5   4   5   16.50    1.00 
  -5  -4   4    0.07    0.15 
  -5  -4   4    0.06    0.19 
  -5   4   4    0.06    0.17 
  -5  -4   3    0.20    0.19 
  -5  -4   3    0.43    0.25 
  -5   4   3    0.62    0.29 
  -5  -4   2   -0.01    0.16 
  -5  -4   2    0.30    0.23 
  -5   4   2    0.34    0.23 
  -5  -4   1    4.01    0.53 
  -5  -4   1    3.63    0.50 
  -5   4   1    4.06    0.50 
  -5  -4   0    8.73    0.72 
  -5  -4   0    8.75    0.69 
  -5   4   0    7.61    0.63 
  -5   4   0    9.42    0.71 
  -5  -4  -1    3.66    0.56 
  -5  -4  -1    4.43    0.51 
  -5   4  -1    4.13    0.54 
  -5  -4  -2    2.72    0.54 
  -5   4  -2    3.07    0.52 
  -5  -4  -3   -0.09    0.19 
  -5   4  -3    0.12    0.24 
  -5  -4  -4    5.08    0.74 
  -5   4  -4    4.25    0.67 
  -5  -4  -5    0.64    0.42 
  -5   4  -5    0.66    0.41 
  -5  -5  10   -0.02    0.19 
  -5   5  10    0.08    0.20 
   5  -5 -10   -0.18    0.34 
  -5  -5   9    0.21    0.20 
  -5   5   9    0.23    0.22 
   5  -5  -9   -0.01    0.32 
  -5  -5   8    0.35    0.24 
  -5   5   8    0.10    0.22 
   5  -5  -8    0.31    0.34 
  -5  -5   7   -0.14    0.14 
  -5   5   7    0.00    0.19 
  -5  -5   6    0.02    0.13 
  -5   5   6    0.06    0.19 
  -5  -5   5    4.77    0.57 
  -5   5   5    5.32    0.61 
  -5  -5   4    0.94    0.34 
  -5   5   4    1.41    0.39 
  -5  -5   3    1.18    0.32 
  -5  -5   3    0.98    0.33 
  -5   5   3    0.90    0.33 
  -5  -5   2    0.03    0.16 
  -5  -5   2    0.06    0.20 
  -5   5   2    0.19    0.21 
  -5  -5   1    2.10    0.43 
  -5  -5   1    2.20    0.43 
  -5   5   1    2.12    0.43 
  -5  -5   0    0.59    0.28 
  -5  -5   0    1.13    0.34 
  -5   5   0    0.57    0.27 
  -5   5  -1    1.01    0.34 
   5   5   1    0.69    0.27 
   5   5   1    0.76    0.29 
  -5  -5  -2    0.68    0.32 
  -5   5  -2    0.56    0.31 
  -5  -5  -3    1.26    0.43 
  -5   5  -3    0.92    0.39 
  -5  -5  -4    1.96    0.55 
  -5   5  -4    2.15    0.55 
  -5  -5  -5    5.77    0.86 
  -5   5  -5    5.72    0.82 
  -5   6  10    0.06    0.25 
   5  -6 -10   -0.08    0.30 
  -5  -6   9    0.81    0.32 
  -5   6   9    1.05    0.38 
   5  -6  -9    0.88    0.44 
  -5  -6   8   -0.09    0.15 
  -5   6   8    0.06    0.18 
   5  -6  -8    0.05    0.32 
  -5  -6   7    0.70    0.30 
  -5   6   7    1.23    0.38 
   5  -6  -7    0.95    0.37 
  -5  -6   6    0.34    0.24 
  -5   6   6    0.25    0.23 
   5  -6  -6    0.60    0.32 
  -5  -6   5    1.33    0.37 
  -5   6   5    1.49    0.39 
  -5  -6   4    0.14    0.22 
  -5   6   4   -0.20    0.14 
  -5  -6   3    0.35    0.23 
  -5  -6   3    0.34    0.25 
  -5   6   3    0.30    0.24 
  -5  -6   2   16.30    0.97 
  -5  -6   2   16.51    1.00 
  -5   6   2   16.63    1.00 
  -5  -6   1   17.13    1.02 
  -5  -6   1   16.82    0.99 
  -5   6   1   17.96    1.02 
  -5  -6   0    0.17    0.23 
  -5   6   0    0.20    0.21 
   5   6   0    0.24    0.20 
   5   6   0    0.20    0.19 
  -5  -6  -1    2.08    0.47 
  -5   6  -1    2.09    0.44 
   5   6   1    2.40    0.44 
   5   6   1    1.86    0.38 
  -5  -6  -2    2.40    0.51 
  -5   6  -2    2.68    0.52 
  -5  -6  -3    0.34    0.32 
  -5   6  -3    0.68    0.36 
  -5  -6  -4    0.49    0.41 
  -5   6  -4    0.58    0.38 
  -5   6  -5    5.31    0.82 
  -5   7   9    1.44    0.44 
   5  -7  -9    1.18    0.47 
  -5  -7   8    1.20    0.39 
  -5   7   8    1.27    0.42 
   5  -7  -8    1.29    0.45 
  -5  -7   7    0.90    0.34 
  -5   7   7    0.76    0.31 
   5  -7  -7    1.11    0.39 
  -5  -7   6   -0.09    0.17 
  -5   7   6    0.36    0.27 
  -5  -7   5    0.70    0.30 
  -5   7   5    0.90    0.34 
  -5  -7   4    0.09    0.21 
  -5   7   4    0.18    0.23 
  -5  -7   3   16.44    0.99 
  -5  -7   3   16.69    1.05 
  -5   7   3   15.90    1.01 
  -5  -7   2    7.35    0.69 
  -5   7   2    6.65    0.67 
   5   7  -2    7.28    0.69 
   5   7  -2    6.52    0.66 
  -5  -7   1    5.92    0.63 
  -5   7   1    5.40    0.60 
   5   7  -1    5.91    0.62 
   5   7  -1    5.57    0.60 
  -5  -7   0    2.00    0.47 
  -5   7   0    1.76    0.41 
   5   7   0    2.39    0.46 
   5   7   0    1.76    0.40 
  -5  -7  -1    1.48    0.42 
   5   7   1    1.96    0.43 
   5   7   1    2.10    0.41 
  -5  -7  -2   -0.16    0.17 
  -5   7  -2    0.06    0.25 
  -5  -7  -3    1.91    0.55 
  -5   7  -3    2.15    0.53 
  -5  -7  -4    0.81    0.45 
  -5   7  -4    0.89    0.44 
  -5   8   9    0.83    0.39 
   5  -8  -9    0.66    0.42 
   5   8  -9    0.59    0.38 
   5   8  -9    0.80    0.39 
  -5   8   8    0.64    0.31 
   5  -8  -8    0.85    0.43 
   5   8  -8    0.55    0.35 
   5   8  -8    0.56    0.32 
  -5   8   7    2.41    0.53 
   5  -8  -7    2.42    0.53 
   5   8  -7    2.28    0.54 
   5   8  -7    2.26    0.52 
  -5   8   6   -0.03    0.17 
   5   8  -6    0.04    0.23 
   5   8  -6    0.04    0.25 
  -5   8   5    1.07    0.36 
   5   8  -5    1.19    0.40 
   5   8  -5    1.45    0.42 
  -5   8   4    2.43    0.50 
   5   8  -4    2.37    0.50 
   5   8  -4    2.31    0.48 
  -5   8   3    0.05    0.21 
   5   8  -3   -0.03    0.17 
   5   8  -3    0.05    0.18 
  -5  -8   2    6.52    0.70 
  -5   8   2    6.70    0.69 
   5   8  -2    6.93    0.69 
   5   8  -2    7.92    0.73 
  -5  -8   1    0.08    0.21 
  -5   8   1   -0.05    0.19 
   5   8  -1    0.17    0.22 
   5   8  -1   -0.03    0.13 
  -5  -8   0    1.41    0.41 
  -5   8   0    1.28    0.37 
   5   8   0    1.59    0.42 
   5   8   0    1.37    0.37 
  -5  -8  -1    1.64    0.44 
   5   8   1    1.84    0.43 
   5   8   1    2.09    0.43 
  -5  -8  -2    0.67    0.39 
  -5  -8  -3    6.13    0.84 
  -5   8  -3    6.51    0.79 
  -5  -8  -4    0.52    0.39 
  -5   8  -4    0.55    0.46 
  -5   9   8    4.07    0.67 
   5  -9  -8    4.24    0.71 
   5   9  -8    4.46    0.73 
   5   9  -8    4.77    0.70 
  -5   9   7    0.08    0.23 
   5   9  -7    0.33    0.34 
   5   9  -7    0.17    0.28 
  -5   9   6    0.09    0.22 
   5   9  -6    0.25    0.28 
   5   9  -6    0.32    0.28 
  -5   9   5    0.16    0.26 
   5   9  -5    0.59    0.33 
   5   9  -5    0.59    0.31 
  -5   9   4   -0.06    0.20 
   5   9  -4    0.03    0.18 
   5   9  -4   -0.04    0.16 
  -5   9   3    0.79    0.35 
   5   9  -3    1.13    0.38 
   5   9  -3    0.60    0.30 
  -5  -9   2    0.85    0.33 
  -5   9   2    0.65    0.33 
   5   9  -2    0.59    0.29 
   5   9  -2    0.52    0.26 
  -5  -9   1    0.55    0.30 
  -5   9   1    0.67    0.32 
   5   9  -1    0.89    0.32 
   5   9  -1    0.50    0.26 
  -5  -9   0    0.39    0.26 
  -5   9   0    0.08    0.20 
   5   9   0    0.16    0.20 
   5   9   0    0.10    0.16 
  -5  -9  -1    0.28    0.25 
   5   9   1    0.36    0.22 
  -5  -9  -2    2.16    0.59 
  -5  -9  -3    0.23    0.34 
  -5   9  -3   -0.15    0.34 
  -5  10   7    2.58    0.58 
   5  10  -7    3.67    0.69 
   5  10  -7    2.78    0.58 
  -5  10   6    0.78    0.34 
   5  10  -6    1.15    0.45 
   5  10  -6    1.07    0.39 
  -5  10   5    0.07    0.24 
   5  10  -5    0.02    0.25 
   5  10  -5   -0.08    0.18 
  -5  10   4    1.06    0.38 
   5  10  -4    0.92    0.36 
   5  10  -4    0.59    0.29 
  -5  10   3    0.14    0.21 
   5  10  -3    0.07    0.19 
   5  10  -3   -0.13    0.15 
  -5  10   2    1.54    0.45 
   5  10  -2    1.22    0.40 
   5  10  -2    1.40    0.39 
  -5 -10   1    0.40    0.28 
  -5  10   1    0.46    0.28 
   5  10  -1    0.45    0.25 
  -5 -10   0    0.56    0.30 
  -5  10   0    0.26    0.26 
   5  10   0    0.55    0.28 
  -5 -10  -1    0.23    0.32 
   5  10   1   -0.02    0.17 
  -5 -10  -2   -0.09    0.33 
  -5  11   6    0.62    0.32 
   5  11  -6    0.63    0.36 
   5  11  -6    0.34    0.27 
  -5  11   5    0.30    0.31 
   5  11  -5    0.23    0.30 
   5  11  -5    0.05    0.23 
  -5  11   4   -0.12    0.20 
   5  11  -4   -0.06    0.17 
   5  11  -4    0.12    0.22 
  -5  11   3    0.42    0.30 
   5  11  -3    0.45    0.26 
  -5  11   2    0.82    0.34 
   5  11  -2    0.46    0.28 
  -5 -11   1    0.46    0.34 
  -5  11   1    0.38    0.29 
   5  11  -1    0.41    0.26 
  -5 -11   0    0.24    0.35 
  -5  11   0    0.20    0.22 
   5  11   0   -0.11    0.18 
  -5 -11  -1    0.08    0.30 
   5  11   1    0.13    0.20 
  -5  12   4    0.25    0.25 
   5  12  -4    0.20    0.25 
  -5  12   3    0.13    0.20 
   5  12  -3    0.07    0.22 
  -5  12   2    0.86    0.37 
   5  12  -2    0.12    0.25 
  -5  12   1    0.80    0.37 
   5  12  -1    0.49    0.33 
  -5  12   0    1.32    0.40 
   5  12   0    0.47    0.28 
  -6   0   9    0.15    0.23 
  -6   0   8    0.35    0.28 
  -6   0   7    0.01    0.19 
  -6   0   6    3.48    0.58 
  -6   0   5    0.17    0.26 
  -6   0   4    3.23    0.55 
  -6   0   3    0.01    0.20 
  -6   0   2    0.01    0.21 
  -6   0   1   -0.07    0.17 
  -6   0   1    0.16    0.24 
  -6   0   0   -0.11    0.16 
  -6   0   0    0.26    0.26 
  -6   0  -1    0.16    0.25 
  -6   0  -2    4.00    0.66 
  -6   0  -3    0.14    0.29 
  -6  -1   9    0.42    0.29 
  -6   1   9    0.40    0.29 
  -6  -1   8   -0.04    0.20 
  -6   1   8   -0.06    0.21 
  -6  -1   7    1.09    0.39 
  -6   1   7    0.94    0.36 
  -6  -1   6   -0.10    0.17 
  -6   1   6   -0.07    0.17 
  -6  -1   5    4.96    0.66 
  -6   1   5    4.54    0.64 
  -6  -1   4    2.58    0.52 
  -6   1   4    2.65    0.52 
  -6  -1   3    0.44    0.27 
  -6   1   3    0.59    0.30 
  -6  -1   2    0.17    0.18 
  -6  -1   2    0.14    0.22 
  -6   1   2    0.02    0.19 
  -6  -1   1    0.22    0.21 
  -6  -1   1   -0.11    0.19 
  -6   1   1    0.06    0.21 
  -6  -1   0    0.19    0.21 
  -6  -1   0    0.10    0.22 
  -6   1   0    0.19    0.21 
  -6  -1  -1    0.56    0.32 
  -6   1  -1    1.14    0.38 
  -6  -1  -2    3.01    0.60 
  -6   1  -2    3.47    0.61 
  -6  -1  -3    0.27    0.29 
  -6   1  -3   -0.17    0.24 
  -6  -2   9    1.09    0.39 
  -6   2   9    0.99    0.39 
  -6  -2   8    0.13    0.22 
  -6   2   8    0.06    0.21 
  -6  -2   7    1.02    0.36 
  -6   2   7    1.06    0.38 
  -6  -2   6    2.50    0.52 
  -6   2   6    1.85    0.47 
  -6  -2   5    3.38    0.57 
  -6   2   5    2.84    0.54 
  -6  -2   4    1.67    0.43 
  -6   2   4    1.84    0.45 
  -6  -2   3    2.43    0.49 
  -6   2   3    2.72    0.52 
  -6  -2   2    0.77    0.29 
  -6  -2   2    0.76    0.33 
  -6   2   2    1.00    0.35 
  -6  -2   1    5.43    0.60 
  -6  -2   1    6.42    0.67 
  -6   2   1    5.66    0.62 
  -6  -2   0    0.56    0.27 
  -6  -2   0    0.59    0.30 
  -6   2   0    0.36    0.26 
  -6  -2  -1    0.42    0.28 
  -6   2  -1    0.44    0.27 
  -6  -2  -2    0.03    0.24 
  -6   2  -2    0.32    0.31 
  -6  -2  -3    0.59    0.36 
  -6   2  -3    0.40    0.36 
  -6  -3   9    0.10    0.24 
  -6   3   9    0.26    0.28 
  -6  -3   8    1.81    0.48 
  -6   3   8    2.18    0.52 
  -6  -3   7    0.34    0.26 
  -6   3   7    0.53    0.29 
  -6  -3   6   -0.27    0.12 
  -6   3   6   -0.14    0.16 
  -6  -3   5    2.59    0.53 
  -6   3   5    1.99    0.47 
  -6  -3   4    1.87    0.46 
  -6   3   4    2.85    0.54 
  -6  -3   3   10.70    0.78 
  -6  -3   3   10.84    0.87 
  -6   3   3   11.29    0.88 
  -6  -3   2    0.82    0.31 
  -6  -3   2    0.92    0.35 
  -6   3   2    0.73    0.33 
  -6  -3   1    0.47    0.27 
  -6  -3   1    0.25    0.25 
  -6   3   1    0.30    0.26 
  -6  -3   0    1.03    0.36 
  -6  -3   0    1.08    0.37 
  -6  -3  -1    1.00    0.38 
  -6   3  -1    0.55    0.32 
  -6  -3  -2    1.68    0.48 
  -6   3  -2    1.72    0.49 
  -6  -3  -3    0.21    0.29 
  -6   3  -3   -0.15    0.25 
  -6  -4   9    0.13    0.26 
  -6   4   9    0.35    0.30 
  -6  -4   8    0.76    0.33 
  -6   4   8    0.49    0.29 
  -6  -4   7    1.73    0.45 
  -6   4   7    1.89    0.49 
  -6  -4   6    0.16    0.19 
  -6   4   6   -0.03    0.17 
  -6  -4   5    0.05    0.22 
  -6   4   5   -0.05    0.21 
  -6  -4   4    0.36    0.26 
  -6   4   4    0.69    0.32 
  -6  -4   3    0.14    0.18 
  -6  -4   3    0.19    0.25 
  -6   4   3    0.12    0.24 
  -6  -4   2    0.43    0.26 
  -6  -4   2    0.40    0.28 
  -6   4   2    0.16    0.25 
  -6  -4   1    1.66    0.44 
  -6  -4   1    1.98    0.47 
  -6   4   1    1.79    0.45 
  -6  -4   0    0.42    0.26 
  -6  -4   0    0.82    0.35 
  -6  -4  -1    2.82    0.55 
  -6  -4  -2    7.77    0.81 
  -6   4  -2    7.84    0.82 
  -6  -4  -3    0.74    0.40 
  -6   4  -3    1.24    0.49 
  -6  -5   8    0.16    0.25 
  -6   5   8    0.14    0.22 
  -6  -5   7    0.04    0.19 
  -6   5   7   -0.13    0.19 
  -6  -5   6   -0.03    0.17 
  -6   5   6    0.15    0.23 
  -6  -5   5    0.14    0.27 
  -6   5   5    0.25    0.25 
  -6  -5   4    0.87    0.31 
  -6  -5   4    0.51    0.30 
  -6   5   4    0.99    0.37 
  -6  -5   3    0.46    0.25 
  -6  -5   3    0.30    0.27 
  -6   5   3    0.17    0.24 
  -6  -5   2    0.25    0.23 
  -6  -5   2    0.09    0.24 
  -6   5   2   -0.14    0.20 
  -6  -5   1    2.04    0.48 
  -6  -5   1    2.16    0.49 
  -6   5   1    2.49    0.50 
  -6  -5   0    0.21    0.25 
  -6  -5   0    0.42    0.31 
  -6  -5  -1    4.21    0.67 
  -6  -5  -2    3.86    0.69 
  -6   5  -2    3.36    0.63 
  -6   5  -3    3.25    0.67 
  -6  -6   8    0.03    0.24 
  -6   6   8    0.00    0.23 
  -6  -6   7    1.76    0.48 
  -6   6   7    1.99    0.50 
  -6  -6   6    1.50    0.44 
  -6   6   6    0.95    0.43 
  -6  -6   5    0.31    0.29 
  -6   6   5    0.43    0.30 
  -6  -6   4    2.04    0.52 
  -6   6   4    2.58    0.54 
  -6  -6   3    5.26    0.62 
  -6  -6   3    4.93    0.69 
  -6   6   3    5.14    0.69 
  -6  -6   2    0.58    0.27 
  -6  -6   2    0.37    0.32 
  -6   6   2    0.27    0.26 
  -6  -6   1    0.45    0.27 
  -6  -6   1    0.23    0.30 
  -6   6   1    0.24    0.28 
  -6  -6   0    0.21    0.26 
   6   6   0    0.01    0.20 
   6   6   0    0.02    0.20 
  -6  -6  -1   -0.08    0.21 
  -6  -6  -2    1.12    0.43 
  -6  -7   7   -0.19    0.19 
  -6   7   7    0.10    0.25 
  -6  -7   6    0.05    0.20 
  -6   7   6    0.38    0.32 
  -6  -7   5    6.61    0.79 
  -6   7   5    6.99    0.79 
  -6  -7   4    2.35    0.57 
  -6   7   4    1.76    0.48 
  -6  -7   3    0.03    0.21 
  -6  -7   3    0.00    0.25 
  -6   7   3   -0.01    0.22 
  -6  -7   2    0.14    0.21 
  -6   7   2   -0.24    0.18 
   6   7  -2    0.26    0.25 
   6   7  -2    0.13    0.26 
  -6  -7   1    0.95    0.35 
  -6   7   1    0.87    0.36 
   6   7  -1    0.93    0.36 
   6   7  -1    0.92    0.36 
  -6  -7   0    0.69    0.34 
   6   7   0    0.46    0.28 
   6   7   0    0.53    0.27 
  -6  -7  -1    0.58    0.35 
  -6   8   6    1.62    0.48 
   6   8  -6    1.44    0.47 
   6   8  -6    2.22    0.57 
  -6   8   5    4.08    0.69 
   6   8  -5    4.02    0.69 
   6   8  -5    3.27    0.62 
  -6   8   4    0.64    0.34 
   6   8  -4    0.15    0.24 
   6   8  -4    0.50    0.30 
  -6  -8   3    0.07    0.23 
  -6   8   3    0.27    0.28 
   6   8  -3   -0.02    0.18 
   6   8  -3    0.05    0.19 
  -6  -8   2    0.07    0.22 
  -6   8   2    0.20    0.28 
   6   8  -2   -0.05    0.19 
   6   8  -2    0.05    0.20 
  -6  -8   1    2.50    0.57 
  -6   8   1    2.85    0.56 
   6   8  -1    2.40    0.54 
   6   8  -1    2.67    0.53 
  -6  -8   0   -0.07    0.25 
   6   8   0    0.13    0.22 
   6   8   0    0.02    0.16 
  -6   9   4    1.29    0.43 
   6   9  -4    1.10    0.40 
   6   9  -4    0.63    0.32 
  -6   9   3    0.03    0.23 
   6   9  -3    0.08    0.24 
   6   9  -3    0.39    0.28 
  -6  -9   2   -0.03    0.22 
  -6   9   2    0.28    0.29 
   6   9  -2    0.11    0.24 
   6   9  -2    0.07    0.23 
  -6  -9   1    0.05    0.27 
  -6   9   1    0.02    0.27 
   6   9  -1   -0.14    0.18 
   6   9  -1   -0.01    0.20 
   6   9   0    5.23    0.73 
   6   9   0    3.91    0.61 
  -6  10   2    0.40    0.29 
  -7   0   6    0.26    0.30 
  -7   0   5    0.19    0.29 
  -7   0   4    0.56    0.36 
  -7   0   3    0.05    0.28 
  -7   0   2    0.69    0.41 
  -7  -1   6    1.08    0.45 
  -7   1   6    1.16    0.45 
  -7  -1   5    0.18    0.28 
  -7   1   5    0.05    0.27 
  -7  -1   4   -0.32    0.19 
  -7   1   4    0.05    0.27 
  -7  -1   3   -0.13    0.23 
  -7   1   3    0.24    0.32 
  -7  -1   2    1.41    0.48 
  -7   1   2    1.66    0.49 
  -7  -1   0    0.88    0.39 
  -7  -2   5    0.01    0.27 
  -7   2   5    0.23    0.31 
  -7  -2   4    0.13    0.28 
  -7   2   4    0.46    0.33 
  -7  -2   3   -0.14    0.26 
  -7   2   3   -0.02    0.28 
  -7  -2   2    1.30    0.44 
  -7   2   2    0.75    0.40 
  -7  -2   0    0.75    0.41 
  -7  -3   5    0.56    0.33 
  -7   3   5    0.52    0.37 
  -7  -3   4    0.61    0.37 
  -7   3   4    0.84    0.40 
  -7  -3   3    0.08    0.28 
  -7   3   3    0.17    0.29 
  -7  -3   2    1.44    0.47 
  -7   3   2    1.83    0.53 
  -7  -3   1    3.99    0.67 
  -7  -3   0    1.08    0.44 
  -7  -4   4   -0.06    0.23 
  -7   4   4   -0.02    0.25 
  -7  -4   3    1.05    0.45 
  -7   4   3    0.81    0.41 
  -7  -4   2    0.35    0.30 
  -7  -4   2    0.43    0.37 
  -7   4   2    0.01    0.28 
  -7  -4   1    3.69    0.66 
  -7   5   4    0.09    0.24 
  -7  -5   3    0.13    0.28 
  -7   5   3    0.25    0.28 
  -7  -5   2    0.13    0.28 
  -7  -5   2    0.09    0.29 
  -7   5   2   -0.06    0.26 
   0   0   0    0.00    0.00 
;
_shelx_hkl_checksum              83217
loop_
_space_group_symop_operation_xyz
'x, y, z'
'-x, y+1/2, -z+1/2'
'-x, -y, -z'
'x, -y-1/2, z-1/2'
loop_
_atom_site_label
_atom_site_type_symbol
_atom_site_fract_x
_atom_site_fract_y
_atom_site_fract_z
_atom_site_U_iso_or_equiv
_atom_site_adp_type
_atom_site_occupancy
_atom_site_site_symmetry_order
_atom_site_calc_flag
C1 C 0.3924(2) 0.47562(10) 0.95723(13) 0.0414(3) Uani 1 1 d
C2 C 0.1441(2) 0.51087(10) 0.88276(14) 0.0480(4) Uani 1 1 d
C3 C 0.0742(2) 0.40260(11) 0.83399(15) 0.0512(4) Uani 1 1 d
C4 C 0.3353(2) 0.37728(10) 0.91712(14) 0.0437(3) Uani 1 1 d
C5 C 0.3467(3) 0.19961(10) 0.89287(18) 0.0526(4) Uani 1 1 d
C6 C 0.5404(4) 0.13787(14) 0.8572(3) 0.0746(6) Uani 1 1 d
C9 C 0.2520(4) 0.15853(17) 1.0106(3) 0.0780(6) Uani 1 1 d
H5 H 0.216(3) 0.2148(10) 0.8067(16) 0.056(4) Uiso 1 1 d
H6 H 0.463(3) 0.0766(15) 0.820(2) 0.088(6) Uiso 1 1 d
H7 H 0.676(4) 0.1252(12) 0.942(2) 0.092(7) Uiso 1 1 d
H8 H 0.609(4) 0.1724(16) 0.788(2) 0.106(7) Uiso 1 1 d
H9 H 0.392(4) 0.1441(13) 1.097(2) 0.095(6) Uiso 1 1 d
H10 H 0.178(3) 0.0971(14) 0.9779(19) 0.090(6) Uiso 1 1 d
H11 H 0.131(4) 0.2023(16) 1.033(2) 0.110(7) Uiso 1 1 d
O1 O 0.03497(18) 0.58923(8) 0.86805(12) 0.0665(3) Uani 1 1 d
O2 O -0.1018(2) 0.35860(9) 0.76390(13) 0.0759(4) Uani 1 1 d
O3 O 0.46749(16) 0.29696(7) 0.94575(11) 0.0554(3) Uani 1 1 d
loop_
_atom_site_aniso_label
_atom_site_aniso_U_11
_atom_site_aniso_U_22
_atom_site_aniso_U_33
_atom_site_aniso_U_23
_atom_site_aniso_U_13
_atom_site_aniso_U_12
C1 0.0398(7) 0.0417(7) 0.0425(7) 0.0025(5) 0.0116(6) -0.0002(5)
C2 0.0427(7) 0.0515(8) 0.0486(8) 0.0082(6) 0.0112(6) 0.0045(6)
C3 0.0412(7) 0.0594(9) 0.0494(8) -0.0023(6) 0.0070(7) -0.0019(6)
C4 0.0405(7) 0.0453(8) 0.0441(8) -0.0004(5) 0.0099(6) -0.0009(5)
C5 0.0495(8) 0.0412(8) 0.0598(9) -0.0099(6) 0.0034(7) -0.0035(6)
C6 0.0702(12) 0.0572(11) 0.0957(16) -0.0213(10) 0.0220(12) 0.0014(9)
C9 0.0776(13) 0.0688(13) 0.0899(15) -0.0044(11) 0.0274(12) -0.0170(10)
O1 0.0546(6) 0.0576(7) 0.0810(8) 0.0132(5) 0.0086(5) 0.0145(5)
O2 0.0493(6) 0.0824(9) 0.0817(8) -0.0149(6) -0.0045(6) -0.0077(6)
O3 0.0452(5) 0.0406(6) 0.0714(7) -0.0075(4) 0.0018(5) 0.0002(4)
loop_
_atom_type_symbol
_atom_type_description
_atom_type_scat_dispersion_real
_atom_type_scat_dispersion_imag
_atom_type_scat_source
C C 0.0033 0.0016 'International Tables Vol C Tables 4.2.6.8 and 6.1.1.4'
H H 0.0000 0.0000 'International Tables Vol C Tables 4.2.6.8 and 6.1.1.4'
O O 0.0106 0.0060 'International Tables Vol C Tables 4.2.6.8 and 6.1.1.4'
loop_
_geom_angle_atom_site_label_1
_geom_angle_atom_site_label_2
_geom_angle_atom_site_label_3
_geom_angle
_geom_angle_site_symmetry_1
_geom_angle_site_symmetry_3
C4 C1 C1 133.74(15) . 3_667
C4 C1 C2 92.89(11) . .
C1 C1 C2 133.34(15) 3_667 .
O1 C2 C1 136.78(14) . .
O1 C2 C3 134.47(14) . .
C1 C2 C3 88.72(11) . .
O2 C3 C4 137.01(15) . .
O2 C3 C2 137.67(14) . .
C4 C3 C2 85.31(10) . .
O3 C4 C1 130.65(12) . .
O3 C4 C3 136.28(12) . .
C1 C4 C3 93.07(11) . .
C9 C5 O3 107.13(14) . .
C9 C5 C6 114.90(17) . .
O3 C5 C6 105.04(12) . .
C9 C5 H5 111.8(8) . .
O3 C5 H5 106.1(8) . .
C6 C5 H5 111.1(8) . .
C5 C6 H6 105.5(11) . .
C5 C6 H7 111.8(11) . .
H6 C6 H7 110.0(15) . .
C5 C6 H8 111.0(12) . .
H6 C6 H8 112.4(17) . .
H7 C6 H8 106.3(16) . .
C5 C9 H9 109.0(11) . .
C5 C9 H10 107.1(11) . .
H9 C9 H10 106.9(15) . .
C5 C9 H11 112.2(13) . .
H9 C9 H11 112.7(17) . .
H10 C9 H11 108.7(17) . .
C4 O3 C5 117.72(11) . .
loop_
_geom_bond_atom_site_label_1
_geom_bond_atom_site_label_2
_geom_bond_distance
_geom_bond_site_symmetry_2
_geom_bond_publ_flag
C1 C4 1.3798(18) . yes
C1 C1 1.424(2) 3_667 yes
C1 C2 1.4694(18) . yes
C2 O1 1.2037(15) . yes
C2 C3 1.536(2) . yes
C3 O2 1.1915(16) . yes
C3 C4 1.5128(19) . yes
C4 O3 1.2935(15) . yes
C5 C9 1.487(2) . ?
C5 O3 1.4898(16) . ?
C5 C6 1.491(2) . ?
C5 H5 0.963(15) . ?
C6 H6 0.95(2) . ?
C6 H7 0.97(2) . ?
C6 H8 0.98(2) . ?
C9 H9 0.99(2) . ?
C9 H10 0.934(19) . ?
C9 H11 0.97(2) . ?
loop_
_geom_torsion_atom_site_label_1
_geom_torsion_atom_site_label_2
_geom_torsion_atom_site_label_3
_geom_torsion_atom_site_label_4
_geom_torsion
_geom_torsion_site_symmetry_1
C4 C1 C2 O1 177.19(17) .
C1 C1 C2 O1 -0.9(3) 3_667
C4 C1 C2 C3 -0.78(10) .
C1 C1 C2 C3 -178.82(19) 3_667
O1 C2 C3 O2 2.6(3) .
C1 C2 C3 O2 -179.30(18) .
O1 C2 C3 C4 -177.34(16) .
C1 C2 C3 C4 0.71(9) .
C1 C1 C4 O3 -0.8(3) 3_667
C2 C1 C4 O3 -178.78(14) .
C1 C1 C4 C3 178.82(19) 3_667
C2 C1 C4 C3 0.79(10) .
O2 C3 C4 O3 -1.2(3) .
C2 C3 C4 O3 178.77(16) .
O2 C3 C4 C1 179.26(18) .
C2 C3 C4 C1 -0.76(10) .
C1 C4 O3 C5 176.50(14) .
C3 C4 O3 C5 -2.9(2) .
C9 C5 O3 C4 -91.04(17) .
C6 C5 O3 C4 146.34(15) .
loop_
_publcif_info_datablock.id
_publcif_info_datablock.publ_exptl
_publcif_info_datablock.publ_geom
_publcif_info_datablock.structure
{22d54557-14d0-4555-a2ff-a6fe35f833db} y y y
loop_
_publcif_info_tables.block_id
_publcif_info_tables.reference_item
{22d54557-14d0-4555-a2ff-a6fe35f833db} '_geom_bond_atom_site_label_1'
loop_
_publcif_info_cif.paper_type
E
