#------------------------------------------------------------------------------
#$Date: 2019-11-04 17:30:11 +0200 (Mon, 04 Nov 2019) $
#$Revision: 223163 $
#$URL: file:///home/coder/svn-repositories/cod/cif/1/55/27/1552730.cif $
#------------------------------------------------------------------------------
#
# This file is available in the Crystallography Open Database (COD),
# http://www.crystallography.net/
#
# All data on this site have been placed in the public domain by the
# contributors.
#
data_1552730
loop_
_publ_author_name
'Borley, William'
'Watson, Brandon'
'Nizhnik, Yakov P.'
'Zeller, Matthias'
'Rosokha, Sergiy V.'
_publ_section_title
;
 Complexes of Diiodine with Heteroaromatic <i>N</i>-Oxides: Effects of
 Halogen-Bond Acceptors in Halogen Bonding.
;
_journal_issue                   32
_journal_name_full               'The journal of physical chemistry. A'
_journal_page_first              7113
_journal_page_last               7123
_journal_paper_doi               10.1021/acs.jpca.9b05549
_journal_volume                  123
_journal_year                    2019
_chemical_formula_sum            'C7 H10 I2 N2 O'
_chemical_formula_weight         391.97
_space_group_crystal_system      triclinic
_space_group_IT_number           2
_space_group_name_Hall           '-P 1'
_space_group_name_H-M_alt        'P -1'
_atom_sites_solution_hydrogens   geom
_atom_sites_solution_primary     direct
_atom_sites_solution_secondary   difmap
_audit_creation_method           SHELXL-2018/1
_cell_angle_alpha                87.808(2)
_cell_angle_beta                 71.668(2)
_cell_angle_gamma                67.280(2)
_cell_formula_units_Z            2
_cell_length_a                   8.2802(5)
_cell_length_b                   8.4250(5)
_cell_length_c                   9.0335(5)
_cell_measurement_reflns_used    8480
_cell_measurement_temperature    150(2)
_cell_measurement_theta_max      32.2125
_cell_measurement_theta_min      3.0062
_cell_volume                     549.28(6)
_computing_cell_refinement       'SAINT V8.37A (Bruker, 2016)'
_computing_data_collection       'Apex3 v2016.9-0 (Bruker, 2016)'
_computing_data_reduction        'SAINT V8.37A (Bruker, 2016)'
_computing_structure_refinement
;  
SHELXL-2018/1 (Sheldrick, 2015, 2018), 
SHELXLE Rev882 (H\"ubschle et al., 2011)
;
_computing_structure_solution    'SHELXS-97 (Sheldrick, 2008)'
_diffrn_ambient_temperature      150(2)
_diffrn_measured_fraction_theta_full 0.996
_diffrn_measured_fraction_theta_max 0.991
_diffrn_measurement_device_type  'Bruker AXS D8 Quest CMOS diffractometer'
_diffrn_measurement_method       'omega and phi scans'
_diffrn_radiation_monochromator  'Triumph curved graphite crystal'
_diffrn_radiation_type           MoK\a
_diffrn_radiation_wavelength     0.71073
_diffrn_reflns_av_R_equivalents  0.0405
_diffrn_reflns_av_unetI/netI     0.0340
_diffrn_reflns_Laue_measured_fraction_full 0.996
_diffrn_reflns_Laue_measured_fraction_max 0.991
_diffrn_reflns_limit_h_max       12
_diffrn_reflns_limit_h_min       -12
_diffrn_reflns_limit_k_max       12
_diffrn_reflns_limit_k_min       -12
_diffrn_reflns_limit_l_max       13
_diffrn_reflns_limit_l_min       -13
_diffrn_reflns_number            22702
_diffrn_reflns_point_group_measured_fraction_full 0.996
_diffrn_reflns_point_group_measured_fraction_max 0.991
_diffrn_reflns_theta_full        25.242
_diffrn_reflns_theta_max         33.210
_diffrn_reflns_theta_min         3.719
_diffrn_source                   'sealed tube X-ray source'
_exptl_absorpt_coefficient_mu    5.687
_exptl_absorpt_correction_T_max  0.7465
_exptl_absorpt_correction_T_min  0.6826
_exptl_absorpt_correction_type   multi-scan
_exptl_absorpt_process_details
;
 SADABS 2016/2: Krause, L., Herbst-Irmer, R., Sheldrick G.M. & Stalke D.,
 J. Appl. Cryst. 48 (2015) 3-10
;
_exptl_crystal_colour            red
_exptl_crystal_density_diffrn    2.370
_exptl_crystal_description       block
_exptl_crystal_F_000             360
_exptl_crystal_size_max          0.150
_exptl_crystal_size_mid          0.140
_exptl_crystal_size_min          0.110
_refine_diff_density_max         0.928
_refine_diff_density_min         -0.737
_refine_diff_density_rms         0.134
_refine_ls_extinction_coef       0.0067(3)
_refine_ls_extinction_expression Fc^*^=kFc[1+0.001xFc^2^\l^3^/sin(2\q)]^-1/4^
_refine_ls_extinction_method     'SHELXL-2018/1 (Sheldrick 2018)'
_refine_ls_goodness_of_fit_ref   1.032
_refine_ls_hydrogen_treatment    constr
_refine_ls_matrix_type           full
_refine_ls_number_parameters     112
_refine_ls_number_reflns         4172
_refine_ls_number_restraints     0
_refine_ls_restrained_S_all      1.032
_refine_ls_R_factor_all          0.0489
_refine_ls_R_factor_gt           0.0264
_refine_ls_shift/su_max          0.001
_refine_ls_shift/su_mean         0.000
_refine_ls_structure_factor_coef Fsqd
_refine_ls_weighting_details
'w=1/[\s^2^(Fo^2^)+(0.0128P)^2^+0.3528P] where P=(Fo^2^+2Fc^2^)/3'
_refine_ls_weighting_scheme      calc
_refine_ls_wR_factor_gt          0.0399
_refine_ls_wR_factor_ref         0.0441
_reflns_Friedel_coverage         0.000
_reflns_number_gt                3161
_reflns_number_total             4172
_reflns_threshold_expression     'I > 2\s(I)'
_cod_data_source_file            jp9b05549_si_002.cif
_cod_data_source_block           RS54_0m
_cod_database_code               1552730
_shelx_shelxl_version_number     2018/1
_shelx_space_group_comment
;
The symmetry employed for this shelxl refinement is uniquely defined
by the following loop, which should always be used as a source of
symmetry information in preference to the above space-group names.
They are only intended as comments.
;
_shelx_estimated_absorpt_t_min   0.483
_shelx_estimated_absorpt_t_max   0.574
_shelx_res_file
;
TITL RS54_0m in P-1
    RS54_0m.res
    created by SHELXL-2018/1 at 11:39:03 on 16-Feb-2018
CELL  0.71073    8.2802    8.4250    9.0335    87.808    71.668    67.280
ZERR        2    0.0005    0.0005    0.0005     0.002     0.002     0.002
LATT   1
SFAC  C  H  I  N  O
UNIT 14 20 4 4 2
LIST 6 ! automatically inserted. Change 6 to 4 for CHECKCIF!!
TEMP -123.150
SIZE 0.11 0.14 0.15
L.S. 5
FMAP 2
PLAN 20
ACTA
BOND $H
CONF
OMIT 1   1   0
WGHT    0.012800    0.352800
EXTI    0.006691
FVAR       0.53604
C1    1    0.539436    0.228957    0.050797    11.00000    0.03351    0.02739 =
         0.02266    0.00472   -0.01267   -0.01223
AFIX  43
H1    2    0.566031    0.304154   -0.025380    11.00000   -1.20000
AFIX   0
C2    1    0.670485    0.066773    0.043203    11.00000    0.02261    0.02422 =
         0.02040    0.00093   -0.00668   -0.00890
AFIX  43
H2    2    0.785252    0.029382   -0.039726    11.00000   -1.20000
AFIX   0
C3    1    0.636758   -0.046026    0.157807    11.00000    0.02137    0.02302 =
         0.01852    0.00032   -0.00866   -0.01043
C4    1    0.458907    0.017429    0.272956    11.00000    0.02570    0.03061 =
         0.02248    0.00012   -0.00463   -0.01411
AFIX  43
H4    2    0.427224   -0.053938    0.351188    11.00000   -1.20000
AFIX   0
C5    1    0.332936    0.179435    0.272787    11.00000    0.02274    0.03572 =
         0.02608   -0.00566   -0.00522   -0.01005
AFIX  43
H5    2    0.214257    0.219330    0.350782    11.00000   -1.20000
AFIX   0
C6    1    0.947396   -0.262614    0.037528    11.00000    0.02159    0.02707 =
         0.03210    0.00315   -0.00669   -0.00618
AFIX 137
H6A   2    1.029264   -0.372434    0.062249    11.00000   -1.50000
H6B   2    1.000337   -0.176069    0.033681    11.00000   -1.50000
H6C   2    0.934560   -0.279043   -0.064369    11.00000   -1.50000
AFIX   0
C7    1    0.730626   -0.317146    0.278286    11.00000    0.03977    0.03408 =
         0.03920    0.01567   -0.01234   -0.01431
AFIX 137
H7A   2    0.685394   -0.254504    0.381961    11.00000   -1.50000
H7B   2    0.845404   -0.418151    0.267550    11.00000   -1.50000
H7C   2    0.637076   -0.355126    0.266392    11.00000   -1.50000
AFIX   0
I1    3    0.215272    0.626155    0.375896    11.00000    0.02578    0.02538 =
         0.02311    0.00093   -0.00730   -0.00849
I2    3    0.186124    0.833724    0.624978    11.00000    0.04966    0.04888 =
         0.02233   -0.00144   -0.00437   -0.03303
N1    4    0.373687    0.284318    0.163796    11.00000    0.02715    0.02389 =
         0.02852   -0.00449   -0.01467   -0.00214
N2    4    0.766306   -0.203666    0.157817    11.00000    0.02327    0.02333 =
         0.02358    0.00519   -0.00895   -0.00799
O1    5    0.246495    0.445916    0.166366    11.00000    0.03705    0.02610 =
         0.04228   -0.00372   -0.02382    0.00382
HKLF 4




REM  RS54_0m in P-1
REM R1 =  0.0264 for    3161 Fo > 4sig(Fo)  and  0.0489 for all    4172 data
REM    112 parameters refined using      0 restraints

END

WGHT      0.0128      0.3528

REM Highest difference peak  0.928,  deepest hole -0.737,  1-sigma level  0.134
Q1    1   0.3791  0.9142  0.6230  11.00000  0.05    0.93
Q2    1   0.3963  0.3865  0.0646  11.00000  0.05    0.91
Q3    1   0.1817  0.6821  0.3753  11.00000  0.05    0.82
Q4    1   0.2937  0.5962  0.3405  11.00000  0.05    0.73
Q5    1   0.8342 -0.0313  0.1183  11.00000  0.05    0.71
Q6    1   0.1879  0.5818  0.4080  11.00000  0.05    0.69
Q7    1   0.4023 -0.2838  0.3696  11.00000  0.05    0.68
Q8    1   0.5472 -0.0361  0.2132  11.00000  0.05    0.67
Q9    1   0.1748  0.8882  0.7487  11.00000  0.05    0.59
Q10   1   0.2317  0.4309  0.1251  11.00000  0.05    0.59
Q11   1   0.8543 -0.2063  0.0789  11.00000  0.05    0.58
Q12   1   0.1809  0.8215  0.6614  11.00000  0.05    0.58
Q13   1   0.3412  0.5367  0.4228  11.00000  0.05    0.57
Q14   1   0.3956  0.8025  0.5510  11.00000  0.05    0.52
Q15   1   0.6752  0.1614  0.2000  11.00000  0.05    0.49
Q16   1   0.6572 -0.1083  0.1419  11.00000  0.05    0.48
Q17   1   1.0835 -0.2070  0.1543  11.00000  0.05    0.47
Q18   1   0.1467  0.9058  0.6004  11.00000  0.05    0.46
Q19   1   0.6523 -0.0177  0.2089  11.00000  0.05    0.46
Q20   1   0.9211 -0.5585  0.2218  11.00000  0.05    0.45
;
_shelx_res_checksum              95697
_shelx_hkl_file
;
  -2   0   0 5768.08 130.763   4
  -2   0   0 6296.97 132.461   3
  -2   0   0 6293.28 132.914   2
   2   0   0 5897.21 131.140   6
   2   0   0 6000.98 132.283   3
   2   0   0 6760.26 144.821   1
   2   0   0 6245.00 132.945   2
   2   0   0 6296.46 132.420   5
  -3   0   0 2457.92 53.5346   2
  -3   0   0 2390.47 52.6749   3
  -3   0   0 2296.83 50.6059   6
  -3   0   0 2214.08 50.1320   4
   3   0   0 2261.59 49.9864   4
   3   0   0 2112.25 73.3283   1
   3   0   0 2124.21 50.8729   6
   3   0   0 2429.72 52.6928   5
   3   0   0 2315.16 52.5003   3
   3   0   0 2422.88 68.9257   1
   3   0   0 2342.98 53.4127   2
  -4   0   0 649.892 19.7649   2
  -4   0   0 638.281 18.8821   3
  -4   0   0 612.816 15.7527   4
  -4   0   0 643.594 16.3994   6
   4   0   0 617.352 19.6196   2
   4   0   0 641.815 15.5499   4
   4   0   0 612.142 18.6211   3
   4   0   0 659.240 36.8960   1
   4   0   0 632.643 34.9155   1
   4   0   0 644.615 18.8813   5
   4   0   0 626.823 16.6359   6
  -5   0   0 1952.68 49.3672   4
  -5   0   0 2142.89 47.8316   6
  -5   0   0 2152.76 51.5371   3
   5   0   0 2162.36 46.5890   4
   5   0   0 2130.03 52.6492   2
   5   0   0 2119.76 48.1669   6
   5   0   0 1828.47 86.3581   1
   5   0   0 2176.82 51.4736   3
   5   0   0 2056.59 75.1199   1
   5   0   0 2164.77 51.4714   5
  -6   0   0 31.6816 4.38381   6
  -6   0   0 26.3445 3.33986   4
  -6   0   0 23.5388 5.93770   3
   6   0   0 34.6021 22.0690   1
   6   0   0 27.3966 3.20085   4
   6   0   0 37.1020 6.57697   2
   6   0   0 35.9565 7.21897   5
   6   0   0 21.4123 6.93976   3
   6   0   0 27.1877 4.48736   6
   6   0   0 47.6731 21.2750   1
  -7   0   0 718.927 24.7289   3
   7   0   0 702.671 26.8620   2
   7   0   0 659.716 56.4778   1
   7   0   0 696.460 26.4087   5
   7   0   0 712.767 62.2568   1
   7   0   0 705.968 26.1144   3
   7   0   0 702.884 17.6708   4
   7   0   0 692.246 20.6906   6
  -8   0   0 96.1358 13.7491   3
   8   0   0 103.633 9.36506   6
   8   0   0 103.083 4.82827   4
  -9   0   0 115.370 13.7998   3
   9   0   0 72.3604 8.04237   6
   9   0   0 77.1746 14.3076   2
 -10   0   0 15.4874 12.9202   3
  10   0   0 31.9040 15.6278   2
 -11   0   0 0.63854 18.4597   3
  10  -1   0 39.7396 17.4522   2
 -10   1   0 37.1964 15.9242   3
   9  -1   0 8.44346 6.45911   6
   9  -1   0 -2.6330 12.8100   2
  -9   1   0 -8.3429 9.96643   3
   8  -1   0 34.1719 11.4860   2
   8  -1   0 47.1758 6.62684   6
  -8   1   0 53.7665 10.3794   3
   7  -1   0 -0.7729 4.23184   6
   7  -1   0 13.5953 9.92062   5
   7  -1   0 -23.153 34.0237   1
   7  -1   0 -4.9940 3.04232   4
   7  -1   0 0.54132 5.89813   2
   7  -1   0 1.70910 32.5359   1
  -7   1   0 3.27397 5.06816   3
  -7   1   0 3.46398 4.62248   6
  -7   1   0 0.81805 3.09978   4
   6  -1   0 36.6906 7.62404   5
   6  -1   0 31.9556 8.05463   3
   6  -1   0 -13.246 26.0746   1
   6  -1   0 27.4009 3.58482   4
   6  -1   0 23.2703 4.48846   6
   6  -1   0 19.5892 25.9881   1
   6  -1   0 14.7712 5.88993   2
  -6   1   0 19.1259 5.88456   3
  -6   1   0 12.9093 8.20882   2
  -6   1   0 27.1884 4.45380   6
  -6   1   0 27.6363 3.75595   4
   5  -1   0 83.7215 8.76972   5
   5  -1   0 90.5768 22.4317   1
   5  -1   0 82.3463 9.22629   3
   5  -1   0 81.4299 5.15077   4
   5  -1   0 86.9832 6.30028   6
   5  -1   0 81.3608 9.39306   2
   5  -1   0 82.7209 24.7311   1
  -5   1   0 78.5391 7.94591   3
  -5   1   0 89.4588 5.94531   6
  -5   1   0 75.3600 5.24946   4
  -5   1   0 74.8441 8.98196   2
   4  -1   0 608.975 15.5101   4
   4  -1   0 629.924 19.4519   3
   4  -1   0 633.632 18.6321   5
   4  -1   0 552.583 39.3891   1
   4  -1   0 612.437 20.1235   2
   4  -1   0 623.898 41.2824   1
   4  -1   0 597.536 16.4828   6
  -4   1   0 607.781 16.2412   6
  -4   1   0 576.413 18.4862   3
  -4   1   0 592.400 15.7241   4
  -4   1   0 615.189 19.5291   2
   3  -1   0 931.986 25.6373   2
   3  -1   0 1011.37 43.6901   1
   3  -1   0 945.139 22.1066   4
   3  -1   0 972.840 24.8597   3
   3  -1   0 938.260 24.0812   5
   3  -1   0 942.653 22.8614   6
   3  -1   0 950.533 42.5597   1
  -3   1   0 912.389 22.5377   6
  -3   1   0 911.175 24.6245   3
  -3   1   0 931.398 25.3821   2
   2  -1   0 440.715 25.4012   1
   2  -1   0 464.702 12.6036   5
   2  -1   0 448.555 13.7440   2
   2  -1   0 468.858 11.5520   4
   2  -1   0 422.993 24.2455   1
   2  -1   0 463.761 13.0331   3
   2  -1   0 454.095 11.9439   6
  -2   1   0 470.470 13.2434   3
  -2   1   0 469.348 11.6123   4
  -2   1   0 465.266 11.8903   6
  -2   1   0 438.281 13.5979   2
   1  -1   0 3140.74 70.9170   2
   1  -1   0 3175.16 69.8326   5
   1  -1   0 3570.42 83.7568   1
   1  -1   0 3250.66 70.5630   3
   1  -1   0 3198.07 69.8842   6
   1  -1   0 3713.70 84.6649   1
   1  -1   0 3220.81 69.7322   4
  -1   1   0 3082.36 70.5278   3
  -1   1   0 3210.02 69.7601   4
  -1   1   0 3220.66 70.8398   2
  -1   1   0 3136.18 69.8353   6
  -2  -1   0 4478.73 94.7180   1
  -2  -1   0 3972.86 90.3293   3
   2   1   0 4123.22 90.3326   3
   2   1   0 4156.46 89.7584   4
   2   1   0 4466.05 95.1029   1
   2   1   0 4168.13 90.6591   5
   2   1   0 4125.32 89.9558   6
  -3  -1   0 811.758 18.7957   4
  -3  -1   0 796.529 20.2604   3
   3   1   0 794.161 20.5933   5
   3   1   0 787.040 28.3628   1
   3   1   0 805.295 18.7861   4
   3   1   0 803.698 28.3059   1
   3   1   0 777.910 20.9147   2
   3   1   0 796.908 20.1876   3
  -4  -1   0 5276.33 116.755   3
  -4  -1   0 4798.05 114.204   4
   4   1   0 5317.16 117.702   2
   4   1   0 5036.41 113.951   4
   4   1   0 5569.04 116.850   3
   4   1   0 5626.01 132.186   1
   4   1   0 5202.70 114.881   6
   4   1   0 5641.79 133.566   1
   4   1   0 5575.73 117.359   5
  -5  -1   0 82.3546 7.03309   3
  -5  -1   0 73.0124 4.59716   4
   5   1   0 70.2380 7.53715   2
   5   1   0 69.1907 14.4974   1
   5   1   0 78.2193 8.18423   3
   5   1   0 80.4968 5.37984   6
   5   1   0 66.9260 7.64986   5
   5   1   0 74.4463 4.46384   4
   5   1   0 64.9107 15.0589   1
  -6  -1   0 1454.22 39.5248   3
   6   1   0 1498.16 63.8486   1
   6   1   0 1483.77 39.2132   3
   6   1   0 1528.04 41.2378   2
   6   1   0 1530.14 34.4772   4
   6   1   0 1505.63 39.9623   5
   6   1   0 1489.38 36.4201   6
   6   1   0 1502.15 61.3972   1
  -7  -1   0 557.267 21.4424   3
   7   1   0 562.093 23.2047   5
   7   1   0 571.762 17.8102   6
   7   1   0 579.322 46.9448   1
   7   1   0 505.065 49.2945   1
   7   1   0 556.637 14.9314   4
   7   1   0 553.683 20.8358   3
   7   1   0 561.726 21.8930   2
  -8  -1   0 236.594 15.8456   3
   8   1   0 145.082 57.2739   1
   8   1   0 142.908 33.7539   1
   8   1   0 195.815 16.3968   2
   8   1   0 228.990 7.73631   4
   8   1   0 236.043 11.9931   6
  -9  -1   0 365.495 20.9170   3
   9   1   0 332.258 22.7578   2
   9   1   0 327.941 15.5693   6
 -10  -1   0 -19.195 10.9231   3
  10   1   0 3.99163 7.65560   6
  10   1   0 -10.806 12.7320   2
 -11  -1   0 110.747 19.0871   3
  11   1   0 131.516 22.5780   2
  10  -2   0 43.3591 18.7204   5
  10  -2   0 29.7515 22.0953   2
 -10   2   0 57.4134 19.2997   3
   9  -2   0 7.62331 14.9645   2
  -9   2   0 -7.1545 11.9189   3
   8  -2   0 102.697 15.7358   2
   8  -2   0 119.271 10.5524   6
  -8   2   0 98.5259 13.6761   3
  -8   2   0 90.2463 9.09411   4
   7  -2   0 11.5542 5.04957   6
   7  -2   0 -12.107 43.2302   1
  -7   2   0 13.5965 6.37591   6
  -7   2   0 11.6088 4.04754   4
   6  -2   0 115.285 40.2470   1
   6  -2   0 39.2280 31.0239   1
   6  -2   0 101.378 7.19336   4
   6  -2   0 92.0637 7.93210   6
   6  -2   0 109.147 12.0329   3
   6  -2   0 103.877 12.4398   2
   6  -2   0 98.2504 10.9380   5
  -6   2   0 99.5232 7.12657   4
  -6   2   0 101.475 8.35745   6
  -6   2   0 99.4816 11.1794   3
  -6   2   0 136.180 15.9568   2
   5  -2   0 51.4663 28.1553   1
   5  -2   0 54.8298 5.44847   4
   5  -2   0 44.9751 5.00165   6
   5  -2   0 49.0095 7.66789   3
   5  -2   0 49.6832 7.32114   5
   5  -2   0 47.6479 24.4311   1
   5  -2   0 45.8203 8.09311   2
  -5   2   0 50.7187 5.24420   6
  -5   2   0 59.1387 7.72416   3
  -5   2   0 56.4712 7.84971   2
  -5   2   0 50.1014 5.30646   4
   4  -2   0 11.9076 18.3355   1
   4  -2   0 16.8512 17.5585   1
   4  -2   0 19.5632 5.97157   2
   4  -2   0 29.3624 3.94537   6
   4  -2   0 21.5263 5.47062   3
   4  -2   0 28.6181 3.52458   4
  -4   2   0 22.2191 3.65598   6
  -4   2   0 27.8611 6.06665   2
  -4   2   0 27.5387 5.28860   3
  -4   2   0 23.5875 3.34240   4
   3  -2   0 30.0104 4.72887   3
   3  -2   0 34.6317 3.68420   6
   3  -2   0 32.6753 3.46082   4
   3  -2   0 44.6384 4.88243   5
   3  -2   0 39.9700 16.1916   1
   3  -2   0 30.1193 5.17039   2
   3  -2   0 57.1327 16.3533   1
  -3   2   0 43.7981 4.65059   6
  -3   2   0 38.0143 4.80971   3
  -3   2   0 37.6538 3.91247   4
  -3   2   0 41.7639 5.67540   2
   2  -2   0 36.2898 3.59232   4
   2  -2   0 43.1303 5.20576   2
   2  -2   0 36.3072 4.23976   3
   2  -2   0 17.0957 11.7714   1
   2  -2   0 30.5529 3.56872   5
   2  -2   0 44.0266 4.17321   6
   2  -2   0 26.9971 11.1078   1
  -2   2   0 35.9124 3.88849   3
  -2   2   0 42.8300 4.95293   2
  -2   2   0 40.1847 4.33541   6
  -2   2   0 39.8041 3.73652   4
   1  -2   0 38.5086 3.28578   4
   1  -2   0 29.3811 9.18382   1
   1  -2   0 43.1725 4.10830   3
   1  -2   0 41.4321 9.60678   1
   1  -2   0 45.7391 4.95818   2
   1  -2   0 32.8737 3.33613   6
   1  -2   0 36.3796 2.69816   5
  -1   2   0 39.3272 3.63026   4
  -1   2   0 41.5471 4.78192   2
  -1   2   0 41.8697 3.99660   3
  -1   2   0 44.2188 3.61979   6
   0  -2   0 1143.57 26.0821   4
   0  -2   0 1134.71 37.5967   1
   0  -2   0 1102.68 25.8612   3
   0   2   0 1087.53 25.8893   3
   0   2   0 1138.94 26.3924   2
   0   2   0 1118.30 25.9971   6
  -1  -2   0 274.339 8.28687   2
  -1  -2   0 290.732 7.92314   3
  -1  -2   0 299.647 13.3837   1
   1   2   0 275.689 8.30837   2
   1   2   0 289.357 8.00599   3
   1   2   0 280.075 6.89627   5
   1   2   0 272.521 13.0377   1
   1   2   0 289.594 8.40739   6
  -2  -2   0 524.804 13.8747   1
   2   2   0 482.153 13.3751   2
   2   2   0 499.191 12.8224   5
   2   2   0 510.636 13.5858   1
  -3  -2   0 1178.24 27.6776   3
   3   2   0 1153.93 29.4791   1
   3   2   0 1124.45 27.1180   4
   3   2   0 1137.76 27.8417   5
   3   2   0 1193.34 27.5541   3
  -4  -2   0 6.05008 2.77875   3
   4   2   0 7.54673 2.87229   3
   4   2   0 6.56418 3.22813   5
   4   2   0 8.20256 2.43837   6
   4   2   0 8.89410 5.80686   1
   4   2   0 12.4910 2.56521   4
   4   2   0 5.31680 5.49756   1
  -5  -2   0 1254.15 32.8564   3
   5   2   0 1277.96 34.0819   2
   5   2   0 1289.31 44.9280   1
   5   2   0 1217.12 31.0966   6
   5   2   0 1274.91 43.5562   1
   5   2   0 1363.35 33.0556   3
   5   2   0 1287.39 30.5292   4
   5   2   0 1315.09 33.7664   5
  -6  -2   0 350.286 14.4122   3
   6   2   0 346.447 11.2593   4
   6   2   0 350.710 12.4477   6
   6   2   0 358.317 14.6467   3
   6   2   0 376.784 27.5251   1
   6   2   0 341.968 15.3981   2
   6   2   0 316.170 28.6495   1
   6   2   0 372.546 15.7803   5
  -7  -2   0 312.983 15.2029   3
   7   2   0 312.930 12.5922   6
   7   2   0 304.529 15.4678   3
   7   2   0 306.700 35.8371   1
   7   2   0 314.430 33.9063   1
   7   2   0 321.762 10.8094   4
   7   2   0 295.738 17.0868   5
   7   2   0 310.775 16.3670   2
  -8  -2   0 591.622 23.7738   3
   8   2   0 663.702 54.3640   1
   8   2   0 606.859 19.7899   6
   8   2   0 627.647 50.6149   1
   8   2   0 605.257 16.6401   4
   8   2   0 594.209 24.6485   3
   8   2   0 621.097 25.7559   2
   9   2   0 6.07304 9.51435   2
   9   2   0 3.41130 3.05336   4
   9   2   0 6.64703 6.28936   6
 -10  -2   0 198.674 19.4646   3
  10   2   0 200.560 15.2334   6
  10   2   0 215.939 21.5200   2
 -11  -2   0 29.8474 14.6292   3
  11   2   0 12.5407 15.3333   2
   9  -3   0 57.1743 17.7467   2
   9  -3   0 62.6406 16.7033   5
  -9   3   0 55.1671 15.6526   3
   8  -3   0 75.7248 15.2917   2
   8  -3   0 81.2308 8.71209   6
  -8   3   0 70.0813 13.2594   3
   7  -3   0 79.7554 14.1221   2
   7  -3   0 71.0091 7.48847   6
  -7   3   0 66.9223 11.5561   3
  -7   3   0 63.2151 8.21134   6
  -7   3   0 76.0101 8.87977   4
   6  -3   0 512.168 21.9877   5
   6  -3   0 616.209 68.5006   1
   6  -3   0 531.037 24.7941   2
   6  -3   0 473.165 64.2583   1
   6  -3   0 504.943 17.5286   6
  -6   3   0 501.955 16.9420   4
  -6   3   0 550.180 23.1519   3
   5  -3   0 9.48036 6.51433   5
   5  -3   0 4.69230 7.17761   2
   5  -3   0 3.97505 4.04720   4
   5  -3   0 24.1076 29.4177   1
   5  -3   0 4.48832 7.11177   3
   5  -3   0 4.01313 3.95519   6
   5  -3   0 19.3332 32.5654   1
  -5   3   0 8.69755 3.84707   4
  -5   3   0 -2.5672 4.47771   6
  -5   3   0 -3.8169 7.70219   2
  -5   3   0 6.96614 5.61712   3
   4  -3   0 331.226 16.5611   2
   4  -3   0 331.257 46.2558   1
   4  -3   0 334.949 15.4991   3
   4  -3   0 355.227 13.6720   5
   4  -3   0 339.337 45.4987   1
   4  -3   0 355.974 12.3462   4
   4  -3   0 349.062 12.5211   6
  -4   3   0 338.321 12.1684   4
  -4   3   0 332.160 12.7331   6
  -4   3   0 307.963 16.1027   2
  -4   3   0 330.630 15.0070   3
   3  -3   0 593.180 19.4648   3
   3  -3   0 582.559 20.4603   2
   3  -3   0 613.556 44.9596   1
   3  -3   0 608.922 44.6303   1
   3  -3   0 583.950 17.1311   6
   3  -3   0 565.971 17.2298   5
   3  -3   0 603.841 17.0845   4
  -3   3   0 585.008 20.1528   2
  -3   3   0 577.700 17.2572   6
  -3   3   0 579.505 19.1533   3
  -3   3   0 599.081 17.0016   4
   2  -3   0 62.3183 5.11758   4
   2  -3   0 69.4743 18.2571   1
   2  -3   0 87.0810 17.8392   1
   2  -3   0 57.0412 6.68165   2
   2  -3   0 82.2456 5.50732   6
   2  -3   0 65.0228 4.49114   5
   2  -3   0 70.9269 5.72718   3
  -2   3   0 70.2350 5.13380   4
  -2   3   0 75.2472 7.26610   2
  -2   3   0 73.6990 5.92201   6
  -2   3   0 64.4834 6.08484   3
   1  -3   0 1769.66 41.3294   3
   1  -3   0 1720.91 62.6752   1
   1  -3   0 1676.31 40.4796   6
   1  -3   0 1717.92 38.6582   5
   1  -3   0 1736.32 42.0498   2
   1  -3   0 1902.95 65.0976   1
   1  -3   0 1785.47 40.7137   4
  -1   3   0 1700.20 40.6421   4
  -1   3   0 1738.31 41.9504   2
  -1   3   0 1769.07 40.8053   6
  -1   3   0 1737.26 41.2122   3
   0  -3   0 18.9713 3.22066   3
   0  -3   0 15.8938 3.05410   4
   0  -3   0 18.1336 2.92132   6
   0  -3   0 11.3034 2.97675   2
   0  -3   0 19.1121 8.78164   1
   0  -3   0 19.2565 1.29525   5
   0  -3   0 14.5124 9.01966   1
   0   3   0 16.1468 2.85439   3
   0   3   0 18.6486 2.97496   4
   0   3   0 20.3345 3.12368   6
   0   3   0 18.4551 3.58843   2
  -1  -3   0 359.834 10.5211   3
  -1  -3   0 363.782 11.1599   6
  -1  -3   0 363.901 11.1134   2
  -1  -3   0 371.599 19.9582   1
   1   3   0 347.638 10.5190   3
   1   3   0 357.535 8.23133   5
   1   3   0 372.789 11.2134   2
   1   3   0 365.769 11.1230   4
   1   3   0 351.831 10.8635   6
  -2  -3   0 415.698 17.4330   1
  -2  -3   0 408.984 12.3642   2
   2   3   0 401.460 11.7426   3
   2   3   0 434.028 12.4874   6
   2   3   0 418.231 10.7974   5
   2   3   0 417.996 12.3032   2
  -3  -3   0 1.26686 2.40371   1
   3   3   0 1.67712 2.41964   2
   3   3   0 2.35338 2.44889   6
   3   3   0 2.20577 2.06360   5
   3   3   0 -0.4089 1.95575   3
   4   3   0 10.8546 2.88768   4
   4   3   0 1.90534 2.34034   3
   4   3   0 1.56891 2.71697   5
   4   3   0 5.71078 3.40335   2
   5   3   0 0.26731 5.27098   1
   5   3   0 2.71662 3.19643   3
   5   3   0 -1.2934 2.62451   4
   5   3   0 -1.4469 2.32751   6
   5   3   0 6.06948 3.98639   5
   5   3   0 11.5616 5.22165   1
  -6  -3   0 3.06825 3.84960   3
   6   3   0 7.87987 4.46733   2
   6   3   0 -3.7018 4.68583   5
   6   3   0 11.0979 9.02204   1
   6   3   0 -6.4174 8.29672   1
   6   3   0 0.00538 2.99046   6
   6   3   0 1.92116 4.37171   3
   6   3   0 -0.4662 3.21608   4
  -7  -3   0 67.5868 7.88218   3
   7   3   0 77.9322 7.55402   6
   7   3   0 99.1507 7.48412   4
   7   3   0 45.6896 15.0264   1
   7   3   0 73.3955 14.8026   1
   7   3   0 65.4403 8.29910   3
   7   3   0 74.6942 9.15019   2
   7   3   0 70.2921 9.29670   5
  -8  -3   0 8.59524 5.95614   3
   8   3   0 -17.461 18.0902   1
   8   3   0 7.44886 20.3803   1
   8   3   0 3.37829 4.74803   6
   8   3   0 5.71825 7.25426   2
   8   3   0 -8.8817 7.80034   3
   8   3   0 1.47359 4.12071   4
  -9  -3   0 41.3204 9.27164   3
   9   3   0 48.0931 11.0981   2
   9   3   0 40.6071 5.57176   4
   9   3   0 45.8826 7.85979   6
   9   3   0 31.7978 24.7145   1
   9   3   0 47.2433 5.12444   4
 -10  -3   0 44.3090 11.5142   3
  10   3   0 33.1307 12.9999   2
  10   3   0 52.3447 9.51104   6
  11   3   0 -15.696 14.8304   2
   9  -4   0 49.6666 19.6666   5
   8  -4   0 6.25050 14.8346   2
   8  -4   0 2.16193 12.5870   5
  -8   4   0 18.6908 13.8635   3
   7  -4   0 175.815 13.5243   6
   7  -4   0 215.763 22.6299   2
   7  -4   0 202.053 20.3462   5
  -7   4   0 235.925 13.5316   4
  -7   4   0 210.939 19.7805   3
   6  -4   0 16.5143 8.45958   2
   6  -4   0 -6.1616 10.4812   5
   6  -4   0 -62.296 54.7733   1
   6  -4   0 8.33610 5.65161   6
  -6   4   0 21.0530 5.92295   4
  -6   4   0 3.56349 7.31349   6
  -6   4   0 17.1023 7.46387   3
   5  -4   0 570.870 20.9900   5
   5  -4   0 469.946 70.5264   1
   5  -4   0 543.351 18.5171   6
   5  -4   0 528.481 65.7386   1
   5  -4   0 559.061 25.1992   2
  -5   4   0 531.274 22.7903   3
  -5   4   0 557.698 19.5995   6
  -5   4   0 546.489 18.3071   4
   4  -4   0 597.096 19.3023   5
   4  -4   0 545.269 18.1744   6
   4  -4   0 517.876 56.6458   1
   4  -4   0 539.031 64.4484   1
   4  -4   0 588.453 23.7097   2
   4  -4   0 556.476 22.0524   3
  -4   4   0 576.504 21.5812   3
  -4   4   0 555.890 18.2149   4
  -4   4   0 545.715 21.9755   2
   3  -4   0 600.417 22.3554   2
   3  -4   0 572.758 53.7232   1
   3  -4   0 672.093 52.5852   1
   3  -4   0 602.530 21.3461   3
   3  -4   0 645.672 19.2838   4
   3  -4   0 604.737 18.4595   5
   3  -4   0 618.638 19.1215   6
  -3   4   0 619.100 19.0137   4
  -3   4   0 659.425 22.8316   2
  -3   4   0 612.615 19.3152   6
  -3   4   0 646.972 21.3996   3
   2  -4   0 2408.12 90.5876   1
   2  -4   0 2288.65 57.1503   2
   2  -4   0 2301.55 89.5468   1
   2  -4   0 2403.32 54.9483   4
   2  -4   0 2383.78 56.4778   3
   2  -4   0 2330.94 54.8352   6
   2  -4   0 2292.10 52.8225   5
  -2   4   0 2362.48 55.0986   6
  -2   4   0 2342.99 56.3759   3
  -2   4   0 2434.24 57.4779   2
  -2   4   0 2254.81 54.7593   4
   1  -4   0 0.87058 3.17925   4
   1  -4   0 0.16490 1.59250   5
   1  -4   0 1.94268 3.65711   3
   1  -4   0 0.08158 2.69692   6
   1  -4   0 0.11961 13.4021   1
   1  -4   0 -0.5614 14.5853   1
   1  -4   0 -1.0105 1.88442   5
   1  -4   0 3.08624 4.05820   2
  -1   4   0 5.59499 3.43521   6
  -1   4   0 1.86993 2.97580   4
  -1   4   0 1.32642 2.85949   3
  -1   4   0 1.23053 3.50834   2
   0  -4   0 1501.63 58.1862   1
   0  -4   0 1531.16 38.0840   2
   0  -4   0 1478.73 32.9800   5
   0  -4   0 1550.46 37.4044   3
   0  -4   0 1568.98 59.7514   1
   0  -4   0 1520.44 37.4271   6
   0   4   0 1539.01 37.6446   4
   0   4   0 1606.21 38.3841   2
   0   4   0 1605.04 37.4164   3
   0   4   0 1556.23 37.5010   6
  -1  -4   0 1538.98 37.8400   2
  -1  -4   0 1544.64 37.6752   6
  -1  -4   0 1589.83 37.1239   3
  -1  -4   0 1537.39 54.4185   1
   1   4   0 1594.67 37.9258   2
   1   4   0 1555.80 37.0052   3
   1   4   0 1637.07 37.8146   6
   1   4   0 1540.23 37.9861   4
  -2  -4   0 981.240 25.4450   2
  -2  -4   0 992.315 36.2556   1
  -2  -4   0 990.090 36.5854   1
   2   4   0 982.688 25.3836   2
   2   4   0 970.825 24.4363   3
   2   4   0 962.365 25.4740   4
   2   4   0 983.446 22.3702   5
   2   4   0 1007.92 25.6162   6
  -3  -4   0 1340.12 38.1493   1
  -3  -4   0 1295.09 38.4238   1
  -3  -4   0 1297.81 32.7892   2
   3   4   0 1288.31 32.7747   4
   3   4   0 1305.88 32.7172   6
   3   4   0 1329.94 30.8749   5
   3   4   0 1308.30 31.6838   3
   3   4   0 1386.53 32.9692   2
   4   4   0 108.364 7.03639   6
   4   4   0 108.900 7.39172   2
   4   4   0 100.430 6.14951   3
   4   4   0 106.121 6.61825   5
   5   4   0 644.778 22.2112   6
   5   4   0 699.547 21.5056   2
   5   4   0 708.980 19.9812   3
   5   4   0 717.010 20.2824   4
   6   4   0 276.744 11.8933   6
   6   4   0 303.976 14.1018   5
   6   4   0 299.833 12.1254   4
   6   4   0 300.118 12.5020   3
   6   4   0 298.568 13.9265   2
   6   4   0 283.003 12.4561   6
   7   4   0 41.6797 7.81708   2
   7   4   0 44.0215 8.98832   2
   7   4   0 34.2155 5.86706   4
   7   4   0 33.9839 6.72270   3
   7   4   0 38.1716 6.28218   6
   7   4   0 37.6334 6.26027   6
   7   4   0 59.1059 8.21448   5
   8   4   0 34.6798 8.77318   5
   8   4   0 32.6143 10.7747   2
   8   4   0 37.8729 6.53804   4
   8   4   0 51.7100 9.00764   2
   8   4   0 53.7300 9.32149   3
   8   4   0 54.5326 8.40079   6
   8   4   0 43.5874 6.94373   6
   9   4   0 5.03209 6.91319   4
   9   4   0 -5.3064 8.65485   6
   9   4   0 5.96861 5.01818   4
   9   4   0 5.52232 6.29345   6
  10   4   0 9.51015 8.66772   6
  10   4   0 7.72122 11.0935   2
  10   4   0 5.74697 5.35764   4
  11   4   0 8.96577 11.1022   6
  11   4   0 14.5567 14.3629   2
  12   4   0 -10.051 23.2814   2
   8  -5   0 82.0169 17.2481   5
   8  -5   0 49.6678 20.6073   2
  -8   5   0 49.5311 18.3245   3
   7  -5   0 31.1120 9.42698   6
   7  -5   0 12.5770 13.9909   2
   7  -5   0 59.3739 13.3892   5
  -7   5   0 45.3391 12.7132   3
   6  -5   0 169.853 16.6635   5
   6  -5   0 168.556 13.5584   6
   6  -5   0 144.159 16.6777   5
   6  -5   0 173.932 20.3872   2
  -6   5   0 179.870 13.9126   4
  -6   5   0 190.148 18.2564   3
   5  -5   0 244.633 17.2927   5
   5  -5   0 185.634 61.1011   1
   5  -5   0 208.298 67.3482   1
   5  -5   0 249.505 13.9289   6
   5  -5   0 287.147 15.1414   5
   5  -5   0 277.546 20.2204   2
  -5   5   0 267.233 14.2651   4
  -5   5   0 297.486 18.8511   3
  -5   5   0 285.975 16.4097   6
   4  -5   0 56.3701 7.26205   5
   4  -5   0 48.5713 11.1582   3
   4  -5   0 73.7561 38.8203   1
   4  -5   0 73.0126 8.31286   5
   4  -5   0 63.1505 11.0816   2
   4  -5   0 121.366 47.0036   1
   4  -5   0 62.7721 7.34742   6
  -4   5   0 42.1845 12.1165   2
  -4   5   0 65.7825 7.50442   4
  -4   5   0 57.9552 8.58060   6
  -4   5   0 60.0599 9.39123   3
   3  -5   0 1123.09 31.2270   6
   3  -5   0 1139.04 34.3415   3
   3  -5   0 1179.57 79.1148   1
   3  -5   0 1018.19 72.3398   1
   3  -5   0 1133.10 29.8029   5
   3  -5   0 1115.99 29.3271   5
   3  -5   0 1140.51 34.6625   2
  -3   5   0 1140.44 31.4169   4
  -3   5   0 1151.15 33.8319   3
  -3   5   0 1123.71 34.4515   2
  -3   5   0 1177.10 32.2356   6
   2  -5   0 -1.1061 3.86428   6
   2  -5   0 -24.175 21.8952   1
   2  -5   0 3.56772 5.25811   3
   2  -5   0 -0.2794 4.19049   2
   2  -5   0 9.33500 3.13883   5
   2  -5   0 8.87332 24.7689   1
   2  -5   0 5.59297 3.01365   5
  -2   5   0 9.54113 4.20808   4
  -2   5   0 2.43392 4.87476   6
  -2   5   0 5.77267 5.16481   2
  -2   5   0 7.20768 4.95192   3
   1  -5   0 2173.11 47.1734   5
   1  -5   0 2225.14 52.4885   3
   1  -5   0 1817.92 48.0699   5
   1  -5   0 2158.68 86.6218   1
   1  -5   0 2139.01 51.6843   6
   1  -5   0 2236.38 88.2425   1
   1  -5   0 2187.64 53.5545   2
  -1   5   0 2174.70 52.4726   6
  -1   5   0 2131.00 52.1373   3
  -1   5   0 2168.72 52.0455   4
  -1   5   0 2207.78 53.5844   2
   0  -5   0 1237.94 58.3165   1
   0  -5   0 1331.90 33.1458   3
   0  -5   0 1252.38 32.7947   6
   0  -5   0 1252.93 33.6207   2
   0  -5   0 1238.98 58.7527   1
   0   5   0 1253.80 33.0819   4
   0   5   0 1245.69 32.4954   3
  -1  -5   0 1614.70 40.2910   2
  -1  -5   0 1625.15 39.2873   3
  -1  -5   0 1552.71 39.9293   6
  -1  -5   0 1609.05 62.0596   1
   1   5   0 1575.46 40.2848   4
   1   5   0 1673.38 39.3135   3
   1   5   0 1638.99 40.3586   2
  -2  -5   0 3612.09 79.1422   3
  -2  -5   0 3617.15 80.5707   6
  -2  -5   0 3676.18 99.7573   1
  -2  -5   0 3535.31 80.2861   2
  -2  -5   0 3271.29 106.783   1
   2   5   0 3552.57 80.7856   4
   2   5   0 3536.11 78.9821   3
   2   5   0 3364.84 75.1359   5
   2   5   0 3646.12 80.3840   2
  -3  -5   0 18.6208 9.40076   1
  -3  -5   0 31.4958 4.77700   2
  -3  -5   0 34.1760 11.4801   1
   3   5   0 37.2109 5.14538   2
   3   5   0 33.4306 3.68700   5
   3   5   0 28.7550 4.74344   4
   3   5   0 30.6997 4.38037   6
   3   5   0 32.6195 4.26370   3
  -4  -5   0 3334.17 76.2948   2
  -4  -5   0 3403.69 79.9096   1
  -4  -5   0 3423.77 80.6601   1
   4   5   0 3305.47 74.5911   3
   4   5   0 3258.37 76.0681   4
   4   5   0 3051.98 78.2759   2
   4   5   0 3335.56 73.8222   5
   4   5   0 3362.51 76.2129   6
   5   5   0 673.530 20.4046   5
   5   5   0 701.193 21.4682   4
   5   5   0 687.475 21.0142   4
   5   5   0 698.137 21.4784   6
   5   5   0 678.576 20.1516   3
   5   5   0 674.238 21.8188   2
   6   5   0 861.099 25.8929   4
   6   5   0 916.264 25.4301   3
   6   5   0 866.283 27.4464   2
   6   5   0 888.936 25.5386   4
   6   5   0 894.628 26.3966   6
   6   5   0 881.705 26.2569   5
   7   5   0 855.110 28.6502   2
   7   5   0 850.000 27.6611   5
   7   5   0 837.390 25.0811   4
   7   5   0 885.265 26.1564   3
   7   5   0 843.442 26.2724   6
   7   5   0 833.479 25.6688   4
   7   5   0 813.968 25.6930   6
   8   5   0 5.40209 8.14271   3
   8   5   0 8.93749 5.17827   4
   8   5   0 1.75591 5.74484   6
   8   5   0 -3.2398 10.2875   2
   8   5   0 0.09723 8.88794   5
   8   5   0 -8.8090 6.37129   4
   8   5   0 -2.7150 6.09382   2
   8   5   0 -11.633 6.81953   6
   9   5   0 385.195 18.2197   6
   9   5   0 364.991 17.8670   4
   9   5   0 317.056 21.4247   3
   9   5   0 378.861 20.6411   6
  10   5   0 43.8772 9.97855   6
  10   5   0 47.5806 12.4010   2
  10   5   0 42.9094 7.70171   4
  10   5   0 25.5823 15.7420   6
  11   5   0 54.8034 15.5572   2
  11   5   0 71.2567 13.0233   6
  12   5   0 39.9428 21.0234   2
   7  -6   0 2.23723 14.1755   5
   7  -6   0 -1.2907 18.0734   2
  -7   6   0 9.53084 15.1070   3
   6  -6   0 59.5461 12.0983   5
   6  -6   0 41.7981 9.66951   6
   6  -6   0 57.0425 15.6660   2
  -6   6   0 55.8535 10.2377   4
  -6   6   0 44.8385 13.4015   3
   5  -6   0 0.76980 10.3311   5
   5  -6   0 7.18433 7.99718   5
   5  -6   0 -0.1861 7.24272   6
   5  -6   0 20.8847 11.1062   2
   5  -6   0 -111.48 92.6040   1
  -5   6   0 5.78521 7.12768   4
  -5   6   0 7.60795 9.66201   3
  -5   6   0 2.78026 11.2409   6
   4  -6   0 70.7979 58.2387   1
   4  -6   0 135.539 12.3696   5
   4  -6   0 172.204 51.7596   1
   4  -6   0 131.778 11.8858   6
   4  -6   0 128.115 11.3498   5
  -4   6   0 123.286 12.0450   4
  -4   6   0 137.569 15.2731   6
   3  -6   0 22.4076 36.2480   1
   3  -6   0 8.28939 7.99930   2
   3  -6   0 10.1221 9.17847   3
   3  -6   0 -13.026 43.2618   1
   3  -6   0 25.9510 6.36637   6
   3  -6   0 25.7982 5.33311   5
   3  -6   0 16.7145 5.29950   5
  -3   6   0 16.4749 8.82822   2
  -3   6   0 24.4749 7.39911   3
  -3   6   0 16.0119 6.21223   4
  -3   6   0 27.0598 8.10474   6
   2  -6   0 238.282 43.7854   1
   2  -6   0 355.927 18.0466   2
   2  -6   0 351.445 11.4558   5
   2  -6   0 347.921 17.6211   3
   2  -6   0 358.928 15.3655   6
   2  -6   0 334.925 11.6245   5
   2  -6   0 358.077 53.0082   1
  -2   6   0 345.982 15.5400   3
  -2   6   0 356.642 18.8850   2
  -2   6   0 355.351 15.5770   4
  -2   6   0 341.078 16.4049   6
   1  -6   0 350.277 9.73148   5
   1  -6   0 373.855 16.9107   3
   1  -6   0 356.278 9.52922   5
   1  -6   0 405.984 45.9786   1
   1  -6   0 342.033 14.7578   6
   1  -6   0 367.130 49.7436   1
   1  -6   0 349.658 16.5388   2
  -1   6   0 352.570 16.1960   2
  -1   6   0 364.608 16.0465   6
  -1   6   0 338.540 15.2327   3
  -1   6   0 358.963 15.2308   4
   0  -6   0 322.777 14.9471   2
   0  -6   0 325.255 14.1336   6
   0  -6   0 277.205 39.5912   1
   0  -6   0 335.103 14.7508   3
   0  -6   0 343.731 39.1862   1
   0   6   0 342.016 14.8555   6
   0   6   0 338.558 14.4370   4
   0   6   0 337.184 13.9528   3
   0   6   0 360.883 16.1395   2
  -1  -6   0 1053.95 40.4719   3
  -1  -6   0 1323.91 62.0861   1
  -1  -6   0 1251.88 33.7576   6
  -1  -6   0 1254.31 34.1039   2
   1   6   0 1280.94 34.3183   2
   1   6   0 1253.89 32.6689   3
   1   6   0 1234.09 33.9567   4
   1   6   0 1293.85 34.0704   6
  -2  -6   0 53.1520 17.1196   1
  -2  -6   0 80.2221 6.81603   6
  -2  -6   0 84.1075 7.76195   2
  -2  -6   0 66.6356 6.89494   3
  -2  -6   0 97.0672 18.9769   1
   2   6   0 69.2550 8.12897   2
   2   6   0 68.5254 6.56764   3
   2   6   0 71.8151 8.32680   6
   2   6   0 66.6395 7.63605   4
  -3  -6   0 2054.65 69.8060   1
  -3  -6   0 2126.44 69.7494   1
  -3  -6   0 2180.37 52.6310   2
   3   6   0 2175.40 50.9592   3
   3   6   0 2146.26 52.3660   2
   3   6   0 2128.27 53.0248   4
   3   6   0 2143.95 47.3104   5
   3   6   0 2199.54 52.9106   6
  -4  -6   0 231.440 21.5206   1
  -4  -6   0 284.083 22.8573   1
  -4  -6   0 272.899 12.6312   2
   4   6   0 262.777 9.72121   5
   4   6   0 262.082 12.8040   2
   4   6   0 275.541 11.3799   3
   4   6   0 255.361 13.0357   6
   4   6   0 242.179 11.8317   4
   5   6   0 1171.78 32.9998   2
   5   6   0 1180.44 31.1970   3
   5   6   0 1137.44 30.2539   5
   5   6   0 1165.77 32.8272   4
   5   6   0 1181.81 33.1729   6
   5   6   0 1217.09 31.2525   3
   6   6   0 1212.00 34.4131   4
   6   6   0 1203.90 33.5305   4
   6   6   0 1153.79 32.2300   3
   6   6   0 1194.12 32.9341   5
   6   6   0 1225.72 34.4485   6
   6   6   0 1177.52 34.7549   2
   6   6   0 1228.49 32.6436   3
   7   6   0 36.6769 8.20900   5
   7   6   0 39.3944 9.54241   2
   7   6   0 32.9747 6.98808   6
   7   6   0 45.6037 8.34024   4
   7   6   0 38.5264 6.80037   4
   7   6   0 44.9931 8.87338   6
   7   6   0 42.6254 7.72398   3
   8   6   0 740.675 26.3661   4
   8   6   0 728.067 24.4752   4
   8   6   0 713.300 25.5089   6
   8   6   0 710.259 29.4328   2
   8   6   0 754.582 28.4532   5
   8   6   0 730.150 25.5990   3
   8   6   0 832.217 28.2943   6
   9   6   0 100.539 11.3574   6
   9   6   0 74.9704 14.3784   2
   9   6   0 81.9747 13.3091   3
   9   6   0 41.9402 12.5912   6
   9   6   0 81.5857 11.3749   4
   9   6   0 64.9971 9.10424   4
  10   6   0 175.164 14.8043   4
  10   6   0 189.583 20.5717   2
  10   6   0 189.071 18.0535   6
  11   6   0 136.130 18.9737   2
  11   6   0 190.886 21.1939   6
  12   6   0 15.1037 20.1080   2
   6  -7   0 38.0724 18.6977   2
   6  -7   0 39.3753 20.0419   6
  -6   7   0 24.4325 15.5381   3
   5  -7   0 -12.924 13.0459   2
   5  -7   0 -13.245 9.11300   5
   5  -7   0 2.45035 9.43395   6
  -5   7   0 -4.6850 10.8605   3
  -5   7   0 4.58146 9.67844   4
   4  -7   0 71.4975 13.7803   2
   4  -7   0 84.2506 10.8984   6
   4  -7   0 78.0231 9.00524   5
  -4   7   0 73.4329 12.4049   3
  -4   7   0 80.6800 11.1250   4
  -4   7   0 67.7996 13.8057   6
   3  -7   0 6.64270 5.55659   5
   3  -7   0 -26.203 47.9014   1
   3  -7   0 6.22717 6.80572   6
   3  -7   0 10.8176 5.08630   5
   3  -7   0 7.58448 11.0590   2
  -3   7   0 25.6904 10.8589   6
  -3   7   0 -2.8353 7.26004   4
   2  -7   0 14.5304 38.8718   1
   2  -7   0 -11.770 45.4417   1
   2  -7   0 22.5429 8.41934   2
   2  -7   0 38.3110 10.7162   3
   2  -7   0 37.5960 4.28255   5
   2  -7   0 40.8036 7.79293   6
   2  -7   0 31.9773 4.17752   5
  -2   7   0 32.2933 7.36023   4
  -2   7   0 42.0310 9.67158   6
  -2   7   0 34.6327 7.91998   3
   1  -7   0 38.6541 8.61599   2
   1  -7   0 45.5668 7.32063   6
   1  -7   0 26.6612 32.4781   1
   1  -7   0 90.9126 39.3445   1
   1  -7   0 43.2083 9.14867   3
  -1   7   0 44.5481 7.68625   3
  -1   7   0 54.5481 10.3499   2
  -1   7   0 48.5753 9.40570   6
  -1   7   0 31.5880 7.21771   4
   0  -7   0 62.4277 8.73145   3
   0  -7   0 49.2010 29.8953   1
   0  -7   0 62.8773 7.78410   6
   0  -7   0 66.8408 30.1389   1
   0  -7   0 50.5627 8.17080   2
   0   7   0 49.5334 9.63904   2
   0   7   0 68.3403 8.94121   6
   0   7   0 57.1550 7.99129   4
   0   7   0 54.5355 7.51011   3
  -1  -7   0 37.3466 6.89661   2
  -1  -7   0 26.7907 22.0631   1
  -1  -7   0 23.4703 5.88664   6
  -1  -7   0 25.9405 6.66728   3
   1   7   0 22.8097 7.51023   2
   1   7   0 29.3551 6.31745   4
   1   7   0 26.3503 7.33501   6
   1   7   0 33.2226 5.89194   3
  -2  -7   0 376.644 15.4947   3
  -2  -7   0 325.129 38.7254   1
  -2  -7   0 360.975 39.7847   1
  -2  -7   0 379.588 16.0710   2
   2   7   0 366.085 16.5852   2
   2   7   0 326.466 16.0820   6
   2   7   0 356.944 16.1468   4
   2   7   0 378.177 14.6940   3
  -3  -7   0 59.7033 7.60093   2
  -3  -7   0 60.2694 20.2578   1
  -3  -7   0 70.2601 20.4200   1
   3   7   0 77.0798 8.88794   6
   3   7   0 54.1784 7.58110   4
   3   7   0 71.4529 8.67579   2
   3   7   0 75.5869 8.03732   3
  -4  -7   0 294.514 14.1209   2
  -4  -7   0 314.481 31.6470   1
  -4  -7   0 331.862 31.9135   1
   4   7   0 279.161 14.9647   6
   4   7   0 291.165 14.6309   4
   4   7   0 308.645 14.9933   2
   4   7   0 286.318 12.9804   3
   4   7   0 304.544 10.1142   5
  -5  -7   0 331.694 24.0874   1
  -5  -7   0 327.460 15.3339   2
  -5  -7   0 293.366 24.0061   1
   5   7   0 327.611 16.5147   2
   5   7   0 323.752 13.7036   3
   5   7   0 318.024 12.4183   5
   5   7   0 328.441 16.9058   6
   5   7   0 314.991 15.5740   4
   6   7   0 101.841 10.6583   4
   6   7   0 98.9716 10.4978   6
   6   7   0 96.9963 10.8794   4
   6   7   0 102.263 9.54138   3
   6   7   0 85.9117 8.97215   3
   6   7   0 102.622 9.71550   5
   6   7   0 105.988 12.5039   2
   7   7   0 559.092 21.4290   5
   7   7   0 561.272 21.7539   4
   7   7   0 593.432 24.3434   4
   7   7   0 608.600 21.3989   3
   7   7   0 575.478 24.4533   2
   7   7   0 569.375 24.1339   6
   7   7   0 576.159 20.7480   3
   8   7   0 23.2420 11.2742   5
   8   7   0 58.0265 10.4641   3
   8   7   0 43.8271 11.5523   4
   8   7   0 50.4847 8.83254   6
   8   7   0 49.4876 8.70778   4
   9   7   0 463.267 20.6567   4
   9   7   0 386.635 24.4212   3
   9   7   0 420.517 22.2089   6
   9   7   0 456.443 23.6920   2
   9   7   0 391.259 24.0451   4
  10   7   0 112.047 15.8466   2
  10   7   0 144.399 15.7540   4
  10   7   0 119.055 14.1838   6
  11   7   0 30.1069 13.3343   6
  11   7   0 67.1853 16.4943   2
   5  -8   0 66.3463 13.8189   6
   5  -8   0 53.3098 18.1765   2
  -5   8   0 39.2292 14.2730   4
  -5   8   0 29.0894 16.2569   3
   4  -8   0 55.3005 15.6694   2
  -4   8   0 77.9418 12.9178   4
  -4   8   0 71.3338 13.7146   3
   3  -8   0 11.7392 8.79435   6
   3  -8   0 0.33055 4.73435   5
   3  -8   0 27.3584 11.9304   2
  -3   8   0 4.14172 9.90217   3
   2  -8   0 148.915 15.1704   6
   2  -8   0 138.316 15.6837   2
   2  -8   0 142.580 57.2488   1
  -2   8   0 162.116 15.0231   4
   1  -8   0 1.84313 6.88111   6
   1  -8   0 4.30657 11.9951   3
   1  -8   0 -7.3170 7.92358   2
   1  -8   0 -24.693 42.9641   1
  -1   8   0 -2.9952 6.70975   4
  -1   8   0 -6.2544 6.85859   3
  -1   8   0 -14.343 10.1456   6
   0  -8   0 88.4137 11.6918   3
   0  -8   0 53.5334 9.74590   2
   0  -8   0 66.4602 9.22578   6
   0  -8   0 83.1641 38.8715   1
   0  -8   0 67.6324 45.6938   1
   0   8   0 73.0978 9.83967   4
   0   8   0 70.0260 12.1401   2
   0   8   0 39.7922 10.8518   6
   0   8   0 70.5959 9.03751   3
  -1  -8   0 112.878 53.4078   1
  -1  -8   0 127.833 12.6222   2
  -1  -8   0 110.476 12.9374   3
  -1  -8   0 56.7823 31.7413   1
  -1  -8   0 112.831 11.7892   6
   1   8   0 109.068 11.9229   6
   1   8   0 111.365 11.9696   4
   1   8   0 137.798 11.6664   3
   1   8   0 106.484 12.5736   2
  -2  -8   0 25.9444 28.9889   1
  -2  -8   0 42.8563 28.8192   1
  -2  -8   0 32.4541 7.99008   2
  -2  -8   0 42.3246 7.81257   3
   2   8   0 33.0809 7.51541   4
   2   8   0 32.3984 6.38368   3
   2   8   0 26.5689 8.65968   6
   2   8   0 28.4407 8.89754   2
  -3  -8   0 308.005 15.4744   2
  -3  -8   0 277.889 36.1348   1
  -3  -8   0 335.500 46.4589   1
   3   8   0 285.403 13.6660   3
   3   8   0 254.023 17.1364   6
   3   8   0 287.717 17.5914   2
   3   8   0 243.529 15.1230   4
  -4  -8   0 2.18408 5.80939   2
  -4  -8   0 10.1495 21.5236   1
  -4  -8   0 -1.6241 19.7077   1
   4   8   0 -7.1156 5.36482   4
   4   8   0 0.60106 7.98519   6
   4   8   0 3.05102 1.89499   5
   4   8   0 -1.4040 4.99264   3
   4   8   0 -2.7610 2.21172   5
   4   8   0 2.59586 7.62013   2
  -5  -8   0 1.89487 5.81682   2
  -5  -8   0 7.31802 17.5699   1
  -5  -8   0 -13.734 16.9564   1
   5   8   0 -4.3269 5.95326   4
   5   8   0 -8.6570 7.64612   2
   5   8   0 10.2518 5.70387   3
   5   8   0 14.5379 9.12045   6
   5   8   0 5.29271 4.19721   5
   6   8   0 -10.230 9.50358   4
   6   8   0 1.56355 5.63540   5
   6   8   0 8.86911 7.04637   4
   6   8   0 22.4030 9.51445   2
   6   8   0 -3.2017 6.83111   3
   6   8   0 8.10084 5.69881   3
   7   8   0 2.09789 11.0991   4
   7   8   0 -32.137 10.5767   2
   7   8   0 -9.9452 6.70557   4
   7   8   0 -10.490 7.53982   5
   7   8   0 11.1067 6.38298   3
   7   8   0 -3.8909 8.21824   3
   8   8   0 22.1158 8.03245   3
   8   8   0 28.0041 10.9068   5
   8   8   0 20.1755 8.50511   4
   8   8   0 15.3486 10.6324   3
   9   8   0 7.80749 13.2463   3
   9   8   0 -2.2300 8.74714   3
   9   8   0 -2.5875 9.52903   6
   9   8   0 -9.2670 8.29389   4
  10   8   0 4.79753 11.2340   6
  10   8   0 7.45653 12.3275   4
  10   8   0 -9.6566 12.2465   2
  11   8   0 29.0086 14.7256   6
  11   8   0 29.4675 16.3808   2
   4  -9   0 11.5559 17.7157   2
  -4   9   0 47.4721 16.6227   3
  -4   9   0 6.32613 13.6774   4
   3  -9   0 87.7423 17.4435   2
   3  -9   0 103.778 13.6432   6
  -3   9   0 97.9654 15.5297   3
  -3   9   0 85.5787 14.7372   4
   2  -9   0 24.1675 10.8566   6
   2  -9   0 25.9641 12.5222   2
  -2   9   0 27.4357 10.8474   4
  -2   9   0 20.3279 10.5347   3
   1  -9   0 201.186 19.0297   2
   1  -9   0 170.757 16.6288   6
  -1   9   0 211.266 17.8616   4
  -1   9   0 182.973 16.8569   3
   0   9   0 252.255 18.3886   4
   0   9   0 300.372 17.8045   3
  -1  -9   0 37.0005 12.2671   3
  -1  -9   0 41.1604 9.65600   2
   1   9   0 36.2250 8.02885   3
  -2  -9   0 471.977 21.9997   2
  -2  -9   0 474.710 22.4091   3
   2   9   0 441.910 24.5653   4
   2   9   0 458.566 19.9842   3
   2   9   0 442.030 23.7035   2
  -3  -9   0 -9.6517 6.78702   2
   3   9   0 0.22486 6.06025   3
   3   9   0 30.8380 11.1503   2
   3   9   0 5.24107 7.72064   4
  -4  -9   0 142.216 14.0412   2
  -4  -9   0 110.083 33.7792   1
   4   9   0 117.558 12.7279   4
   4   9   0 128.729 11.6185   3
   4   9   0 118.362 14.2416   2
  -5  -9   0 254.909 16.4219   2
  -5  -9   0 234.252 32.8062   1
   5   9   0 235.241 8.94515   5
   5   9   0 253.548 14.2949   3
   5   9   0 228.588 16.2043   4
   5   9   0 243.546 19.6387   2
  -6  -9   0 -2.0442 15.6657   1
   6   9   0 0.02631 4.61769   5
   6   9   0 -7.6954 6.49285   3
   6   9   0 -8.8112 8.15004   3
   6   9   0 -6.2420 5.56317   5
   7   9   0 156.454 13.3786   3
   7   9   0 156.706 16.9414   3
   7   9   0 163.398 15.0310   5
   7   9   0 112.749 16.1226   4
   8   9   0 15.4882 9.15644   3
   8   9   0 22.9089 12.1271   5
   8   9   0 10.8070 11.7575   3
   8   9   0 14.5729 9.79848   4
   9   9   0 15.7989 11.0331   4
   9   9   0 24.9021 11.5217   6
   9   9   0 10.1704 10.1810   3
  10   9   0 5.97723 12.7555   4
  10   9   0 25.4074 13.4409   6
  10   9   0 15.9422 15.3533   3
  11   9   0 20.8486 18.7883   3
  11   9   0 7.60510 17.1006   4
  11   9   0 -0.7289 17.9830   2
  11   9   0 25.7389 16.2060   6
   3 -10   0 55.4820 21.0010   2
  -3  10   0 53.5688 18.2106   4
  -3  10   0 64.8291 17.6957   3
   2 -10   0 16.8769 16.1065   2
  -2  10   0 52.8936 14.6087   3
  -2  10   0 55.7840 14.5771   4
   1 -10   0 129.408 17.5741   2
  -1  10   0 170.332 16.9268   3
  -1  10   0 127.933 16.3311   4
   0 -10   0 9.60807 11.7917   2
   0  10   0 10.0737 9.77043   3
   0  10   0 11.3439 10.5130   4
  -1 -10   0 346.937 22.9468   2
   1  10   0 368.433 22.4765   4
   1  10   0 406.130 20.7903   3
  -2 -10   0 7.98970 15.4949   3
  -2 -10   0 55.7695 12.0499   2
   2  10   0 54.9119 9.65102   3
   2  10   0 40.3894 10.4761   4
  -3 -10   0 285.214 31.8863   2
   3  10   0 321.950 17.7178   3
   3  10   0 322.565 20.7076   4
  -4 -10   0 360.536 20.7238   2
   4  10   0 338.396 17.8385   3
   4  10   0 340.790 20.8649   4
  -5 -10   0 56.4280 13.8987   2
   5  10   0 62.7715 9.22206   3
   5  10   0 45.1731 10.5208   4
   6  10   0 460.880 19.8163   3
   6  10   0 412.219 13.6940   5
   6  10   0 435.130 23.6086   4
   6  10   0 405.550 13.9418   5
   7  10   0 26.3912 10.0011   4
   7  10   0 9.37972 6.74465   5
   7  10   0 28.4917 9.01276   3
   8  10   0 189.394 21.0545   4
   8  10   0 193.216 16.1050   5
   8  10   0 213.416 17.8323   3
   9  10   0 120.908 16.0352   4
   9  10   0 133.626 14.7195   5
   9  10   0 123.652 16.9531   6
   9  10   0 116.473 14.4865   3
  10  10   0 17.5761 14.9082   4
  10  10   0 0.43520 15.5642   6
  10  10   0 -2.1130 14.2245   5
   1 -11   0 -19.847 16.7472   2
  -1  11   0 -11.045 14.0586   3
  -1  11   0 -13.947 15.1466   4
   0 -11   0 75.5233 16.7938   2
   0  11   0 97.1452 15.6334   3
   0  11   0 23.0250 14.8907   4
  -1 -11   0 -1.3863 13.2674   2
   1  11   0 25.4807 12.7415   4
   1  11   0 28.4136 11.4131   3
  -2 -11   0 55.0961 13.9658   2
   2  11   0 73.8493 12.8909   3
   2  11   0 66.9866 13.9920   4
  -3 -11   0 111.170 15.3431   2
   3  11   0 108.831 13.5543   3
   3  11   0 112.078 14.8237   4
  -4 -11   0 36.8434 12.8239   2
   4  11   0 43.1306 12.7376   4
   4  11   0 50.5851 10.2147   3
  -5 -11   0 253.042 21.2220   2
   5  11   0 242.571 18.2592   3
   5  11   0 277.917 22.6596   4
  -6 -11   0 15.0110 11.5175   2
   6  11   0 17.7273 9.68036   3
   6  11   0 18.4136 11.4085   4
   7  11   0 251.662 23.0907   4
   7  11   0 260.125 19.3374   3
   8  11   0 83.1053 16.3942   4
   8  11   0 88.2655 13.5818   3
   9  11   0 18.0875 15.8631   4
   9  11   0 39.0574 16.6403   6
  -1 -12   0 4.52322 18.4591   2
   1  12   0 -3.5114 16.9913   4
   1  12   0 39.7749 16.7753   3
  -2 -12   0 65.7649 17.6882   2
   2  12   0 44.4004 17.1675   4
   2  12   0 53.3808 13.6607   3
  -3 -12   0 -23.418 14.0937   2
   3  12   0 10.8508 12.9552   3
   3  12   0 14.6424 14.3598   4
  -4 -12   0 25.0868 14.6629   2
   4  12   0 42.0481 15.6615   4
   4  12   0 23.3522 12.5277   3
  -5 -12   0 11.6879 14.7731   2
   5  12   0 3.39829 13.6319   3
   5  12   0 22.7859 15.4626   4
  -6 -12   0 57.4491 16.1923   2
   6  12   0 85.0600 17.5363   4
   7  12   0 20.0980 16.7203   4
   8  12   0 7.83530 18.2788   4
   8  12  -1 35.9636 20.5758   4
   7  12  -1 39.9621 17.7355   4
   7  12  -1 43.6043 14.6677   3
   6  12  -1 100.633 16.1960   3
   6  12  -1 137.552 20.3408   4
   5  12  -1 6.10163 14.9901   4
   5  12  -1 11.9144 12.8556   3
  -5 -12   1 8.30819 13.9494   2
   4  12  -1 124.602 16.2398   3
   4  12  -1 140.948 19.5288   4
  -4 -12   1 118.379 18.1946   2
   3  12  -1 37.6020 16.0504   4
   3  12  -1 40.6319 13.9660   3
  -3 -12   1 51.2836 15.5104   2
   2  12  -1 57.0333 17.4782   4
   2  12  -1 43.7129 14.1808   3
  -2 -12   1 26.5325 16.1272   2
   1  12  -1 75.1966 19.1658   4
   1  12  -1 69.7921 17.2595   3
  -1 -12   1 30.9021 18.5107   2
   9  11  -1 40.2627 19.0305   3
   9  11  -1 33.1651 17.1560   4
   8  11  -1 52.5791 14.2832   3
   8  11  -1 55.1864 15.1718   4
   7  11  -1 187.811 22.3845   4
   7  11  -1 156.012 19.3710   3
   6  11  -1 19.6073 12.2014   4
   6  11  -1 12.0113 12.6030   3
   5  11  -1 273.988 19.9385   3
   5  11  -1 248.633 21.7415   4
  -5 -11   1 244.215 20.3283   2
   4  11  -1 62.6258 13.7074   4
  -4 -11   1 68.9344 13.0206   2
   3  11  -1 97.8738 13.5568   3
   3  11  -1 101.911 15.5822   4
  -3 -11   1 124.596 15.4206   2
   2  11  -1 175.858 19.4441   3
   2  11  -1 194.724 21.0169   4
  -2 -11   1 205.212 20.9277   2
   1  11  -1 -5.8331 11.2378   4
   1  11  -1 -2.6025 10.9972   3
  -1 -11   1 6.70745 12.1707   2
   0  11  -1 146.359 18.3129   4
   0  11  -1 190.825 21.3477   3
   0 -11   1 144.084 18.6349   2
  -1  11  -1 18.0684 16.1051   3
  -1  11  -1 48.2611 17.2081   4
   1 -11   1 -26.184 16.3015   2
  10  10  -1 -15.092 16.3619   6
  10  10  -1 19.7984 15.5469   5
  10  10  -1 19.7951 17.3357   3
  10  10  -1 3.17327 16.0257   4
  10  10  -1 3.01227 17.5606   2
   9  10  -1 -9.2640 13.0919   6
   9  10  -1 -9.7278 12.8512   3
   9  10  -1 -2.3884 24.6943   5
   9  10  -1 -10.424 14.2190   4
   8  10  -1 14.1529 9.70293   5
   8  10  -1 13.2358 12.2898   4
   8  10  -1 24.0610 13.3927   3
   7  10  -1 13.5462 7.49860   5
   7  10  -1 25.2154 11.4165   4
   7  10  -1 11.1882 9.59209   3
   6  10  -1 58.3316 10.4951   3
   6  10  -1 82.3121 13.4696   4
   6  10  -1 56.1892 5.64985   5
   5  10  -1 22.8124 10.1574   4
   5  10  -1 21.4302 8.90370   3
  -5 -10   1 22.0543 9.91229   2
   4  10  -1 79.7616 12.0883   4
   4  10  -1 74.1238 10.4836   3
  -4 -10   1 70.9946 11.1262   2
   3  10  -1 154.248 15.3603   3
   3  10  -1 112.959 14.0307   4
  -3 -10   1 130.547 15.4630   2
   2  10  -1 -8.3985 8.56374   4
   2  10  -1 4.32340 8.69342   3
  -2 -10   1 9.98160 9.19053   2
   1  10  -1 187.408 18.0207   4
   1  10  -1 161.806 16.6212   3
  -1 -10   1 182.291 19.2872   2
   0  10  -1 2.83854 10.4227   4
   0  10  -1 26.4269 10.4433   3
   0 -10   1 3.59605 10.9770   2
   0 -10   1 23.6445 11.0601   6
  -1  10  -1 40.9891 13.4810   4
  -1  10  -1 60.5446 13.5246   3
   1 -10   1 54.3567 12.8679   6
   1 -10   1 20.7355 13.4657   2
  -2  10  -1 32.4675 14.8780   4
  -2  10  -1 55.1481 14.6055   3
   2 -10   1 42.1749 14.1571   6
   2 -10   1 58.1729 15.5285   2
  -3  10  -1 32.1275 16.2168   4
  -3  10  -1 28.4320 16.7600   3
   3 -10   1 2.38895 17.6018   2
   3 -10   1 -3.4915 15.1214   6
  10   9  -1 17.4281 13.7322   3
  10   9  -1 57.5744 15.7096   2
  10   9  -1 46.6091 15.3501   6
  10   9  -1 40.0571 14.7002   4
  10   9  -1 32.1767 14.5689   5
   9   9  -1 14.8229 11.3576   6
   9   9  -1 17.8914 12.3590   3
   9   9  -1 6.56956 11.6613   5
   9   9  -1 21.4409 12.0492   4
   8   9  -1 6.77987 10.1265   4
   8   9  -1 3.13959 9.45920   3
   8   9  -1 11.7794 8.57105   5
   7   9  -1 52.7030 8.49684   5
   7   9  -1 70.5475 10.8456   3
   7   9  -1 52.0652 11.1584   4
   7   9  -1 68.5857 10.8911   5
   7   9  -1 46.7612 12.6820   3
   6   9  -1 12.1012 12.2245   2
   6   9  -1 2.70416 8.91846   4
   6   9  -1 13.9867 9.89312   3
   6   9  -1 7.44451 7.58663   3
   6   9  -1 5.34801 5.08014   5
   5   9  -1 3.14722 10.4593   2
   5   9  -1 0.64958 3.82010   5
   5   9  -1 7.23899 7.13405   3
   5   9  -1 5.40656 3.40800   5
  -5  -9   1 5.06230 7.53846   2
  -5  -9   1 7.40011 22.9920   1
   4   9  -1 5.47619 6.48920   3
   4   9  -1 11.0722 9.51028   2
  -4  -9   1 14.5138 7.70896   2
   3   9  -1 13.4716 8.14668   4
   3   9  -1 -4.1303 6.01585   3
   3   9  -1 13.6531 9.57979   2
  -3  -9   1 20.7837 7.33475   2
   2   9  -1 38.4177 10.9039   2
   2   9  -1 23.7029 7.44578   3
   2   9  -1 35.4761 10.1195   4
  -2  -9   1 32.4852 8.53239   2
  -2  -9   1 27.9598 10.9419   3
   1   9  -1 49.6380 9.16372   3
   1   9  -1 35.9175 12.7646   2
  -1  -9   1 43.1361 9.58150   2
  -1  -9   1 33.2510 12.0909   3
   0   9  -1 13.1374 8.28283   3
   0   9  -1 12.5091 10.1905   4
   0  -9   1 14.1782 9.06708   2
   0  -9   1 11.3076 8.95484   6
  -1   9  -1 113.500 13.4569   3
  -1   9  -1 75.2810 12.0607   4
   1  -9   1 108.990 13.8697   2
   1  -9   1 93.7565 12.9264   6
  -2   9  -1 -14.933 9.60728   4
  -2   9  -1 0.55955 9.43806   3
   2  -9   1 -11.077 8.97188   6
   2  -9   1 7.38058 11.7572   2
  -3   9  -1 142.858 16.0827   4
  -3   9  -1 122.380 16.3820   3
   3  -9   1 117.304 14.4853   6
   3  -9   1 134.138 18.2173   2
  -4   9  -1 -1.3741 13.1813   4
  -4   9  -1 18.4873 15.6561   3
   4  -9   1 14.0350 16.5493   2
   4  -9   1 -6.3049 12.9279   6
  11   8  -1 133.329 18.7901   6
  11   8  -1 133.250 20.4113   5
  11   8  -1 137.083 20.4505   2
  10   8  -1 57.6759 13.8315   6
  10   8  -1 66.4461 14.5745   5
  10   8  -1 74.6260 14.2903   4
  10   8  -1 73.1057 14.8555   3
  10   8  -1 69.7278 15.8672   2
   9   8  -1 121.400 16.1295   4
   9   8  -1 107.311 14.3470   2
   9   8  -1 94.5199 13.6588   6
   8   8  -1 350.276 22.8184   5
   8   8  -1 399.986 21.0509   4
   8   8  -1 431.394 20.3822   3
   8   8  -1 346.320 23.6759   3
   7   8  -1 17.3789 10.3301   3
   7   8  -1 0.98197 7.23419   3
   7   8  -1 5.40202 6.22898   5
   7   8  -1 5.95858 8.95991   5
   7   8  -1 -3.3953 7.24696   4
   7   8  -1 0.69924 10.7882   2
   6   8  -1 420.780 16.5158   5
   6   8  -1 380.753 20.0037   3
   6   8  -1 386.304 18.1068   3
   6   8  -1 383.803 19.7209   4
   6   8  -1 394.098 25.9930   4
   6   8  -1 373.570 20.1618   2
   6   8  -1 414.593 15.6352   5
   5   8  -1 176.804 9.41892   5
   5   8  -1 176.447 12.9806   3
   5   8  -1 148.236 16.2155   6
   5   8  -1 154.963 13.9866   2
   5   8  -1 160.832 13.5424   4
   5   8  -1 169.169 16.3974   4
   5   8  -1 186.420 9.02543   5
  -5  -8   1 174.818 26.0447   1
  -5  -8   1 175.914 25.9127   1
   4   8  -1 216.579 14.5221   2
   4   8  -1 210.809 16.1889   6
   4   8  -1 224.162 14.5504   4
   4   8  -1 183.007 12.4079   3
   4   8  -1 197.317 7.22002   5
  -4  -8   1 202.544 26.8841   1
  -4  -8   1 169.311 26.9901   1
  -4  -8   1 217.784 13.5948   2
   3   8  -1 420.049 17.7164   3
   3   8  -1 423.500 19.1593   4
   3   8  -1 386.638 18.4712   2
   3   8  -1 415.209 19.7912   6
  -3  -8   1 403.798 17.5636   2
  -3  -8   1 401.900 47.6789   1
  -3  -8   1 364.979 44.4264   1
   2   8  -1 68.3012 8.55125   3
   2   8  -1 62.9605 10.4538   6
   2   8  -1 66.1006 9.45959   2
   2   8  -1 70.1239 8.57009   4
  -2  -8   1 49.1480 8.60640   3
  -2  -8   1 65.9953 8.70451   6
  -2  -8   1 19.3916 27.8603   1
  -2  -8   1 83.3023 29.5905   1
  -2  -8   1 55.7960 8.09775   2
   1   8  -1 154.177 15.4212   6
   1   8  -1 162.958 12.9512   4
   1   8  -1 184.230 15.1625   2
   1   8  -1 153.852 11.8751   3
  -1  -8   1 99.9835 36.8580   1
  -1  -8   1 96.8419 34.3874   1
  -1  -8   1 178.088 14.4837   3
  -1  -8   1 129.112 12.5822   6
  -1  -8   1 142.221 12.1612   2
   0   8  -1 -4.0890 5.64119   3
   0   8  -1 -4.7080 6.21609   4
   0   8  -1 10.5307 9.81811   2
   0   8  -1 0.06960 8.96297   6
   0  -8   1 -5.3419 6.15004   6
   0  -8   1 3.25493 6.84709   2
   0  -8   1 -9.9946 40.6814   1
   0  -8   1 -30.032 33.6169   1
   0  -8   1 -0.1672 9.42507   3
  -1   8  -1 69.0457 10.0825   3
  -1   8  -1 73.1634 10.2462   4
  -1   8  -1 51.3631 12.4036   2
   1  -8   1 76.4430 46.2228   1
   1  -8   1 72.5414 9.78745   6
   1  -8   1 77.0426 10.9370   2
  -2   8  -1 5.38370 9.74021   3
  -2   8  -1 20.3568 8.80910   4
   2  -8   1 1.44875 7.57167   6
   2  -8   1 -11.428 51.8257   1
  -3   8  -1 76.4135 12.7761   3
  -3   8  -1 78.0809 11.3822   4
   3  -8   1 31.1443 80.7414   1
   3  -8   1 49.3876 12.7340   2
  -4   8  -1 -17.201 11.2639   3
   4  -8   1 1.77252 10.0190   6
   4  -8   1 4.74308 12.4400   2
  -5   8  -1 37.0825 13.4624   4
  -5   8  -1 27.0181 14.0801   3
   5  -8   1 21.4714 12.3602   6
   5  -8   1 33.6394 16.9601   2
  11   7  -1 29.5242 14.0075   6
  11   7  -1 49.8673 17.0496   5
  11   7  -1 23.5595 16.7542   2
  10   7  -1 118.588 14.9155   6
  10   7  -1 136.198 14.1716   4
  10   7  -1 138.711 17.4499   2
   9   7  -1 338.246 29.7726   4
   9   7  -1 347.205 23.3244   2
   9   7  -1 364.612 20.0132   6
   9   7  -1 371.776 20.3874   4
   8   7  -1 14.1191 12.1678   5
   8   7  -1 50.1977 11.7591   3
   8   7  -1 29.9273 12.2895   4
   8   7  -1 53.0597 9.53394   4
   8   7  -1 66.0562 9.74514   6
   8   7  -1 37.9458 13.6101   6
   7   7  -1 936.800 32.1370   2
   7   7  -1 859.060 30.6331   6
   7   7  -1 866.860 29.7132   3
   7   7  -1 983.537 30.2440   3
   7   7  -1 890.138 29.3227   5
   7   7  -1 880.519 31.0249   4
   7   7  -1 945.651 30.2342   4
   6   7  -1 123.221 13.6166   3
   6   7  -1 167.972 14.7903   2
   6   7  -1 174.029 14.6637   6
   6   7  -1 183.764 12.6844   3
   6   7  -1 167.015 12.4423   5
   6   7  -1 186.945 14.9150   4
   6   7  -1 164.971 12.3550   4
   5   7  -1 914.441 28.4343   2
   5   7  -1 909.457 27.8997   3
   5   7  -1 968.497 30.3526   4
   5   7  -1 903.783 29.4370   4
   5   7  -1 904.595 29.5032   6
   5   7  -1 947.220 25.5730   5
   4   7  -1 1163.77 27.9119   5
   4   7  -1 1156.86 32.2858   2
   4   7  -1 1088.13 33.5032   4
   4   7  -1 1138.31 27.7774   5
   4   7  -1 1133.55 33.5081   6
   4   7  -1 1121.27 31.8374   3
  -4  -7   1 1139.59 32.2584   2
  -4  -7   1 1140.41 47.5756   1
  -4  -7   1 1190.44 47.0334   1
   3   7  -1 88.9839 9.72018   4
   3   7  -1 79.8283 9.59848   2
   3   7  -1 79.2878 8.47017   6
   3   7  -1 88.7757 3.50752   5
   3   7  -1 81.4050 8.84455   3
   3   7  -1 88.6883 3.51464   5
  -3  -7   1 67.5943 19.2197   1
  -3  -7   1 100.419 21.5296   1
  -3  -7   1 82.8732 8.50524   2
   2   7  -1 1356.83 36.8594   3
   2   7  -1 1370.67 38.4959   4
   2   7  -1 1398.40 38.4812   6
   2   7  -1 1390.98 37.2753   2
  -2  -7   1 1361.75 37.0366   3
  -2  -7   1 1404.32 37.1430   2
  -2  -7   1 1341.44 66.2181   1
  -2  -7   1 1262.69 63.2023   1
  -2  -7   1 1388.23 38.0818   6
   1   7  -1 11.9949 5.27356   3
   1   7  -1 18.0469 4.99889   4
   1   7  -1 15.0921 6.85415   2
   1   7  -1 24.9582 7.63849   6
  -1  -7   1 7.05079 6.35792   3
  -1  -7   1 19.9113 6.18215   6
  -1  -7   1 21.5228 6.27380   2
  -1  -7   1 -5.9933 23.1660   1
  -1  -7   1 41.4690 23.6918   1
   0   7  -1 518.668 21.2818   6
   0   7  -1 553.056 20.6084   3
   0   7  -1 529.383 20.3163   4
   0   7  -1 507.609 20.9536   2
   0  -7   1 528.561 20.9978   3
   0  -7   1 514.798 20.1352   2
   0  -7   1 535.088 20.3497   6
   0  -7   1 515.256 55.5002   1
   0  -7   1 558.611 53.5350   1
  -1   7  -1 220.934 16.1658   2
  -1   7  -1 193.959 15.2707   6
  -1   7  -1 214.490 13.5537   4
  -1   7  -1 219.834 13.7595   3
   1  -7   1 230.154 42.4678   1
   1  -7   1 219.659 45.3762   1
   1  -7   1 231.785 14.1269   6
   1  -7   1 228.511 14.8778   2
   1  -7   1 253.677 16.5624   3
  -2   7  -1 81.1361 9.42878   4
  -2   7  -1 100.110 12.1019   6
  -2   7  -1 82.2494 10.6306   3
  -2   7  -1 80.4571 12.1827   2
   2  -7   1 81.1529 4.95989   5
   2  -7   1 76.1156 7.06361   5
   2  -7   1 85.1066 11.0740   2
   2  -7   1 61.5152 41.4813   1
   2  -7   1 80.2492 9.76408   6
   2  -7   1 64.0127 12.4342   3
   2  -7   1 100.806 48.1273   1
  -3   7  -1 209.516 14.0257   4
  -3   7  -1 175.148 16.2252   6
   3  -7   1 206.636 10.3535   5
   3  -7   1 205.885 16.9066   2
   3  -7   1 192.127 54.7861   1
   3  -7   1 195.903 9.89882   5
   3  -7   1 197.153 14.5021   6
  -4   7  -1 1.67235 9.47150   3
  -4   7  -1 21.8511 8.06101   4
   4  -7   1 2.44069 7.90518   6
   4  -7   1 7.07603 6.34707   5
   4  -7   1 13.6716 10.9364   2
  -5   7  -1 73.0036 11.0514   4
  -5   7  -1 93.9761 14.8838   3
   5  -7   1 67.5462 10.2463   5
   5  -7   1 73.8117 11.6419   6
   5  -7   1 68.0767 14.6138   2
  -6   7  -1 14.9308 14.3015   3
   6  -7   1 -9.9301 11.4267   6
   6  -7   1 -6.3308 16.3461   2
  11   6  -1 28.5325 16.5696   2
  11   6  -1 33.6587 20.7878   6
  10   6  -1 36.6702 12.7982   2
  10   6  -1 39.1547 10.4014   4
  10   6  -1 45.8028 10.4744   6
   9   6  -1 30.6592 12.0214   4
   9   6  -1 26.7831 8.53423   4
   9   6  -1 21.6001 10.4621   2
   9   6  -1 -5.0123 11.3295   6
   9   6  -1 25.3079 8.27922   6
   8   6  -1 286.350 16.2647   6
   8   6  -1 246.355 20.3987   2
   8   6  -1 275.344 17.2981   6
   8   6  -1 294.193 17.3462   4
   8   6  -1 286.178 20.2029   3
   8   6  -1 299.611 18.5939   2
   7   6  -1 198.294 15.7949   2
   7   6  -1 197.355 14.1752   3
   7   6  -1 239.326 15.8748   4
   7   6  -1 197.577 14.0636   6
   7   6  -1 209.828 15.8132   5
   6   6  -1 917.208 27.9912   6
   6   6  -1 893.479 28.5588   4
   6   6  -1 913.891 28.4626   2
   6   6  -1 926.968 28.2155   3
   6   6  -1 870.331 26.9065   5
   5   6  -1 1043.39 30.3637   6
   5   6  -1 1059.30 29.5806   3
   5   6  -1 1016.71 29.3238   3
   5   6  -1 1052.41 31.0698   4
   5   6  -1 1058.44 29.8161   2
   5   6  -1 1000.68 30.5522   5
   4   6  -1 409.274 16.9991   4
   4   6  -1 385.447 16.2595   6
   4   6  -1 412.461 15.3383   3
   4   6  -1 410.639 13.2524   5
   4   6  -1 424.179 15.5915   2
  -4  -6   1 456.296 23.5326   1
  -4  -6   1 415.110 22.5946   1
  -4  -6   1 394.245 15.2555   2
   3   6  -1 2407.75 53.8480   5
   3   6  -1 2370.15 54.7067   5
   3   6  -1 2282.01 60.3473   2
   3   6  -1 2503.82 59.9956   4
   3   6  -1 2519.61 58.4915   3
   3   6  -1 2543.07 59.3238   6
  -3  -6   1 2507.06 58.2884   2
  -3  -6   1 2462.05 75.3248   1
  -3  -6   1 2421.53 74.6499   1
   2   6  -1 100.493 8.77788   3
   2   6  -1 108.193 9.54176   6
   2   6  -1 104.833 8.71825   4
   2   6  -1 103.133 10.0756   2
  -2  -6   1 105.537 19.2592   1
  -2  -6   1 116.050 8.98643   6
  -2  -6   1 87.6673 18.8505   1
  -2  -6   1 118.488 8.12286   2
   1   6  -1 1619.01 41.8874   2
   1   6  -1 1669.64 42.1785   6
   1   6  -1 1580.83 42.1876   4
   1   6  -1 1631.85 41.5342   3
  -1  -6   1 1612.16 42.3061   6
  -1  -6   1 1718.07 70.9398   1
  -1  -6   1 1658.35 41.7290   3
  -1  -6   1 1568.51 41.2451   2
   0   6  -1 1639.84 42.6332   4
   0   6  -1 1634.61 42.5371   2
   0   6  -1 1640.90 42.4114   3
   0   6  -1 1673.00 43.0376   6
   0  -6   1 1663.06 42.6279   3
   0  -6   1 1627.51 75.0317   1
   0  -6   1 1671.82 43.0026   6
   0  -6   1 1518.93 74.8629   1
   0  -6   1 1631.77 42.3938   2
  -1   6  -1 310.678 15.8582   6
  -1   6  -1 348.119 15.5709   3
  -1   6  -1 364.302 15.0672   4
  -1   6  -1 347.838 16.2630   2
   1  -6   1 327.830 15.6673   2
   1  -6   1 415.678 51.0111   1
   1  -6   1 344.513 15.4117   6
   1  -6   1 362.345 16.5911   3
   1  -6   1 344.217 47.1891   1
  -2   6  -1 1371.46 38.0362   3
  -2   6  -1 1275.23 38.3200   2
  -2   6  -1 1347.83 37.6152   6
  -2   6  -1 1378.35 36.7283   4
   2  -6   1 1323.55 30.8127   5
   2  -6   1 1347.46 31.1133   5
   2  -6   1 1272.16 36.6408   6
   2  -6   1 1299.18 38.2583   2
   2  -6   1 1270.31 80.1112   1
   2  -6   1 1204.78 79.4151   1
   2  -6   1 1307.19 38.4893   3
  -3   6  -1 1.58263 6.33384   3
  -3   6  -1 2.67138 8.56303   6
  -3   6  -1 11.2296 5.50045   4
  -3   6  -1 8.04225 8.60566   2
   3  -6   1 16.0381 8.08512   2
   3  -6   1 54.0416 37.4584   1
   3  -6   1 27.9495 10.1198   3
   3  -6   1 8.37340 5.96643   6
   3  -6   1 10.3594 4.29500   5
   3  -6   1 40.4677 43.9316   1
   3  -6   1 17.4440 4.83589   5
  -4   6  -1 455.063 25.1998   3
  -4   6  -1 449.067 21.3061   6
  -4   6  -1 430.604 18.1698   4
   4  -6   1 368.154 68.8230   1
   4  -6   1 418.008 19.1235   6
   4  -6   1 441.616 64.2193   1
   4  -6   1 434.467 22.9636   2
   4  -6   1 439.404 17.3224   5
   4  -6   1 419.084 16.5811   5
  -5   6  -1 86.7954 12.9569   3
  -5   6  -1 109.033 12.6128   4
  -5   6  -1 83.5893 14.0132   6
   5  -6   1 84.6992 9.82177   5
   5  -6   1 93.3241 11.4029   5
   5  -6   1 102.030 11.4382   6
   5  -6   1 146.719 88.9790   1
   5  -6   1 101.435 15.1352   2
  -6   6  -1 111.072 15.7919   3
  -6   6  -1 108.975 11.2295   4
   6  -6   1 101.823 11.9745   6
   6  -6   1 103.725 12.6981   5
   6  -6   1 152.171 18.3710   2
  -7   6  -1 51.2366 16.0030   3
   7  -6   1 35.8074 14.0983   5
   7  -6   1 44.0030 13.0117   6
   7  -6   1 43.2084 17.2193   2
  11   5  -1 14.6776 15.1379   2
  10   5  -1 -3.7137 8.01286   4
  10   5  -1 -2.0703 8.73402   6
  10   5  -1 -0.8858 11.5544   2
   9   5  -1 -5.8242 9.21667   6
   9   5  -1 11.3048 9.96073   4
   9   5  -1 6.01270 11.1598   2
   9   5  -1 11.1841 7.11037   6
   8   5  -1 -6.7994 6.94659   2
   8   5  -1 9.54540 7.99360   4
   8   5  -1 19.4659 10.5160   2
   8   5  -1 -2.4537 7.54720   6
   8   5  -1 -3.3341 9.21796   3
   8   5  -1 7.91638 5.81741   6
   7   5  -1 253.955 14.8240   3
   7   5  -1 253.233 12.7793   6
   7   5  -1 228.797 15.6713   5
   7   5  -1 232.236 14.4075   4
   7   5  -1 234.220 14.1059   2
   7   5  -1 211.283 15.7278   2
   7   5  -1 234.150 13.4315   6
   6   5  -1 1.14209 5.33333   6
   6   5  -1 -6.6945 5.29501   5
   6   5  -1 -2.2214 5.10075   4
   6   5  -1 9.05144 5.71866   3
   6   5  -1 7.93430 6.14379   2
   5   5  -1 163.190 10.1421   2
   5   5  -1 166.849 10.1400   3
   5   5  -1 175.702 11.0804   4
   5   5  -1 141.796 9.11496   5
   5   5  -1 169.157 10.4451   6
   4   5  -1 408.106 15.1000   4
   4   5  -1 371.573 14.0948   3
   4   5  -1 393.617 14.6970   6
   4   5  -1 402.539 14.2159   2
   4   5  -1 379.759 12.7443   5
   3   5  -1 41.5200 5.13608   2
   3   5  -1 50.2227 5.86968   3
   3   5  -1 49.5754 4.33503   5
   3   5  -1 50.7621 5.66852   6
  -3  -5   1 32.6427 9.62349   1
  -3  -5   1 49.6108 5.47314   2
  -3  -5   1 54.5173 9.90730   1
   2   5  -1 1063.10 27.6506   3
   2   5  -1 1048.71 28.5026   4
   2   5  -1 997.846 28.0207   6
   2   5  -1 1071.39 27.2264   2
   2   5  -1 1061.23 23.4251   5
   2   5  -1 1031.08 23.2872   5
  -2  -5   1 1039.61 27.1685   2
  -2  -5   1 963.443 49.5673   1
  -2  -5   1 1016.81 28.1002   6
  -2  -5   1 1041.38 43.1520   1
   1   5  -1 595.748 18.9299   4
   1   5  -1 596.198 19.2393   6
   1   5  -1 622.282 18.4470   2
   1   5  -1 603.122 18.5548   3
  -1  -5   1 605.745 19.0259   6
  -1  -5   1 602.355 18.2256   2
  -1  -5   1 605.639 18.6842   3
   0   5  -1 368.754 14.4697   6
   0   5  -1 391.984 14.4522   2
   0   5  -1 371.105 14.1604   4
   0   5  -1 362.665 13.8869   3
   0  -5   1 408.096 14.3627   2
   0  -5   1 375.941 35.9085   1
   0  -5   1 375.671 38.8400   1
   0  -5   1 394.127 14.6038   6
  -1   5  -1 1541.31 40.1250   2
  -1   5  -1 1564.59 40.0502   3
  -1   5  -1 1591.24 39.4420   4
  -1   5  -1 1621.48 40.1855   6
   1  -5   1 1512.81 72.5063   1
   1  -5   1 1533.96 39.7174   6
   1  -5   1 1501.43 39.8827   2
   1  -5   1 1550.73 34.1613   5
   1  -5   1 1597.51 40.4489   3
   1  -5   1 1508.44 70.8245   1
   1  -5   1 1514.81 34.1937   5
  -2   5  -1 16.1145 6.26049   2
  -2   5  -1 9.89934 5.06170   3
  -2   5  -1 19.7682 4.77771   4
  -2   5  -1 13.9354 5.66690   6
   2  -5   1 -8.2953 23.8585   1
   2  -5   1 18.5663 3.19083   5
   2  -5   1 11.0126 5.67496   2
   2  -5   1 22.3991 5.18131   6
   2  -5   1 -17.109 23.0575   1
   2  -5   1 20.6742 6.57280   3
  -3   5  -1 743.099 25.0750   3
  -3   5  -1 755.962 24.2564   6
  -3   5  -1 727.625 25.7095   2
  -3   5  -1 710.561 22.1280   4
   3  -5   1 709.226 23.2146   6
   3  -5   1 742.404 25.8517   3
   3  -5   1 730.022 62.9315   1
   3  -5   1 757.296 20.6921   5
   3  -5   1 692.198 25.6632   2
   3  -5   1 757.033 68.6938   1
  -4   5  -1 478.016 17.5249   4
  -4   5  -1 470.612 20.9685   3
  -4   5  -1 494.209 20.6068   6
  -4   5  -1 509.608 23.6882   2
   4  -5   1 481.503 66.0663   1
   4  -5   1 507.988 17.7194   5
   4  -5   1 380.834 59.1410   1
   4  -5   1 488.312 22.4300   3
   4  -5   1 498.448 18.8486   6
   4  -5   1 506.170 22.7085   2
  -5   5  -1 116.189 10.3944   4
  -5   5  -1 108.422 11.8210   6
   5  -5   1 117.083 11.9547   6
   5  -5   1 137.463 57.9353   1
   5  -5   1 161.829 16.7127   2
   5  -5   1 127.996 13.9135   5
   5  -5   1 154.084 57.2336   1
  -6   5  -1 201.115 19.0620   6
  -6   5  -1 217.586 13.3694   4
  -6   5  -1 212.193 18.1738   3
   6  -5   1 210.378 78.0664   1
   6  -5   1 163.342 19.6200   5
   6  -5   1 214.587 14.8881   6
   6  -5   1 195.459 20.3745   2
  -7   5  -1 -9.2004 10.9828   3
   7  -5   1 6.13600 12.5837   2
   7  -5   1 -15.810 8.58579   6
  -8   5  -1 110.897 18.5634   3
   8  -5   1 91.6348 16.3317   5
   8  -5   1 100.179 21.6171   2
  11   4  -1 78.9971 17.9232   2
  10   4  -1 77.4370 14.9147   2
  10   4  -1 69.9782 10.0243   6
   9   4  -1 11.4056 7.99142   4
   9   4  -1 25.6288 10.3475   2
   9   4  -1 18.1729 8.61493   6
   9   4  -1 7.64644 6.44410   6
   8   4  -1 144.473 17.4674   3
   8   4  -1 158.718 14.3088   2
   8   4  -1 148.011 12.4196   4
   8   4  -1 166.563 12.5979   6
   8   4  -1 147.395 11.1457   6
   7   4  -1 17.6104 7.41246   3
   7   4  -1 20.8726 6.77086   2
   7   4  -1 7.89022 6.06383   4
   7   4  -1 5.54667 7.39942   5
   7   4  -1 12.2898 4.71739   6
   7   4  -1 4.99439 5.15441   6
   7   4  -1 17.1822 8.11856   2
   6   4  -1 189.192 12.0500   2
   6   4  -1 155.407 11.9252   4
   6   4  -1 181.571 11.0969   2
   6   4  -1 174.592 11.3916   3
   6   4  -1 173.307 12.0300   5
   6   4  -1 164.872 9.33494   6
   6   4  -1 187.083 9.95910   6
   5   4  -1 31.2573 6.22299   2
   5   4  -1 37.8533 5.51267   4
   5   4  -1 31.9970 5.28987   3
   5   4  -1 29.9797 4.63761   6
   5   4  -1 36.5478 5.56337   5
   4   4  -1 0.47262 3.32608   4
   4   4  -1 0.47606 3.13895   2
   4   4  -1 2.17603 3.28419   3
   4   4  -1 -0.4700 2.86387   5
   4   4  -1 -3.3999 2.94640   6
   3   4  -1 59.1520 4.65664   5
   3   4  -1 54.4755 5.38553   3
   3   4  -1 47.1001 5.61676   6
   3   4  -1 59.9562 6.07101   4
   3   4  -1 62.1203 5.26245   2
  -3  -4   1 58.2867 8.53129   1
  -3  -4   1 79.8274 8.36704   1
   2   4  -1 9.35454 3.25054   3
   2   4  -1 13.5893 3.00453   6
   2   4  -1 7.55734 1.84124   5
   2   4  -1 5.75585 1.72706   5
   2   4  -1 8.78562 2.88306   2
  -2  -4   1 5.94439 6.97916   1
  -2  -4   1 6.38125 3.05771   6
  -2  -4   1 16.6563 7.13076   1
  -2  -4   1 10.3128 2.82389   2
   1   4  -1 155.137 8.14388   3
   1   4  -1 162.988 8.07608   6
   1   4  -1 151.294 3.77917   5
   1   4  -1 164.747 7.72172   2
   1   4  -1 156.890 3.93483   5
  -1  -4   1 183.325 19.1127   1
  -1  -4   1 145.128 7.02458   2
  -1  -4   1 166.555 7.97287   3
  -1  -4   1 154.218 7.55616   6
   0   4  -1 354.314 12.5539   2
   0   4  -1 351.515 12.4394   4
   0   4  -1 355.495 12.7322   6
   0   4  -1 356.210 12.6257   3
   0  -4   1 364.946 28.9646   1
   0  -4   1 352.023 12.2118   2
   0  -4   1 370.596 12.9169   3
   0  -4   1 356.638 12.6129   6
  -1   4  -1 0.43747 3.12564   6
  -1   4  -1 -0.9609 3.18747   3
  -1   4  -1 5.42817 4.19091   2
  -1   4  -1 2.54410 2.74316   4
   1  -4   1 16.7918 14.0881   1
   1  -4   1 -3.1401 14.7363   1
   1  -4   1 2.19471 3.56865   2
   1  -4   1 1.14464 2.89004   6
   1  -4   1 4.16284 3.22445   3
  -2   4  -1 229.807 10.7603   6
  -2   4  -1 250.504 12.0473   2
  -2   4  -1 224.262 11.0544   3
  -2   4  -1 223.670 9.62480   4
   2  -4   1 221.555 11.6619   2
   2  -4   1 239.839 11.8268   3
   2  -4   1 203.708 30.4503   1
   2  -4   1 236.610 8.22678   5
   2  -4   1 213.483 30.5208   1
   2  -4   1 224.305 10.7762   6
  -3   4  -1 204.470 11.5739   3
  -3   4  -1 190.738 11.0558   6
  -3   4  -1 212.673 9.67429   4
  -3   4  -1 219.723 12.7099   2
   3  -4   1 227.723 36.3396   1
   3  -4   1 200.872 11.2064   3
   3  -4   1 216.152 9.34754   5
   3  -4   1 221.298 32.8076   1
   3  -4   1 192.798 10.6103   6
   3  -4   1 209.698 12.7789   2
  -4   4  -1 94.3007 7.33544   4
  -4   4  -1 92.4877 10.1063   6
  -4   4  -1 101.443 10.3326   3
  -4   4  -1 83.2962 10.5251   2
   4  -4   1 105.175 12.3330   2
   4  -4   1 93.2903 8.51242   6
   4  -4   1 64.4682 30.6620   1
   4  -4   1 97.4760 10.4282   3
   4  -4   1 101.905 8.39603   5
   4  -4   1 110.392 35.3561   1
  -5   4  -1 372.983 18.6647   3
  -5   4  -1 372.713 13.9390   4
  -5   4  -1 394.716 21.4043   2
  -5   4  -1 383.611 17.1615   6
   5  -4   1 393.575 51.9089   1
   5  -4   1 350.050 19.9965   3
   5  -4   1 380.610 17.2491   5
   5  -4   1 385.764 16.1680   6
   5  -4   1 402.939 20.7215   2
   5  -4   1 364.889 55.4394   1
  -6   4  -1 9.79126 4.86397   4
  -6   4  -1 12.7067 8.38817   3
  -6   4  -1 -3.7493 8.04061   6
   6  -4   1 -24.369 53.2688   1
   6  -4   1 20.0503 6.49673   6
   6  -4   1 14.8573 9.15762   5
  -7   4  -1 150.949 17.3886   3
  -7   4  -1 164.594 22.4874   6
  -7   4  -1 160.924 10.4932   4
   7  -4   1 167.888 18.2350   2
   7  -4   1 178.450 14.1763   6
  -8   4  -1 42.4103 13.5470   3
   8  -4   1 55.1189 10.3463   6
   8  -4   1 91.3867 17.5688   2
  -9   4  -1 10.0820 17.4756   3
   9  -4   1 6.01908 15.3030   5
   9  -4   1 11.9742 20.6419   2
  11   3  -1 60.6729 18.3203   2
  10   3  -1 25.9416 8.09322   6
  10   3  -1 34.6612 13.2834   2
   9   3  -1 442.837 17.2974   6
   9   3  -1 444.484 24.1722   2
   9   3  -1 420.114 18.0734   6
   9   3  -1 440.856 46.9134   1
   8   3  -1 43.3988 11.3459   3
   8   3  -1 40.3531 6.16192   6
   8   3  -1 58.9192 10.1140   2
   8   3  -1 71.8437 19.8720   1
   8   3  -1 44.7550 19.3911   1
   8   3  -1 34.2082 6.73379   6
  -8  -3   1 33.0498 8.40190   3
   7   3  -1 802.185 22.4265   6
   7   3  -1 777.971 26.5892   2
   7   3  -1 757.619 22.6443   4
   7   3  -1 729.001 36.5676   1
   7   3  -1 754.408 26.9958   5
   7   3  -1 781.649 22.2481   6
   7   3  -1 775.796 26.1706   3
  -7  -3   1 779.458 25.9024   3
   6   3  -1 861.193 26.9098   2
   6   3  -1 913.252 24.6875   4
   6   3  -1 879.936 31.7545   1
   6   3  -1 849.837 31.9511   1
   6   3  -1 903.835 26.7239   3
   6   3  -1 898.935 23.9007   6
   6   3  -1 869.117 27.2480   5
   6   3  -1 862.691 23.8000   6
   5   3  -1 215.391 10.1825   1
   5   3  -1 214.329 10.8326   5
   5   3  -1 190.984 10.2931   2
   5   3  -1 199.611 8.94694   6
   5   3  -1 213.895 10.3534   3
   5   3  -1 209.307 9.70704   4
   5   3  -1 197.976 9.96322   1
   5   3  -1 200.828 8.72727   6
   4   3  -1 1865.73 44.2870   5
   4   3  -1 1808.30 44.1440   3
   4   3  -1 1831.86 44.1020   2
   4   3  -1 1834.09 43.7638   4
   4   3  -1 1901.66 43.1687   6
   3   3  -1 22.9683 3.30457   5
   3   3  -1 18.8882 3.22590   2
   3   3  -1 23.2594 3.69608   3
   3   3  -1 23.9699 3.31412   6
   3   3  -1 20.1967 3.51314   4
   2   3  -1 1378.54 32.3799   2
   2   3  -1 1354.19 33.0662   3
   2   3  -1 1405.99 33.0386   6
   2   3  -1 1409.94 33.5300   4
  -2  -3   1 1406.20 32.5130   2
  -2  -3   1 1411.73 37.8809   1
  -2  -3   1 1427.03 38.2241   1
  -2  -3   1 1346.39 32.9597   6
   1   3  -1 892.355 22.2273   3
   1   3  -1 863.685 21.2946   2
   1   3  -1 879.418 22.2558   6
   1   3  -1 872.480 32.1563   1
   1   3  -1 848.341 19.6026   5
  -1  -3   1 868.638 32.2753   1
  -1  -3   1 893.066 22.2839   6
  -1  -3   1 885.471 21.5533   2
  -1  -3   1 869.135 22.0925   3
   0   3  -1 145.488 3.69434   5
   0   3  -1 143.619 7.00606   6
   0   3  -1 140.223 16.5411   1
   0   3  -1 157.777 6.71599   2
   0   3  -1 143.484 7.07949   3
   0  -3   1 149.433 6.46614   2
   0  -3   1 139.768 3.82549   5
   0  -3   1 142.863 6.59424   3
   0  -3   1 138.101 6.91268   6
  -1   3  -1 224.508 8.97768   3
  -1   3  -1 238.106 9.53390   2
  -1   3  -1 255.390 9.62632   6
  -1   3  -1 237.118 8.70461   4
   1  -3   1 234.316 9.71387   2
   1  -3   1 226.948 24.6101   1
   1  -3   1 228.794 9.25760   6
   1  -3   1 225.859 6.74774   5
   1  -3   1 224.850 9.81223   3
  -2   3  -1 7.09529 3.60776   2
  -2   3  -1 5.69313 3.42411   6
  -2   3  -1 5.04850 2.51394   4
  -2   3  -1 7.55269 3.47538   3
   2  -3   1 5.68335 3.15087   3
   2  -3   1 8.14849 3.13171   6
   2  -3   1 8.19948 14.5153   1
   2  -3   1 8.99612 2.43147   5
   2  -3   1 6.73396 4.03713   2
  -3   3  -1 35.8257 4.86889   6
  -3   3  -1 31.5844 5.73888   2
  -3   3  -1 42.3132 5.48399   3
  -3   3  -1 30.4875 3.68148   4
   3  -3   1 35.0215 6.19479   2
   3  -3   1 20.4445 17.3239   1
   3  -3   1 32.1197 5.45635   3
   3  -3   1 38.2024 4.77846   6
   3  -3   1 40.9210 19.7846   1
   3  -3   1 35.8980 4.34380   5
  -4   3  -1 4.88927 5.93721   2
  -4   3  -1 4.14676 2.84112   4
  -4   3  -1 5.53954 4.64552   3
  -4   3  -1 -1.5704 3.92912   6
   4  -3   1 10.6843 3.98372   6
   4  -3   1 19.7945 24.8822   1
   4  -3   1 3.35260 5.59053   2
   4  -3   1 3.24085 5.16835   3
   4  -3   1 2.93670 7.17764   5
   4  -3   1 20.9965 20.5491   1
  -5   3  -1 95.0755 6.46619   4
  -5   3  -1 95.8693 10.9033   2
  -5   3  -1 110.409 10.3318   3
  -5   3  -1 83.0328 8.93013   6
   5  -3   1 80.3335 10.6025   2
   5  -3   1 116.520 36.5547   1
   5  -3   1 39.0711 28.7027   1
   5  -3   1 104.123 10.6694   5
   5  -3   1 87.0451 8.59329   6
   5  -3   1 78.6666 9.72906   3
  -6   3  -1 4.98127 6.87839   3
  -6   3  -1 0.95310 3.33172   4
  -6   3  -1 -0.0041 5.85821   6
   6  -3   1 4.25824 8.20720   5
   6  -3   1 6.44385 8.68044   2
   6  -3   1 -15.973 35.2040   1
   6  -3   1 -27.572 40.9534   1
   6  -3   1 1.55490 5.05808   6
  -7   3  -1 74.3265 9.53271   6
  -7   3  -1 52.0970 5.19905   4
  -7   3  -1 68.5801 11.1164   3
   7  -3   1 60.8097 10.9070   2
   7  -3   1 48.6916 7.81337   6
   7  -3   1 81.5666 62.1325   1
  -8   3  -1 -5.0936 9.94239   3
   8  -3   1 3.27998 7.57473   6
   8  -3   1 -0.3849 11.7526   2
  -9   3  -1 19.7922 13.8939   3
   9  -3   1 49.4694 17.2983   2
  11   2  -1 -17.659 17.9601   2
  11   2  -1 0.11639 15.4766   5
 -11  -2   1 7.77493 15.9734   3
  10   2  -1 262.579 25.1587   2
 -10  -2   1 225.217 21.6125   3
   9   2  -1 14.9568 6.23229   4
   9   2  -1 20.1609 6.64190   6
   9   2  -1 16.8312 6.09839   6
   9   2  -1 16.5603 9.85122   2
  -9  -2   1 15.3395 9.65071   3
   8   2  -1 657.967 26.5253   2
   8   2  -1 663.644 19.9132   6
   8   2  -1 657.236 19.7718   6
   8   2  -1 567.635 50.9818   1
  -8  -2   1 658.958 25.9698   3
   7   2  -1 429.987 20.2853   5
   7   2  -1 419.357 19.2480   2
   7   2  -1 403.756 13.9944   6
   7   2  -1 462.315 38.5659   1
   7   2  -1 386.630 40.4917   1
   7   2  -1 430.027 14.7672   4
   7   2  -1 443.959 19.6750   3
  -7  -2   1 392.918 18.1291   3
   6   2  -1 541.646 33.6068   1
   6   2  -1 542.346 16.6145   4
   6   2  -1 570.786 20.2577   2
   6   2  -1 520.563 19.3422   3
   6   2  -1 545.415 34.7938   1
   6   2  -1 523.094 15.7188   6
   6   2  -1 523.241 19.8510   5
  -6  -2   1 527.220 19.2655   3
   5   2  -1 3430.75 75.5300   4
   5   2  -1 3375.08 74.5804   6
   5   2  -1 3416.16 78.2624   2
   5   2  -1 3044.30 106.780   1
   5   2  -1 3514.53 77.8510   3
   5   2  -1 3335.94 88.5316   1
   5   2  -1 3450.87 78.0901   5
  -5  -2   1 3387.46 77.9301   3
  -5  -2   1 3356.38 75.5412   4
   4   2  -1 4.28373 2.28187   6
   4   2  -1 1.08891 2.66865   4
   4   2  -1 7.41683 6.24626   1
   4   2  -1 5.64842 2.15550   6
   4   2  -1 4.35159 3.07864   2
   4   2  -1 5.41029 3.43871   5
   4   2  -1 4.91371 3.21544   3
   4   2  -1 -1.6436 5.44519   1
  -4  -2   1 0.83730 2.94583   3
  -4  -2   1 2.08155 2.57032   4
   3   2  -1 4888.01 104.957   3
   3   2  -1 4963.39 106.602   1
   3   2  -1 4573.60 103.249   6
   3   2  -1 4701.40 104.262   4
   3   2  -1 4923.62 106.627   1
  -3  -2   1 4754.37 104.363   4
   2   2  -1 3192.62 72.1103   6
   2   2  -1 3436.51 73.2548   1
   2   2  -1 3226.70 72.1534   2
   2   2  -1 3308.69 72.9579   4
  -2  -2   1 3445.83 73.1437   1
   1   2  -1 2456.36 54.2135   2
   1   2  -1 2531.27 55.4826   4
   1   2  -1 2379.58 55.5719   3
   1   2  -1 2671.12 62.1475   1
   1   2  -1 2533.47 55.1540   6
   1   2  -1 2464.26 54.0199   5
  -1  -2   1 2396.67 55.3917   6
  -1  -2   1 2661.99 62.1944   1
  -1  -2   1 2456.72 54.2587   2
   0   2  -1 4569.32 99.7965   3
   0   2  -1 4570.51 98.9067   2
   0   2  -1 4983.12 113.399   1
   0   2  -1 4578.94 99.7700   6
   0  -2   1 4562.77 99.7423   3
   0  -2   1 4612.63 99.8549   6
   0  -2   1 4510.70 98.8898   2
  -1   2  -1 62.2308 4.65145   6
  -1   2  -1 64.3421 4.58451   2
  -1   2  -1 67.2668 11.6434   1
  -1   2  -1 67.2713 4.71632   3
  -1   2  -1 52.6582 4.51822   4
  -1   2  -1 62.8240 3.13516   5
   1  -2   1 82.2210 12.9695   1
   1  -2   1 69.8377 3.30230   5
   1  -2   1 63.7922 4.93473   2
   1  -2   1 69.7830 4.41903   3
   1  -2   1 71.2812 4.75120   6
  -2   2  -1 3978.92 88.0047   5
  -2   2  -1 4157.16 89.8773   2
  -2   2  -1 4038.01 89.7542   3
  -2   2  -1 3834.44 87.8682   4
  -2   2  -1 4269.21 114.113   1
  -2   2  -1 4077.39 89.1198   6
   2  -2   1 4202.36 89.8556   3
   2  -2   1 3993.45 89.1389   6
   2  -2   1 4004.97 89.9500   2
   2  -2   1 3924.04 87.9090   5
   2  -2   1 4236.61 114.784   1
  -3   2  -1 157.588 8.93780   2
  -3   2  -1 156.460 7.93334   6
  -3   2  -1 160.264 6.23081   4
  -3   2  -1 148.619 8.39123   3
   3  -2   1 174.269 24.2845   1
   3  -2   1 156.845 9.61754   2
   3  -2   1 166.048 7.53253   5
   3  -2   1 167.375 7.86251   6
   3  -2   1 160.972 8.75500   3
  -4   2  -1 524.837 18.2362   3
  -4   2  -1 550.948 19.1097   2
  -4   2  -1 555.840 16.9058   6
  -4   2  -1 545.438 14.5975   4
   4  -2   1 593.297 18.8363   3
   4  -2   1 531.272 45.0664   1
   4  -2   1 539.470 19.3087   2
   4  -2   1 536.522 16.9021   6
   4  -2   1 595.192 43.3370   1
   4  -2   1 554.284 17.2255   5
  -5   2  -1 58.4210 8.80739   2
  -5   2  -1 73.0439 7.64742   6
  -5   2  -1 58.8609 7.55094   3
  -5   2  -1 63.1177 4.79285   4
   5  -2   1 52.6646 7.03356   5
   5  -2   1 77.3907 8.00935   3
   5  -2   1 59.9627 6.33467   6
   5  -2   1 58.7867 8.57533   2
   5  -2   1 50.3542 24.5013   1
   5  -2   1 51.4055 26.7643   1
  -6   2  -1 -5.4540 5.40593   3
  -6   2  -1 0.03470 8.58012   2
  -6   2  -1 2.21227 2.83747   4
  -6   2  -1 -0.3523 4.89422   6
   6  -2   1 -1.0508 4.31610   6
   6  -2   1 10.7991 6.95063   5
   6  -2   1 -27.124 31.1255   1
   6  -2   1 0.93432 6.45322   2
   6  -2   1 1.50742 5.74354   3
   6  -2   1 21.0705 27.7617   1
  -7   2  -1 122.808 11.5498   6
  -7   2  -1 90.9702 10.5447   3
  -7   2  -1 93.6430 6.51688   4
   7  -2   1 108.038 12.8834   5
   7  -2   1 77.0938 45.2982   1
   7  -2   1 112.584 10.3216   6
   7  -2   1 85.9773 12.8864   2
   7  -2   1 8.65559 58.4383   1
  -8   2  -1 4.18387 8.96696   3
  -8   2  -1 5.78578 8.37474   6
   8  -2   1 -12.424 9.77708   2
   8  -2   1 -3.1553 6.48226   6
  -9   2  -1 59.6032 13.8167   3
   9  -2   1 53.7975 9.62746   6
   9  -2   1 36.5619 14.5756   2
 -10   2  -1 10.9554 16.1936   3
  10  -2   1 24.2931 18.8563   2
  11   1  -1 8.42441 20.9580   2
 -11  -1   1 24.0305 17.7998   3
  10   1  -1 3.46096 14.9323   2
 -10  -1   1 6.71840 12.3357   3
   9   1  -1 59.6642 13.3061   2
   9   1  -1 84.9610 8.91850   6
  -9  -1   1 90.3743 13.1631   3
   8   1  -1 89.7403 12.8982   2
   8   1  -1 86.4528 8.70656   4
   8   1  -1 86.4759 7.90740   6
  -8  -1   1 109.304 11.4605   3
   7   1  -1 111.612 8.09911   4
   7   1  -1 123.816 27.7935   1
   7   1  -1 112.924 7.48591   6
   7   1  -1 87.4883 10.9392   2
   7   1  -1 125.901 14.7368   5
   7   1  -1 112.536 26.6914   1
   7   1  -1 88.3993 11.0215   3
  -7  -1   1 107.359 8.00390   4
  -7  -1   1 111.091 11.3774   3
   6   1  -1 1108.39 32.2891   3
   6   1  -1 1064.05 27.6724   4
   6   1  -1 1087.49 55.5164   1
   6   1  -1 1115.64 27.2144   6
   6   1  -1 1111.15 53.6136   1
   6   1  -1 1092.97 32.8195   2
   6   1  -1 1112.26 32.5956   5
  -6  -1   1 1122.87 28.2665   4
  -6  -1   1 1106.53 32.2480   3
   5   1  -1 8.83385 2.50253   6
   5   1  -1 5.43948 4.02323   2
   5   1  -1 9.40246 12.4114   1
   5   1  -1 4.94287 4.79597   5
   5   1  -1 4.98707 2.99035   4
   5   1  -1 11.8164 12.1539   1
   5   1  -1 11.7476 4.70703   3
  -5  -1   1 17.1642 4.21416   3
  -5  -1   1 3.29929 2.76307   4
   4   1  -1 1774.73 42.0465   3
   4   1  -1 1676.33 54.9163   1
   4   1  -1 1796.39 42.5449   2
   4   1  -1 1448.52 39.5160   6
   4   1  -1 1747.85 39.9476   4
   4   1  -1 1751.63 56.1946   1
   4   1  -1 1803.78 42.3481   5
  -4  -1   1 1748.51 42.1574   3
  -4  -1   1 1764.85 40.1732   4
   3   1  -1 2011.56 45.1836   6
   3   1  -1 2188.56 57.5775   1
   3   1  -1 2016.00 47.6514   2
   3   1  -1 2019.36 46.3954   4
   3   1  -1 2069.45 47.6890   3
  -3  -1   1 2062.57 46.6126   4
  -3  -1   1 2085.32 47.8423   3
   2   1  -1 3098.84 71.8100   6
   2   1  -1 3292.08 73.0772   4
   2   1  -1 3676.53 79.8629   1
   2   1  -1 3337.20 73.6274   3
  -2  -1   1 3541.09 79.4893   1
  -2  -1   1 3251.10 73.6032   3
   1   1  -1 9999.99 212.411   1
  -1  -1   1 9705.16 212.199   1
  -1   1  -1 8433.70 180.671   1
  -1   1  -1 7363.44 165.821   6
   1  -1   1 8389.47 180.605   1
   1  -1   1 7212.59 165.801   6
   1  -1   1 7716.06 165.951   3
  -2   1  -1 2015.23 45.3484   5
  -2   1  -1 1979.48 45.5146   6
  -2   1  -1 2053.65 46.0753   3
  -2   1  -1 1958.63 43.8683   4
  -2   1  -1 2048.76 46.3037   2
  -2   1  -1 2125.16 62.5939   1
   2  -1   1 2054.54 45.3947   5
   2  -1   1 2016.60 46.3234   2
   2  -1   1 2121.78 63.6466   1
   2  -1   1 2014.96 45.9359   3
   2  -1   1 1985.43 45.6867   6
  -3   1  -1 2181.90 48.5172   4
  -3   1  -1 2292.77 52.4524   2
  -3   1  -1 2262.15 50.8396   6
  -3   1  -1 2175.27 51.7543   3
  -3   1  -1 2176.58 51.1410   5
  -3   1  -1 2313.65 73.2505   1
   3  -1   1 2286.78 51.9005   3
   3  -1   1 2255.56 51.1933   5
   3  -1   1 2239.93 52.5588   2
   3  -1   1 2247.23 73.8403   1
   3  -1   1 2292.05 51.1155   6
  -4   1  -1 2836.97 64.4312   6
  -4   1  -1 2855.28 66.4005   3
  -4   1  -1 2709.29 61.6997   4
   4  -1   1 2881.72 64.9174   6
   4  -1   1 2891.10 67.3309   2
   4  -1   1 2926.73 66.4054   3
   4  -1   1 2961.40 65.8472   5
   4  -1   1 2893.50 94.3157   1
  -5   1  -1 66.6291 7.63350   3
  -5   1  -1 69.3822 3.76412   4
  -5   1  -1 87.5431 6.78572   6
  -5   1  -1 78.8411 7.95583   2
   5  -1   1 71.2692 21.0203   1
   5  -1   1 88.6898 7.46057   3
   5  -1   1 75.8817 8.20234   5
   5  -1   1 83.0412 7.68477   2
   5  -1   1 74.2137 6.83981   6
  -6   1  -1 2039.56 46.4715   4
  -6   1  -1 2072.62 50.8488   6
  -6   1  -1 2144.90 54.3419   3
   6  -1   1 2160.61 56.0829   2
   6  -1   1 2203.68 55.0536   3
   6  -1   1 2182.01 91.4904   1
   6  -1   1 2151.29 54.1570   5
   6  -1   1 2170.90 51.6176   6
   6  -1   1 2257.41 95.0845   1
  -7   1  -1 2.16813 6.29072   3
  -7   1  -1 4.28707 5.49315   6
   7  -1   1 -3.8840 8.42012   5
   7  -1   1 -0.5254 5.13145   6
   7  -1   1 -1.0348 7.44273   2
   7  -1   1 3.50582 8.45197   3
   7  -1   1 50.5365 34.1902   1
   7  -1   1 -0.0946 33.4878   1
  -8   1  -1 239.890 14.6554   6
  -8   1  -1 231.368 20.4125   3
   8  -1   1 223.354 13.6989   6
   8  -1   1 252.205 19.5276   2
  -9   1  -1 32.3871 11.0918   3
   9  -1   1 37.3567 8.63533   6
   9  -1   1 9.99554 9.67514   2
 -10   1  -1 40.7453 14.8908   3
  10  -1   1 47.0480 17.7764   2
  10   0  -1 3.16337 14.2895   5
  10   0  -1 -11.150 14.5450   2
 -10   0   1 -8.2694 14.1071   3
   9   0  -1 0.69736 12.3886   2
  -9   0   1 15.6377 10.6197   3
   8   0  -1 9.28616 4.08133   6
   8   0  -1 7.33931 9.20994   2
   8   0  -1 10.9177 5.18609   4
  -8   0   1 8.89791 7.87406   3
   7   0  -1 -3.5606 27.4522   1
   7   0  -1 15.4674 9.93570   3
   7   0  -1 27.8602 4.95112   4
   7   0  -1 25.4126 4.10674   6
   7   0  -1 -33.432 28.3909   1
   7   0  -1 21.0061 8.47911   2
   7   0  -1 29.4872 8.61397   5
  -7   0   1 34.4603 5.15878   4
  -7   0   1 40.1140 8.50169   3
   6   0  -1 4.49970 20.9265   1
   6   0  -1 13.8985 6.68885   2
   6   0  -1 0.42034 3.46592   4
   6   0  -1 -3.4297 22.9329   1
   6   0  -1 4.50508 2.85063   6
   6   0  -1 -2.8205 4.83492   5
   6   0  -1 4.14156 5.28565   3
  -6   0   1 9.77313 3.67570   4
  -6   0   1 4.98219 5.50961   3
   5   0  -1 234.087 12.7567   2
   5   0  -1 258.784 11.6288   3
   5   0  -1 157.622 23.2561   1
   5   0  -1 226.130 31.5468   1
   5   0  -1 224.097 12.1305   5
   5   0  -1 237.654 8.31267   6
   5   0  -1 224.638 8.91207   4
  -5   0   1 244.598 9.38585   4
  -5   0   1 245.275 12.1537   3
  -5   0   1 248.020 13.2715   2
   4   0  -1 140.813 6.33528   4
   4   0  -1 122.195 18.1225   1
   4   0  -1 126.405 18.8048   1
   4   0  -1 128.049 8.83722   2
   4   0  -1 129.661 5.26071   6
  -4   0   1 139.743 8.98462   2
  -4   0   1 138.494 8.26705   3
  -4   0   1 129.447 6.37452   4
   3   0  -1 1350.39 32.6682   3
   3   0  -1 1301.03 32.9023   2
   3   0  -1 1340.71 47.4739   1
   3   0  -1 1280.78 29.3066   6
   3   0  -1 1306.15 30.7384   4
  -3   0   1 1331.18 32.6936   3
  -3   0   1 1318.80 31.0277   4
  -3   0   1 1365.25 33.1029   2
   2   0  -1 1368.47 31.3047   2
   2   0  -1 1280.15 28.3316   6
   2   0  -1 1308.20 30.0128   4
   2   0  -1 1351.93 31.0782   3
   2   0  -1 1206.81 46.6082   1
  -2   0   1 1343.85 31.0731   3
  -2   0   1 1321.81 31.1626   2
   1   0  -1 472.594 12.0398   3
   1   0  -1 420.037 11.7798   2
   1   0  -1 481.098 11.8795   4
   1   0  -1 531.011 19.2157   1
  -1   0   1 474.361 11.9045   4
  -1   0   1 477.139 12.0259   2
  -2   0  -1 4706.19 104.015   1
  -2   0  -1 4112.92 89.2219   6
  -2   0  -1 3650.97 89.2853   3
  -2   0  -1 4049.08 89.8576   5
   2   0   1 4233.08 89.2871   3
   2   0   1 3776.27 89.3436   6
   2   0   1 4313.02 89.5909   5
   2   0   1 3963.39 90.0843   2
   2   0   1 4607.55 104.019   1
  -3   0  -1 3105.02 70.4830   3
  -3   0  -1 3204.55 69.9326   6
  -3   0  -1 3259.55 87.6194   1
  -3   0  -1 3118.65 70.7017   5
   3   0   1 3212.57 70.6910   5
   3   0   1 3200.62 71.5064   2
   3   0   1 3205.33 70.4826   3
   3   0   1 3284.52 88.7598   1
   3   0   1 3131.80 70.0048   6
  -4   0  -1 186.483 8.37677   5
  -4   0  -1 188.210 8.66936   3
  -4   0  -1 195.058 7.71437   6
  -4   0  -1 202.902 21.9711   1
   4   0   1 196.932 9.21269   2
   4   0   1 191.210 8.73516   3
   4   0   1 180.478 22.6068   1
   4   0   1 202.649 9.07812   5
   4   0   1 187.482 4.62297   4
   4   0   1 195.214 8.13360   6
  -5   0  -1 2313.91 55.6045   3
  -5   0  -1 2302.96 53.6142   6
   5   0   1 2405.12 83.5395   1
   5   0   1 2380.76 54.1980   6
   5   0   1 2477.53 55.9882   3
   5   0   1 2201.88 49.5509   4
   5   0   1 2321.74 55.8374   5
   5   0   1 2326.11 57.1162   2
  -6   0  -1 172.353 10.9009   3
  -6   0  -1 171.545 9.24187   6
   6   0   1 128.138 25.3836   1
   6   0   1 181.667 12.3979   2
   6   0   1 181.904 10.4613   5
   6   0   1 159.668 28.7034   1
   6   0   1 168.015 9.30604   6
   6   0   1 190.979 11.7529   3
  -7   0  -1 467.508 19.6830   3
  -7   0  -1 463.653 16.6597   6
   7   0   1 485.408 20.8131   3
   7   0   1 404.891 51.2371   1
   7   0   1 500.465 20.9198   5
   7   0   1 428.791 54.9550   1
   7   0   1 477.839 21.4959   2
   7   0   1 480.076 17.1024   6
  -8   0  -1 442.821 20.7466   3
   8   0   1 411.353 22.8653   2
   8   0   1 427.739 17.2164   6
   8   0   1 458.154 84.3309   1
  -9   0  -1 26.1271 9.36115   3
   9   0   1 29.0708 9.57017   2
   9   0   1 36.1057 7.91631   6
 -10   0  -1 270.250 22.1540   3
  10   0   1 230.587 17.7938   6
  10   0   1 206.292 24.7339   2
 -11   0  -1 -5.0050 15.8367   3
  11   0   1 -23.594 19.7217   2
  10  -1  -1 -32.653 18.2850   2
  10  -1  -1 -9.7102 16.7218   5
 -10   1   1 -17.684 16.6213   3
   9  -1  -1 132.810 16.4596   5
   9  -1  -1 111.397 17.6050   2
  -9   1   1 83.7335 14.6158   3
   8  -1  -1 14.9472 10.5489   2
   8  -1  -1 18.6399 5.91648   4
  -8   1   1 22.2086 9.87146   3
  -8   1   1 10.6035 5.15722   4
   7  -1  -1 89.9344 8.39523   4
   7  -1  -1 69.1801 42.5828   1
   7  -1  -1 116.673 13.0248   2
   7  -1  -1 98.3176 6.72532   6
  -7   1   1 96.8261 8.31348   4
  -7   1   1 101.384 11.8584   3
   6  -1  -1 134.340 13.7839   3
   6  -1  -1 71.3980 30.5387   1
   6  -1  -1 76.6684 31.1673   1
   6  -1  -1 132.218 8.34899   4
   6  -1  -1 134.832 13.3822   2
   6  -1  -1 148.586 7.04208   6
   6  -1  -1 136.932 13.4500   5
  -6   1   1 142.951 8.43803   4
  -6   1   1 141.906 15.1226   2
  -6   1   1 132.707 11.6318   3
   5  -1  -1 39.3696 21.1052   1
   5  -1  -1 33.5641 3.57300   6
   5  -1  -1 26.0022 7.05467   2
   5  -1  -1 13.3552 19.8805   1
   5  -1  -1 43.1204 6.98700   5
   5  -1  -1 25.1987 4.11459   4
   5  -1  -1 25.5718 6.61094   3
  -5   1   1 30.0199 4.38752   4
  -5   1   1 27.1460 3.14978   6
  -5   1   1 31.6755 7.42212   2
  -5   1   1 33.2930 6.26099   3
   4  -1  -1 292.121 12.7488   3
   4  -1  -1 292.809 13.4873   2
   4  -1  -1 287.042 10.0419   4
   4  -1  -1 288.157 11.7018   5
   4  -1  -1 294.338 31.6855   1
   4  -1  -1 309.991 33.2008   1
  -4   1   1 293.279 12.5071   3
  -4   1   1 276.919 8.52685   6
  -4   1   1 298.845 10.3381   4
  -4   1   1 307.640 13.5593   2
   3  -1  -1 43.5410 5.78509   2
   3  -1  -1 46.3493 4.25960   4
   3  -1  -1 49.9099 14.0056   1
   3  -1  -1 52.5186 4.97428   3
   3  -1  -1 54.2866 3.28511   6
  -3   1   1 54.6346 6.59438   2
  -3   1   1 53.4383 4.44856   4
  -3   1   1 43.9943 4.71346   3
  -3   1   1 54.0711 3.11898   6
   2  -1  -1 31.2751 2.22022   6
   2  -1  -1 43.0151 4.47584   3
   2  -1  -1 27.3756 2.97056   4
   2  -1  -1 31.6129 4.49985   2
   2  -1  -1 24.1844 9.20991   1
  -2   1   1 34.4296 3.42929   4
  -2   1   1 18.4002 9.67920   1
  -2   1   1 37.7225 4.08467   2
  -2   1   1 42.4411 4.34863   3
  -2   1   1 34.0566 2.34344   6
   1  -1  -1 41.0466 3.19540   4
   1  -1  -1 40.8797 1.99542   6
   1  -1  -1 44.2344 3.53494   3
   1  -1  -1 35.3363 7.88057   1
   1  -1  -1 42.0091 3.77966   2
  -1   1   1 30.3937 7.95717   1
  -1   1   1 33.7948 3.62176   4
  -1   1   1 44.3422 2.18726   6
  -1   1   1 43.5572 3.60222   2
  -1   1   1 42.0119 3.40053   3
   0  -1  -1 22.2910 2.45418   4
   0  -1  -1 30.3726 2.02446   3
   0  -1  -1 14.7250 4.66657   1
   0  -1  -1 19.5567 2.16238   5
   0   1   1 24.4010 2.39513   5
   0   1   1 27.8090 3.16467   2
   0   1   1 17.8907 5.34885   1
  -2  -1  -1 1130.66 25.1827   3
  -2  -1  -1 1208.96 34.2001   1
  -2  -1  -1 1139.78 26.0669   6
   2   1   1 1140.74 25.1582   3
   2   1   1 1178.74 26.2976   5
   2   1   1 958.204 26.8871   6
   2   1   1 1118.70 24.8428   4
   2   1   1 1196.63 34.0721   1
  -3  -1  -1 98.3030 4.98550   6
  -3  -1  -1 108.974 5.62838   5
  -3  -1  -1 101.380 4.83386   3
  -3  -1  -1 92.5518 11.4610   1
   3   1   1 111.820 12.4234   1
   3   1   1 97.6245 5.01596   6
   3   1   1 103.342 5.18281   5
   3   1   1 101.186 4.69047   3
   3   1   1 101.277 3.28638   4
   3   1   1 100.287 3.34592   4
  -4  -1  -1 1261.33 30.8917   3
  -4  -1  -1 1251.65 31.6584   5
  -4  -1  -1 1269.59 30.3486   6
  -4  -1  -1 1282.66 45.0488   1
   4   1   1 1274.07 30.5415   6
   4   1   1 1270.33 30.8024   3
   4   1   1 1245.47 27.7313   4
   4   1   1 1264.63 32.3902   2
   4   1   1 1278.13 46.2262   1
   4   1   1 1288.78 31.7277   5
  -5  -1  -1 7.49883 10.1120   1
  -5  -1  -1 13.7108 3.49919   6
  -5  -1  -1 14.3547 3.82972   3
   5   1   1 -2.7023 11.6982   1
   5   1   1 17.7985 4.21243   3
   5   1   1 13.5419 4.43372   5
   5   1   1 17.0317 3.45902   6
   5   1   1 10.6851 4.33295   2
   5   1   1 13.0798 1.45603   4
  -6  -1  -1 711.824 20.2181   6
  -6  -1  -1 696.170 22.0002   3
   6   1   1 759.302 45.8696   1
   6   1   1 725.398 22.6478   5
   6   1   1 736.492 22.3817   3
   6   1   1 710.077 23.8896   2
   6   1   1 681.981 20.4694   6
   6   1   1 702.390 42.6698   1
   6   1   1 699.108 15.8393   4
  -7  -1  -1 447.442 17.5784   3
   7   1   1 410.609 18.1335   3
   7   1   1 338.261 40.6952   1
   7   1   1 470.475 46.3305   1
   7   1   1 442.582 19.3781   5
   7   1   1 420.205 15.6643   6
   7   1   1 428.043 19.4506   2
  -8  -1  -1 32.0321 8.07638   3
   8   1   1 34.3412 6.44136   6
   8   1   1 44.3251 30.3262   1
   8   1   1 34.1720 9.49603   3
   8   1   1 -29.576 26.5823   1
   8   1   1 27.1481 8.76027   2
  -9  -1  -1 265.035 25.5870   3
   9   1   1 317.095 16.0710   6
   9   1   1 282.528 20.4458   2
 -10  -1  -1 18.6601 11.1559   3
  10   1   1 18.6116 12.1027   2
  10   1   1 -1.4525 8.54199   6
 -11  -1  -1 84.6455 16.6179   3
  11   1   1 88.5758 19.0644   2
   9  -2  -1 1.77056 15.3783   2
   9  -2  -1 -0.2786 13.7759   5
  -9   2   1 27.0692 14.1517   3
   8  -2  -1 217.716 22.0564   2
   8  -2  -1 193.411 18.7576   5
  -8   2   1 169.097 11.4172   4
  -8   2   1 156.794 18.4371   3
   7  -2  -1 222.480 17.1663   2
   7  -2  -1 220.845 12.1328   4
   7  -2  -1 227.803 9.32510   6
  -7   2   1 242.740 17.8843   3
  -7   2   1 269.557 12.7120   4
   6  -2  -1 50.2450 10.0084   5
   6  -2  -1 48.0418 35.2098   1
   6  -2  -1 41.4965 36.1046   1
   6  -2  -1 54.5618 6.39577   4
   6  -2  -1 52.0754 10.7149   2
   6  -2  -1 52.8717 12.4573   3
   6  -2  -1 58.9560 5.75141   6
  -6   2   1 50.5491 6.13590   4
  -6   2   1 49.3517 8.87493   3
  -6   2   1 39.1863 11.8407   2
  -6   2   1 48.4672 4.79805   6
   5  -2  -1 374.827 47.0850   1
   5  -2  -1 446.035 19.3642   3
   5  -2  -1 437.015 18.1032   5
   5  -2  -1 470.238 20.5055   2
   5  -2  -1 448.268 13.3248   6
   5  -2  -1 452.644 15.0437   4
   5  -2  -1 446.246 50.7376   1
  -5   2   1 457.751 18.6829   3
  -5   2   1 458.241 15.2038   4
  -5   2   1 469.937 19.5020   2
  -5   2   1 457.325 13.3619   6
   4  -2  -1 481.505 16.4879   5
   4  -2  -1 428.936 17.1173   3
   4  -2  -1 459.021 14.4033   4
   4  -2  -1 427.592 18.2819   2
   4  -2  -1 435.087 52.7503   1
   4  -2  -1 470.342 41.5588   1
   4  -2  -1 453.369 12.9453   6
  -4   2   1 457.140 14.4357   4
  -4   2   1 443.099 12.7507   6
  -4   2   1 468.794 17.7336   2
  -4   2   1 446.471 16.9072   3
   3  -2  -1 621.592 17.8427   5
   3  -2  -1 591.773 16.6383   4
   3  -2  -1 561.228 20.3137   3
   3  -2  -1 566.837 19.6991   2
   3  -2  -1 596.293 15.3102   6
   3  -2  -1 596.820 39.7699   1
   3  -2  -1 613.373 41.2434   1
  -3   2   1 595.690 15.3837   6
  -3   2   1 593.944 18.5240   3
  -3   2   1 560.248 19.5366   2
  -3   2   1 594.353 16.7462   4
   2  -2  -1 1463.25 36.5363   2
   2  -2  -1 1489.91 35.3591   3
   2  -2  -1 1474.72 34.1426   4
   2  -2  -1 1491.94 57.3452   1
  -2   2   1 1397.80 34.0089   4
  -2   2   1 1459.40 36.1684   2
  -2   2   1 1372.23 56.6233   1
  -2   2   1 1439.11 35.2224   3
  -2   2   1 1390.32 32.7782   6
   1  -2  -1 27.8986 3.24524   5
   1  -2  -1 26.7172 2.80015   6
   1  -2  -1 25.9869 3.02216   4
   1  -2  -1 26.5234 4.06853   2
   1  -2  -1 9.88128 8.81533   1
   1  -2  -1 18.4134 2.85885   3
  -1   2   1 23.2063 3.05635   3
  -1   2   1 22.8576 3.57047   2
  -1   2   1 20.6804 9.79583   1
  -1   2   1 24.4195 3.04518   4
  -1   2   1 25.2184 2.96863   6
   0  -2  -1 2254.04 52.0841   6
   0  -2  -1 2297.50 51.7913   5
   0  -2  -1 2396.35 53.5105   2
   0  -2  -1 2533.23 68.6427   1
   0  -2  -1 2421.60 52.3360   3
   0  -2  -1 2405.79 52.9857   4
   0   2   1 2256.88 51.6492   5
   0   2   1 2435.10 53.5086   2
   0   2   1 2312.99 52.1510   6
   0   2   1 2640.26 69.3765   1
   0   2   1 2441.23 53.0679   4
   0   2   1 2306.00 52.2407   3
  -1  -2  -1 483.549 11.6313   5
  -1  -2  -1 479.543 11.2715   3
  -1  -2  -1 508.245 21.2174   1
  -1  -2  -1 445.159 13.0747   2
  -1  -2  -1 487.004 12.5979   4
   1   2   1 475.385 20.8546   1
   1   2   1 490.781 13.0752   2
   1   2   1 479.860 11.1841   3
   1   2   1 493.589 11.7561   5
   1   2   1 435.786 13.5774   4
  -2  -2  -1 29.6610 3.05441   5
  -2  -2  -1 31.1937 2.98017   4
  -2  -2  -1 24.0173 5.65466   1
  -2  -2  -1 34.8365 3.23418   2
   2   2   1 28.4406 3.39528   4
   2   2   1 37.2381 3.26567   2
   2   2   1 31.4840 2.00024   3
   2   2   1 27.6009 5.46134   1
   2   2   1 30.4692 2.82145   5
  -3  -2  -1 808.297 20.5887   5
  -3  -2  -1 803.051 19.4418   3
  -3  -2  -1 855.593 27.9020   1
   3   2   1 826.130 20.5833   6
   3   2   1 794.737 19.2472   3
   3   2   1 803.314 21.1975   2
   3   2   1 819.923 20.6162   5
   3   2   1 793.283 19.5996   4
   3   2   1 833.188 27.5687   1
  -4  -2  -1 13.6047 3.27073   5
  -4  -2  -1 10.9672 2.56835   3
  -4  -2  -1 12.3273 6.62284   1
   4   2   1 8.40965 2.69961   6
   4   2   1 8.29384 1.97339   4
   4   2   1 16.8898 7.55727   1
   4   2   1 14.8880 2.66473   3
   4   2   1 10.0847 2.83010   5
   4   2   1 8.10719 2.02735   4
  -5  -2  -1 203.691 9.77106   5
  -5  -2  -1 189.924 8.64517   3
   5   2   1 191.879 6.75978   4
   5   2   1 184.664 11.3398   5
   5   2   1 207.588 9.83850   2
   5   2   1 208.754 8.83614   3
   5   2   1 184.279 19.8445   1
   5   2   1 195.276 8.70776   6
  -6  -2  -1 48.6875 5.81096   3
   6   2   1 46.0859 6.84310   2
   6   2   1 37.9299 4.48018   4
   6   2   1 49.6501 6.94532   5
   6   2   1 63.9057 15.9676   1
   6   2   1 55.7835 5.87106   6
   6   2   1 52.1143 3.92204   4
   6   2   1 65.1154 6.92084   3
  -7  -2  -1 -2.2066 4.43033   3
   7   2   1 -6.6254 3.84642   6
   7   2   1 -0.7891 4.91498   5
   7   2   1 18.0635 16.5884   1
   7   2   1 2.91937 2.00656   4
   7   2   1 -4.2427 5.33004   3
   7   2   1 -11.616 17.1408   1
   7   2   1 -5.2976 5.24195   2
   7   2   1 1.77905 1.84421   4
  -8  -2  -1 37.6597 7.45062   3
   8   2   1 19.6372 8.71814   3
   8   2   1 18.4820 23.3934   1
   8   2   1 29.7473 10.5394   5
   8   2   1 18.1951 8.07123   2
   8   2   1 7.58363 24.5601   1
   8   2   1 30.3668 6.22869   6
  -9  -2  -1 25.6336 8.67495   3
   9   2   1 17.9944 7.23534   6
   9   2   1 19.3067 9.61576   2
 -10  -2  -1 46.9742 11.5706   3
  10   2   1 39.7661 9.38815   6
  10   2   1 26.9756 11.5980   2
 -11  -2  -1 36.0688 13.0461   3
  11   2   1 33.6418 16.7486   2
  11   2   1 39.1756 11.9353   6
   9  -3  -1 3.13304 19.8558   2
   9  -3  -1 45.4950 17.2997   5
  -9   3   1 18.6659 16.6834   3
   8  -3  -1 159.563 17.1995   5
   8  -3  -1 134.921 19.1968   2
  -8   3   1 134.589 17.0966   3
   7  -3  -1 -3.5951 8.33622   5
   7  -3  -1 -22.580 9.68544   2
   7  -3  -1 11.1282 7.63860   4
   7  -3  -1 0.31954 4.29864   6
  -7   3   1 -1.0815 6.37565   4
  -7   3   1 1.38858 9.32343   3
   6  -3  -1 534.606 69.7344   1
   6  -3  -1 646.869 24.5821   5
   6  -3  -1 643.371 20.8651   4
   6  -3  -1 611.112 25.4028   5
   6  -3  -1 621.738 17.9813   6
   6  -3  -1 650.330 33.2343   2
  -6   3   1 619.573 20.4687   4
  -6   3   1 623.270 18.4341   6
   5  -3  -1 232.148 41.4464   1
   5  -3  -1 227.716 9.71823   6
   5  -3  -1 232.419 17.0728   2
   5  -3  -1 220.902 14.7216   4
   5  -3  -1 233.827 16.7487   3
   5  -3  -1 184.644 41.9740   1
   5  -3  -1 234.765 15.0501   5
  -5   3   1 235.463 10.1196   6
  -5   3   1 221.641 11.3187   4
  -5   3   1 224.168 14.4382   3
  -5   3   1 222.650 17.8092   2
   4  -3  -1 2048.82 54.3606   2
   4  -3  -1 2089.42 47.6939   6
   4  -3  -1 2004.10 89.3023   1
   4  -3  -1 2076.73 49.2839   4
   4  -3  -1 1984.02 91.3166   1
   4  -3  -1 2127.52 52.8368   3
   4  -3  -1 2163.99 51.0355   5
  -4   3   1 2082.48 52.7883   3
  -4   3   1 2062.77 49.5142   4
  -4   3   1 2025.97 47.7314   6
  -4   3   1 2039.03 54.0802   2
   3  -3  -1 1192.16 61.2902   1
   3  -3  -1 1205.93 32.4001   3
   3  -3  -1 1236.51 31.0038   5
   3  -3  -1 1187.57 29.0254   6
   3  -3  -1 1156.85 61.5545   1
   3  -3  -1 1216.70 30.5176   4
   3  -3  -1 1146.01 33.4978   2
  -3   3   1 1224.75 33.8911   2
  -3   3   1 1196.93 30.6423   4
  -3   3   1 1145.66 32.0547   3
  -3   3   1 1203.45 29.3063   6
   2  -3  -1 441.865 13.0297   6
   2  -3  -1 461.947 15.3961   3
   2  -3  -1 454.845 16.6543   2
   2  -3  -1 461.077 14.3130   4
   2  -3  -1 431.572 35.8975   1
   2  -3  -1 452.798 13.9950   5
  -2   3   1 461.692 13.6026   6
  -2   3   1 439.436 15.1058   3
  -2   3   1 456.214 14.4501   4
   1  -3  -1 3139.73 69.5984   5
   1  -3  -1 3141.71 72.3948   2
   1  -3  -1 3187.37 71.1236   3
   1  -3  -1 3082.54 69.7643   6
   1  -3  -1 3210.29 70.9531   4
   1  -3  -1 3242.42 97.7503   1
  -1   3   1 3132.65 70.0216   6
  -1   3   1 3296.88 72.6799   2
  -1   3   1 3236.45 97.6968   1
  -1   3   1 3057.24 70.8923   3
  -1   3   1 3159.30 71.0411   4
   0  -3  -1 558.821 15.2003   3
   0  -3  -1 549.258 16.5100   2
   0  -3  -1 578.325 15.9622   4
   0  -3  -1 558.966 13.9620   5
   0  -3  -1 605.661 31.4750   1
   0  -3  -1 545.872 14.9940   6
   0   3   1 550.921 15.8599   4
   0   3   1 560.521 16.7272   2
   0   3   1 569.186 15.2526   6
   0   3   1 551.536 15.0367   3
   0   3   1 553.762 32.2086   1
  -1  -3  -1 2901.14 63.1228   3
  -1  -3  -1 2955.93 64.7255   4
  -1  -3  -1 2956.16 80.5869   1
  -1  -3  -1 2788.35 62.2026   5
  -1  -3  -1 2931.45 65.1481   2
   1   3   1 2908.00 65.0194   2
   1   3   1 2933.96 64.7401   4
   1   3   1 2754.23 62.9613   3
   1   3   1 2916.55 64.2497   6
   1   3   1 2736.97 62.2358   5
   1   3   1 3147.57 81.8806   1
  -2  -3  -1 2566.57 56.2851   4
  -2  -3  -1 2642.99 68.5417   1
  -2  -3  -1 2456.10 54.6022   5
  -2  -3  -1 2392.27 56.5627   2
   2   3   1 2641.83 68.1424   1
   2   3   1 2364.45 54.1759   3
   2   3   1 2466.07 54.6686   5
   2   3   1 2545.63 56.7034   2
   2   3   1 2475.62 56.1469   4
  -3  -3  -1 427.039 12.2620   5
  -3  -3  -1 439.681 13.5918   2
  -3  -3  -1 434.723 19.6979   1
   3   3   1 415.867 11.1320   3
   3   3   1 421.389 12.4077   4
   3   3   1 402.009 18.5570   1
   3   3   1 420.901 12.1795   5
   3   3   1 428.386 13.2276   2
  -4  -3  -1 2303.20 54.2561   5
  -4  -3  -1 2452.35 61.9881   1
   4   3   1 2354.67 52.9212   3
   4   3   1 2424.11 54.5272   5
   4   3   1 2333.98 60.8982   1
   4   3   1 2352.82 53.3498   4
   4   3   1 2404.12 55.4470   2
   4   3   1 2348.04 54.5058   6
  -5  -3  -1 95.1726 6.14631   3
  -5  -3  -1 77.5143 5.87816   5
   5   3   1 85.9783 5.20789   4
   5   3   1 83.4016 8.38476   5
   5   3   1 93.4690 6.07853   3
   5   3   1 84.9832 11.2205   1
   5   3   1 86.3728 5.69710   4
   5   3   1 92.7948 6.54383   6
   5   3   1 91.9601 9.32413   2
  -6  -3  -1 237.966 10.4751   3
   6   3   1 219.170 10.5033   3
   6   3   1 218.797 10.5156   6
   6   3   1 226.402 12.2366   5
   6   3   1 240.393 8.65054   4
   6   3   1 229.394 22.1119   1
   6   3   1 225.392 8.82902   4
  -7  -3  -1 283.587 13.2474   3
   7   3   1 268.786 14.8767   2
   7   3   1 262.133 15.0521   5
   7   3   1 255.253 28.8600   1
   7   3   1 275.147 27.0517   1
   7   3   1 289.272 10.1705   4
   7   3   1 287.929 12.8603   6
   7   3   1 264.751 12.9646   3
   7   3   1 282.708 9.62683   4
  -8  -3  -1 63.3257 8.34655   3
   8   3   1 55.0036 9.30340   3
   8   3   1 66.0680 7.64338   6
   8   3   1 67.7085 10.7088   5
   8   3   1 64.9091 8.99994   2
   8   3   1 43.6152 20.9330   1
   8   3   1 73.1849 5.78277   4
   8   3   1 81.1913 20.8369   1
   8   3   1 68.4520 5.37327   4
  -9  -3  -1 34.5829 8.33662   3
   9   3   1 28.0892 3.29913   4
   9   3   1 33.2580 7.51534   6
   9   3   1 30.6689 2.88329   4
   9   3   1 23.0493 25.3377   1
   9   3   1 16.1762 10.6903   3
 -10  -3  -1 1.30303 9.12157   3
  10   3   1 -12.221 10.2984   2
  10   3   1 4.54899 8.11204   6
 -11  -3  -1 16.8688 12.2404   3
  11   3   1 6.54247 11.0105   6
  11   3   1 42.4499 15.5507   2
 -12  -3  -1 17.6391 16.5323   3
  12   3   1 -34.066 24.6579   2
   8  -4  -1 -7.6326 16.1726   2
   8  -4  -1 6.78572 14.0458   5
  -8   4   1 -27.223 13.7272   3
   7  -4  -1 91.8755 16.9171   2
   7  -4  -1 108.941 13.9843   5
   7  -4  -1 101.972 9.23606   6
  -7   4   1 84.9730 10.0843   4
  -7   4   1 85.3890 14.7186   3
   6  -4  -1 68.2283 10.6369   5
   6  -4  -1 71.2140 9.83501   4
   6  -4  -1 55.7618 98.5680   1
   6  -4  -1 75.7378 8.52562   6
   6  -4  -1 86.9426 14.0496   2
  -6   4   1 80.3067 9.05268   4
  -6   4   1 75.1801 7.72006   6
  -6   4   1 58.8468 11.5194   3
   5  -4  -1 158.562 12.4662   4
   5  -4  -1 171.933 50.6354   1
   5  -4  -1 162.353 15.1832   5
   5  -4  -1 164.594 17.1379   2
   5  -4  -1 151.222 13.0839   5
   5  -4  -1 214.639 48.3139   1
   5  -4  -1 157.416 9.54853   6
  -5   4   1 162.944 10.6582   6
  -5   4   1 155.133 14.1502   3
  -5   4   1 155.990 11.0927   4
   4  -4  -1 519.319 19.1663   5
   4  -4  -1 539.670 16.7663   6
   4  -4  -1 548.649 18.8567   4
   4  -4  -1 537.922 19.4363   5
   4  -4  -1 498.755 60.1002   1
   4  -4  -1 530.727 22.1928   3
   4  -4  -1 531.427 22.0341   2
   4  -4  -1 555.083 63.7844   1
  -4   4   1 513.164 18.2976   4
  -4   4   1 522.829 17.3027   6
  -4   4   1 560.375 23.7693   2
  -4   4   1 530.716 21.1134   3
   3  -4  -1 14.3077 3.76537   6
   3  -4  -1 12.9246 6.22513   3
   3  -4  -1 -18.504 20.9607   1
   3  -4  -1 15.4595 4.83104   5
   3  -4  -1 15.0722 6.73299   2
   3  -4  -1 -7.5644 25.9072   1
   3  -4  -1 17.3047 4.53242   5
   3  -4  -1 6.00062 4.82559   4
  -3   4   1 17.0101 7.14711   2
  -3   4   1 17.5188 4.65978   4
  -3   4   1 17.0053 4.68775   3
  -3   4   1 15.7014 4.63917   6
   2  -4  -1 2404.90 54.4037   5
   2  -4  -1 2311.27 90.6639   1
   2  -4  -1 2322.16 58.7423   2
   2  -4  -1 2343.45 54.7653   6
   2  -4  -1 2427.99 54.9540   5
   2  -4  -1 2294.47 91.5385   1
   2  -4  -1 2416.75 57.3407   3
  -2   4   1 2479.97 59.0157   2
  -2   4   1 2392.05 57.2194   3
  -2   4   1 2435.68 55.4134   6
  -2   4   1 2297.60 56.0275   4
   1  -4  -1 256.046 9.01395   5
   1  -4  -1 259.765 9.80551   6
   1  -4  -1 252.099 10.8588   4
   1  -4  -1 235.961 12.1804   2
   1  -4  -1 273.746 11.0723   3
   1  -4  -1 258.830 31.1627   1
  -1   4   1 258.402 10.6170   3
  -1   4   1 279.510 10.9126   4
  -1   4   1 264.160 10.4118   6
  -1   4   1 243.403 12.4582   2
   0  -4  -1 4195.60 97.5491   2
   0  -4  -1 4107.18 93.3113   5
   0  -4  -1 4229.18 95.7520   6
   0  -4  -1 4414.97 96.8162   4
   0  -4  -1 4594.59 126.044   1
   0  -4  -1 4362.47 95.9070   3
   0   4   1 4331.77 96.7757   4
   0   4   1 4298.31 95.7399   3
   0   4   1 4462.37 97.8524   2
   0   4   1 4519.59 125.718   1
   0   4   1 4436.63 96.1273   6
  -1  -4  -1 2755.11 64.0126   2
  -1  -4  -1 2795.48 61.9182   3
  -1  -4  -1 2808.90 84.5774   1
  -1  -4  -1 2587.89 59.6002   5
  -1  -4  -1 2860.99 63.5954   4
   1   4   1 2777.60 61.7517   3
   1   4   1 2594.65 59.6377   5
   1   4   1 2869.11 63.0930   6
   1   4   1 2918.84 86.2814   1
   1   4   1 2713.77 63.4382   4
   1   4   1 2917.14 64.1759   2
  -2  -4  -1 973.542 26.3328   2
  -2  -4  -1 994.296 24.0415   3
  -2  -4  -1 1040.82 26.1438   4
  -2  -4  -1 1006.23 39.8125   1
  -2  -4  -1 976.084 23.0832   5
   2   4   1 1020.29 25.8186   6
   2   4   1 1014.62 26.1179   4
   2   4   1 997.672 24.0048   3
   2   4   1 1013.96 23.3674   5
   2   4   1 1016.17 26.3705   2
   2   4   1 995.153 40.1301   1
  -3  -4  -1 5126.19 115.028   2
  -3  -4  -1 5350.78 127.335   1
  -3  -4  -1 5096.81 112.464   5
   3   4   1 5174.26 112.606   5
   3   4   1 4716.90 113.273   3
   3   4   1 5293.31 114.552   4
   3   4   1 5458.73 114.882   6
   3   4   1 5374.05 115.134   2
   3   4   1 5440.72 127.182   1
  -4  -4  -1 42.8918 8.53296   1
  -4  -4  -1 38.4723 4.45620   5
   4   4   1 36.7110 5.34250   2
   4   4   1 30.7212 7.56121   1
   4   4   1 38.1100 4.08557   3
   4   4   1 34.9669 4.27093   4
   4   4   1 48.5530 4.80836   5
  -5  -4  -1 2333.57 61.3431   1
  -5  -4  -1 2373.65 56.0592   5
   5   4   1 2431.92 57.6452   2
   5   4   1 2398.79 56.2208   5
   5   4   1 2350.72 55.1044   4
   5   4   1 2499.12 60.6473   1
   5   4   1 2351.58 56.3951   6
   5   4   1 2402.54 54.4795   3
   6   4   1 1048.43 27.4663   4
   6   4   1 1047.89 27.9522   3
   6   4   1 1090.96 33.4481   1
   6   4   1 1067.60 30.0563   5
   6   4   1 1078.76 27.8986   4
   6   4   1 1064.18 29.5405   6
   6   4   1 1106.64 31.5090   2
   7   4   1 387.007 13.9489   4
   7   4   1 412.328 13.5506   4
   7   4   1 416.597 24.2776   1
   7   4   1 401.190 15.9432   6
   7   4   1 387.903 15.1607   3
   7   4   1 402.562 17.9460   5
   7   4   1 420.424 19.0954   2
   7   4   1 408.305 23.4952   1
   8   4   1 839.308 22.3824   4
   8   4   1 837.583 35.9031   1
   8   4   1 816.739 26.1036   3
   8   4   1 782.718 27.7635   5
   8   4   1 853.754 29.7191   2
   8   4   1 799.515 25.9344   6
   8   4   1 819.902 30.5795   2
   8   4   1 798.314 36.5767   1
   9   4   1 12.9163 21.8881   1
   9   4   1 8.54739 5.03385   4
   9   4   1 -3.8607 9.93725   3
   9   4   1 22.3192 7.23701   6
   9   4   1 7.51385 3.91366   4
   9   4   1 -14.397 17.3828   1
  10   4   1 188.732 25.5804   1
  10   4   1 212.957 8.30901   4
  10   4   1 254.511 21.2970   2
  10   4   1 213.872 16.5541   6
  11   4   1 -14.398 13.3952   2
  11   4   1 23.3708 10.9646   6
  12   4   1 35.5383 19.8404   2
   8  -5  -1 -30.938 17.6391   5
   7  -5  -1 55.7213 17.1324   2
   7  -5  -1 68.9392 15.3065   5
  -7   5   1 46.7870 15.0023   3
   6  -5  -1 -4.2302 11.1895   2
   6  -5  -1 11.5893 6.48584   6
   6  -5  -1 2.12378 9.42895   5
  -6   5   1 -3.2444 7.60582   4
  -6   5   1 -3.4630 9.84918   3
   5  -5  -1 54.2517 9.57138   5
   5  -5  -1 44.7283 6.63666   6
   5  -5  -1 53.2779 10.2657   4
   5  -5  -1 43.4522 11.9453   2
   5  -5  -1 44.4828 10.3947   5
   5  -5  -1 153.865 63.1743   1
  -5   5   1 70.7943 8.70516   6
  -5   5   1 49.0010 8.13334   4
  -5   5   1 37.9331 10.2464   3
   4  -5  -1 -10.865 42.9421   1
   4  -5  -1 40.2532 40.0572   1
   4  -5  -1 5.13086 6.87332   4
   4  -5  -1 20.8941 6.52142   5
   4  -5  -1 -2.7136 7.83911   2
   4  -5  -1 2.97793 4.58329   6
   4  -5  -1 -3.2365 5.24615   5
  -4   5   1 4.54588 6.19846   6
  -4   5   1 1.74851 5.56971   4
  -4   5   1 2.11511 4.74536   3
   3  -5  -1 177.851 13.0115   2
   3  -5  -1 182.786 12.3635   5
   3  -5  -1 204.818 14.6197   3
   3  -5  -1 223.367 12.4560   4
   3  -5  -1 181.706 40.1293   1
   3  -5  -1 196.454 10.6274   5
   3  -5  -1 187.155 10.3902   6
   3  -5  -1 211.499 43.6385   1
  -3   5   1 188.449 11.5302   6
  -3   5   1 173.319 11.1785   4
  -3   5   1 156.923 12.3465   3
  -3   5   1 201.643 15.9541   2
   2  -5  -1 85.5752 9.81682   3
   2  -5  -1 66.4812 8.55820   2
   2  -5  -1 75.0524 6.42506   5
   2  -5  -1 64.3934 30.0710   1
   2  -5  -1 82.1396 8.21381   4
   2  -5  -1 45.7185 26.4496   1
   2  -5  -1 64.8970 6.39909   5
   2  -5  -1 57.1320 6.15049   6
  -2   5   1 62.9596 7.46369   3
  -2   5   1 52.6600 9.17454   2
  -2   5   1 68.3970 7.66946   4
   1  -5  -1 415.829 45.9303   1
   1  -5  -1 424.342 44.4009   1
   1  -5  -1 424.252 12.1053   5
   1  -5  -1 408.705 14.5556   6
   1  -5  -1 427.761 16.1247   3
   1  -5  -1 408.815 12.4756   5
   1  -5  -1 422.344 17.1823   2
   1  -5  -1 421.241 15.6957   4
  -1   5   1 414.985 15.2767   3
  -1   5   1 406.979 15.3114   6
  -1   5   1 407.325 15.4828   4
  -1   5   1 404.648 17.4867   2
   0  -5  -1 680.727 20.2929   3
   0  -5  -1 669.722 22.0003   2
   0  -5  -1 731.234 46.5004   1
   0  -5  -1 686.805 21.1625   4
   0  -5  -1 687.909 16.8732   5
   0  -5  -1 691.278 20.3619   6
   0   5   1 696.064 21.2430   4
   0   5   1 689.005 20.1229   3
   0   5   1 715.036 20.7057   6
   0   5   1 700.608 22.4760   2
  -1  -5  -1 426.799 34.8274   1
  -1  -5  -1 450.110 10.7614   5
  -1  -5  -1 459.422 15.7770   4
  -1  -5  -1 450.886 14.2779   3
  -1  -5  -1 446.522 16.1748   2
   1   5   1 439.290 15.3161   4
   1   5   1 452.664 34.9300   1
   1   5   1 456.509 15.4566   6
   1   5   1 457.924 14.0646   3
  -2  -5  -1 2047.78 46.4987   3
  -2  -5  -1 2005.97 70.1854   1
  -2  -5  -1 1962.87 43.9257   5
  -2  -5  -1 1975.90 48.9420   2
   2   5   1 1948.88 44.0790   5
   2   5   1 1994.22 46.2198   3
   2   5   1 2069.47 49.1851   2
   2   5   1 2067.42 48.9144   4
   2   5   1 2086.84 70.1695   1
  -3  -5  -1 -1.8196 11.3188   1
  -3  -5  -1 7.10620 3.91299   2
  -3  -5  -1 4.26268 2.02780   5
   3   5   1 3.27475 3.86016   6
   3   5   1 10.6161 10.4524   1
   3   5   1 10.9422 4.54912   2
   3   5   1 2.43208 2.23629   5
   3   5   1 0.30802 2.44422   3
   3   5   1 1.70553 3.00632   4
  -4  -5  -1 2838.86 64.3924   5
  -4  -5  -1 3017.67 79.6992   1
  -4  -5  -1 2811.98 67.4189   2
   4   5   1 2824.54 64.1199   3
   4   5   1 2897.44 66.9010   6
   4   5   1 2949.06 78.3358   1
   4   5   1 2817.93 67.2232   2
   4   5   1 2830.95 64.5115   5
   4   5   1 2870.82 66.6655   4
  -5  -5  -1 828.861 29.9025   1
   5   5   1 842.301 22.1207   3
   5   5   1 841.127 24.8476   6
   5   5   1 828.411 23.2703   5
   5   5   1 850.275 25.1111   2
   5   5   1 832.128 23.9205   4
   6   5   1 765.131 25.4894   2
   6   5   1 766.679 23.7876   5
   6   5   1 773.853 22.7050   4
   6   5   1 813.647 24.5107   6
   6   5   1 776.029 21.7729   3
   6   5   1 763.165 23.8729   6
   7   5   1 1197.91 31.5629   3
   7   5   1 1136.75 33.7107   5
   7   5   1 1076.16 33.5185   4
   7   5   1 1171.65 33.0953   6
   7   5   1 1222.27 31.3618   4
   7   5   1 1173.64 35.4471   2
   8   5   1 8.95435 4.71867   4
   8   5   1 -8.3437 6.61775   3
   8   5   1 -14.374 8.39392   5
   8   5   1 10.8386 6.04613   6
   8   5   1 10.4539 10.5853   2
   8   5   1 9.13361 6.64347   4
   9   5   1 584.540 24.4432   3
   9   5   1 631.451 24.7921   6
   9   5   1 641.349 24.1889   6
   9   5   1 604.512 19.4253   4
  10   5   1 102.981 12.4527   6
  10   5   1 100.450 14.3084   2
  10   5   1 94.4902 9.53893   4
  11   5   1 75.6905 16.1157   2
  12   5   1 93.0115 21.8402   2
  12   5   1 83.8901 22.8563   6
   7  -6  -1 3.99619 19.9731   2
   7  -6  -1 44.8063 17.2301   5
  -7   6   1 28.1192 17.9227   3
   6  -6  -1 2.36564 14.8272   2
  -6   6   1 7.44883 10.1089   4
  -6   6   1 15.9318 13.1122   3
   5  -6  -1 138.994 12.5625   6
   5  -6  -1 103.278 15.7581   2
   5  -6  -1 120.975 12.5123   5
  -5   6   1 130.606 15.0935   3
  -5   6   1 140.280 14.5176   4
   4  -6  -1 -0.0181 6.54880   5
   4  -6  -1 27.2954 56.6404   1
   4  -6  -1 3.56647 10.3747   2
   4  -6  -1 5.43691 6.02972   6
   4  -6  -1 -3.2738 8.10833   5
   4  -6  -1 -63.955 59.7814   1
  -4   6   1 -14.730 8.31993   6
  -4   6   1 -5.3811 5.87577   3
  -4   6   1 12.1515 6.81823   4
   3  -6  -1 99.3488 42.7644   1
   3  -6  -1 63.4607 9.63678   4
   3  -6  -1 64.8184 11.7886   3
   3  -6  -1 81.5628 9.43435   6
   3  -6  -1 68.1661 11.4205   2
   3  -6  -1 50.0206 46.5055   1
   3  -6  -1 65.8786 7.41123   5
   3  -6  -1 61.0352 7.52005   5
  -3   6   1 66.8088 8.61611   4
  -3   6   1 70.7063 9.89572   3
  -3   6   1 57.6250 9.18256   6
   2  -6  -1 100.802 10.7641   3
   2  -6  -1 92.8887 11.0002   2
   2  -6  -1 108.988 7.74611   5
   2  -6  -1 91.8849 34.8654   1
   2  -6  -1 96.8550 7.77925   5
   2  -6  -1 101.358 9.15748   6
   2  -6  -1 114.750 42.3225   1
   2  -6  -1 106.844 11.5212   4
  -2   6   1 90.2370 9.90157   3
  -2   6   1 93.1379 10.5580   6
  -2   6   1 85.8500 9.61871   4
  -2   6   1 103.131 12.4554   2
   1  -6  -1 38.6860 26.3159   1
   1  -6  -1 19.2748 3.60406   5
   1  -6  -1 18.8905 6.44570   3
   1  -6  -1 6.88512 5.90976   4
   1  -6  -1 38.2378 29.7857   1
   1  -6  -1 21.4525 3.32927   5
   1  -6  -1 16.7745 4.78742   6
   1  -6  -1 19.3654 6.81802   2
  -1   6   1 11.6273 8.10082   2
  -1   6   1 22.7408 5.49516   3
  -1   6   1 10.1008 5.58449   6
  -1   6   1 11.8909 5.22584   4
   0  -6  -1 14.8931 5.97314   4
   0  -6  -1 6.80636 4.00837   6
   0  -6  -1 2.23916 21.3784   1
   0  -6  -1 5.33639 5.12765   2
   0  -6  -1 8.37545 5.47469   3
   0  -6  -1 -11.657 21.5528   1
   0  -6  -1 6.07461 1.97068   5
   0  -6  -1 7.97342 1.83246   5
   0   6   1 8.38627 4.05749   3
   0   6   1 3.18320 4.46153   4
   0   6   1 3.90362 6.57507   2
   0   6   1 5.07165 5.01790   6
  -1  -6  -1 12.6976 4.76488   3
  -1  -6  -1 35.7390 18.4013   1
  -1  -6  -1 9.77076 5.11916   2
   1   6   1 17.4804 4.89970   4
   1   6   1 23.6891 5.35630   6
   1   6   1 10.0461 6.05913   2
   1   6   1 20.9738 4.16783   3
  -2  -6  -1 19.2025 4.29834   3
  -2  -6  -1 28.7550 16.3567   1
  -2  -6  -1 16.8401 4.94610   2
   2   6   1 17.9094 3.89658   3
   2   6   1 20.2958 1.86746   5
   2   6   1 10.4438 5.44298   2
   2   6   1 11.2591 4.54741   4
   2   6   1 18.1499 5.07242   6
  -3  -6  -1 140.549 19.7284   1
  -3  -6  -1 165.387 10.1653   2
   3   6   1 146.114 21.7071   1
   3   6   1 162.861 6.56180   5
   3   6   1 180.466 9.83449   6
   3   6   1 155.594 10.3707   2
   3   6   1 164.216 7.96582   3
   3   6   1 157.923 9.85816   4
  -4  -6  -1 53.9237 6.76960   2
  -4  -6  -1 63.4987 14.9576   1
   4   6   1 61.1233 7.32679   6
   4   6   1 64.4639 5.71444   5
   4   6   1 67.9428 5.98277   3
   4   6   1 77.6596 14.9692   1
   4   6   1 85.6824 8.86686   2
   4   6   1 56.7333 6.70640   4
  -5  -6  -1 88.7408 8.96857   2
  -5  -6  -1 88.4864 14.1563   1
   5   6   1 86.5225 8.32580   4
   5   6   1 75.7290 8.40832   6
   5   6   1 103.893 7.03910   3
   5   6   1 58.0933 7.85315   2
   5   6   1 89.2200 7.48260   5
   5   6   1 82.1348 6.45623   3
   6   6   1 464.295 15.9274   3
   6   6   1 469.721 17.6137   4
   6   6   1 450.625 17.3534   5
   6   6   1 479.870 19.2112   6
   6   6   1 493.235 19.8987   2
   6   6   1 507.017 15.8529   3
   7   6   1 -0.0278 4.70412   4
   7   6   1 8.78406 5.43672   6
   7   6   1 12.0285 8.90795   2
   7   6   1 9.84078 7.46633   6
   7   6   1 7.31396 6.80403   4
   7   6   1 9.77472 6.87890   5
   7   6   1 -0.4757 4.96838   3
   8   6   1 704.552 30.1169   2
   8   6   1 728.299 25.8692   6
   8   6   1 746.698 25.0666   4
   8   6   1 749.941 24.4686   3
   8   6   1 747.529 23.7636   4
   8   6   1 755.744 27.5519   6
   8   6   1 728.313 27.9745   5
   9   6   1 36.2771 12.4095   2
   9   6   1 47.8132 10.0547   4
   9   6   1 54.6686 7.49994   4
   9   6   1 36.3395 10.0514   3
   9   6   1 58.1437 9.44508   6
  10   6   1 116.425 15.5119   2
  10   6   1 101.978 14.3382   6
  10   6   1 136.759 12.5068   4
  11   6   1 110.892 17.7314   2
  11   6   1 116.852 14.9199   6
  12   6   1 -3.4945 15.2417   6
  12   6   1 27.0311 19.6709   2
   6  -7  -1 63.0856 19.9756   2
  -6   7   1 74.1797 18.6964   3
   5  -7  -1 42.3087 15.7512   2
   5  -7  -1 19.4427 10.8995   5
  -5   7   1 21.8902 13.0819   3
   4  -7  -1 39.4613 12.4069   2
   4  -7  -1 28.5591 8.59408   5
  -4   7   1 23.6396 9.61196   4
  -4   7   1 30.0492 10.6478   3
   3  -7  -1 177.769 58.0746   1
   3  -7  -1 239.267 17.6580   2
   3  -7  -1 241.146 13.3633   5
   3  -7  -1 239.064 14.7427   6
   3  -7  -1 221.562 14.7450   5
  -3   7   1 251.368 16.1847   4
  -3   7   1 205.998 24.1392   3
  -3   7   1 213.696 18.9048   6
   2  -7  -1 7.08888 5.72689   6
   2  -7  -1 -38.307 46.6485   1
   2  -7  -1 12.8361 4.57516   5
   2  -7  -1 14.3704 4.70053   5
   2  -7  -1 -4.2082 41.1431   1
   2  -7  -1 -13.540 9.88041   3
   2  -7  -1 6.84809 8.65192   2
  -2   7   1 11.9396 7.09926   3
  -2   7   1 7.34321 6.89235   4
  -2   7   1 -0.3524 8.33615   6
   1  -7  -1 233.202 49.1942   1
   1  -7  -1 207.114 7.73884   5
   1  -7  -1 222.734 44.1541   1
   1  -7  -1 228.597 16.2103   2
   1  -7  -1 211.811 13.2637   6
   1  -7  -1 194.897 15.4007   3
  -1   7   1 241.765 18.7868   2
  -1   7   1 215.321 13.4358   3
  -1   7   1 205.723 13.8512   4
  -1   7   1 218.302 15.0312   6
   0  -7  -1 227.733 14.6149   2
   0  -7  -1 209.798 13.6436   3
   0  -7  -1 158.497 36.2820   1
   0  -7  -1 153.516 38.7717   1
   0   7   1 204.492 11.8279   3
   0   7   1 212.763 16.4551   2
   0   7   1 203.558 13.2988   4
   0   7   1 181.655 13.5962   6
  -1  -7  -1 94.3855 29.4228   1
  -1  -7  -1 64.2186 8.70316   2
  -1  -7  -1 71.8217 7.94772   3
  -1  -7  -1 49.1165 25.2665   1
   1   7   1 71.4600 8.13504   3
   1   7   1 79.7952 10.0437   2
   1   7   1 72.5295 8.85488   6
   1   7   1 70.1271 8.34890   4
  -2  -7  -1 515.310 47.0992   1
  -2  -7  -1 435.496 18.2167   2
   2   7   1 449.654 18.3668   6
   2   7   1 435.077 15.3021   3
   2   7   1 427.496 18.7969   2
   2   7   1 441.355 18.1177   4
  -3  -7  -1 6.17764 18.6581   1
  -3  -7  -1 21.6670 6.04528   2
  -3  -7  -1 35.1824 18.0657   1
   3   7   1 6.73243 1.86550   5
   3   7   1 10.6313 5.16022   4
   3   7   1 11.6099 6.02067   6
   3   7   1 7.37395 3.64754   3
   3   7   1 3.97769 6.22723   2
  -4  -7  -1 59.8832 7.87812   2
  -4  -7  -1 82.6146 19.4864   1
  -4  -7  -1 58.8743 18.2261   1
   4   7   1 51.7399 5.67967   3
   4   7   1 46.8166 7.08171   4
   4   7   1 56.2684 8.40950   6
   4   7   1 71.3103 5.99513   5
   4   7   1 73.1418 8.60866   2
  -5  -7  -1 23.7014 15.5546   1
  -5  -7  -1 11.2448 14.2419   1
  -5  -7  -1 21.7225 6.20352   2
   5   7   1 14.9008 5.64823   4
   5   7   1 9.28051 4.33570   3
   5   7   1 14.1402 7.38575   2
   5   7   1 14.9513 4.66027   5
   5   7   1 2.97558 6.88650   6
  -6  -7  -1 5.26922 10.3219   1
  -6  -7  -1 2.50251 9.61851   1
   6   7   1 6.22619 4.26633   3
   6   7   1 0.31283 7.10870   2
   6   7   1 3.53369 5.21628   4
   6   7   1 5.02521 5.23365   5
   6   7   1 12.6948 7.97156   6
   6   7   1 2.53711 4.67348   3
   7   7   1 12.5523 5.69454   4
   7   7   1 11.7222 6.12297   6
   7   7   1 2.38790 5.64035   3
   7   7   1 -4.6466 8.44152   4
   7   7   1 4.46311 6.88245   5
   7   7   1 -8.2175 8.74536   6
   7   7   1 4.78833 5.12333   3
   7   7   1 9.83993 8.69898   2
   8   7   1 31.0290 6.84645   3
   8   7   1 24.9000 7.72554   3
   8   7   1 13.8844 7.47942   6
   8   7   1 22.8284 9.77554   5
   8   7   1 29.9627 9.19572   4
   8   7   1 39.2657 7.71450   4
   9   7   1 1.51358 9.43672   6
   9   7   1 2.25840 7.03720   4
   9   7   1 -4.0526 10.7044   4
   9   7   1 -4.2567 9.43847   3
  10   7   1 40.7461 13.0618   2
  10   7   1 18.3373 8.46375   4
  10   7   1 6.01644 9.59518   6
  11   7   1 -8.1581 12.1408   6
  11   7   1 -16.054 14.1627   2
  12   7   1 30.1332 20.4124   2
  12   7   1 59.4720 17.6697   6
   5  -8  -1 17.1610 19.2692   2
  -5   8   1 18.2352 13.5463   4
  -5   8   1 -13.612 15.0921   3
   4  -8  -1 160.648 20.3930   2
  -4   8   1 146.889 17.4807   3
  -4   8   1 123.885 14.7945   4
   3  -8  -1 2.27736 6.44518   5
   3  -8  -1 -12.393 11.4748   2
  -3   8   1 -16.411 9.54929   3
  -3   8   1 -7.6539 9.61080   4
   2  -8  -1 328.497 11.7028   5
   2  -8  -1 209.524 63.9881   1
   2  -8  -1 376.942 23.5442   2
   2  -8  -1 330.217 11.7483   5
  -2   8   1 355.295 20.3706   3
  -2   8   1 330.508 24.2027   6
   1  -8  -1 209.797 21.2556   3
   1  -8  -1 258.354 54.7088   1
  -1   8   1 275.939 17.3868   4
  -1   8   1 268.207 19.6651   6
  -1   8   1 261.142 16.3120   3
   0  -8  -1 292.549 18.4122   2
   0  -8  -1 293.990 18.0467   3
   0  -8  -1 227.406 47.2538   1
   0   8   1 275.587 17.0468   4
   0   8   1 312.983 15.8093   3
   0   8   1 275.147 18.1299   6
  -1  -8  -1 572.929 70.6029   1
  -1  -8  -1 721.062 25.2375   3
  -1  -8  -1 711.939 26.9157   2
  -1  -8  -1 687.267 66.7744   1
   1   8   1 678.228 28.0608   2
   1   8   1 677.369 26.0963   6
   1   8   1 690.527 23.1000   3
   1   8   1 708.018 25.7640   4
  -2  -8  -1 22.9215 29.3132   1
  -2  -8  -1 28.2625 7.72192   2
  -2  -8  -1 30.8492 28.3826   1
  -2  -8  -1 20.6810 7.41844   3
   2   8   1 25.6377 6.63251   4
   2   8   1 30.9387 9.82269   2
   2   8   1 29.2931 6.08156   3
   2   8   1 23.5835 8.90559   6
  -3  -8  -1 597.146 23.3974   2
  -3  -8  -1 656.947 57.5168   1
  -3  -8  -1 561.194 53.5778   1
  -3  -8  -1 609.675 20.6467   3
   3   8   1 605.296 24.2196   6
   3   8   1 607.740 19.8607   3
   3   8   1 596.947 23.2459   4
   3   8   1 653.058 24.5991   2
  -4  -8  -1 328.320 16.6400   2
  -4  -8  -1 320.846 43.5844   1
  -4  -8  -1 310.469 43.6022   1
   4   8   1 337.054 18.6086   2
   4   8   1 290.587 16.1546   4
   4   8   1 297.075 17.8429   6
   4   8   1 299.096 9.31808   5
   4   8   1 314.620 13.2361   3
  -5  -8  -1 245.839 15.2290   2
  -5  -8  -1 218.907 27.7682   1
  -5  -8  -1 188.793 27.7954   1
   5   8   1 231.500 11.5282   3
   5   8   1 247.357 16.9659   2
   5   8   1 214.118 14.1362   4
   5   8   1 238.531 10.6001   5
   5   8   1 255.785 17.7484   6
  -6  -8  -1 444.013 33.3631   1
  -6  -8  -1 429.586 34.8457   1
   6   8   1 474.738 20.6826   4
   6   8   1 485.793 18.5763   5
   6   8   1 444.747 22.2571   2
   6   8   1 454.989 16.7572   3
   6   8   1 476.643 19.4242   3
   7   8   1 5.82185 5.50831   3
   7   8   1 16.8218 8.09513   5
   7   8   1 1.37898 6.24555   4
   7   8   1 5.89111 6.43807   3
   8   8   1 148.818 12.7439   3
   8   8   1 120.496 14.8032   4
   8   8   1 114.965 15.0567   6
   8   8   1 154.735 17.6204   5
   8   8   1 151.827 14.5150   4
   8   8   1 133.577 14.6099   3
   9   8   1 2.71186 8.36734   4
   9   8   1 5.93270 10.6715   3
   9   8   1 19.6327 9.82681   6
   9   8   1 10.7557 7.83202   3
  10   8   1 17.9161 9.34944   4
  10   8   1 5.40361 11.2597   6
  10   8   1 15.2851 9.95859   3
  11   8   1 14.5339 13.4205   6
  11   8   1 9.87472 13.8625   3
  11   8   1 38.4601 16.4143   2
  11   8   1 21.5399 13.5144   4
   4  -9  -1 17.3658 20.6314   2
  -4   9   1 24.4309 15.7273   4
  -4   9   1 35.3398 17.5789   3
   3  -9  -1 67.2236 17.9750   2
  -3   9   1 95.0001 14.9450   4
  -3   9   1 82.0057 15.7427   3
   2  -9  -1 71.0930 15.3117   2
  -2   9   1 52.4809 12.5079   4
  -2   9   1 61.6531 12.5598   3
   1  -9  -1 75.7456 13.7775   2
  -1   9   1 63.4668 11.3872   3
  -1   9   1 61.8327 11.9202   4
   0  -9  -1 335.682 21.6150   2
   0   9   1 308.410 18.7012   3
   0   9   1 308.577 19.9117   4
  -1  -9  -1 7.84065 10.9651   3
  -1  -9  -1 -0.7196 10.1925   2
   1   9   1 2.87793 6.41678   3
   1   9   1 23.6005 9.12026   4
  -2  -9  -1 642.995 25.1917   3
  -2  -9  -1 642.632 26.6791   2
   2   9   1 622.976 22.5932   3
  -3  -9  -1 226.964 15.1724   3
  -3  -9  -1 221.560 16.7389   2
   3   9   1 199.413 16.1437   4
   3   9   1 211.566 12.9326   3
  -4  -9  -1 314.936 18.6122   2
   4   9   1 317.340 14.4420   3
   4   9   1 273.809 25.5883   2
   4   9   1 286.062 17.8612   4
  -5  -9  -1 668.134 26.8006   2
   5   9   1 698.608 22.1392   3
   5   9   1 660.096 17.7567   5
   5   9   1 682.292 26.8498   4
  -6  -9  -1 24.2773 23.1492   1
  -6  -9  -1 12.0677 8.39132   2
   6   9   1 7.90568 7.29984   3
   6   9   1 10.0667 5.88022   3
   6   9   1 25.0869 8.71701   4
   6   9   1 5.86264 5.95010   5
   7   9   1 673.584 23.5645   3
   7   9   1 631.043 22.0388   3
   8   9   1 80.2662 11.0276   3
   8   9   1 87.9614 12.5428   6
   8   9   1 85.3346 13.8224   4
   8   9   1 85.8746 12.9076   5
   8   9   1 74.7861 9.53553   3
   9   9   1 167.129 16.7995   6
   9   9   1 185.892 18.5402   4
   9   9   1 179.269 16.5970   3
  10   9   1 187.349 22.0283   6
  10   9   1 174.519 20.4860   4
  10   9   1 167.473 19.2690   3
  11   9   1 17.9135 15.7831   6
  11   9   1 -5.1134 16.8025   2
  11   9   1 -21.937 13.4166   4
  -3  10   1 55.0912 19.0452   3
  -3  10   1 48.0469 17.4496   4
   2 -10  -1 1.09790 16.4340   2
  -2  10   1 -14.097 13.5185   4
  -2  10   1 11.9118 13.4331   3
   1 -10  -1 55.6772 15.8650   2
  -1  10   1 66.7449 14.4395   4
  -1  10   1 60.8040 13.5543   3
   0 -10  -1 -10.397 11.3319   2
   0  10   1 -3.7201 10.9769   4
   0  10   1 12.5409 9.43978   3
  -1 -10  -1 112.042 15.0182   2
   1  10   1 108.649 12.8569   3
   1  10   1 117.542 15.0079   4
  -2 -10  -1 16.2824 12.6554   3
  -2 -10  -1 43.9964 12.2009   2
   2  10   1 31.7653 8.40721   3
   2  10   1 52.6523 11.6008   4
  -3 -10  -1 142.804 15.2922   2
   3  10   1 136.645 13.2559   3
   3  10   1 130.808 14.5170   4
  -4 -10  -1 349.935 21.2239   2
   4  10   1 310.143 16.0216   3
   4  10   1 297.011 20.2365   4
  -5 -10  -1 100.576 13.5687   2
   5  10   1 89.4259 13.0892   4
   5  10   1 88.1592 9.44526   3
  -6 -10  -1 372.129 21.8902   2
   6  10   1 377.562 12.1787   5
   6  10   1 372.766 13.1067   5
   6  10   1 367.714 17.0849   3
   6  10   1 381.208 21.9119   4
   6  10   1 377.345 19.7849   3
   7  10   1 19.0869 7.62257   3
   7  10   1 13.5407 10.1420   4
   8  10   1 156.586 18.8264   4
   8  10   1 172.721 15.1225   3
   9  10   1 139.549 16.8716   3
   9  10   1 143.284 17.3788   6
   9  10   1 190.346 22.0812   4
  10  10   1 34.7773 16.1964   6
  10  10   1 23.6510 14.8302   4
  11  10   1 98.5251 22.1600   6
  11  10   1 103.394 19.0128   4
   1 -11  -1 91.2973 21.3401   2
  -1  11   1 106.932 20.6943   4
  -1  11   1 72.1318 16.7845   3
   0 -11  -1 25.5127 16.0022   2
   0  11   1 3.47972 14.3028   4
   0  11   1 -10.343 11.8273   3
  -1 -11  -1 45.1196 15.0129   2
   1  11   1 51.6853 14.0198   4
   1  11   1 31.2052 12.1745   3
  -2 -11  -1 11.9477 13.3154   2
   2  11   1 -1.7810 11.5967   4
  -3 -11  -1 26.1576 12.3807   2
   3  11   1 7.09453 9.27938   3
   3  11   1 40.3576 12.3331   4
  -4 -11  -1 -3.2716 10.9159   2
   4  11   1 -2.2537 10.5334   4
   4  11   1 -4.3314 8.32664   3
  -5 -11  -1 15.9817 11.7317   2
   5  11   1 32.8158 11.9967   4
   5  11   1 29.5221 8.91048   3
  -6 -11  -1 17.0865 11.8468   2
   6  11   1 11.8795 12.1527   4
   6  11   1 27.7615 8.64478   3
   7  11   1 93.7907 15.4801   4
   7  11   1 40.8906 9.77509   3
   8  11   1 52.7801 14.9581   4
   9  11   1 39.5526 15.2135   4
   9  11   1 29.4370 16.2716   6
  10  11   1 42.8489 19.6958   6
  10  11   1 47.6862 18.4557   4
  -1 -12  -1 21.3489 19.8453   2
   1  12   1 53.4021 16.4631   3
   1  12   1 25.5153 18.5836   4
  -2 -12  -1 -12.639 16.0450   2
   2  12   1 -14.082 15.7611   4
   2  12   1 -8.2547 13.8518   3
  -3 -12  -1 24.5841 16.1219   2
   3  12   1 42.1302 13.1375   3
   3  12   1 59.1095 16.6926   4
  -4 -12  -1 18.0332 14.4621   2
   4  12   1 16.9786 13.9514   4
   4  12   1 12.6972 11.8608   3
  -5 -12  -1 -9.7359 14.6617   2
   5  12   1 -11.285 13.4042   4
   5  12   1 6.51413 11.8815   3
  -6 -12  -1 6.59505 14.7676   2
   6  12   1 6.05240 14.4114   4
   7  12   1 3.91488 15.3607   4
   8  12   1 -2.2474 16.3779   4
   7  12  -2 -14.031 16.1709   3
   7  12  -2 22.3591 18.5672   4
   6  12  -2 83.7183 19.2029   4
   6  12  -2 92.1320 17.3585   3
   5  12  -2 4.67523 14.3371   3
   5  12  -2 27.6186 15.7911   4
   4  12  -2 132.777 19.4462   4
   4  12  -2 144.459 17.1945   3
  -4 -12   2 123.499 18.3825   2
   3  12  -2 65.5601 17.6364   4
   3  12  -2 84.8654 16.4477   3
  -3 -12   2 34.2144 14.5630   2
   2  12  -2 10.4534 16.1197   4
   2  12  -2 15.0998 14.5472   3
  -2 -12   2 66.0611 17.1294   2
   1  12  -2 60.3870 18.1569   4
   1  12  -2 63.9348 17.0963   3
  -1 -12   2 52.8764 18.7544   2
   9  11  -2 -7.4478 18.1749   4
   9  11  -2 38.2447 18.1078   3
   8  11  -2 5.24813 14.1627   3
   8  11  -2 8.32480 16.0532   4
   7  11  -2 -15.846 12.8702   3
   7  11  -2 2.76976 14.3148   4
   6  11  -2 1.96835 13.5485   4
   6  11  -2 -5.3361 10.9168   3
   5  11  -2 36.3620 12.4224   4
   5  11  -2 38.9243 12.5084   3
   4  11  -2 11.5981 11.0006   4
   4  11  -2 14.0936 10.9648   3
  -4 -11   2 14.8036 13.1435   2
   3  11  -2 -7.1990 10.9808   4
   3  11  -2 -12.203 10.8708   3
  -3 -11   2 9.80924 11.5379   2
   2  11  -2 84.8357 15.2877   4
   2  11  -2 118.939 14.7532   3
  -2 -11   2 79.6206 14.2783   2
   1  11  -2 1.24616 12.6051   4
   1  11  -2 0.42814 12.1596   3
  -1 -11   2 -2.0885 12.1325   2
   0  11  -2 20.7459 13.3911   3
   0  11  -2 31.0163 14.6207   4
   0 -11   2 35.9618 14.6237   2
   0 -11   2 62.6973 15.6872   6
  -1  11  -2 15.9193 15.4178   3
  -1  11  -2 7.24817 15.1056   4
   1 -11   2 33.0851 16.8757   6
   1 -11   2 40.9897 16.5023   2
  -2  11  -2 16.0027 18.6094   3
  -2  11  -2 -24.205 17.2015   4
   2 -11   2 -15.373 18.9148   2
   2 -11   2 14.4893 18.9731   6
   9  10  -2 41.3863 14.8197   2
   9  10  -2 39.7837 14.1691   5
   9  10  -2 1.44331 15.1797   4
   9  10  -2 41.7589 15.0930   3
   8  10  -2 20.8498 11.2957   5
   8  10  -2 35.8531 12.6900   3
   8  10  -2 29.9679 13.4453   4
   7  10  -2 29.7166 11.5784   4
   7  10  -2 8.14984 8.28477   5
   7  10  -2 12.6063 11.1388   3
   6  10  -2 24.3749 11.3977   4
   6  10  -2 39.0123 12.7586   3
   6  10  -2 30.7500 6.19894   5
   5  10  -2 -3.9337 9.33090   4
   5  10  -2 -1.6024 16.4139   2
   5  10  -2 -0.6437 8.75673   3
   4  10  -2 19.4249 10.1392   4
   4  10  -2 14.4859 13.1693   2
   4  10  -2 20.3064 9.22016   3
  -4 -10   2 26.8006 9.73376   2
   3  10  -2 13.3651 9.34377   3
   3  10  -2 -12.598 12.4617   2
   3  10  -2 3.97645 7.37605   4
  -3 -10   2 15.5667 8.55708   2
   2  10  -2 -2.1281 9.34000   4
  -2 -10   2 16.5944 9.64667   2
  -2 -10   2 -1.2420 9.14799   6
   1  10  -2 18.1273 10.5457   4
   1  10  -2 -1.1674 9.31550   3
  -1 -10   2 10.6010 9.45897   2
  -1 -10   2 3.82110 10.0845   6
   0  10  -2 69.8507 13.0255   4
   0  10  -2 45.6389 12.2460   3
   0 -10   2 50.5597 12.6548   6
   0 -10   2 71.2309 13.7274   2
  -1  10  -2 -11.086 10.7981   4
  -1  10  -2 -13.117 11.0471   3
   1 -10   2 -7.4071 11.6263   2
   1 -10   2 -7.0724 11.6690   6
  -2  10  -2 48.3518 14.3519   3
  -2  10  -2 71.8530 14.9327   4
   2 -10   2 62.8024 16.2064   2
   2 -10   2 65.5983 14.8104   6
  -3  10  -2 -4.8462 16.3937   3
  -3  10  -2 -6.2057 14.8747   4
   3 -10   2 -16.958 14.9491   6
   3 -10   2 12.5404 16.9725   2
  10   9  -2 139.809 19.3593   4
  10   9  -2 147.955 19.0801   5
  10   9  -2 162.638 19.1543   6
  10   9  -2 135.084 20.3493   3
  10   9  -2 124.066 19.2345   2
   9   9  -2 160.179 18.1202   2
   9   9  -2 148.776 16.6166   6
   9   9  -2 161.838 17.3637   3
   9   9  -2 138.592 17.5853   4
   9   9  -2 122.678 15.1618   5
   8   9  -2 57.1669 12.7592   4
   8   9  -2 60.1487 11.2391   5
   8   9  -2 75.1606 13.2897   3
   7   9  -2 366.911 20.4952   5
   7   9  -2 356.757 20.8398   3
   7   9  -2 350.208 23.0871   4
   6   9  -2 13.3185 8.72917   3
   6   9  -2 2.45720 10.7213   2
   6   9  -2 23.7575 7.88962   5
   6   9  -2 16.4715 6.11729   5
   6   9  -2 15.1022 8.63293   4
   6   9  -2 -25.803 14.0367   3
   5   9  -2 335.721 20.7199   4
   5   9  -2 323.805 20.6212   2
   5   9  -2 322.147 12.2001   5
   5   9  -2 346.632 18.7561   3
   5   9  -2 330.039 12.0969   5
  -5  -9   2 277.131 36.4616   1
   4   9  -2 122.506 13.9375   4
   4   9  -2 138.592 14.5699   3
   4   9  -2 98.0243 12.3537   2
  -4  -9   2 117.785 12.8576   2
  -4  -9   2 95.4324 32.4957   1
   3   9  -2 117.647 13.0491   3
   3   9  -2 112.292 11.9990   2
  -3  -9   2 123.721 11.7782   2
   2   9  -2 159.973 14.1247   3
   2   9  -2 155.644 14.7805   2
  -2  -9   2 184.004 19.1377   6
  -2  -9   2 156.427 13.1220   2
   1   9  -2 -3.7706 7.36235   3
   1   9  -2 -2.4700 8.79187   4
   1   9  -2 2.35945 11.0808   2
  -1  -9   2 -1.8976 7.71031   6
  -1  -9   2 11.2084 7.82697   2
   0   9  -2 51.6762 22.7501   2
   0   9  -2 82.2080 11.8773   4
   0  -9   2 56.3798 11.0145   6
   0  -9   2 87.4254 11.3528   2
  -1   9  -2 -12.527 8.86479   3
  -1   9  -2 17.8136 9.37454   4
   1  -9   2 5.75907 8.74559   6
   1  -9   2 2.96793 10.4340   2
  -2   9  -2 59.5571 11.9165   4
  -2   9  -2 51.9587 12.5120   3
   2  -9   2 68.8014 12.4616   6
   2  -9   2 58.1340 13.5025   2
  -3   9  -2 8.20896 11.8415   4
  -3   9  -2 -13.890 11.4863   3
   3  -9   2 -5.8977 10.8613   6
   3  -9   2 6.81270 12.9768   2
  -4   9  -2 40.0705 14.5524   4
  -4   9  -2 49.8628 16.0774   3
   4  -9   2 19.5625 16.0864   2
   4  -9   2 26.4396 14.2739   6
   5  -9   2 1.86165 15.9324   6
   5  -9   2 11.5570 21.2968   2
  10   8  -2 46.8101 16.2246   3
  10   8  -2 50.2994 14.7933   5
  10   8  -2 36.6883 15.9412   2
  10   8  -2 24.9271 14.0463   4
  10   8  -2 50.3899 14.2146   6
   9   8  -2 105.623 14.9625   2
   9   8  -2 95.8306 14.6360   3
   9   8  -2 93.2623 13.5267   5
   9   8  -2 115.573 14.3225   6
   9   8  -2 137.081 15.3275   4
   8   8  -2 422.832 20.7510   5
   8   8  -2 428.798 23.6935   4
   7   8  -2 11.6177 10.2525   5
   7   8  -2 10.4896 10.0218   4
   7   8  -2 8.85782 8.60807   3
   7   8  -2 6.13223 11.2826   2
   7   8  -2 2.39163 6.57551   5
   6   8  -2 828.551 25.6001   5
   6   8  -2 804.471 30.2727   4
   6   8  -2 803.967 29.2403   2
   6   8  -2 850.109 26.5901   5
   6   8  -2 881.000 31.0565   3
   6   8  -2 837.312 29.1963   3
   5   8  -2 370.537 18.6538   3
   5   8  -2 380.444 18.7544   2
   5   8  -2 388.153 14.6235   5
   5   8  -2 376.712 13.9889   5
   5   8  -2 380.486 19.5449   4
   5   8  -2 368.736 30.0983   6
   4   8  -2 465.123 13.4878   5
   4   8  -2 462.630 20.0928   3
   4   8  -2 448.189 13.3381   5
   4   8  -2 478.201 21.0725   4
   4   8  -2 451.434 18.8716   2
   4   8  -2 459.636 26.1541   4
   4   8  -2 439.780 22.4189   6
  -4  -8   2 353.950 38.4713   1
  -4  -8   2 456.954 18.4509   2
  -4  -8   2 504.955 43.3585   1
   3   8  -2 947.635 29.1187   2
   3   8  -2 923.665 32.2299   6
   3   8  -2 922.269 32.8709   4
   3   8  -2 961.053 31.8231   4
   3   8  -2 999.472 31.1082   3
  -3  -8   2 964.619 58.2862   1
  -3  -8   2 1005.37 29.3842   2
  -3  -8   2 941.662 31.6229   6
  -3  -8   2 1013.68 61.3930   1
   2   8  -2 54.5165 10.6811   6
   2   8  -2 64.2607 8.94724   2
   2   8  -2 65.7840 9.52576   4
   2   8  -2 73.1417 9.57680   3
  -2  -8   2 45.8242 29.3299   1
  -2  -8   2 64.5251 9.80253   3
  -2  -8   2 23.8991 26.8435   1
  -2  -8   2 47.8219 7.41859   2
  -2  -8   2 56.8454 9.11668   6
   1   8  -2 652.741 24.7980   2
   1   8  -2 662.968 24.0176   3
   1   8  -2 632.137 24.5587   4
   1   8  -2 623.324 26.5212   6
  -1  -8   2 656.071 23.0428   2
  -1  -8   2 635.773 25.5144   3
  -1  -8   2 564.229 64.4221   1
  -1  -8   2 649.004 25.1788   6
   0   8  -2 47.5432 10.0820   2
   0   8  -2 49.2534 8.80910   3
   0   8  -2 62.2383 9.56072   4
   0  -8   2 52.6067 9.15351   6
   0  -8   2 56.3188 38.9313   1
   0  -8   2 59.1164 9.15600   2
   0  -8   2 50.5135 10.9314   3
  -1   8  -2 274.737 19.0931   2
  -1   8  -2 263.542 17.4765   3
  -1   8  -2 297.378 17.0081   4
   1  -8   2 146.440 51.2690   1
   1  -8   2 297.242 18.0788   6
   1  -8   2 280.893 16.9168   2
  -2   8  -2 176.664 14.8238   4
  -2   8  -2 150.355 15.4619   3
   2  -8   2 95.8541 57.9093   1
   2  -8   2 169.873 16.3440   2
   2  -8   2 121.627 19.0799   6
  -3   8  -2 33.7026 9.58668   4
  -3   8  -2 48.3829 10.9048   3
   3  -8   2 26.1144 11.3553   2
   3  -8   2 40.2548 10.3728   6
  -4   8  -2 99.4130 13.7336   4
  -4   8  -2 88.7883 14.0543   3
   4  -8   2 96.2412 15.5871   2
   4  -8   2 88.9454 13.8381   6
  -5   8  -2 -1.1167 17.6130   4
  -5   8  -2 28.8558 14.8803   3
   5  -8   2 29.4919 12.7211   6
   5  -8   2 25.8501 15.7341   2
   6  -8   2 32.1197 15.9217   6
   6  -8   2 11.6057 20.1692   2
  11   7  -2 -14.554 17.5818   5
  11   7  -2 -8.6656 17.4010   2
  10   7  -2 1.73055 11.8768   4
  10   7  -2 17.6488 14.1200   2
  10   7  -2 48.1588 14.2827   5
   9   7  -2 75.6593 11.8415   6
   9   7  -2 85.0727 13.4567   5
   9   7  -2 109.168 14.4063   2
   8   7  -2 -12.200 7.85559   2
   8   7  -2 5.00992 7.95357   6
   8   7  -2 -14.734 13.8259   6
   8   7  -2 -0.5513 8.24083   5
   7   7  -2 431.764 20.9326   5
   7   7  -2 426.436 24.5194   4
   7   7  -2 407.734 22.0322   2
   7   7  -2 439.622 22.4325   6
   7   7  -2 454.926 22.2554   3
   7   7  -2 411.501 19.1547   5
   7   7  -2 437.829 20.5089   3
   6   7  -2 74.1701 9.55369   5
   6   7  -2 81.4981 9.69323   5
   6   7  -2 97.3408 10.7924   2
   6   7  -2 50.5223 10.9210   4
   6   7  -2 94.5103 10.3711   3
   6   7  -2 65.4484 10.5230   6
   6   7  -2 100.866 11.6813   3
   5   7  -2 476.858 20.2219   6
   5   7  -2 433.551 18.2770   5
   5   7  -2 434.625 21.0265   4
   5   7  -2 478.573 18.9763   2
   5   7  -2 458.654 16.2009   5
   5   7  -2 471.563 19.0944   3
   4   7  -2 697.160 23.6896   3
   4   7  -2 689.734 24.3735   6
   4   7  -2 686.608 19.3692   5
   4   7  -2 717.990 22.6468   2
   4   7  -2 688.957 25.3752   4
   4   7  -2 701.231 19.3460   5
  -4  -7   2 652.441 34.4642   1
  -4  -7   2 667.617 36.9444   1
   3   7  -2 39.7825 8.31864   4
   3   7  -2 37.8532 6.42637   2
   3   7  -2 40.6806 4.15478   5
   3   7  -2 51.5595 7.40208   3
   3   7  -2 42.7960 7.54380   4
   3   7  -2 48.5230 8.25755   6
  -3  -7   2 31.4835 6.83919   6
  -3  -7   2 38.0177 19.5614   1
  -3  -7   2 44.2807 6.27640   2
  -3  -7   2 51.0189 17.3079   1
   2   7  -2 1041.80 31.9590   4
   2   7  -2 1074.19 29.8237   2
   2   7  -2 1035.90 31.2732   3
   2   7  -2 1092.45 31.8754   6
  -2  -7   2 1019.73 58.8513   1
  -2  -7   2 1090.93 31.9332   6
  -2  -7   2 1071.20 29.8517   2
  -2  -7   2 992.352 57.0239   1
   1   7  -2 778.863 26.4013   6
   1   7  -2 759.001 25.7074   4
   1   7  -2 790.653 24.8395   2
   1   7  -2 788.502 25.5257   3
  -1  -7   2 774.164 25.8062   3
  -1  -7   2 644.027 55.3272   1
  -1  -7   2 744.250 55.4466   1
  -1  -7   2 756.932 23.7459   2
  -1  -7   2 741.231 25.6274   6
   0   7  -2 894.469 28.5674   3
   0   7  -2 907.603 28.2653   2
   0   7  -2 862.648 28.0923   4
   0   7  -2 854.297 29.2126   6
   0  -7   2 874.737 27.1339   2
   0  -7   2 926.945 65.5517   1
   0  -7   2 751.726 67.0579   1
   0  -7   2 865.151 28.5667   3
   0  -7   2 928.822 29.3955   6
  -1   7  -2 828.069 28.9938   6
  -1   7  -2 826.232 27.4802   2
  -1   7  -2 803.026 27.8598   3
  -1   7  -2 822.247 27.2784   4
   1  -7   2 823.719 27.1069   2
   1  -7   2 842.365 29.2365   3
   1  -7   2 764.187 70.3259   1
   1  -7   2 822.569 28.0969   6
   1  -7   2 652.383 69.3399   1
  -2   7  -2 86.0343 12.6163   6
  -2   7  -2 118.607 11.5444   4
  -2   7  -2 79.5485 10.6247   3
  -2   7  -2 99.0953 12.5905   2
   2  -7   2 85.1218 4.37676   5
   2  -7   2 73.6443 39.7182   1
   2  -7   2 79.7595 10.5059   2
   2  -7   2 98.9266 10.9040   6
   2  -7   2 111.223 47.0342   1
   2  -7   2 87.0563 13.0160   3
  -3   7  -2 521.765 21.0431   4
   3  -7   2 541.680 15.8692   5
   3  -7   2 533.827 24.3572   2
   3  -7   2 503.953 15.9109   5
   3  -7   2 550.263 23.8847   6
   3  -7   2 604.733 86.4115   1
  -4   7  -2 16.4605 8.97273   3
  -4   7  -2 8.60345 7.70264   4
   4  -7   2 124.952 64.9683   1
   4  -7   2 16.5149 9.00856   6
   4  -7   2 19.1154 10.7343   2
   4  -7   2 15.9895 6.17962   5
  -5   7  -2 163.824 15.8523   4
  -5   7  -2 178.403 20.0403   3
   5  -7   2 143.746 17.0255   6
   5  -7   2 134.430 14.6201   5
   5  -7   2 179.051 21.5921   2
  -6   7  -2 43.6749 15.5910   3
   6  -7   2 75.4404 17.5018   2
   6  -7   2 71.1228 13.3396   6
   7  -7   2 -10.176 20.8005   2
   7  -7   2 46.9806 19.7900   6
  11   6  -2 33.4865 18.2821   5
  11   6  -2 18.3459 17.0999   2
  10   6  -2 -1.1927 12.6506   5
  10   6  -2 5.76182 13.2191   2
  10   6  -2 5.18156 10.1666   6
   9   6  -2 -0.4947 12.8478   6
   9   6  -2 -17.233 9.52953   2
   9   6  -2 -1.8189 9.99009   5
   9   6  -2 -5.2007 14.6794   4
   9   6  -2 6.52197 8.19732   6
   8   6  -2 17.9213 6.97945   6
   8   6  -2 13.8736 9.82241   6
   8   6  -2 -4.2086 10.3864   4
   8   6  -2 29.8988 9.27783   5
   8   6  -2 13.9550 8.57712   2
   8   6  -2 1.38999 12.5117   2
   7   6  -2 34.7506 10.2504   5
   7   6  -2 29.8376 7.49049   5
   7   6  -2 10.9109 9.32668   4
   7   6  -2 27.3193 8.15554   6
   7   6  -2 19.0713 9.34292   3
   7   6  -2 31.3071 7.38643   2
   7   6  -2 25.4044 9.89310   2
   6   6  -2 58.9836 8.49572   2
   6   6  -2 48.5381 9.19128   3
   6   6  -2 57.6364 9.53330   4
   6   6  -2 58.5180 7.74538   5
   6   6  -2 66.2854 8.91915   6
   6   6  -2 56.0228 8.88664   5
   5   6  -2 92.5770 7.84878   5
   5   6  -2 123.390 9.85773   5
   5   6  -2 118.629 12.1208   4
   5   6  -2 98.6378 9.59855   6
   5   6  -2 108.512 10.0070   3
   5   6  -2 139.614 10.5554   2
   5   6  -2 107.929 10.9404   3
   4   6  -2 53.2498 8.10560   4
   4   6  -2 55.2060 7.58787   6
   4   6  -2 69.8431 7.82756   3
   4   6  -2 64.2413 6.52759   5
   4   6  -2 52.2474 7.10572   2
   4   6  -2 66.8731 6.36190   5
  -4  -6   2 61.7547 12.3961   1
  -4  -6   2 73.7372 10.1498   1
   3   6  -2 559.120 17.7387   2
   3   6  -2 551.412 20.2765   4
   3   6  -2 576.981 19.9236   6
   3   6  -2 549.773 19.2627   3
   3   6  -2 551.033 15.3229   5
   3   6  -2 537.074 15.2015   5
  -3  -6   2 552.910 17.6917   2
  -3  -6   2 520.737 33.5405   1
  -3  -6   2 544.561 19.3686   6
  -3  -6   2 589.576 32.6005   1
   2   6  -2 17.8342 5.43761   3
   2   6  -2 19.2338 2.32744   5
   2   6  -2 21.1286 4.91760   2
   2   6  -2 10.0516 5.40144   6
   2   6  -2 16.9337 2.03845   5
  -2  -6   2 33.6369 14.7738   1
  -2  -6   2 17.8209 16.2204   1
  -2  -6   2 23.5266 5.27557   6
  -2  -6   2 15.9976 4.20874   2
   1   6  -2 828.857 25.2732   6
   1   6  -2 769.573 23.0557   2
   1   6  -2 776.559 24.3609   3
   1   6  -2 787.426 24.8143   4
  -1  -6   2 779.214 22.7694   2
  -1  -6   2 771.557 49.3193   1
  -1  -6   2 782.778 24.6474   3
  -1  -6   2 804.584 48.5408   1
  -1  -6   2 814.654 24.8383   6
   0   6  -2 210.456 11.3599   2
   0   6  -2 187.805 12.2615   6
   0   6  -2 188.667 11.2597   4
   0   6  -2 175.084 11.0443   3
   0  -6   2 179.568 10.6642   2
   0  -6   2 188.640 11.8510   6
   0  -6   2 181.698 30.2558   1
   0  -6   2 195.400 12.6628   3
  -1   6  -2 28.8777 6.82634   2
  -1   6  -2 42.7423 7.15733   3
  -1   6  -2 32.8112 7.89354   6
  -1   6  -2 38.5145 6.35680   4
   1  -6   2 25.8102 7.65758   3
   1  -6   2 6.76750 24.7099   1
   1  -6   2 38.5027 6.50873   6
   1  -6   2 30.3625 26.1245   1
   1  -6   2 29.7226 6.35405   2
  -2   6  -2 580.056 21.8656   2
  -2   6  -2 559.677 20.1146   4
  -2   6  -2 581.515 21.9959   3
  -2   6  -2 593.795 23.2833   6
   2  -6   2 560.114 15.2889   5
   2  -6   2 610.480 21.9549   6
   2  -6   2 602.653 21.9688   2
   2  -6   2 539.628 64.5081   1
   2  -6   2 531.833 61.6887   1
   2  -6   2 544.716 23.0115   3
  -3   6  -2 154.818 15.0773   6
  -3   6  -2 188.291 12.2176   4
  -3   6  -2 171.140 15.9093   2
  -3   6  -2 175.220 13.9375   3
   3  -6   2 191.004 17.2362   3
   3  -6   2 174.430 13.6214   6
   3  -6   2 156.078 43.2230   1
   3  -6   2 167.015 13.8449   2
   3  -6   2 154.118 48.9115   1
   3  -6   2 171.404 9.26031   5
  -4   6  -2 244.966 18.7158   6
  -4   6  -2 217.812 13.3792   4
  -4   6  -2 208.429 14.8587   3
   4  -6   2 194.901 15.9527   5
   4  -6   2 125.250 49.3680   1
   4  -6   2 213.882 15.8558   6
   4  -6   2 203.037 17.3015   2
   4  -6   2 219.210 61.4986   1
  -5   6  -2 162.368 26.2240   6
  -5   6  -2 187.104 17.0745   3
  -5   6  -2 169.082 13.2168   4
   5  -6   2 185.761 16.1189   6
   5  -6   2 189.493 15.4811   5
   5  -6   2 167.926 18.9543   2
  -6   6  -2 -1.5036 10.3769   3
  -6   6  -2 0.23298 7.63634   4
   6  -6   2 7.28297 12.2319   2
   6  -6   2 28.6341 10.5961   6
  -7   6  -2 118.678 18.6225   3
   7  -6   2 147.657 20.8975   2
   7  -6   2 119.788 14.9881   6
  11   5  -2 47.4518 17.2597   5
  11   5  -2 11.6719 17.1304   2
  10   5  -2 31.1120 13.2621   2
  10   5  -2 28.8140 12.2391   5
  10   5  -2 36.4849 9.75135   6
   9   5  -2 206.375 18.3562   2
   9   5  -2 198.972 14.3649   6
   9   5  -2 194.516 18.3850   5
   9   5  -2 194.718 16.8767   6
   9   5  -2 186.094 19.6043   4
   8   5  -2 -3.8297 9.40996   4
   8   5  -2 7.22518 7.91460   6
   8   5  -2 -6.2639 7.42920   2
   8   5  -2 -10.218 5.68502   6
   8   5  -2 -2.0486 11.1363   2
   7   5  -2 388.237 19.8439   5
   7   5  -2 364.538 17.3897   2
   7   5  -2 376.242 15.6852   6
   7   5  -2 370.429 19.9542   2
   7   5  -2 360.905 18.5309   4
   7   5  -2 373.588 19.6438   3
   7   5  -2 354.206 16.0802   6
   6   5  -2 40.7532 6.58370   6
   6   5  -2 49.3570 7.81579   2
   6   5  -2 58.9572 7.52192   2
   6   5  -2 51.0442 8.02537   4
   6   5  -2 54.6304 8.16402   5
   6   5  -2 38.2029 8.02063   3
   5   5  -2 95.7467 9.20040   2
   5   5  -2 103.777 10.0950   4
   5   5  -2 115.809 9.21467   5
   5   5  -2 106.577 8.14979   5
   5   5  -2 89.9357 8.41744   6
   5   5  -2 114.758 10.3175   3
   4   5  -2 144.912 9.27366   3
   4   5  -2 130.672 8.40627   2
   4   5  -2 119.665 9.15968   6
   4   5  -2 133.166 8.39091   5
   4   5  -2 132.189 10.0443   4
   4   5  -2 134.915 7.82562   5
   3   5  -2 -0.5155 3.53429   6
   3   5  -2 0.73269 4.45801   4
   3   5  -2 5.55464 2.54336   5
   3   5  -2 -1.0879 2.52794   5
   3   5  -2 1.47230 3.02093   2
   3   5  -2 -0.4954 3.36353   3
  -3  -5   2 0.08829 3.25074   6
  -3  -5   2 -1.5966 8.18415   1
  -3  -5   2 11.9555 8.80313   1
   2   5  -2 6.91929 3.27816   2
   2   5  -2 5.25986 3.97910   6
   2   5  -2 6.66650 2.67595   5
   2   5  -2 5.86736 3.68577   3
   2   5  -2 6.65392 4.17285   4
  -2  -5   2 -3.8038 10.9557   1
  -2  -5   2 4.48789 2.98211   6
  -2  -5   2 6.20786 3.01576   2
   1   5  -2 60.9146 6.63207   6
   1   5  -2 61.7746 7.37782   3
   1   5  -2 62.5134 2.86330   5
   1   5  -2 71.9687 6.35710   2
  -1  -5   2 62.3154 5.78573   2
  -1  -5   2 64.3127 7.14290   6
  -1  -5   2 83.7690 17.9759   1
   0   5  -2 1.73416 3.69696   2
   0   5  -2 -1.4523 3.33197   4
   0   5  -2 -0.1358 3.85740   3
   0   5  -2 1.47083 4.36264   6
   0  -5   2 -5.3780 3.87401   3
   0  -5   2 -10.383 18.4123   1
   0  -5   2 -1.0604 3.79652   6
   0  -5   2 -0.4071 2.95383   2
  -1   5  -2 145.668 8.93628   4
  -1   5  -2 172.571 10.9018   6
  -1   5  -2 147.871 9.69554   3
  -1   5  -2 171.182 9.84869   2
   1  -5   2 143.379 10.6775   3
   1  -5   2 160.005 5.50793   5
   1  -5   2 129.331 26.5945   1
   1  -5   2 141.079 9.07492   2
   1  -5   2 157.594 9.92078   6
  -2   5  -2 48.7912 7.35394   6
  -2   5  -2 43.8434 6.86408   3
  -2   5  -2 47.2127 7.04192   2
  -2   5  -2 44.8889 5.86939   4
   2  -5   2 12.0114 25.0722   1
   2  -5   2 30.5434 24.3246   1
   2  -5   2 53.2103 4.99682   5
   2  -5   2 44.7963 6.75963   2
   2  -5   2 43.0230 6.68312   3
   2  -5   2 41.0351 6.51725   6
  -3   5  -2 126.712 8.56929   4
  -3   5  -2 108.427 10.4934   3
  -3   5  -2 111.110 11.7614   6
  -3   5  -2 139.367 12.4045   2
   3  -5   2 112.131 12.7080   3
   3  -5   2 127.430 11.6995   2
   3  -5   2 69.8983 35.6157   1
   3  -5   2 91.4799 32.4090   1
   3  -5   2 113.250 7.80917   5
   3  -5   2 110.330 10.2018   6
  -4   5  -2 129.891 14.9171   2
  -4   5  -2 172.082 13.3312   3
  -4   5  -2 155.765 9.95330   4
  -4   5  -2 151.243 13.5811   6
   4  -5   2 138.529 11.7417   6
   4  -5   2 143.703 11.8053   5
   4  -5   2 124.081 41.1363   1
   4  -5   2 170.287 14.3243   2
   4  -5   2 153.888 13.1389   3
   4  -5   2 112.711 46.6709   1
  -5   5  -2 6.94092 8.93487   3
  -5   5  -2 12.5447 9.18167   6
  -5   5  -2 10.6172 5.09834   4
   5  -5   2 12.2092 7.71095   5
   5  -5   2 40.3076 46.0008   1
   5  -5   2 4.67976 6.36695   6
   5  -5   2 9.43133 9.23896   2
   5  -5   2 -38.117 51.7105   1
  -6   5  -2 166.001 17.0519   3
  -6   5  -2 127.506 15.1568   6
  -6   5  -2 168.984 11.1987   4
   6  -5   2 134.578 15.9885   2
   6  -5   2 139.025 13.9075   6
   6  -5   2 167.007 16.7354   5
   6  -5   2 253.450 75.1238   1
  -7   5  -2 32.0402 12.1848   3
   7  -5   2 19.5734 9.70471   6
   7  -5   2 34.8801 14.4156   2
  -8   5  -2 19.4891 13.8666   3
   8  -5   2 13.6290 17.5253   2
   8  -5   2 28.0564 12.6631   6
  11   4  -2 23.9021 16.7688   5
  11   4  -2 25.7671 18.0281   2
  10   4  -2 195.566 22.3604   2
  10   4  -2 172.687 19.1827   5
   9   4  -2 19.4941 10.4322   4
   9   4  -2 13.9680 10.0784   2
   9   4  -2 20.9809 6.82965   6
   9   4  -2 8.93835 10.1800   6
   8   4  -2 689.953 26.6935   2
   8   4  -2 653.273 24.6493   4
   8   4  -2 680.461 21.5086   6
   8   4  -2 670.923 21.9155   6
   7   4  -2 208.527 16.7079   5
   7   4  -2 239.259 12.3889   6
   7   4  -2 280.745 16.9765   3
   7   4  -2 217.538 11.3231   6
   7   4  -2 234.246 15.0972   2
   7   4  -2 245.990 14.9213   4
   6   4  -2 680.467 23.8846   3
   6   4  -2 689.670 23.5049   2
   6   4  -2 697.853 23.1793   2
   6   4  -2 681.593 22.3859   4
   6   4  -2 699.283 24.0892   5
   5   4  -2 1028.27 28.8632   2
   5   4  -2 1045.06 29.6187   4
   5   4  -2 1062.60 28.0250   6
   5   4  -2 1070.89 30.2696   3
   5   4  -2 1071.71 29.8378   5
   4   4  -2 21.6394 4.92592   3
   4   4  -2 31.3249 5.52205   4
   4   4  -2 29.5447 4.48137   6
   4   4  -2 31.9619 4.82588   5
   4   4  -2 22.2338 4.53471   2
   4   4  -2 31.7317 4.55643   5
   3   4  -2 1786.00 42.4482   5
   3   4  -2 1794.46 44.9448   4
   3   4  -2 1841.82 44.3858   3
   3   4  -2 1834.30 42.3329   2
   3   4  -2 1842.65 43.4427   6
  -3  -4   2 1796.15 47.9877   1
  -3  -4   2 1796.01 43.4436   6
   2   4  -2 581.394 17.8002   3
   2   4  -2 552.139 15.4911   2
   2   4  -2 558.111 17.1681   6
   2   4  -2 584.421 15.3052   5
   2   4  -2 595.528 18.0466   4
   2   4  -2 569.123 26.7829   1
  -2  -4   2 588.750 15.7477   2
  -2  -4   2 552.878 27.1861   1
  -2  -4   2 552.543 17.2289   6
   1   4  -2 1060.88 28.8022   3
   1   4  -2 1092.89 25.2980   5
   1   4  -2 1106.34 26.7581   2
   1   4  -2 1127.54 28.9786   4
   1   4  -2 1113.16 28.7829   6
   1   4  -2 1124.98 44.9603   1
  -1  -4   2 1132.30 28.7640   3
  -1  -4   2 1106.38 26.7508   2
  -1  -4   2 1063.38 28.7741   6
  -1  -4   2 1105.83 44.2061   1
   0   4  -2 763.784 40.3044   1
   0   4  -2 750.340 20.5422   2
   0   4  -2 802.463 22.3869   6
   0   4  -2 766.881 17.7503   5
   0   4  -2 749.096 21.9171   3
   0  -4   2 766.090 22.1812   6
   0  -4   2 796.339 22.3831   3
   0  -4   2 792.635 20.5816   2
   0  -4   2 786.143 17.9060   5
  -1   4  -2 50.2692 6.10959   6
  -1   4  -2 62.0684 16.6677   1
  -1   4  -2 59.0462 5.68194   4
  -1   4  -2 61.8420 6.84817   3
  -1   4  -2 64.8329 3.53428   5
  -1   4  -2 72.1821 6.63286   2
   1  -4   2 64.2654 5.93003   6
   1  -4   2 62.7554 5.98065   2
   1  -4   2 54.8168 7.29224   3
   1  -4   2 62.9972 4.09547   5
   1  -4   2 41.2271 17.0663   1
  -2   4  -2 192.552 9.24885   4
  -2   4  -2 196.333 10.6554   6
  -2   4  -2 191.566 10.4740   3
  -2   4  -2 207.022 28.4147   1
  -2   4  -2 195.295 7.38882   5
  -2   4  -2 202.172 10.4876   2
   2  -4   2 211.726 11.4057   3
   2  -4   2 199.528 7.68954   5
   2  -4   2 181.094 10.0641   6
   2  -4   2 208.476 10.6681   2
   2  -4   2 199.492 30.1871   1
  -3   4  -2 23.2769 5.97659   2
  -3   4  -2 25.9713 5.18707   3
  -3   4  -2 32.6614 6.25028   6
  -3   4  -2 25.7225 4.35582   4
   3  -4   2 30.0630 6.17663   2
   3  -4   2 18.4388 6.25554   3
   3  -4   2 28.6053 5.64574   6
   3  -4   2 24.7191 4.15641   5
   3  -4   2 -9.4861 23.6243   1
  -4   4  -2 85.1194 8.53144   3
  -4   4  -2 56.9134 7.96963   6
  -4   4  -2 80.1364 9.45217   2
  -4   4  -2 77.4377 6.77459   4
   4  -4   2 84.6782 30.5092   1
   4  -4   2 80.9800 9.90130   2
   4  -4   2 74.6369 8.64565   6
   4  -4   2 24.4217 32.4505   1
   4  -4   2 78.5543 8.93309   3
  -5   4  -2 -4.7294 6.12504   3
  -5   4  -2 4.64220 3.76806   4
  -5   4  -2 1.15541 9.04575   2
  -5   4  -2 -3.9248 6.97569   6
   5  -4   2 -3.7444 6.77105   2
   5  -4   2 9.77802 39.5266   1
   5  -4   2 13.4346 8.37211   3
   5  -4   2 7.71835 5.44121   6
   5  -4   2 -7.5853 5.88345   5
   5  -4   2 -14.573 33.4085   1
  -6   4  -2 75.9921 7.58024   4
  -6   4  -2 59.3700 10.9317   6
   6  -4   2 91.3487 54.3561   1
   6  -4   2 60.5617 10.3334   5
   6  -4   2 156.255 48.5854   1
   6  -4   2 72.9711 12.3730   2
   6  -4   2 77.8183 9.28845   6
  -7   4  -2 34.6167 11.6279   6
  -7   4  -2 2.12866 9.20240   3
  -7   4  -2 -0.0571 3.98908   4
   7  -4   2 3.71069 10.6849   2
   7  -4   2 -2.1205 7.26832   6
  -8   4  -2 34.1019 12.0457   3
   8  -4   2 33.1988 10.5228   6
   8  -4   2 33.1695 15.1038   2
  -9   4  -2 8.58209 16.4977   3
   9  -4   2 12.6679 19.5953   2
  11   3  -2 160.055 23.5563   2
  11   3  -2 174.752 38.5095   5
  10   3  -2 0.64915 13.0699   2
  10   3  -2 28.5126 11.5263   5
   9   3  -2 385.768 14.8315   6
   9   3  -2 358.626 22.8295   2
   9   3  -2 422.084 24.3479   4
   8   3  -2 19.2511 5.65890   6
   8   3  -2 38.5335 9.50854   2
   8   3  -2 34.4122 8.30145   4
   8   3  -2 31.5591 5.53624   6
   8   3  -2 35.1820 20.9526   1
   7   3  -2 782.526 21.7698   6
   7   3  -2 749.891 28.6077   5
   7   3  -2 800.008 28.1391   3
   7   3  -2 761.663 24.2180   4
   7   3  -2 798.538 21.7840   6
   7   3  -2 736.715 38.5354   1
   7   3  -2 772.181 37.6182   1
   7   3  -2 769.646 26.9907   2
   6   3  -2 990.690 30.1988   3
   6   3  -2 1043.22 28.4794   4
   6   3  -2 1002.06 25.6816   6
   6   3  -2 915.182 25.4340   6
   6   3  -2 991.861 29.6438   2
   6   3  -2 996.507 30.7107   5
   6   3  -2 997.812 36.8401   1
   6   3  -2 959.428 37.1476   1
   5   3  -2 355.821 14.9134   3
   5   3  -2 320.159 13.5513   2
   5   3  -2 330.755 17.8762   1
   5   3  -2 305.828 14.8945   4
   5   3  -2 334.023 11.6091   6
   5   3  -2 352.990 14.7549   5
   5   3  -2 354.702 17.6647   1
   4   3  -2 4531.12 98.6470   1
   4   3  -2 4393.89 95.9793   6
   4   3  -2 3987.64 100.791   3
   4   3  -2 4453.93 98.2816   1
   4   3  -2 4326.57 97.1967   2
   4   3  -2 4564.81 98.1571   4
   3   3  -2 321.155 10.5202   2
   3   3  -2 312.559 14.1249   1
   3   3  -2 321.392 10.7059   6
   3   3  -2 317.734 11.1870   5
   3   3  -2 325.618 12.1477   3
   3   3  -2 363.227 12.4232   4
  -3  -3   2 307.796 13.7561   1
   2   3  -2 4704.86 102.484   6
   2   3  -2 4872.71 111.662   1
   2   3  -2 4580.17 101.782   5
   2   3  -2 4812.12 103.644   4
   2   3  -2 4461.12 100.932   2
  -2  -3   2 4589.25 102.506   6
  -2  -3   2 4847.39 111.628   1
   1   3  -2 1599.61 36.0830   2
   1   3  -2 1563.17 38.4423   3
   1   3  -2 1564.83 38.0816   6
   1   3  -2 1598.16 38.5371   4
   1   3  -2 1682.31 51.6313   1
  -1  -3   2 1594.39 36.0923   2
  -1  -3   2 1641.21 38.3542   6
  -1  -3   2 1672.29 51.6172   1
   0   3  -2 781.115 19.0968   2
   0   3  -2 761.956 18.1026   5
   0   3  -2 782.173 20.8984   3
   0   3  -2 744.205 20.3786   4
   0   3  -2 769.702 35.5383   1
   0   3  -2 751.209 20.6060   6
   0  -3   2 774.070 18.1528   5
   0  -3   2 790.371 21.0582   6
   0  -3   2 752.607 20.6743   3
  -1   3  -2 3953.28 88.9770   5
  -1   3  -2 4136.34 116.065   1
  -1   3  -2 4292.36 92.3167   6
  -1   3  -2 4168.72 92.3098   3
  -1   3  -2 4134.21 90.7338   2
   1  -3   2 4231.61 92.3376   3
   1  -3   2 4212.68 117.494   1
   1  -3   2 4139.23 89.1301   5
   1  -3   2 4148.29 92.2781   6
   1  -3   2 4038.60 90.7860   2
  -2   3  -2 12.5107 3.84962   2
  -2   3  -2 9.35227 3.13932   3
  -2   3  -2 12.3778 2.52419   5
  -2   3  -2 3.40263 2.51437   4
  -2   3  -2 13.3422 13.6409   1
  -2   3  -2 7.79097 3.96091   6
   2  -3   2 10.8188 14.6643   1
   2  -3   2 9.88832 4.32535   2
   2  -3   2 11.3048 4.50793   3
   2  -3   2 8.20475 3.72700   6
   2  -3   2 12.4912 2.68191   5
  -3   3  -2 1343.87 33.9830   6
  -3   3  -2 1272.57 34.4021   3
  -3   3  -2 1284.58 31.8475   5
  -3   3  -2 1317.43 31.4426   4
  -3   3  -2 1263.30 36.8537   2
  -3   3  -2 1235.62 61.8971   1
   3  -3   2 1338.38 65.7532   1
   3  -3   2 1276.85 33.9330   6
   3  -3   2 1327.65 32.0164   5
   3  -3   2 1365.39 34.6026   3
   3  -3   2 1307.15 34.6633   2
  -4   3  -2 293.838 13.2645   6
  -4   3  -2 298.278 13.8893   3
  -4   3  -2 280.009 14.2543   2
  -4   3  -2 296.857 10.1688   4
   4  -3   2 298.292 14.7542   2
   4  -3   2 289.975 11.8700   5
   4  -3   2 309.185 44.5734   1
   4  -3   2 305.642 14.5024   3
   4  -3   2 302.478 13.4639   6
  -5   3  -2 207.147 12.8448   2
  -5   3  -2 213.186 8.38539   4
  -5   3  -2 215.881 13.3023   3
  -5   3  -2 231.113 13.1012   6
   5  -3   2 208.120 14.3942   3
   5  -3   2 186.023 39.6122   1
   5  -3   2 213.879 14.0789   2
   5  -3   2 161.156 34.1232   1
   5  -3   2 205.363 11.8626   5
   5  -3   2 218.253 12.4940   6
  -6   3  -2 131.106 13.3083   6
  -6   3  -2 187.864 17.5035   2
  -6   3  -2 153.700 7.13031   4
  -6   3  -2 157.562 13.7311   3
   6  -3   2 155.142 15.4005   2
   6  -3   2 149.262 12.0218   6
   6  -3   2 133.628 40.2430   1
   6  -3   2 149.237 13.4253   5
   6  -3   2 122.597 13.8739   3
   6  -3   2 108.973 46.4876   1
  -7   3  -2 28.4764 9.69699   6
  -7   3  -2 47.2007 10.2984   3
   7  -3   2 51.1243 8.67229   6
   7  -3   2 88.6623 54.5830   1
   7  -3   2 36.9548 12.4417   5
   7  -3   2 49.0584 11.7930   2
  -8   3  -2 95.5191 13.9756   3
   8  -3   2 107.338 11.6748   6
   8  -3   2 103.980 16.4827   2
  -9   3  -2 7.86061 12.8106   3
   9  -3   2 -0.1573 15.2181   2
   9  -3   2 -1.1937 10.4975   6
  11   2  -2 -1.9285 20.7988   2
  10   2  -2 7.59362 14.1092   2
  10   2  -2 -0.5037 13.6995   5
   9   2  -2 -10.464 10.3397   2
   9   2  -2 30.8564 11.5083   5
  -9  -2   2 5.90018 9.65236   3
   8   2  -2 51.2138 39.9259   1
   8   2  -2 67.1084 11.6592   2
   8   2  -2 67.8989 6.68696   6
   8   2  -2 54.9360 8.46570   4
   8   2  -2 78.4630 7.22392   6
   7   2  -2 318.190 11.2258   6
   7   2  -2 323.601 14.6941   4
   7   2  -2 337.414 11.3314   6
   7   2  -2 359.029 17.8627   2
   7   2  -2 386.552 40.8020   1
   7   2  -2 299.076 19.3104   5
   7   2  -2 240.239 30.7900   1
   7   2  -2 325.009 19.1207   3
  -7  -2   2 346.044 17.7377   3
   6   2  -2 87.9117 19.4394   1
   6   2  -2 107.585 11.3814   3
   6   2  -2 106.756 10.0624   5
   6   2  -2 105.739 6.19478   6
   6   2  -2 119.821 19.7210   1
   6   2  -2 110.258 10.2769   2
   6   2  -2 106.851 6.40724   6
  -6  -2   2 115.011 10.5067   3
  -6  -2   2 113.954 8.84846   4
   5   2  -2 1231.11 29.2805   6
   5   2  -2 1260.07 29.4190   6
   5   2  -2 1271.00 34.1432   3
   5   2  -2 1209.15 34.0043   5
   5   2  -2 1204.83 46.0810   1
   5   2  -2 1247.38 46.2986   1
   5   2  -2 1235.83 31.9912   4
   5   2  -2 1228.80 33.4391   2
  -5  -2   2 1219.44 32.0616   4
  -5  -2   2 1259.70 34.0733   3
   4   2  -2 76.7074 6.67854   4
   4   2  -2 71.6208 4.62629   6
   4   2  -2 64.5287 7.69069   3
   4   2  -2 62.6846 10.4821   1
   4   2  -2 79.7284 6.37205   2
  -4  -2   2 83.7137 6.27420   4
   3   2  -2 3093.44 71.6740   5
   3   2  -2 3221.71 79.5341   1
   3   2  -2 3083.48 69.4850   6
   3   2  -2 3258.82 72.2365   3
   3   2  -2 3130.81 70.8370   2
   3   2  -2 3237.99 71.7504   4
  -3  -2   2 3337.49 79.5719   1
  -3  -2   2 3124.31 71.7822   4
   2   2  -2 2146.20 55.1449   1
   2   2  -2 2088.01 46.6721   6
   2   2  -2 2074.42 48.1626   4
   2   2  -2 2061.52 47.5582   5
  -2  -2   2 2052.40 46.6305   6
  -2  -2   2 2114.20 54.7808   1
  -2  -2   2 2084.83 48.3131   4
   1   2  -2 1371.18 33.3070   5
   1   2  -2 1491.48 43.8524   1
   1   2  -2 1416.90 34.1859   3
   1   2  -2 1466.20 33.4758   6
   1   2  -2 1434.38 34.1955   4
   1   2  -2 1417.18 31.5824   2
  -1  -2   2 1452.35 33.1160   5
  -1  -2   2 1450.76 34.3103   4
  -1  -2   2 1488.60 33.5923   6
  -1  -2   2 1472.87 43.6152   1
   0   2  -2 7963.16 170.344   4
   0   2  -2 7736.88 170.593   3
   0   2  -2 8773.23 188.132   1
   0   2  -2 7561.07 168.885   5
   0   2  -2 8175.91 170.547   6
   0  -2   2 7789.50 168.963   5
   0  -2   2 7920.27 170.503   6
   0  -2   2 7871.62 170.583   3
  -1   2  -2 36.1235 3.43165   2
  -1   2  -2 35.5246 4.06584   6
  -1   2  -2 41.5278 3.28423   5
  -1   2  -2 46.0849 4.04128   4
  -1   2  -2 31.2498 3.98409   3
  -1   2  -2 30.9165 9.97514   1
   1  -2   2 29.2281 3.85982   2
   1  -2   2 31.7621 10.3547   1
   1  -2   2 39.3697 4.08307   3
   1  -2   2 48.7501 3.71410   5
   1  -2   2 37.3729 4.10493   6
  -2   2  -2 3289.84 96.7854   1
  -2   2  -2 3209.83 71.7750   2
  -2   2  -2 3262.39 72.3799   6
  -2   2  -2 3198.45 70.7114   5
  -2   2  -2 3157.29 72.3702   3
   2  -2   2 3322.06 72.4552   3
   2  -2   2 3134.42 72.3460   6
   2  -2   2 3230.24 70.7270   5
   2  -2   2 3164.40 71.8544   2
   2  -2   2 3277.39 97.9029   1
  -3   2  -2 2198.73 51.5758   2
  -3   2  -2 2204.17 51.2037   6
  -3   2  -2 2193.57 51.7144   3
  -3   2  -2 2053.06 48.4932   4
  -3   2  -2 2200.20 78.5805   1
  -3   2  -2 2162.82 50.0677   5
   3  -2   2 2191.93 50.0885   5
   3  -2   2 2210.71 51.8219   2
   3  -2   2 2135.56 79.5954   1
   3  -2   2 2272.65 51.7404   3
   3  -2   2 2143.37 51.2607   6
  -4   2  -2 1057.28 29.5351   3
  -4   2  -2 1060.78 28.0960   5
  -4   2  -2 1093.32 30.0645   2
  -4   2  -2 958.645 54.3892   1
  -4   2  -2 1083.43 28.5502   6
   4  -2   2 1056.66 60.0442   1
   4  -2   2 1046.28 30.0252   2
   4  -2   2 1074.57 29.5539   3
   4  -2   2 1107.10 28.9581   6
   4  -2   2 1097.60 28.2022   5
  -5   2  -2 1911.02 48.0192   3
  -5   2  -2 1876.06 46.0322   6
  -5   2  -2 1747.58 41.9178   4
  -5   2  -2 1883.66 48.8052   2
   5  -2   2 1919.19 46.5772   5
   5  -2   2 1859.04 46.4334   6
   5  -2   2 1909.33 48.1170   3
   5  -2   2 1603.73 121.432   1
   5  -2   2 1927.03 49.1724   2
  -6   2  -2 15.7891 6.96122   2
  -6   2  -2 31.2040 2.57832   4
  -6   2  -2 28.7609 2.80077   4
  -6   2  -2 28.8053 6.29918   6
  -6   2  -2 31.3679 7.20802   3
   6  -2   2 62.3465 34.6407   1
   6  -2   2 44.6813 29.2233   1
   6  -2   2 30.1204 7.38269   5
   6  -2   2 30.7724 7.05310   3
   6  -2   2 26.3318 6.02501   6
   6  -2   2 27.7839 8.22226   2
  -7   2  -2 466.850 21.5207   3
  -7   2  -2 470.083 18.7842   6
   7  -2   2 448.558 62.0681   1
   7  -2   2 451.528 19.0724   6
   7  -2   2 501.503 68.0946   1
   7  -2   2 509.023 22.2914   5
   7  -2   2 471.763 23.4454   2
  -8   2  -2 79.0801 11.7256   3
  -8   2  -2 56.9637 10.4366   6
   8  -2   2 56.7253 9.44241   6
   8  -2   2 43.2647 12.5475   2
  -9   2  -2 59.9690 13.7407   3
   9  -2   2 80.1331 11.0585   6
   9  -2   2 95.1960 16.5115   2
 -10   2  -2 32.3140 15.6025   3
  10  -2   2 40.9340 17.4872   2
  10   1  -2 44.0641 15.8077   5
  10   1  -2 26.5340 16.9067   2
 -10  -1   2 26.6123 14.7345   3
   9   1  -2 29.4538 11.6648   2
   9   1  -2 10.7975 10.8340   5
  -9  -1   2 7.00471 10.2645   3
   8   1  -2 17.3898 7.22761   4
   8   1  -2 22.9372 11.7067   2
  -8  -1   2 0.94760 8.09578   3
  -8  -1   2 9.36314 5.94878   4
   7   1  -2 2.16878 6.54550   2
   7   1  -2 3.61880 2.43935   6
   7   1  -2 13.4644 26.3563   1
   7   1  -2 -3.6191 5.38402   4
   7   1  -2 -10.729 25.1280   1
  -7  -1   2 2.00267 4.69008   4
  -7  -1   2 1.21750 6.98898   3
   6   1  -2 17.0615 6.76197   2
   6   1  -2 -16.976 17.3666   1
   6   1  -2 7.42726 5.87803   5
   6   1  -2 14.8382 5.01087   4
   6   1  -2 18.9200 20.7859   1
   6   1  -2 34.5723 7.97013   3
   6   1  -2 7.19413 2.39155   6
  -6  -1   2 6.01472 4.32525   4
  -6  -1   2 9.76690 5.59021   3
   5   1  -2 2.93819 13.6238   1
   5   1  -2 -9.0737 4.69329   3
   5   1  -2 1.28522 1.75043   6
   5   1  -2 2.55088 13.7085   1
   5   1  -2 2.12215 1.80687   6
   5   1  -2 -1.4916 4.31629   2
   5   1  -2 10.2386 4.08382   4
   5   1  -2 8.02883 5.62547   5
  -5  -1   2 4.66961 3.59369   4
  -5  -1   2 -0.8886 3.15740   3
   4   1  -2 380.735 14.0107   2
   4   1  -2 378.250 10.0733   6
   4   1  -2 411.893 27.0531   1
   4   1  -2 389.896 14.5548   3
   4   1  -2 394.388 13.1847   4
   4   1  -2 385.159 10.0296   6
  -4  -1   2 393.218 13.2812   4
  -4  -1   2 376.274 14.2872   3
  -4  -1   2 397.137 27.8545   1
   3   1  -2 159.924 5.12690   6
   3   1  -2 161.915 7.71286   3
   3   1  -2 170.000 7.59193   4
   3   1  -2 141.151 16.8933   1
   3   1  -2 164.793 7.94254   2
  -3  -1   2 157.284 7.81228   4
  -3  -1   2 160.371 16.8598   1
  -3  -1   2 163.581 8.23471   3
   2   1  -2 263.511 7.24800   6
   2   1  -2 266.549 9.27655   4
   2   1  -2 265.030 16.5767   1
   2   1  -2 273.351 9.54796   5
   2   1  -2 261.066 9.55920   3
   2   1  -2 257.230 8.47396   2
  -2  -1   2 249.448 9.30896   4
  -2  -1   2 267.788 16.4434   1
   1   1  -2 1641.19 47.2114   1
   1   1  -2 1631.81 37.4371   5
   1   1  -2 1571.09 35.7004   2
   1   1  -2 1700.39 37.7917   4
   1   1  -2 1614.11 36.2552   6
  -1  -1   2 1697.64 37.5401   5
  -1  -1   2 1650.17 37.8200   4
  -1  -1   2 1595.17 36.2225   6
   0   1  -2 10.4147 2.31826   5
   0   1  -2 6.31053 5.67883   1
   0   1  -2 7.76954 2.19439   4
   0   1  -2 10.6694 2.91129   3
   0   1  -2 6.14691 2.11755   6
   0  -1   2 11.3932 2.27705   5
   0  -1   2 6.48496 2.50431   4
   0  -1   2 7.72898 2.12488   6
  -1   1  -2 4001.43 87.2280   3
  -1   1  -2 4296.14 104.333   1
  -1   1  -2 3877.48 86.5948   5
  -1   1  -2 4113.60 87.4064   6
  -1   1  -2 3917.36 86.4753   4
  -1   1  -2 3918.38 85.8609   2
   1  -1   2 3901.01 86.4973   4
   1  -1   2 4081.72 87.2286   3
   1  -1   2 4081.56 87.4565   6
   1  -1   2 4219.05 104.099   1
   1  -1   2 3877.35 85.9059   2
   1  -1   2 4018.47 86.6277   5
  -2   1  -2 1189.72 27.1411   5
  -2   1  -2 1142.90 27.7731   6
  -2   1  -2 1097.53 27.1037   2
  -2   1  -2 1135.89 27.5347   3
  -2   1  -2 1209.62 45.1771   1
  -2   1  -2 1113.90 25.7643   4
   2  -1   2 1123.91 27.4710   3
   2  -1   2 1049.18 43.3983   1
   2  -1   2 1155.64 27.4145   2
   2  -1   2 1142.31 27.8675   6
   2  -1   2 1172.05 27.0911   5
  -3   1  -2 1825.42 64.7913   1
  -3   1  -2 1690.93 38.6657   4
  -3   1  -2 1827.94 41.7826   5
  -3   1  -2 1762.54 41.9949   3
  -3   1  -2 1847.11 42.4984   2
  -3   1  -2 1776.44 41.8876   6
  -3   1  -2 1712.70 38.7801   4
   3  -1   2 1736.20 64.5406   1
   3  -1   2 1736.46 42.3992   2
   3  -1   2 1760.96 42.0677   6
   3  -1   2 1862.93 41.7551   5
   3  -1   2 1844.21 42.1608   3
  -4   1  -2 2149.13 50.7554   5
  -4   1  -2 2073.31 46.1122   4
  -4   1  -2 2176.20 51.8832   2
  -4   1  -2 2124.28 51.1482   3
  -4   1  -2 2140.77 77.3420   1
  -4   1  -2 2141.04 50.4254   6
   4  -1   2 2092.72 51.8955   2
   4  -1   2 2242.66 50.8512   5
   4  -1   2 2143.08 50.7838   6
   4  -1   2 2183.16 79.1525   1
   4  -1   2 2240.68 51.3126   3
  -5   1  -2 4.94254 4.01477   5
  -5   1  -2 5.66433 4.15531   3
  -5   1  -2 2.20379 16.6765   1
  -5   1  -2 7.77610 3.83743   6
   5  -1   2 5.60984 3.89026   6
   5  -1   2 11.5681 4.69002   5
   5  -1   2 5.98572 3.83769   2
   5  -1   2 -5.9559 18.1171   1
   5  -1   2 2.71050 3.67941   3
  -6   1  -2 1004.58 27.7634   6
  -6   1  -2 967.431 29.3387   3
   6  -1   2 892.426 64.5879   1
   6  -1   2 992.831 29.7210   3
   6  -1   2 977.628 29.2132   5
   6  -1   2 957.653 30.8314   2
   6  -1   2 956.827 27.9223   6
  -7   1  -2 224.042 14.4466   3
  -7   1  -2 219.055 12.3632   6
   7  -1   2 168.084 37.1927   1
   7  -1   2 207.799 15.9671   2
   7  -1   2 205.670 12.0624   6
   7  -1   2 198.905 15.2582   5
   7  -1   2 161.287 40.9946   1
   7  -1   2 175.010 15.1257   3
  -8   1  -2 250.911 16.4185   6
  -8   1  -2 234.682 16.5772   3
   8  -1   2 253.065 15.0306   6
   8  -1   2 260.715 19.1810   2
  -9   1  -2 189.620 18.8680   3
   9  -1   2 206.643 15.9206   6
   9  -1   2 213.108 21.5510   2
 -10   1  -2 0.16887 12.3798   3
  10  -1   2 -3.7286 13.7418   2
  10  -1   2 22.1334 11.1569   6
 -11   1  -2 77.4716 19.1907   3
  10   0  -2 101.350 19.7644   5
  10   0  -2 64.8953 20.5687   2
 -10   0   2 57.6595 18.7652   3
   9   0  -2 1.58195 12.2044   5
   9   0  -2 3.36963 12.7939   2
  -9   0   2 -11.543 11.4242   3
   8   0  -2 162.674 13.5300   4
   8   0  -2 161.631 16.9091   5
   8   0  -2 174.230 18.6167   2
  -8   0   2 185.009 17.4690   3
  -8   0   2 176.789 12.6581   4
   7   0  -2 76.5162 11.5850   2
   7   0  -2 30.7611 31.3435   1
   7   0  -2 55.2871 7.28283   4
   7   0  -2 48.4163 57.7243   1
  -7   0   2 72.4591 10.6227   3
  -7   0   2 52.0837 7.20369   4
   6   0  -2 79.9644 27.5560   1
   6   0  -2 69.0648 7.67901   4
   6   0  -2 72.5575 9.85752   2
   6   0  -2 54.6370 25.1964   1
   6   0  -2 82.5810 9.97733   3
   6   0  -2 70.8812 10.3572   5
   6   0  -2 80.4385 2.71168   6
   6   0  -2 74.3087 2.62608   6
  -6   0   2 100.465 8.42930   4
  -6   0   2 72.2540 9.28624   3
   5   0  -2 395.696 38.0593   1
   5   0  -2 431.836 39.9779   1
   5   0  -2 434.974 14.4769   4
   5   0  -2 406.724 9.70895   6
   5   0  -2 396.805 16.8863   3
   5   0  -2 413.656 9.62622   6
   5   0  -2 415.861 17.1550   5
   5   0  -2 410.357 17.4067   2
  -5   0   2 397.785 14.4723   4
  -5   0   2 405.084 16.8168   3
  -5   0   2 408.142 17.6601   2
   4   0  -2 4.66171 12.9564   1
   4   0  -2 16.7751 4.54684   2
   4   0  -2 11.8607 1.27531   6
   4   0  -2 11.5546 1.24914   6
   4   0  -2 9.38803 4.59049   3
   4   0  -2 10.6530 3.52625   4
  -4   0   2 11.7701 4.27242   3
  -4   0   2 9.45505 3.23582   4
  -4   0   2 19.0218 5.02681   2
   3   0  -2 163.520 8.72573   2
   3   0  -2 201.200 21.6198   1
   3   0  -2 177.125 8.71540   3
   3   0  -2 162.891 7.72773   4
   3   0  -2 159.687 8.50259   5
  -3   0   2 178.786 8.03880   4
  -3   0   2 178.245 8.82621   2
  -3   0   2 169.944 8.16539   3
   2   0  -2 540.543 15.6553   5
   2   0  -2 547.615 15.0874   4
   2   0  -2 545.813 15.4434   3
   2   0  -2 526.122 15.3278   2
  -2   0   2 533.209 15.2188   4
  -2   0   2 533.458 15.6130   3
  -2   0   2 546.307 15.3817   2
   1   0  -2 16.1125 2.94132   5
   1   0  -2 15.8201 2.50268   2
   1   0  -2 17.4353 1.40206   6
   1   0  -2 20.6578 7.32955   1
   1   0  -2 15.4868 2.37022   4
   1   0  -2 18.0306 2.46058   3
  -1   0   2 14.9186 2.21042   2
  -1   0   2 18.5269 2.87264   4
  -1   0   2 18.6805 2.74013   3
  -1   0   2 18.4246 2.62917   5
   0   0  -2 107.251 11.2855   1
   0   0  -2 111.126 3.79476   2
   0   0  -2 105.359 4.99298   4
   0   0  -2 112.410 4.09930   6
   0   0   2 113.109 4.14419   6
   0   0   2 117.139 3.98062   2
   0   0   2 114.703 4.81720   5
  -1   0  -2 225.978 7.75201   5
  -1   0  -2 262.607 7.47422   4
  -1   0  -2 253.988 7.72403   6
  -1   0  -2 247.856 16.1952   1
  -1   0  -2 257.659 7.28812   3
   1   0   2 246.187 7.31109   4
   1   0   2 256.381 16.2734   1
   1   0   2 259.452 7.25798   3
   1   0   2 243.624 7.72911   6
   1   0   2 256.655 6.93582   2
   1   0   2 254.374 7.83771   5
  -2   0  -2 2.48002 1.63765   3
  -2   0  -2 5.06334 2.11808   5
  -2   0  -2 -1.5199 6.03930   1
  -2   0  -2 2.06059 1.09980   4
  -2   0  -2 -1.2292 1.99171   6
   2   0   2 0.87363 1.07715   4
   2   0   2 0.80820 1.97887   5
   2   0   2 2.07104 2.12767   6
   2   0   2 0.94746 6.90144   1
   2   0   2 2.55841 1.94018   3
  -3   0  -2 271.218 9.44573   6
  -3   0  -2 259.201 8.94660   3
  -3   0  -2 261.254 21.8407   1
  -3   0  -2 271.741 9.53539   5
   3   0   2 274.017 9.65206   5
   3   0   2 270.319 22.8828   1
   3   0   2 278.916 9.61526   6
   3   0   2 270.057 9.78005   2
   3   0   2 263.506 9.00416   3
  -4   0  -2 14.3154 10.5968   1
  -4   0  -2 3.42142 2.86668   6
  -4   0  -2 2.92067 2.97565   5
  -4   0  -2 3.14077 2.66074   3
   4   0   2 -0.5127 3.06009   5
   4   0   2 7.35867 3.16170   3
   4   0   2 3.04004 3.16304   2
   4   0   2 3.06763 2.85523   6
   4   0   2 14.0573 12.8440   1
  -5   0  -2 542.519 17.1234   3
  -5   0  -2 505.827 37.1733   1
  -5   0  -2 569.724 16.7266   6
  -5   0  -2 520.828 17.4789   5
   5   0   2 534.010 39.4803   1
   5   0   2 505.797 18.2253   2
   5   0   2 535.940 17.6493   5
   5   0   2 471.778 18.7095   3
   5   0   2 542.286 16.8510   6
  -6   0  -2 160.920 10.6705   5
  -6   0  -2 172.951 27.6101   1
  -6   0  -2 173.130 9.75956   6
  -6   0  -2 189.406 10.5329   3
   6   0   2 184.991 9.89203   6
   6   0   2 154.424 28.8494   1
   6   0   2 155.630 11.6009   2
   6   0   2 207.166 11.5986   3
   6   0   2 185.665 11.7560   5
  -7   0  -2 83.1643 9.80294   6
  -7   0  -2 81.0842 8.96666   3
   7   0   2 102.149 9.22848   6
   7   0   2 78.7422 10.2918   5
   7   0   2 122.355 34.1482   1
   7   0   2 82.7837 9.83022   3
   7   0   2 87.0944 10.6873   2
  -8   0  -2 493.534 19.7334   6
  -8   0  -2 486.963 21.4907   3
   8   0   2 401.947 56.0892   1
   8   0   2 454.816 23.0561   3
   8   0   2 502.002 63.1086   1
   8   0   2 541.800 20.0087   6
   8   0   2 463.010 23.2340   2
  -9   0  -2 -6.3486 8.23551   3
   9   0   2 -11.643 7.28096   6
   9   0   2 -7.1746 10.0087   2
 -10   0  -2 169.612 19.1145   3
  10   0   2 177.588 17.1915   6
  10   0   2 201.925 23.1265   2
 -11   0  -2 -16.538 14.3549   3
  11   0   2 4.82764 16.0681   2
  10  -1  -2 0.42478 32.0878   5
   9  -1  -2 166.645 18.6510   5
   9  -1  -2 191.082 21.3927   2
  -9   1   2 202.719 22.9305   3
   8  -1  -2 78.7099 14.0278   2
   8  -1  -2 84.4186 13.1285   5
  -8   1   2 46.8157 8.10164   4
  -8   1   2 58.9328 12.5899   3
   7  -1  -2 153.456 12.1265   4
  -7   1   2 161.648 11.6786   4
  -7   1   2 156.489 15.6563   3
   6  -1  -2 728.493 66.3242   1
   6  -1  -2 752.069 26.9088   5
   6  -1  -2 679.345 27.9144   3
   6  -1  -2 772.588 27.6471   5
   6  -1  -2 812.200 64.7380   1
   6  -1  -2 782.337 28.8903   2
   6  -1  -2 761.115 23.0651   4
  -6   1   2 764.756 23.2209   4
  -6   1   2 761.150 29.1064   2
  -6   1   2 759.430 27.1990   3
   5  -1  -2 4.48624 5.24933   2
   5  -1  -2 15.5674 7.07196   5
   5  -1  -2 6.07658 6.66738   3
   5  -1  -2 10.1585 4.63851   5
   5  -1  -2 7.13837 22.7671   1
   5  -1  -2 -22.294 37.6652   1
   5  -1  -2 12.0386 4.44034   4
  -5   1   2 -1.7140 3.75303   3
  -5   1   2 6.12566 7.27466   2
  -5   1   2 9.08124 4.33218   4
   4  -1  -2 1366.21 33.0829   4
   4  -1  -2 1312.49 35.4313   3
   4  -1  -2 1434.50 63.2549   1
   4  -1  -2 1322.96 35.9764   2
   4  -1  -2 1279.80 35.0566   5
  -4   1   2 1245.65 35.1654   3
  -4   1   2 1307.22 36.0376   2
  -4   1   2 1288.49 33.2273   4
   3  -1  -2 743.767 22.5052   2
   3  -1  -2 721.430 21.5015   5
   3  -1  -2 753.931 20.3180   4
   3  -1  -2 758.862 41.8638   1
  -3   1   2 722.104 21.6654   3
  -3   1   2 768.196 22.4239   2
  -3   1   2 757.441 20.7178   4
   2  -1  -2 1125.93 28.7914   5
   2  -1  -2 1167.64 28.9048   3
   2  -1  -2 1197.00 28.2736   4
   2  -1  -2 1167.06 29.5293   2
   2  -1  -2 1152.50 46.5945   1
  -2   1   2 1092.61 49.8623   1
  -2   1   2 1164.64 29.2254   2
  -2   1   2 1132.67 28.1703   4
  -2   1   2 1091.40 28.6652   3
   1  -1  -2 1636.58 38.3011   4
   1  -1  -2 1683.25 38.2672   3
   1  -1  -2 1768.71 55.4921   1
   1  -1  -2 1635.19 38.5035   5
   1  -1  -2 1659.96 38.6869   2
  -1   1   2 1599.31 35.5751   6
  -1   1   2 1684.24 38.3121   3
  -1   1   2 1696.94 38.5153   5
  -1   1   2 1662.93 38.6372   2
  -1   1   2 1661.22 38.4292   4
  -1   1   2 1594.41 54.2253   1
   0  -1  -2 22.4876 2.82783   4
   0  -1  -2 28.9206 3.47131   2
   0  -1  -2 27.2753 3.29183   5
   0  -1  -2 27.6573 2.64025   3
   0  -1  -2 22.7419 7.62227   1
   0   1   2 29.0142 3.40178   5
   0   1   2 32.3148 2.31719   6
   0   1   2 31.0564 3.33441   4
   0   1   2 27.3055 2.57754   3
   0   1   2 17.9817 7.10648   1
   0   1   2 27.4178 3.00640   2
  -1  -1  -2 7.76805 1.88837   2
  -1  -1  -2 7.63950 1.85241   6
  -1  -1  -2 8.64058 1.94070   4
  -1  -1  -2 9.43987 5.76299   1
   1   1   2 7.65736 1.81216   6
   1   1   2 7.77510 2.66837   5
   1   1   2 8.23229 2.00243   2
   1   1   2 3.69876 1.74979   4
  -2  -1  -2 3297.41 74.3769   3
  -2  -1  -2 3465.18 76.3088   5
  -2  -1  -2 3752.22 91.3284   1
  -2  -1  -2 3571.05 76.2890   6
  -2  -1  -2 3484.82 75.0749   4
   2   1   2 3535.38 76.3711   5
   2   1   2 3588.66 76.3326   6
   2   1   2 3351.29 74.4314   3
   2   1   2 3412.86 75.0364   4
   2   1   2 3581.51 90.8369   1
   2   1   2 3479.32 76.2655   2
  -3  -1  -2 99.7356 5.47878   3
  -3  -1  -2 121.549 6.25334   5
  -3  -1  -2 134.645 16.1092   1
  -3  -1  -2 129.485 4.01935   4
  -3  -1  -2 131.046 6.22424   6
   3   1   2 128.978 15.8540   1
   3   1   2 126.877 5.00479   3
   3   1   2 124.496 3.97478   4
   3   1   2 122.102 6.23021   5
   3   1   2 120.401 6.09049   6
  -4  -1  -2 515.476 29.2668   1
  -4  -1  -2 494.234 14.0953   3
  -4  -1  -2 465.208 15.1528   5
  -4  -1  -2 509.323 14.8748   6
   4   1   2 487.260 28.8794   1
   4   1   2 480.144 10.8575   4
   4   1   2 487.001 15.3465   5
   4   1   2 510.533 10.8815   4
   4   1   2 492.431 14.8340   6
   4   1   2 491.626 14.0622   3
  -5  -1  -2 9.70838 3.48578   6
  -5  -1  -2 5.43703 3.37171   5
  -5  -1  -2 18.0752 14.2779   1
  -5  -1  -2 8.24210 3.21704   3
   5   1   2 10.0416 4.07941   5
   5   1   2 6.52971 3.32763   6
   5   1   2 11.3970 11.9333   1
   5   1   2 14.4314 3.55584   3
   5   1   2 8.71594 3.44587   2
  -6  -1  -2 64.7369 17.4734   1
  -6  -1  -2 55.8100 6.34201   3
  -6  -1  -2 70.2817 7.77217   5
   6   1   2 26.1805 18.1564   1
   6   1   2 64.5458 7.30645   2
   6   1   2 64.7878 6.78201   6
   6   1   2 70.4878 7.53060   3
   6   1   2 79.3263 8.86873   5
  -7  -1  -2 -16.389 19.7643   1
  -7  -1  -2 0.54022 4.79881   3
  -7  -1  -2 6.42590 5.53792   6
   7   1   2 11.3936 6.07673   3
   7   1   2 3.94158 6.84593   5
   7   1   2 -20.036 21.3475   1
   7   1   2 16.7688 6.54167   2
   7   1   2 -1.9987 4.14955   6
  -8  -1  -2 3.40781 6.01965   3
   8   1   2 1.28228 5.51278   2
   8   1   2 2.88623 5.52686   6
   8   1   2 0.64370 7.83226   3
   8   1   2 -62.021 28.4620   1
   8   1   2 -12.326 25.6596   1
   8   1   2 -15.573 10.5631   5
  -9  -1  -2 -6.2906 7.06634   3
   9   1   2 -5.6463 9.20268   2
   9   1   2 9.66183 6.83749   6
 -10  -1  -2 21.8020 10.3986   3
  10   1   2 21.2110 9.48720   6
  10   1   2 29.5302 13.1339   2
 -11  -1  -2 -23.687 12.3836   3
  11   1   2 -14.533 11.6515   6
  11   1   2 30.8474 16.3756   2
   9  -2  -2 49.0988 19.3722   2
   9  -2  -2 55.9519 17.4420   5
  -9   2   2 56.9354 16.2015   3
   8  -2  -2 -11.573 13.0960   2
   8  -2  -2 -6.0820 11.7497   5
  -8   2   2 3.48486 7.85916   4
  -8   2   2 7.62520 11.8276   3
   7  -2  -2 420.326 18.9284   4
   7  -2  -2 479.832 23.3204   5
   7  -2  -2 472.997 25.8237   2
  -7   2   2 468.826 18.8761   4
  -7   2   2 471.918 22.4144   3
   6  -2  -2 -56.332 34.0858   1
   6  -2  -2 10.8398 10.0144   5
   6  -2  -2 5.00561 6.28749   4
   6  -2  -2 6.03145 7.28233   5
   6  -2  -2 8.56647 38.8949   1
   6  -2  -2 -14.566 8.06857   2
  -6   2   2 7.72002 7.46804   3
  -6   2   2 -0.9233 5.07432   4
   5  -2  -2 1608.07 44.0993   3
   5  -2  -2 1586.05 42.8516   5
   5  -2  -2 1478.78 84.8758   1
   5  -2  -2 1558.53 42.8512   5
   5  -2  -2 1496.62 79.6113   1
   5  -2  -2 1549.22 45.0427   2
   5  -2  -2 1556.45 39.5206   4
  -5   2   2 1573.14 43.4990   3
  -5   2   2 1594.64 40.0434   4
  -5   2   2 1557.47 44.9608   2
   4  -2  -2 410.096 14.4488   4
   4  -2  -2 389.201 17.8067   2
   4  -2  -2 395.291 9.97228   6
   4  -2  -2 365.537 43.1378   1
   4  -2  -2 329.073 41.0371   1
   4  -2  -2 395.225 16.0790   3
   4  -2  -2 387.551 15.8113   5
  -4   2   2 380.687 17.6055   2
  -4   2   2 397.420 10.0668   6
  -4   2   2 388.372 14.1310   4
  -4   2   2 396.345 16.2928   3
   3  -2  -2 1367.94 35.1222   3
   3  -2  -2 1378.94 62.1586   1
   3  -2  -2 1334.93 36.0868   2
   3  -2  -2 1367.77 33.4612   4
   3  -2  -2 1304.68 34.3102   5
  -3   2   2 1221.25 60.6385   1
  -3   2   2 1345.96 35.8422   2
  -3   2   2 1296.90 34.7885   3
  -3   2   2 1324.16 33.4139   4
  -3   2   2 1300.39 29.5741   6
   2  -2  -2 3973.70 90.0969   5
   2  -2  -2 4146.96 89.9042   4
   2  -2  -2 4088.09 90.5599   3
   2  -2  -2 4264.27 119.559   1
   2  -2  -2 4028.01 91.6481   2
  -2   2   2 4156.57 91.5131   2
  -2   2   2 4179.00 119.868   1
  -2   2   2 4021.07 90.5226   3
  -2   2   2 3899.28 89.7018   4
  -2   2   2 3819.82 86.6578   6
   1  -2  -2 18.4988 3.35256   5
   1  -2  -2 29.3617 3.62483   4
   1  -2  -2 13.1729 2.86963   3
   1  -2  -2 5.32187 10.1440   1
   1  -2  -2 19.9430 3.66581   2
  -1   2   2 11.1446 4.31663   2
  -1   2   2 20.4652 2.16941   6
  -1   2   2 24.2354 3.53233   4
  -1   2   2 19.6553 3.23839   3
  -1   2   2 21.3676 11.2595   1
   0  -2  -2 6438.76 142.294   2
   0  -2  -2 6585.83 140.825   3
   0  -2  -2 7252.53 164.315   1
   0  -2  -2 6778.88 142.041   4
   0  -2  -2 6366.19 141.284   5
   0   2   2 6585.17 141.997   4
   0   2   2 6464.56 140.330   6
   0   2   2 6535.98 141.223   5
   0   2   2 6051.77 140.913   3
   0   2   2 7086.26 164.078   1
   0   2   2 6527.09 142.310   2
  -1  -2  -2 1648.43 37.2587   3
  -1  -2  -2 1755.39 39.4345   4
  -1  -2  -2 1713.08 54.1251   1
  -1  -2  -2 1769.35 39.8100   2
   1   2   2 1733.75 38.8579   5
   1   2   2 1750.08 39.7261   2
   1   2   2 1753.45 39.4325   4
   1   2   2 1744.32 54.3366   1
   1   2   2 1637.34 37.2379   3
  -2  -2  -2 7648.86 169.496   1
  -2  -2  -2 6807.32 152.904   2
  -2  -2  -2 7183.87 152.159   4
  -2  -2  -2 6998.72 152.222   5
   2   2   2 6903.58 152.454   6
   2   2   2 7180.72 152.174   4
   2   2   2 6896.37 152.874   2
   2   2   2 7016.75 152.263   5
   2   2   2 7570.52 168.688   1
  -3  -2  -2 1674.36 38.3636   3
  -3  -2  -2 1778.49 39.5721   4
  -3  -2  -2 1801.60 40.9996   5
  -3  -2  -2 1862.56 54.9320   1
   3   2   2 1805.01 41.1451   6
   3   2   2 1780.11 40.9313   5
   3   2   2 1822.46 54.9992   1
   3   2   2 1645.01 38.2980   3
   3   2   2 1751.33 41.4340   2
  -4  -2  -2 61.0391 11.5274   1
  -4  -2  -2 62.7979 5.65631   5
  -4  -2  -2 72.9799 4.33703   3
   4   2   2 94.3090 13.8118   1
   4   2   2 75.0016 5.59099   2
   4   2   2 73.9796 5.31582   5
   4   2   2 71.0537 4.22080   3
   4   2   2 69.2201 3.68237   4
   4   2   2 66.9501 5.54969   6
  -5  -2  -2 1211.86 31.1888   5
  -5  -2  -2 1173.91 29.1607   3
   5   2   2 1171.86 30.2733   6
   5   2   2 1187.47 29.0318   3
   5   2   2 1137.79 46.9995   1
   5   2   2 1175.14 26.7510   4
   5   2   2 1194.81 26.6201   4
  -6  -2  -2 247.960 10.5802   3
  -6  -2  -2 247.274 26.9253   1
  -6  -2  -2 238.447 11.9943   5
   6   2   2 236.300 10.9459   6
   6   2   2 246.589 6.53046   4
   6   2   2 277.020 29.8637   1
   6   2   2 255.222 13.1674   2
   6   2   2 248.769 6.68070   4
   6   2   2 256.108 12.5527   5
   6   2   2 252.464 10.7712   3
  -7  -2  -2 282.432 13.7408   5
  -7  -2  -2 303.382 13.2158   3
  -7  -2  -2 305.298 34.4449   1
   7   2   2 302.939 13.5138   3
   7   2   2 299.585 15.6969   5
   7   2   2 293.873 13.1420   6
   7   2   2 302.772 15.8122   2
   7   2   2 310.797 38.9190   1
  -8  -2  -2 124.224 11.4526   3
   8   2   2 120.856 29.4593   1
   8   2   2 85.3684 26.2683   1
   8   2   2 118.329 10.7137   6
   8   2   2 155.088 14.8844   5
   8   2   2 127.076 13.6160   2
   8   2   2 135.609 12.2825   3
  -9  -2  -2 36.6439 8.46389   3
   9   2   2 48.8307 8.41308   6
   9   2   2 37.9426 10.9726   3
   9   2   2 43.1099 9.57686   2
 -10  -2  -2 62.2923 11.7771   3
  10   2   2 41.8888 9.83246   6
  10   2   2 40.2608 12.7995   2
 -11  -2  -2 -2.7175 11.3213   3
  11   2   2 3.98210 14.3659   2
  11   2   2 1.11481 11.5325   6
 -12  -2  -2 4.05251 16.8132   3
   9  -3  -2 17.1918 20.0427   5
   8  -3  -2 68.0747 15.3182   5
   8  -3  -2 52.6610 17.2345   2
  -8   3   2 34.2111 14.8195   3
   7  -3  -2 -3.4290 11.8120   2
   7  -3  -2 1.12531 9.78522   5
  -7   3   2 -3.5275 7.48633   3
  -7   3   2 3.11720 7.62551   4
   6  -3  -2 134.829 13.1121   4
   6  -3  -2 125.039 14.4093   5
   6  -3  -2 108.671 14.3555   2
  -6   3   2 135.098 12.4923   4
  -6   3   2 140.764 15.0897   3
   5  -3  -2 131.209 15.3542   3
   5  -3  -2 141.229 39.5890   1
   5  -3  -2 171.391 15.6994   2
   5  -3  -2 126.113 42.3748   1
   5  -3  -2 138.947 11.3495   4
   5  -3  -2 132.676 12.3244   5
   5  -3  -2 153.960 13.9139   5
  -5   3   2 150.001 14.6694   2
  -5   3   2 155.758 10.8986   4
  -5   3   2 158.125 13.3255   3
  -5   3   2 152.716 6.57877   6
   4  -3  -2 116.316 9.78960   4
   4  -3  -2 114.280 34.3494   1
   4  -3  -2 107.802 10.0235   5
   4  -3  -2 127.719 12.2655   3
   4  -3  -2 133.698 10.7661   5
   4  -3  -2 124.055 13.1145   2
   4  -3  -2 57.4410 29.1402   1
  -4   3   2 120.853 9.44302   3
  -4   3   2 108.552 9.10208   4
  -4   3   2 119.851 6.26697   6
  -4   3   2 111.728 13.2808   2
   3  -3  -2 1212.63 28.5204   6
   3  -3  -2 1262.51 66.7250   1
   3  -3  -2 1297.53 33.9676   3
   3  -3  -2 1223.41 32.6530   5
   3  -3  -2 1155.18 34.0282   4
   3  -3  -2 1212.61 35.2234   2
  -3   3   2 1205.71 28.8428   6
  -3   3   2 1217.61 32.2141   4
  -3   3   2 1199.97 33.4558   3
  -3   3   2 1220.60 34.5727   2
   2  -3  -2 71.4934 6.97943   4
   2  -3  -2 55.5447 19.2583   1
   2  -3  -2 68.8546 7.79959   3
   2  -3  -2 70.7524 7.19151   2
   2  -3  -2 70.6851 6.61050   5
  -2   3   2 79.9020 5.21084   6
  -2   3   2 84.4559 6.61114   4
  -2   3   2 68.3360 6.65375   3
  -2   3   2 81.2271 9.07268   2
  -2   3   2 116.176 24.3646   1
   1  -3  -2 3578.64 108.469   1
   1  -3  -2 3450.94 77.8567   5
   1  -3  -2 3457.46 80.2474   2
   1  -3  -2 3545.40 78.4733   3
   1  -3  -2 3633.05 78.9386   4
  -1   3   2 3429.22 78.3249   3
  -1   3   2 3589.75 80.2234   2
  -1   3   2 3461.90 76.7128   6
  -1   3   2 3538.28 108.754   1
  -1   3   2 3387.23 78.7223   4
   0  -3  -2 848.578 21.1325   3
   0  -3  -2 867.292 41.5325   1
   0  -3  -2 816.743 22.7909   2
   0  -3  -2 813.929 20.9613   5
   0  -3  -2 864.839 22.3768   4
   0   3   2 842.544 21.0830   3
   0   3   2 811.745 41.0801   1
   0   3   2 850.145 23.3006   2
   0   3   2 825.459 20.7940   6
   0   3   2 831.634 20.7873   5
   0   3   2 818.064 22.2368   4
  -1  -3  -2 3109.25 70.5672   5
  -1  -3  -2 3359.65 72.3054   4
  -1  -3  -2 3232.33 72.7984   2
  -1  -3  -2 3172.36 69.8907   3
  -1  -3  -2 3417.06 93.5151   1
   1   3   2 3236.41 72.5987   2
   1   3   2 3222.90 70.6094   5
   1   3   2 3253.45 72.2522   4
   1   3   2 3329.53 93.1718   1
   1   3   2 3184.74 71.2464   6
   1   3   2 3080.00 69.7638   3
  -2  -3  -2 4448.77 99.1841   3
  -2  -3  -2 4743.04 102.409   4
  -2  -3  -2 4634.08 103.088   2
  -2  -3  -2 4750.89 120.306   1
  -2  -3  -2 4686.40 101.283   5
   2   3   2 4643.31 101.340   5
   2   3   2 4862.92 120.645   1
   2   3   2 4648.27 102.371   4
   2   3   2 4840.48 103.254   2
  -3  -3  -2 191.062 17.7464   1
  -3  -3  -2 172.084 8.48952   2
  -3  -3  -2 183.436 7.38394   4
  -3  -3  -2 178.798 7.33692   5
   3   3   2 179.422 4.89704   3
   3   3   2 188.144 8.10116   2
   3   3   2 175.328 7.43862   5
   3   3   2 170.080 17.1271   1
   3   3   2 170.390 7.32986   4
   3   3   2 183.455 8.10524   6
   3   3   2 173.270 4.72439   3
  -4  -3  -2 5103.82 124.494   1
  -4  -3  -2 4879.26 108.603   5
   4   3   2 4984.39 109.758   2
   4   3   2 5003.25 108.690   5
   4   3   2 5143.39 124.291   1
   4   3   2 4741.21 105.699   3
   4   3   2 4933.74 109.004   6
   4   3   2 4830.67 107.171   4
  -5  -3  -2 407.862 14.3339   5
  -5  -3  -2 377.936 25.9562   1
  -5  -3  -2 414.853 12.3280   3
   5   3   2 421.023 12.1686   3
   5   3   2 410.211 26.3433   1
   5   3   2 423.186 12.0307   4
   5   3   2 416.008 15.3150   2
   5   3   2 415.114 14.2213   6
   5   3   2 371.484 16.0935   5
  -6  -3  -2 1954.17 49.6818   5
  -6  -3  -2 2027.20 47.5116   3
  -6  -3  -2 1986.62 65.6974   1
   6   3   2 2095.70 47.3562   3
   6   3   2 2038.13 66.8849   1
   6   3   2 2020.78 50.9215   2
   6   3   2 1978.66 48.8762   6
   6   3   2 1975.40 45.4161   4
   6   3   2 2045.01 49.7151   5
   6   3   2 1954.80 45.1490   4
  -7  -3  -2 1055.43 31.1328   5
  -7  -3  -2 1035.84 28.7776   3
  -7  -3  -2 1049.55 48.2001   1
   7   3   2 1025.93 49.5989   1
   7   3   2 989.871 30.9891   5
   7   3   2 1026.05 32.0790   2
   7   3   2 1055.76 28.6759   3
   7   3   2 1067.22 31.8743   2
   7   3   2 1042.64 24.7819   4
   7   3   2 1012.07 26.8032   4
   7   3   2 1041.70 29.7252   6
  -8  -3  -2 114.330 10.4324   3
   8   3   2 40.1105 22.2666   1
   8   3   2 98.5264 10.7752   3
   8   3   2 108.959 9.97204   6
   8   3   2 89.6879 4.06489   4
   8   3   2 96.5094 11.7526   5
   8   3   2 93.5296 10.9029   2
   8   3   2 90.5303 3.82845   4
  -9  -3  -2 495.984 21.1774   3
   9   3   2 515.702 21.1816   6
   9   3   2 457.928 51.3829   1
   9   3   2 498.892 22.6754   3
 -10  -3  -2 22.5242 9.20601   3
  10   3   2 17.8110 8.22572   6
  10   3   2 22.0144 11.4851   2
 -11  -3  -2 103.723 14.7386   3
  11   3   2 80.6966 15.9831   2
  11   3   2 84.1313 13.3498   6
 -12  -3  -2 43.1329 15.8274   3
  12   3   2 47.5836 20.3906   2
   8  -4  -2 34.2217 17.3011   5
   8  -4  -2 24.1172 19.5362   2
  -8   4   2 24.1408 16.3068   3
   7  -4  -2 1.60704 11.3023   5
   7  -4  -2 10.6828 13.7670   2
  -7   4   2 12.2281 12.4581   3
  -7   4   2 9.98784 9.67925   4
   6  -4  -2 41.7733 12.1533   5
   6  -4  -2 83.7643 14.3547   2
   6  -4  -2 51.9496 11.3108   4
  -6   4   2 41.9077 10.8749   3
  -6   4   2 64.3951 9.42055   4
   5  -4  -2 -6.2027 7.48679   4
   5  -4  -2 -39.522 47.3395   1
   5  -4  -2 -23.236 9.23454   5
   5  -4  -2 -4.1004 13.6509   2
   5  -4  -2 9.88934 7.12374   5
  -5   4   2 -3.4064 5.84905   4
  -5   4   2 5.85660 8.54067   3
  -5   4   2 -1.2559 4.22561   6
   4  -4  -2 68.1201 8.62064   5
   4  -4  -2 65.3849 8.64190   5
   4  -4  -2 64.9130 10.6947   2
   4  -4  -2 61.2917 8.49198   4
   4  -4  -2 54.1473 10.2324   3
   4  -4  -2 51.8218 39.1999   1
   4  -4  -2 32.3019 34.0677   1
  -4   4   2 58.9998 8.03068   3
  -4   4   2 71.7740 11.6399   2
  -4   4   2 62.0168 5.71961   6
  -4   4   2 55.8279 7.38319   4
   3  -4  -2 -32.660 50.0529   1
   3  -4  -2 26.2478 6.33436   4
   3  -4  -2 35.4485 6.39807   3
   3  -4  -2 25.0939 5.54220   5
   3  -4  -2 18.5949 5.36957   5
   3  -4  -2 21.1584 7.29465   2
   3  -4  -2 46.7103 28.0195   1
  -3   4   2 16.5313 4.24744   6
  -3   4   2 22.1812 7.86756   2
  -3   4   2 13.8562 5.34992   3
  -3   4   2 19.3593 5.04384   4
   2  -4  -2 416.283 17.7947   2
   2  -4  -2 416.263 14.6619   5
   2  -4  -2 442.502 16.4165   3
   2  -4  -2 452.238 44.4500   1
   2  -4  -2 416.204 15.5190   4
  -2   4   2 422.759 13.7808   6
  -2   4   2 438.356 17.2836   2
  -2   4   2 419.926 15.7408   3
  -2   4   2 427.251 49.4373   1
  -2   4   2 426.742 15.7525   4
   1  -4  -2 126.404 7.21167   5
   1  -4  -2 130.152 8.40384   4
   1  -4  -2 133.040 9.81240   2
   1  -4  -2 140.736 8.31597   3
   1  -4  -2 127.373 24.5212   1
  -1   4   2 121.351 8.06106   4
  -1   4   2 129.364 7.14737   6
  -1   4   2 101.364 23.6816   1
  -1   4   2 131.822 9.06587   2
  -1   4   2 129.467 7.69428   3
   0  -4  -2 774.694 22.1983   4
   0  -4  -2 794.869 21.1185   3
   0  -4  -2 780.390 20.1381   5
   0  -4  -2 776.424 45.0109   1
   0  -4  -2 753.682 22.8497   2
   0   4   2 783.279 20.8365   3
   0   4   2 780.691 20.8734   6
   0   4   2 834.411 46.6199   1
   0   4   2 752.376 21.9272   4
  -1  -4  -2 675.846 17.6823   5
  -1  -4  -2 670.582 38.6080   1
  -1  -4  -2 706.452 18.0910   3
  -1  -4  -2 699.218 20.0738   4
  -1  -4  -2 698.909 20.5836   2
   1   4   2 698.247 19.1969   6
   1   4   2 684.813 17.7570   3
   1   4   2 687.742 17.5516   5
   1   4   2 682.841 20.4085   2
   1   4   2 734.905 39.7562   1
   1   4   2 698.656 20.0807   4
  -2  -4  -2 406.301 14.4444   2
  -2  -4  -2 416.729 28.4453   1
  -2  -4  -2 420.553 11.2189   3
  -2  -4  -2 419.951 13.9305   4
  -2  -4  -2 429.565 11.9330   5
   2   4   2 465.366 30.1448   1
   2   4   2 427.322 14.5567   2
   2   4   2 414.899 12.2690   5
   2   4   2 422.492 13.6480   6
   2   4   2 407.253 10.9331   3
   2   4   2 419.861 13.6321   4
  -3  -4  -2 2540.97 61.2563   2
  -3  -4  -2 2632.62 58.9054   5
  -3  -4  -2 2708.01 78.7900   1
  -3  -4  -2 2690.28 60.4691   4
   3   4   2 2482.31 56.6392   3
   3   4   2 2712.67 78.2906   1
   3   4   2 2704.38 61.4112   2
   3   4   2 2622.93 59.0478   5
   3   4   2 2634.59 60.3676   4
  -4  -4  -2 82.4174 6.41071   2
  -4  -4  -2 73.7508 13.2887   1
  -4  -4  -2 79.5377 5.93703   5
   4   4   2 96.9359 4.26229   3
   4   4   2 93.6059 6.31599   5
   4   4   2 100.683 4.09873   3
   4   4   2 88.1983 6.24076   4
   4   4   2 90.7975 6.79306   2
   4   4   2 79.9461 13.1363   1
  -5  -4  -2 1902.04 46.1220   5
  -5  -4  -2 1959.40 60.3279   1
   5   4   2 1970.59 48.0321   2
   5   4   2 1913.05 44.9760   4
   5   4   2 1951.12 59.4862   1
   5   4   2 1832.62 46.5348   6
   5   4   2 1878.84 43.1775   3
   5   4   2 1920.50 46.3208   5
  -6  -4  -2 1098.15 30.6953   5
  -6  -4  -2 1120.54 43.0312   1
   6   4   2 1082.82 42.5505   1
   6   4   2 1155.46 31.0422   6
   6   4   2 1126.25 27.9996   3
   6   4   2 1113.14 32.3210   2
   6   4   2 1122.25 31.0968   5
   6   4   2 1119.81 28.1191   4
  -7  -4  -2 303.912 14.7421   5
  -7  -4  -2 269.786 26.7059   1
   7   4   2 317.612 11.8193   4
   7   4   2 323.886 12.6704   3
   7   4   2 324.625 11.2017   4
   7   4   2 345.349 17.3119   2
   7   4   2 297.920 13.9599   6
   7   4   2 300.856 15.7507   5
   7   4   2 326.314 29.3403   1
  -8  -4  -2 925.836 27.1498   3
   8   4   2 855.979 46.4979   1
   8   4   2 924.315 28.5836   6
   8   4   2 915.709 27.3147   3
   8   4   2 922.248 23.1580   4
   8   4   2 855.675 30.3603   5
   8   4   2 917.381 31.3408   2
   8   4   2 890.940 30.6923   2
   8   4   2 898.257 23.6422   4
  -9  -4  -2 15.1922 7.17433   3
   9   4   2 15.4377 10.6063   2
   9   4   2 11.2242 6.66789   6
   9   4   2 17.5370 3.84388   4
   9   4   2 11.3313 8.93259   3
   9   4   2 14.3146 4.66591   4
   9   4   2 46.7324 22.3296   1
 -10  -4  -2 409.340 20.3320   3
  10   4   2 386.673 24.3158   2
  10   4   2 423.794 21.3565   6
  11   4   2 102.991 17.5288   2
  12   4   2 41.7127 15.2621   6
  12   4   2 28.4653 18.4279   2
   7  -5  -2 3.10665 13.9861   5
   7  -5  -2 11.7528 17.3019   2
  -7   5   2 31.5005 14.3605   3
   6  -5  -2 97.8409 14.2750   5
   6  -5  -2 105.033 17.6431   2
  -6   5   2 113.597 15.3506   3
  -6   5   2 98.9607 11.9593   4
   5  -5  -2 13.8599 9.92297   4
   5  -5  -2 -11.867 10.1293   2
   5  -5  -2 -2.8477 8.22436   5
   5  -5  -2 -4.0738 11.0029   5
   5  -5  -2 -27.258 65.3646   1
  -5   5   2 2.08285 7.12760   4
  -5   5   2 2.09486 8.43182   3
  -5   5   2 -4.8035 6.09493   6
   4  -5  -2 243.739 51.7846   1
   4  -5  -2 171.495 15.6718   4
   4  -5  -2 152.879 55.4385   1
   4  -5  -2 176.643 15.1131   5
   4  -5  -2 185.163 12.9541   5
  -4   5   2 194.365 11.6611   6
  -4   5   2 201.760 15.0584   3
  -4   5   2 186.269 13.2906   4
   3  -5  -2 115.570 13.8783   3
   3  -5  -2 37.8276 38.1589   1
   3  -5  -2 70.9264 8.00699   5
   3  -5  -2 121.150 36.3469   1
   3  -5  -2 80.5362 8.48197   5
   3  -5  -2 81.1681 9.69090   4
   3  -5  -2 95.9630 11.7912   2
  -3   5   2 88.4592 10.9160   2
  -3   5   2 86.5521 9.32977   6
  -3   5   2 92.7224 9.73221   4
  -3   5   2 94.7250 10.6259   3
   2  -5  -2 9.71733 5.30176   2
   2  -5  -2 1.17682 5.57015   4
   2  -5  -2 2.35621 3.81655   5
   2  -5  -2 4.24341 5.86961   3
   2  -5  -2 32.3472 27.4443   1
  -2   5   2 -8.0515 4.22947   4
  -2   5   2 6.22847 4.52958   6
  -2   5   2 9.31804 4.91340   3
  -2   5   2 3.56447 6.05695   2
   1  -5  -2 223.845 12.0271   4
   1  -5  -2 213.326 9.57588   5
   1  -5  -2 239.333 34.4738   1
   1  -5  -2 227.149 11.6221   3
   1  -5  -2 198.116 12.7773   2
  -1   5   2 189.228 34.1482   1
  -1   5   2 207.240 14.0810   2
  -1   5   2 230.179 10.8051   6
  -1   5   2 220.195 10.7811   3
  -1   5   2 204.666 11.2906   4
   0  -5  -2 22.0046 5.05849   4
   0  -5  -2 17.5778 3.39403   5
   0  -5  -2 6.24802 18.5638   1
   0  -5  -2 18.4600 5.39486   2
   0  -5  -2 20.2430 4.50280   3
   0   5   2 23.6864 4.03073   3
   0   5   2 18.7919 6.11162   2
   0   5   2 20.7426 4.51506   6
   0   5   2 24.1916 4.98985   4
   0   5   2 -4.0418 19.5125   1
  -1  -5  -2 140.434 8.82507   2
  -1  -5  -2 147.056 9.25828   4
  -1  -5  -2 169.493 25.0372   1
  -1  -5  -2 148.123 7.40216   3
  -1  -5  -2 144.156 6.29490   5
   1   5   2 155.053 6.11777   5
   1   5   2 142.951 8.79699   4
   1   5   2 122.606 23.8597   1
   1   5   2 144.855 8.50612   6
   1   5   2 141.385 7.00289   3
   1   5   2 141.568 10.1857   2
  -2  -5  -2 74.2602 7.34283   2
  -2  -5  -2 63.1649 6.90854   4
  -2  -5  -2 70.2451 4.46669   5
  -2  -5  -2 47.8401 28.4799   1
  -2  -5  -2 75.2744 5.19190   3
   2   5   2 65.8700 6.63540   4
   2   5   2 73.2855 4.80711   5
   2   5   2 75.8933 7.80709   2
   2   5   2 74.8248 17.1840   1
   2   5   2 68.3050 4.54083   3
  -3  -5  -2 -1.4374 1.98164   5
  -3  -5  -2 2.86871 4.04932   4
  -3  -5  -2 4.96496 11.4931   1
  -3  -5  -2 4.50239 3.56255   2
   3   5   2 1.40545 3.30483   4
   3   5   2 4.01842 3.34744   2
   3   5   2 -3.2244 2.68333   5
   3   5   2 -3.1721 3.43470   6
   3   5   2 15.9869 12.2572   1
  -4  -5  -2 38.8950 12.8952   1
  -4  -5  -2 33.9174 5.69818   2
  -4  -5  -2 43.4722 4.90702   5
   4   5   2 40.1528 5.09104   4
   4   5   2 28.5751 14.2931   1
   4   5   2 49.5793 6.52773   2
   4   5   2 40.4820 3.48959   3
   4   5   2 48.6751 5.64905   5
  -5  -5  -2 178.027 9.09548   5
  -5  -5  -2 175.771 21.6921   1
   5   5   2 176.704 9.41274   4
   5   5   2 188.444 11.4972   2
   5   5   2 169.065 9.37801   6
   5   5   2 186.361 7.02674   3
   5   5   2 186.989 21.6356   1
   5   5   2 185.596 9.35055   5
   5   5   2 179.772 7.19914   3
  -6  -5  -2 178.442 21.9750   1
  -6  -5  -2 184.578 10.3267   5
   6   5   2 162.202 20.9886   1
   6   5   2 187.097 10.7969   5
   6   5   2 185.863 9.40575   4
   6   5   2 184.269 10.8110   6
   6   5   2 155.371 10.8568   2
   6   5   2 175.339 8.00114   3
  -7  -5  -2 384.640 16.3441   5
  -7  -5  -2 357.780 25.7289   1
   7   5   2 369.616 26.2335   1
   7   5   2 416.350 19.5168   2
   7   5   2 405.692 14.0628   3
   7   5   2 415.554 15.3934   4
   7   5   2 401.353 17.4428   5
   7   5   2 411.570 14.3555   4
   7   5   2 369.753 16.4512   6
   8   5   2 -5.6447 8.87688   5
   8   5   2 -3.8324 12.6524   1
   8   5   2 2.41714 5.25844   4
   8   5   2 9.62998 4.29871   4
   8   5   2 7.92595 5.56015   6
   8   5   2 -12.193 9.54061   2
   8   5   2 14.8811 5.85291   3
   9   5   2 249.262 15.6647   6
   9   5   2 268.181 25.4174   1
   9   5   2 222.698 26.5142   1
   9   5   2 243.983 11.0455   4
   9   5   2 256.210 12.9183   4
   9   5   2 269.136 16.5257   3
  10   5   2 96.3192 9.71000   4
  10   5   2 89.3701 13.7363   2
  10   5   2 86.4058 11.7786   6
  10   5   2 83.8072 7.70059   4
  10   5   2 66.1617 12.3166   3
  11   5   2 19.1625 11.4646   6
  11   5   2 43.1054 13.8634   2
  12   5   2 102.248 16.8748   6
  12   5   2 142.975 22.0671   2
   6  -6  -2 10.5916 16.3476   2
   6  -6  -2 -19.527 13.0968   5
  -6   6   2 -12.507 12.3640   3
   5  -6  -2 106.551 14.7789   2
   5  -6  -2 89.9337 13.0635   5
  -5   6   2 91.8538 12.0919   4
  -5   6   2 107.709 14.8471   3
   4  -6  -2 216.587 20.7316   2
   4  -6  -2 182.628 17.0829   5
   4  -6  -2 198.853 15.2885   5
   4  -6  -2 167.514 69.3763   1
   4  -6  -2 192.192 19.8572   4
  -4   6   2 234.668 17.3486   3
  -4   6   2 220.621 15.1219   4
  -4   6   2 171.593 15.2110   6
   3  -6  -2 118.915 48.0843   1
   3  -6  -2 47.4237 7.56945   5
   3  -6  -2 -8.3635 51.1915   1
   3  -6  -2 41.5745 8.02260   5
   3  -6  -2 40.4214 10.5425   4
  -3   6   2 60.3241 8.98274   4
  -3   6   2 47.1162 8.98304   3
  -3   6   2 44.3165 8.38612   6
   2  -6  -2 491.856 18.1776   5
   2  -6  -2 501.636 17.3876   5
   2  -6  -2 529.983 23.2983   2
   2  -6  -2 470.641 60.7296   1
   2  -6  -2 528.583 67.9285   1
   2  -6  -2 525.789 22.0888   3
   2  -6  -2 474.739 20.7266   4
  -2   6   2 497.698 24.9005   2
  -2   6   2 503.995 20.4165   3
  -2   6   2 483.804 20.0406   4
  -2   6   2 523.953 19.5652   6
   1  -6  -2 58.7636 8.58080   3
   1  -6  -2 42.4274 8.51539   2
   1  -6  -2 54.8877 8.69413   4
   1  -6  -2 47.9815 30.4502   1
   1  -6  -2 48.3790 5.61884   5
  -1   6   2 49.8165 7.39822   6
  -1   6   2 35.5263 9.75526   2
  -1   6   2 42.1402 6.73201   3
  -1   6   2 49.1326 7.18027   4
   0  -6  -2 529.814 15.3767   5
   0  -6  -2 529.502 20.1139   4
   0  -6  -2 458.170 49.9677   1
   0  -6  -2 568.248 18.7806   3
   0  -6  -2 540.955 21.1044   2
   0   6   2 571.532 18.4851   3
   0   6   2 548.444 19.8184   4
   0   6   2 535.714 18.7434   6
   0   6   2 473.913 67.1238   1
   0   6   2 551.507 22.0375   2
  -1  -6  -2 481.555 18.2062   4
  -1  -6  -2 480.639 16.2931   3
  -1  -6  -2 461.511 13.2813   5
  -1  -6  -2 562.517 47.5355   1
  -1  -6  -2 486.633 19.1359   2
   1   6   2 459.333 19.2877   2
   1   6   2 480.954 17.2499   6
   1   6   2 473.146 17.9604   4
   1   6   2 489.889 15.6437   3
   1   6   2 419.127 47.3021   1
  -2  -6  -2 2.64209 3.40377   3
  -2  -6  -2 2.64160 4.98628   4
  -2  -6  -2 -15.563 15.6256   1
  -2  -6  -2 -2.9847 4.23031   2
  -2  -6  -2 0.12413 2.20656   5
   2   6   2 -16.304 18.5066   1
   2   6   2 0.85653 4.56946   6
   2   6   2 -0.1353 3.50826   4
   2   6   2 2.23270 2.15411   5
   2   6   2 0.97648 5.59036   2
   2   6   2 3.94153 2.81075   3
  -3  -6  -2 646.513 41.8582   1
  -3  -6  -2 658.662 22.2035   2
  -3  -6  -2 674.237 17.2220   5
   3   6   2 649.147 17.5099   3
   3   6   2 677.562 43.5609   1
   3   6   2 665.529 21.4731   6
   3   6   2 637.872 21.2566   4
   3   6   2 685.900 17.6921   5
   3   6   2 647.763 21.6559   2
  -4  -6  -2 37.7860 6.37896   2
  -4  -6  -2 44.9629 4.88501   5
  -4  -6  -2 34.9825 14.2657   1
   4   6   2 37.9226 15.7199   1
   4   6   2 43.7422 4.96418   5
   4   6   2 43.9660 6.96765   6
   4   6   2 46.6205 4.48501   3
   4   6   2 39.3545 5.98225   4
   4   6   2 44.3815 7.28224   2
  -5  -6  -2 31.0185 6.31136   2
  -5  -6  -2 17.7254 14.1191   1
  -5  -6  -2 22.6285 4.18955   5
   5   6   2 18.6382 5.03152   4
   5   6   2 23.6446 6.06087   6
   5   6   2 37.0760 14.2932   1
   5   6   2 20.6626 3.27352   3
   5   6   2 33.6226 7.17244   2
   5   6   2 24.2468 3.56139   3
   5   6   2 16.1299 4.63763   5
  -6  -6  -2 136.343 9.18832   5
  -6  -6  -2 162.491 23.6619   1
   6   6   2 118.803 11.9345   6
   6   6   2 132.827 9.75157   4
   6   6   2 133.285 7.18662   3
   6   6   2 129.265 17.2874   1
   6   6   2 136.297 10.6761   6
   6   6   2 130.211 12.7139   2
   6   6   2 139.518 7.33412   3
   6   6   2 132.614 10.5561   5
  -7  -6  -2 8.75737 11.1435   1
   7   6   2 9.67005 5.60457   6
   7   6   2 -0.1587 3.94226   3
   7   6   2 -10.973 6.20112   5
   7   6   2 6.21976 8.29524   2
   7   6   2 9.02003 4.80011   4
   7   6   2 5.36381 10.4859   1
   8   6   2 8.99632 5.95412   3
   8   6   2 14.4032 5.44833   4
   8   6   2 27.9967 9.59450   5
   8   6   2 23.6857 7.42268   6
   8   6   2 8.12166 7.38097   4
   9   6   2 9.83399 7.68407   6
   9   6   2 7.49122 5.38380   4
   9   6   2 -2.0086 7.70748   3
   9   6   2 -0.0856 7.66409   4
  10   6   2 4.97674 11.3182   3
  10   6   2 3.21559 5.84666   4
  10   6   2 -12.705 10.2178   6
  10   6   2 -0.9980 10.7029   2
  11   6   2 35.6644 11.6093   6
  11   6   2 17.3882 13.8883   2
  12   6   2 4.89299 17.7637   2
  12   6   2 4.09166 15.5860   6
  -6   7   2 56.7766 22.7101   3
   5  -7  -2 123.619 19.8856   2
  -5   7   2 87.2291 16.0872   3
  -5   7   2 80.8685 15.0383   4
   4  -7  -2 39.9842 10.1843   5
   4  -7  -2 51.3564 13.9689   2
  -4   7   2 17.2279 11.6334   4
  -4   7   2 22.5006 11.4998   3
   3  -7  -2 402.743 18.0505   5
   3  -7  -2 390.956 24.3547   2
   3  -7  -2 376.111 18.6681   5
  -3   7   2 399.748 21.5577   6
  -3   7   2 385.530 20.9668   3
  -3   7   2 399.414 20.5793   4
   2  -7  -2 13.6269 47.6668   1
   2  -7  -2 47.9586 6.76126   5
   2  -7  -2 41.3982 7.55453   5
   2  -7  -2 21.4545 12.1830   2
  -2   7   2 46.7164 9.30988   4
  -2   7   2 49.4485 8.97574   3
  -2   7   2 25.4125 9.49560   6
   1  -7  -2 651.718 18.3104   5
   1  -7  -2 684.489 73.3457   1
   1  -7  -2 690.574 25.8763   3
   1  -7  -2 619.458 25.3550   4
   1  -7  -2 653.991 18.9125   5
   1  -7  -2 590.383 79.9961   1
   1  -7  -2 620.490 26.7621   2
  -1   7   2 676.661 23.9675   3
  -1   7   2 619.814 24.0751   6
  -1   7   2 658.991 24.5467   4
   0  -7  -2 539.378 14.3794   5
   0  -7  -2 597.894 67.7799   1
   0  -7  -2 524.213 20.4321   3
   0  -7  -2 507.586 22.0847   2
   0  -7  -2 539.509 14.6997   5
   0  -7  -2 503.000 21.9417   4
   0  -7  -2 532.591 61.4147   1
   0   7   2 497.597 24.0312   2
   0   7   2 544.736 21.2928   6
   0   7   2 533.502 21.4278   4
   0   7   2 530.395 19.2506   3
  -1  -7  -2 198.703 6.82046   5
  -1  -7  -2 225.242 12.1605   3
  -1  -7  -2 192.797 14.1250   2
  -1  -7  -2 210.877 12.9644   4
  -1  -7  -2 222.638 36.4479   1
   1   7   2 226.941 10.8995   3
   1   7   2 217.633 13.4270   4
   1   7   2 203.061 15.7265   2
   1   7   2 209.433 13.7011   6
  -2  -7  -2 1375.18 39.5599   2
  -2  -7  -2 1327.35 71.2590   1
  -2  -7  -2 1360.21 30.7589   5
  -2  -7  -2 1402.54 35.4219   3
   2   7   2 1391.86 39.7670   2
   2   7   2 1363.57 38.7218   4
   2   7   2 1372.47 38.0602   6
   2   7   2 1384.77 34.7781   3
   2   7   2 1373.99 74.8318   1
  -3  -7  -2 52.3382 22.5272   1
  -3  -7  -2 52.9950 5.64854   3
  -3  -7  -2 54.1220 8.02603   2
  -3  -7  -2 55.3612 4.32421   5
   3   7   2 50.2401 7.47138   4
   3   7   2 48.7452 8.12764   6
   3   7   2 47.0092 8.83828   2
   3   7   2 53.8762 4.93034   5
   3   7   2 55.3454 5.97564   3
   3   7   2 64.1308 24.3365   1
  -4  -7  -2 1077.00 33.0968   2
  -4  -7  -2 1142.73 57.3313   1
  -4  -7  -2 1064.61 26.8603   5
   4   7   2 1104.43 27.3346   3
   4   7   2 1108.40 57.7894   1
   4   7   2 1104.32 27.5337   5
   4   7   2 1075.38 33.2601   2
   4   7   2 1111.12 32.8044   6
   4   7   2 1091.86 32.3699   4
  -5  -7  -2 756.521 26.7249   2
  -5  -7  -2 814.480 47.6667   1
  -5  -7  -2 795.566 21.9599   5
   5   7   2 763.496 45.9385   1
   5   7   2 807.492 22.6556   5
   5   7   2 817.499 21.0566   3
   5   7   2 819.919 20.9433   3
   5   7   2 761.566 25.4977   4
   5   7   2 789.844 27.4938   2
   5   7   2 786.652 26.9306   6
  -6  -7  -2 153.472 21.4293   1
   6   7   2 145.016 10.9027   4
   6   7   2 153.591 8.28418   3
   6   7   2 161.533 21.2158   1
   6   7   2 135.539 10.7550   5
   6   7   2 175.970 14.5173   6
   6   7   2 135.692 14.3195   2
   6   7   2 141.512 8.03777   3
  -7  -7  -2 502.329 29.7485   1
   7   7   2 530.263 20.5069   5
   7   7   2 568.873 17.3449   3
   7   7   2 562.757 20.5009   4
   7   7   2 583.103 22.3280   6
   7   7   2 540.133 22.0667   6
   7   7   2 514.842 24.1298   2
   8   7   2 5.30481 9.38650   5
   8   7   2 3.35421 4.96954   3
   8   7   2 10.3133 7.22106   6
   8   7   2 2.58687 8.15164   4
   8   7   2 7.67051 6.22040   4
   9   7   2 131.044 12.0618   4
   9   7   2 103.858 12.4099   4
   9   7   2 138.761 13.7604   3
  10   7   2 31.7017 8.28141   4
  10   7   2 17.3491 10.5646   6
  11   7   2 17.2845 12.3573   6
  11   7   2 3.53930 14.3521   2
  12   7   2 11.4145 19.1022   2
  12   7   2 27.5920 16.9177   6
  -5   8   2 -4.2676 15.9848   4
  -5   8   2 -11.637 17.2043   3
   4  -8  -2 48.1055 17.4174   2
  -4   8   2 74.9568 15.1003   4
  -4   8   2 104.374 16.7416   3
   3  -8  -2 34.5051 8.58796   5
   3  -8  -2 16.5393 12.5900   2
  -3   8   2 27.6423 11.0018   3
  -3   8   2 24.9662 11.4171   4
   2  -8  -2 152.037 17.1927   2
   2  -8  -2 128.927 10.7634   5
   2  -8  -2 67.6354 66.3608   1
  -2   8   2 143.084 15.5214   3
  -2   8   2 158.339 16.2588   4
  -2   8   2 113.067 14.8962   6
   1  -8  -2 206.872 57.1355   1
   1  -8  -2 190.268 9.22522   5
   1  -8  -2 194.379 15.5731   2
   1  -8  -2 196.428 8.92582   5
   1  -8  -2 192.614 25.7741   3
  -1   8   2 216.068 19.7675   4
  -1   8   2 194.141 18.0772   6
  -1   8   2 203.466 14.8579   3
   0  -8  -2 163.028 16.2978   2
   0  -8  -2 123.654 45.8715   1
   0  -8  -2 158.236 5.19171   5
   0  -8  -2 173.987 15.6618   3
   0  -8  -2 127.823 4.98214   5
   0   8   2 160.995 13.8437   4
   0   8   2 208.803 17.9867   6
   0   8   2 175.549 13.4517   3
  -1  -8  -2 743.162 25.5375   3
  -1  -8  -2 724.105 73.3213   1
  -1  -8  -2 723.272 28.1945   2
  -1  -8  -2 677.308 70.5415   1
   1   8   2 740.565 23.5726   3
   1   8   2 717.340 26.8785   6
   1   8   2 747.893 27.3946   4
  -2  -8  -2 12.2215 7.69699   2
  -2  -8  -2 -21.299 29.1140   1
  -2  -8  -2 4.46593 6.22279   3
   2   8   2 17.7892 7.27829   4
   2   8   2 11.6566 8.65845   6
   2   8   2 19.7363 10.7351   2
   2   8   2 6.06317 4.64598   3
  -3  -8  -2 898.984 30.5732   2
  -3  -8  -2 890.772 27.2215   3
  -3  -8  -2 844.000 65.1795   1
   3   8   2 933.913 30.1244   4
   3   8   2 863.012 29.9577   6
   3   8   2 882.820 24.7438   3
   3   8   2 875.645 31.3101   2
  -4  -8  -2 498.638 51.3797   1
  -4  -8  -2 478.836 20.8414   2
   4   8   2 473.222 15.1890   3
   4   8   2 452.711 21.3960   6
   4   8   2 449.222 13.4746   5
   4   8   2 437.368 19.9101   4
   4   8   2 459.492 22.2269   2
  -5  -8  -2 308.895 44.8870   1
  -5  -8  -2 346.907 18.5224   2
   5   8   2 360.086 12.4588   3
   5   8   2 326.352 19.7183   2
   5   8   2 357.943 17.7414   4
   5   8   2 285.162 19.2496   6
   5   8   2 348.859 13.3142   5
  -6  -8  -2 875.724 30.8301   2
  -6  -8  -2 825.894 55.1433   1
   6   8   2 870.064 32.4821   2
   6   8   2 912.283 23.6673   3
   6   8   2 884.476 25.9087   5
   6   8   2 870.104 29.4334   4
  -7  -8  -2 3.04737 15.9604   1
   7   8   2 3.02860 7.77339   5
   7   8   2 -6.6752 4.12209   3
   7   8   2 -5.3667 6.90157   6
   7   8   2 9.61889 7.09082   4
   7   8   2 4.66379 5.02476   3
   8   8   2 553.659 19.0856   3
   8   8   2 553.657 24.5658   6
   8   8   2 580.471 24.7988   5
   8   8   2 563.982 22.6588   4
   9   8   2 174.806 14.6380   3
   9   8   2 170.068 14.2153   4
   9   8   2 119.696 16.0219   4
   9   8   2 173.562 13.6241   3
   9   8   2 155.348 16.9141   6
  10   8   2 42.8594 10.3846   4
  10   8   2 36.2283 11.9453   6
  10   8   2 38.7638 9.61725   3
  11   8   2 178.903 21.4489   3
  11   8   2 213.249 25.3319   2
  11   8   2 189.549 19.7509   6
  11   8   2 166.763 19.3234   4
  12   8   2 7.18202 20.4460   2
  12   8   2 3.55592 16.0121   6
  -4   9   2 25.8453 19.0496   3
  -4   9   2 30.4206 17.4215   4
   3  -9  -2 -10.359 14.9466   2
  -3   9   2 -4.7173 13.2076   3
  -3   9   2 -0.4925 12.5069   4
   2  -9  -2 86.0282 16.0297   2
  -2   9   2 74.0788 13.5685   4
  -2   9   2 63.8285 13.0760   3
   1  -9  -2 4.89146 11.4831   2
  -1   9   2 8.46043 8.97977   3
  -1   9   2 -5.5987 9.80183   4
   0  -9  -2 100.918 14.4993   2
   0   9   2 83.3685 11.3918   3
   0   9   2 101.269 13.0504   4
  -1  -9  -2 58.4305 11.6961   2
  -1  -9  -2 49.8233 11.8460   3
   1   9   2 46.0196 8.37454   3
   1   9   2 48.4682 10.5655   4
  -2  -9  -2 237.665 17.0947   3
   2   9   2 244.131 17.8345   4
   2   9   2 258.131 13.9506   3
  -3  -9  -2 170.408 13.7186   3
  -3  -9  -2 187.968 16.4326   2
   3   9   2 169.929 11.4558   3
  -4  -9  -2 437.121 22.0564   2
   4   9   2 418.742 15.6143   3
   4   9   2 408.858 21.2132   4
  -5  -9  -2 326.846 19.8351   2
   5   9   2 342.776 13.3827   3
   5   9   2 343.615 18.9401   4
  -6  -9  -2 -12.020 31.5165   1
  -6  -9  -2 12.8302 9.25896   2
   6   9   2 9.22930 6.75914   5
   6   9   2 22.4595 8.63087   4
   6   9   2 10.1507 5.77885   3
   6   9   2 9.11992 4.74314   3
  -7  -9  -2 420.962 43.7935   1
   7   9   2 449.929 22.5740   4
   7   9   2 451.141 16.5022   3
   7   9   2 451.629 19.8534   5
   8   9   2 60.3128 11.7262   5
   8   9   2 65.7749 11.9341   6
   8   9   2 62.5914 7.43316   3
   9   9   2 200.202 19.8035   6
   9   9   2 205.512 14.2832   3
   9   9   2 155.504 18.2497   4
  10   9   2 220.235 21.1158   3
  10   9   2 243.367 22.8495   6
  10   9   2 194.010 19.9896   4
  11   9   2 -26.431 15.0989   6
  11   9   2 35.5757 13.8032   4
   2 -10  -2 86.2471 20.1956   2
  -2  10   2 54.2701 15.7426   3
  -2  10   2 94.2330 18.2823   4
   1 -10  -2 21.8640 15.8247   2
  -1  10   2 -10.112 11.9060   4
  -1  10   2 -4.6385 11.2467   3
   0 -10  -2 50.7461 14.6675   2
   0  10   2 23.3263 10.5159   3
   0  10   2 34.5228 12.0544   4
  -1 -10  -2 11.1641 11.8202   2
   1  10   2 2.97799 10.7088   4
   1  10   2 -1.3725 8.54610   3
  -2 -10  -2 5.11128 12.3378   3
  -2 -10  -2 9.54315 10.5836   2
   2  10   2 -2.8585 7.19133   3
   2  10   2 7.43269 9.89612   4
  -3 -10  -2 3.10830 10.1237   3
  -3 -10  -2 -6.6823 9.67894   2
   3  10   2 2.66852 8.46741   4
   3  10   2 0.08818 6.64193   3
  -4 -10  -2 14.5902 10.1970   2
   4  10   2 -2.6721 8.77806   4
   4  10   2 7.53853 6.07421   3
  -5 -10  -2 35.6357 10.7013   2
   5  10   2 28.4421 10.3360   4
   5  10   2 26.5389 6.38546   3
  -6 -10  -2 56.1981 12.1198   2
   6  10   2 84.1391 9.62715   5
   6  10   2 76.9555 12.1130   4
   6  10   2 65.8608 7.36068   3
   7  10   2 7.69897 6.05199   3
   7  10   2 12.1769 9.72212   4
   8  10   2 70.1425 8.28771   3
   8  10   2 83.9159 13.9453   6
   8  10   2 93.0409 13.5500   4
   9  10   2 80.2774 14.9316   6
   9  10   2 74.4701 13.8076   4
  10  10   2 2.81318 12.8965   4
  10  10   2 17.2474 15.0321   6
  11  10   2 72.1657 16.9191   4
  11  10   2 61.4307 19.0409   6
  -1  11   2 67.8720 18.0348   3
  -1  11   2 8.91008 18.0446   4
   0 -11  -2 41.0098 17.9884   2
   0  11   2 94.3676 18.4051   4
   0  11   2 75.7740 15.8289   3
  -1 -11  -2 -8.8390 13.6700   2
   1  11   2 10.0344 13.2127   4
   1  11   2 5.73398 11.9335   3
  -2 -11  -2 101.529 16.4384   2
   2  11   2 92.9858 12.9133   3
   2  11   2 126.884 16.7168   4
  -3 -11  -2 9.38578 12.5813   2
   3  11   2 -1.8092 11.4418   4
   3  11   2 31.8186 9.81288   3
  -4 -11  -2 18.5824 12.0044   2
   4  11   2 33.5453 11.6875   4
   4  11   2 25.8990 8.68270   3
  -5 -11  -2 11.5879 11.8785   2
   5  11   2 20.9896 10.9366   4
   5  11   2 35.9724 8.33291   3
  -6 -11  -2 12.0473 12.5831   2
   6  11   2 -5.2713 6.68567   3
   6  11   2 4.77999 10.8373   4
   7  11   2 21.0618 12.2766   4
   8  11   2 19.5573 12.9130   4
   8  11   2 -8.5552 13.0610   6
   9  11   2 1.53061 15.5014   6
   9  11   2 -16.212 13.9134   4
  10  11   2 -30.297 17.7059   6
  10  11   2 -32.329 15.2668   4
   1  12   2 76.9746 18.0795   3
  -2 -12  -2 25.3603 19.0120   2
   2  12   2 23.2767 14.4913   3
   2  12   2 32.4227 17.3173   4
  -3 -12  -2 53.0091 18.1072   2
   3  12   2 58.5965 17.9802   4
  -4 -12  -2 116.854 19.8739   2
   4  12   2 106.691 18.5613   4
  -5 -12  -2 6.88527 15.0495   2
   5  12   2 -15.892 14.1654   4
  -6 -12  -2 110.421 19.0018   2
   6  12   2 84.0411 18.1018   4
  -7 -12  -2 18.9265 15.7343   2
   7  12   2 33.6561 16.2880   4
   8  12   2 41.0277 18.3560   6
   8  12   2 25.9856 17.2035   4
   9  12   2 27.6506 19.3710   4
   6  12  -3 7.03570 16.1941   3
   6  12  -3 4.47660 19.3460   4
   5  12  -3 -34.325 16.3367   4
   5  12  -3 -8.9016 15.4932   3
   4  12  -3 -26.327 14.7264   3
   4  12  -3 16.7182 16.6737   4
  -4 -12   3 -13.131 14.6548   2
   3  12  -3 11.4828 17.1173   4
   3  12  -3 20.8656 15.7484   3
  -3 -12   3 2.92191 14.4802   2
   2  12  -3 4.60369 17.2481   4
   2  12  -3 3.71389 15.5394   3
  -2 -12   3 8.13650 15.6325   2
   1  12  -3 44.0329 19.2235   4
   1  12  -3 52.9778 19.1569   3
  -1 -12   3 3.15560 16.6192   2
   8  11  -3 15.7737 16.7363   3
   8  11  -3 37.5002 19.1017   4
   7  11  -3 70.1700 18.2669   4
   7  11  -3 57.5753 16.0846   3
   6  11  -3 9.31984 12.4672   3
   6  11  -3 20.9067 15.3538   4
   5  11  -3 39.7344 12.8827   3
   5  11  -3 47.4597 13.8605   4
   4  11  -3 -15.017 10.9072   4
   4  11  -3 1.36020 12.1233   3
  -4 -11   3 9.98289 11.2992   2
   3  11  -3 -7.6166 11.1556   3
   3  11  -3 3.50030 11.8137   4
  -3 -11   3 13.0898 11.6506   2
   2  11  -3 -2.2556 12.4626   4
   2  11  -3 15.1772 11.7580   3
  -2 -11   3 4.17707 12.9464   2
  -2 -11   3 4.56937 12.0649   6
   1  11  -3 -1.3402 12.5752   3
   1  11  -3 2.29713 13.0638   4
  -1 -11   3 12.8042 13.6098   6
  -1 -11   3 37.5276 13.2061   2
   0  11  -3 -1.1265 13.8071   4
   0  11  -3 2.06206 13.9268   3
   0 -11   3 -23.477 13.3827   6
   0 -11   3 1.09576 14.2233   2
  -1  11  -3 21.1110 15.6474   3
  -1  11  -3 -6.7162 15.7384   4
   1 -11   3 41.4478 16.6316   2
   1 -11   3 47.3675 17.7802   6
   9  10  -3 62.5712 19.8832   5
   9  10  -3 52.9890 19.1630   3
   9  10  -3 69.3148 18.1941   2
   9  10  -3 47.5230 20.0415   4
   8  10  -3 144.477 18.1486   3
   8  10  -3 140.939 15.3173   5
   8  10  -3 187.659 20.7042   4
   7  10  -3 19.9687 13.2054   4
   7  10  -3 -1.5854 11.6778   3
   7  10  -3 12.5786 9.59635   5
   6  10  -3 265.374 14.1169   5
   6  10  -3 231.341 21.7630   3
   6  10  -3 287.307 22.8610   4
   5  10  -3 15.2854 10.9048   4
   5  10  -3 20.3218 10.7391   3
   4  10  -3 184.692 17.8460   3
   4  10  -3 151.226 15.6396   2
   4  10  -3 207.633 19.5631   4
  -4 -10   3 159.245 15.6113   2
   3  10  -3 98.8959 13.2235   3
   3  10  -3 94.6518 13.7419   4
   3  10  -3 101.485 14.7327   2
  -3 -10   3 102.369 11.9406   2
   2  10  -3 44.0660 14.3126   2
   2  10  -3 37.1372 10.8367   3
   2  10  -3 43.4334 11.7971   4
  -2 -10   3 37.1956 11.6677   6
  -2 -10   3 37.5712 9.87708   2
   1  10  -3 90.2377 13.7539   4
   1  10  -3 102.006 14.2570   3
  -1 -10   3 110.215 14.2386   6
  -1 -10   3 98.4969 12.8618   2
   0  10  -3 5.34396 10.9830   3
   0  10  -3 23.3776 10.7553   4
   0 -10   3 2.08017 10.4865   6
  -1  10  -3 42.7348 12.8510   3
  -1  10  -3 33.0906 13.1679   4
   1 -10   3 50.6952 13.8714   6
   1 -10   3 34.6332 13.1770   2
  -2  10  -3 3.84359 13.9314   3
  -2  10  -3 23.1416 13.4387   4
   2 -10   3 -13.687 13.3546   6
   2 -10   3 27.4430 14.6839   2
  -3  10  -3 32.7649 17.0229   3
  -3  10  -3 1.70096 15.5820   4
   3 -10   3 25.5368 16.8529   6
   3 -10   3 45.6790 17.8391   2
  10   9  -3 54.9809 18.6124   2
  10   9  -3 121.183 20.7813   5
  10   9  -3 73.7573 20.7913   3
  10   9  -3 95.8010 20.6448   4
  10   9  -3 108.021 19.0855   6
   9   9  -3 136.210 18.8159   3
   9   9  -3 72.0202 15.6346   2
   9   9  -3 118.015 17.0413   6
   9   9  -3 98.2009 16.0073   5
   9   9  -3 114.252 17.9264   4
   8   9  -3 84.8843 15.0770   4
   8   9  -3 71.2079 14.0364   3
   7   9  -3 386.034 22.9866   3
   7   9  -3 328.831 23.0435   4
   7   9  -3 350.666 18.9847   5
   6   9  -3 19.0288 9.27793   5
   6   9  -3 10.3918 11.5486   2
   6   9  -3 20.6862 10.5482   4
   6   9  -3 17.9477 7.09100   5
   5   9  -3 504.444 17.5287   5
   5   9  -3 540.601 25.7197   4
   5   9  -3 496.661 23.4734   2
   5   9  -3 518.902 16.9893   5
   5   9  -3 487.417 23.4232   3
  -5  -9   3 430.831 42.3075   1
   4   9  -3 250.652 16.9151   4
   4   9  -3 298.949 18.1291   2
   4   9  -3 270.326 8.25346   5
   4   9  -3 263.076 19.1940   3
   3   9  -3 130.764 14.9271   2
   3   9  -3 95.4507 12.5697   4
   3   9  -3 126.904 14.7064   3
  -3  -9   3 112.041 12.0084   2
  -3  -9   3 114.492 12.7628   6
   2   9  -3 513.566 23.7759   3
   2   9  -3 534.002 24.8517   4
   2   9  -3 531.460 23.1452   2
  -2  -9   3 557.055 23.8455   6
  -2  -9   3 517.935 21.2327   2
   1   9  -3 10.7467 9.69017   3
   1   9  -3 -21.250 10.2128   2
   1   9  -3 0.37149 8.50941   4
  -1  -9   3 -10.646 8.33654   6
  -1  -9   3 -3.6468 7.08615   2
   0   9  -3 352.256 20.8341   3
   0   9  -3 366.616 21.1070   4
   0   9  -3 348.588 22.4654   2
   0  -9   3 364.446 19.7847   2
   0  -9   3 350.126 21.1023   6
  -1   9  -3 91.0725 13.3600   3
  -1   9  -3 102.413 13.0118   4
   1  -9   3 97.6419 12.7448   2
   1  -9   3 121.359 14.3387   6
  -2   9  -3 117.352 14.2693   4
  -2   9  -3 145.932 16.1998   3
   2  -9   3 136.996 15.2350   2
   2  -9   3 139.428 15.6609   6
  -3   9  -3 72.7089 13.6252   4
  -3   9  -3 97.1021 15.8882   3
   3  -9   3 52.4060 13.8778   6
   3  -9   3 74.8967 15.0885   2
  -4   9  -3 66.5929 15.8882   3
  -4   9  -3 27.2286 14.1093   4
   4  -9   3 53.9316 15.5069   6
   4  -9   3 35.7918 17.2816   2
   5  -9   3 -10.330 17.2020   6
   5  -9   3 -23.504 20.2903   2
  10   8  -3 14.3443 15.8081   2
  10   8  -3 19.3121 16.4348   3
  10   8  -3 1.82187 15.5196   4
  10   8  -3 21.7759 16.3806   5
  10   8  -3 13.2092 15.0197   6
   9   8  -3 30.6039 12.2721   6
   9   8  -3 36.6037 13.4292   3
   9   8  -3 19.3134 12.7209   5
   9   8  -3 35.4803 13.1997   2
   8   8  -3 68.2505 12.9415   3
   8   8  -3 61.0769 12.4853   2
   7   8  -3 20.9715 11.9932   2
   7   8  -3 -7.9407 12.2562   5
   7   8  -3 14.8322 8.32649   5
   6   8  -3 336.599 18.5027   5
   6   8  -3 321.821 19.1038   2
   6   8  -3 307.051 19.6427   3
   6   8  -3 329.953 16.2396   5
   5   8  -3 88.7184 10.4866   5
   5   8  -3 55.5241 9.45449   2
   5   8  -3 60.3468 7.22540   5
   5   8  -3 66.1422 10.1766   3
   4   8  -3 169.246 13.9508   3
   4   8  -3 139.568 12.8993   2
   4   8  -3 153.089 9.16287   5
   4   8  -3 159.425 8.74473   5
  -4  -8   3 155.329 25.4777   1
   3   8  -3 605.159 21.4337   2
   3   8  -3 615.932 23.9354   3
   3   8  -3 582.234 14.7887   5
   3   8  -3 585.417 24.5638   4
   3   8  -3 598.797 14.5785   5
  -3  -8   3 607.507 54.8624   1
  -3  -8   3 590.569 20.5686   2
  -3  -8   3 606.395 23.2530   6
   2   8  -3 20.5495 7.90515   3
   2   8  -3 10.1480 6.10683   4
   2   8  -3 8.17391 6.98651   2
  -2  -8   3 6.18674 7.20252   6
  -2  -8   3 6.55078 5.38698   2
  -2  -8   3 22.9678 31.9841   1
  -2  -8   3 31.1518 35.2870   1
   1   8  -3 702.302 24.4395   2
   1   8  -3 712.098 26.2885   4
   1   8  -3 672.566 25.9751   3
  -1  -8   3 645.155 78.5922   1
  -1  -8   3 676.747 27.0651   3
  -1  -8   3 657.286 72.0486   1
  -1  -8   3 661.094 26.3831   6
  -1  -8   3 681.728 22.8019   2
   0   8  -3 216.653 16.1525   2
   0   8  -3 214.264 15.6344   4
   0   8  -3 215.536 15.5823   3
   0  -8   3 234.875 57.5692   1
   0  -8   3 217.440 14.1012   2
   0  -8   3 215.680 15.7564   6
  -1   8  -3 163.753 14.6221   3
  -1   8  -3 150.113 13.9195   4
  -1   8  -3 159.181 17.1900   2
   1  -8   3 149.962 17.5034   6
   1  -8   3 163.264 14.1272   2
  -2   8  -3 300.762 17.7742   4
  -2   8  -3 252.284 20.9790   2
  -2   8  -3 278.055 19.6241   3
   2  -8   3 275.515 19.2867   6
   2  -8   3 275.038 18.9255   2
  -3   8  -3 -4.9025 8.90856   4
  -3   8  -3 -0.7662 9.86171   3
   3  -8   3 8.06060 9.61103   6
  -4   8  -3 213.240 21.1701   3
  -4   8  -3 157.524 17.2390   4
   4  -8   3 169.895 19.8193   2
   4  -8   3 150.575 16.1993   6
  -5   8  -3 94.8456 17.6166   3
   5  -8   3 79.1960 15.2227   6
   5  -8   3 94.0925 17.5221   2
   6  -8   3 120.786 22.4576   2
   6  -8   3 44.9284 18.4441   6
  10   7  -3 3.08534 14.8480   5
  10   7  -3 10.2351 15.3403   2
   9   7  -3 -14.502 11.4653   5
   9   7  -3 18.1936 11.5437   2
   9   7  -3 17.5546 10.3171   6
   8   7  -3 2.04048 15.4109   6
   8   7  -3 -4.4775 8.66350   2
   8   7  -3 1.16190 9.56319   5
   7   7  -3 -6.7101 8.46963   3
   7   7  -3 -8.3425 6.94891   5
   7   7  -3 -0.9924 10.4265   2
   7   7  -3 25.5456 11.6265   5
   7   7  -3 0.46444 6.82519   2
   7   7  -3 2.23649 11.1445   6
   6   7  -3 -9.6180 8.52063   6
   6   7  -3 7.54393 6.31399   5
   6   7  -3 16.8894 7.89814   5
   6   7  -3 1.03293 7.11448   3
   6   7  -3 20.4082 10.8399   3
   6   7  -3 3.48357 7.79571   2
   5   7  -3 15.2756 6.65851   2
   5   7  -3 14.6017 7.18206   3
   5   7  -3 14.4658 6.36498   5
   5   7  -3 23.9457 9.29555   6
   5   7  -3 9.71970 5.13056   5
   5   7  -3 -0.0345 9.95190   4
   5   7  -3 13.6188 9.11810   3
   4   7  -3 137.633 10.5565   2
   4   7  -3 122.918 14.4903   4
   4   7  -3 145.066 8.92781   5
   4   7  -3 147.036 9.23833   5
   4   7  -3 135.679 13.5708   6
   4   7  -3 139.664 11.9309   3
  -4  -7   3 150.928 19.4696   1
  -4  -7   3 137.773 18.4235   1
   3   7  -3 13.3216 8.09332   4
   3   7  -3 -5.1618 7.19522   6
   3   7  -3 6.74388 3.46067   5
   3   7  -3 6.64714 5.93680   2
   3   7  -3 2.90798 3.25936   5
   3   7  -3 0.13238 5.65200   3
  -3  -7   3 17.7291 19.5828   1
  -3  -7   3 7.19687 4.42902   2
  -3  -7   3 9.56428 18.1446   1
  -3  -7   3 3.77437 5.34932   6
   2   7  -3 364.709 17.7495   6
   2   7  -3 335.667 17.6767   4
   2   7  -3 324.156 16.4484   3
   2   7  -3 335.056 15.8217   2
   2   7  -3 332.574 9.09788   5
   2   7  -3 341.823 8.98445   5
  -2  -7   3 330.149 16.6392   6
  -2  -7   3 328.877 13.5877   2
  -2  -7   3 305.916 40.1813   1
  -2  -7   3 334.815 44.8277   1
   1   7  -3 2.28414 5.96910   6
   1   7  -3 10.8122 5.20841   4
   1   7  -3 18.7761 6.18884   2
   1   7  -3 12.4592 8.07052   4
   1   7  -3 13.0783 6.53407   3
  -1  -7   3 10.1192 5.97929   6
  -1  -7   3 -11.658 24.8484   1
  -1  -7   3 -12.126 23.0455   1
  -1  -7   3 7.04144 4.69556   2
  -1  -7   3 9.24597 7.19170   3
   0   7  -3 114.552 11.7510   3
   0   7  -3 110.227 11.5739   4
   0   7  -3 104.625 10.9558   4
   0   7  -3 106.326 11.7613   6
   0   7  -3 111.302 11.5697   2
   0  -7   3 116.760 10.4665   6
   0  -7   3 85.4352 33.0487   1
   0  -7   3 95.5923 11.4590   3
   0  -7   3 116.199 10.2502   2
  -1   7  -3 402.279 21.0965   6
  -1   7  -3 398.348 18.8600   3
  -1   7  -3 393.662 18.0172   4
  -1   7  -3 421.301 17.9797   2
   1  -7   3 408.991 17.8228   2
   1  -7   3 444.645 62.3284   1
   1  -7   3 408.226 19.6378   6
   1  -7   3 355.608 20.8943   3
   1  -7   3 306.495 50.6704   1
  -2   7  -3 7.08367 6.77434   4
  -2   7  -3 9.26319 8.90210   2
  -2   7  -3 -1.5887 7.06111   3
  -2   7  -3 -1.5461 12.1823   6
   2  -7   3 -5.9340 6.07639   2
   2  -7   3 -1.2325 2.14408   5
   2  -7   3 64.1453 45.7859   1
   2  -7   3 3.46870 7.06097   6
   2  -7   3 -28.722 37.8797   1
  -3   7  -3 254.012 15.9025   4
  -3   7  -3 267.704 18.2477   3
  -3   7  -3 230.195 19.3797   2
   3  -7   3 235.870 57.5908   1
   3  -7   3 258.925 18.1680   2
   3  -7   3 243.137 10.8031   5
   3  -7   3 267.554 18.7586   6
  -4   7  -3 56.1640 9.09148   4
  -4   7  -3 50.2635 11.8248   4
  -4   7  -3 54.1983 11.7955   3
   4  -7   3 50.9314 13.0357   6
   4  -7   3 90.5912 63.2795   1
   4  -7   3 66.5404 10.2312   5
  -5   7  -3 69.4419 14.2495   3
  -5   7  -3 50.0142 9.74636   4
   5  -7   3 69.0140 14.2512   2
   5  -7   3 62.8392 12.1317   6
  -6   7  -3 28.7756 14.6035   3
   6  -7   3 58.6072 16.0099   2
   6  -7   3 41.4633 13.9392   6
   7  -7   3 -7.6172 19.3315   2
   7  -7   3 1.29874 15.7542   6
  10   6  -3 75.1112 16.6732   2
  10   6  -3 96.5782 17.6265   5
   9   6  -3 25.6385 11.2991   2
   9   6  -3 42.0093 9.81820   6
   9   6  -3 15.4944 11.3350   5
   8   6  -3 251.113 15.7691   6
   8   6  -3 265.041 17.9000   2
   8   6  -3 271.500 18.8010   5
   8   6  -3 214.798 18.1682   6
   8   6  -3 208.450 21.1788   2
   7   6  -3 2.29015 10.6770   4
   7   6  -3 -9.3750 10.7469   5
   7   6  -3 26.2123 9.19220   6
   7   6  -3 7.49628 10.1934   2
   7   6  -3 10.6876 7.60051   5
   7   6  -3 19.8768 6.81704   2
   6   6  -3 282.907 14.4508   2
   6   6  -3 291.105 17.3185   5
   6   6  -3 248.688 14.7092   5
   6   6  -3 260.131 15.1970   6
   6   6  -3 259.366 17.6404   4
   6   6  -3 255.008 18.1380   3
   6   6  -3 299.640 15.5949   2
   5   6  -3 191.194 14.9542   3
   5   6  -3 244.174 15.8352   4
   5   6  -3 237.748 12.2740   2
   5   6  -3 223.047 14.3835   6
   5   6  -3 220.007 13.7888   3
   5   6  -3 226.456 12.7637   5
   5   6  -3 226.481 11.8235   5
   4   6  -3 31.1710 5.19666   5
   4   6  -3 21.5515 6.52914   3
   4   6  -3 19.7890 7.73824   4
   4   6  -3 18.4680 5.88819   5
   4   6  -3 29.9156 5.51554   2
   4   6  -3 30.6659 6.76596   6
  -4  -6   3 27.7615 10.2622   1
  -4  -6   3 24.6487 9.83336   1
   3   6  -3 168.808 8.50137   5
   3   6  -3 181.748 9.28979   2
   3   6  -3 178.172 11.7766   6
   3   6  -3 194.928 12.8063   4
   3   6  -3 160.266 11.7296   3
  -3  -6   3 203.139 25.5275   1
  -3  -6   3 213.692 27.1521   1
  -3  -6   3 154.528 10.9769   6
   2   6  -3 -9.0257 4.26208   4
   2   6  -3 -1.9428 4.90388   3
   2   6  -3 3.84981 3.71147   2
   2   6  -3 -0.1334 4.43615   6
   2   6  -3 2.47141 2.93697   5
  -2  -6   3 5.89070 3.81136   6
  -2  -6   3 1.43951 16.5836   1
  -2  -6   3 3.26496 3.28389   2
   1   6  -3 44.6874 7.18784   3
   1   6  -3 54.5552 3.42656   5
   1   6  -3 55.7596 6.08057   2
   1   6  -3 50.9505 7.70636   6
   1   6  -3 32.9310 6.73574   4
  -1  -6   3 53.4193 22.7980   1
  -1  -6   3 55.2352 7.34617   6
  -1  -6   3 56.1759 6.21549   2
  -1  -6   3 45.8761 7.75954   3
   0   6  -3 19.4803 5.44356   2
   0   6  -3 21.9964 5.45178   3
   0   6  -3 13.0301 6.46586   4
   0   6  -3 8.43512 6.47849   6
   0   6  -3 17.3995 5.70403   4
   0   6  -3 21.3828 1.74580   5
   0  -6   3 22.0977 4.73814   2
   0  -6   3 19.1292 6.11704   6
   0  -6   3 28.9138 7.25226   3
  -1   6  -3 58.0639 7.46275   4
  -1   6  -3 61.9380 9.13698   6
  -1   6  -3 57.2106 8.09475   3
  -1   6  -3 67.6249 7.88849   2
   1  -6   3 62.9095 9.53804   3
   1  -6   3 72.0752 8.10196   6
   1  -6   3 70.5874 7.51223   2
   1  -6   3 67.9407 29.6974   1
   1  -6   3 68.7525 4.10657   5
  -2   6  -3 31.8563 8.79704   6
  -2   6  -3 37.0024 7.79691   2
  -2   6  -3 36.6480 7.25406   3
  -2   6  -3 30.2041 6.17775   4
   2  -6   3 31.4977 4.08578   5
   2  -6   3 36.7401 9.37524   3
   2  -6   3 19.9589 35.0449   1
   2  -6   3 25.5885 7.11688   6
   2  -6   3 78.6267 31.9982   1
   2  -6   3 33.5577 6.83661   2
  -3   6  -3 94.8780 11.0612   3
  -3   6  -3 101.156 12.1245   6
  -3   6  -3 108.112 10.3509   4
  -3   6  -3 84.5035 10.8442   2
   3  -6   3 90.5355 39.3261   1
   3  -6   3 109.761 11.2619   6
   3  -6   3 62.3378 12.0840   3
   3  -6   3 98.6711 10.9873   2
   3  -6   3 105.904 8.60213   5
   3  -6   3 74.2794 45.2810   1
  -4   6  -3 6.42543 11.0806   6
  -4   6  -3 4.65271 10.7534   2
  -4   6  -3 22.2045 6.56354   4
   4  -6   3 3.95485 7.38746   6
   4  -6   3 28.8983 9.25914   2
   4  -6   3 100.168 49.7797   1
  -5   6  -3 145.216 16.4818   3
  -5   6  -3 110.912 11.5605   4
  -5   6  -3 136.445 12.4156   4
   5  -6   3 129.225 17.4120   2
   5  -6   3 147.090 16.8561   6
   5  -6   3 154.132 15.3519   5
  -6   6  -3 -6.1423 6.85682   4
  -6   6  -3 3.48582 10.5663   3
   6  -6   3 17.4741 12.4715   2
   6  -6   3 31.0990 10.4884   6
  -7   6  -3 22.2887 15.0238   3
   7  -6   3 26.6806 15.7417   2
   7  -6   3 27.2195 12.7224   6
   8  -6   3 12.7941 15.9711   6
   8  -6   3 35.9159 22.6679   2
  10   5  -3 59.1636 16.1671   5
  10   5  -3 56.6294 16.0685   2
   9   5  -3 363.819 24.1390   5
   9   5  -3 413.675 24.6675   2
   9   5  -3 410.686 17.8885   6
   8   5  -3 15.0342 8.15485   2
   8   5  -3 8.04124 8.58187   5
   8   5  -3 -6.5411 8.09644   6
   8   5  -3 -6.2476 14.4497   2
   8   5  -3 -7.7312 6.16092   6
   8   5  -3 -13.981 11.9054   4
   7   5  -3 851.802 26.5195   6
   7   5  -3 845.532 28.0727   2
   7   5  -3 875.172 29.7880   5
   7   5  -3 875.425 30.0472   2
   7   5  -3 837.722 30.4698   4
   7   5  -3 853.217 25.8683   6
   6   5  -3 175.752 12.6949   5
   6   5  -3 234.629 15.0135   5
   6   5  -3 234.107 13.4283   2
   6   5  -3 204.257 15.7040   3
   6   5  -3 210.348 11.9347   2
   6   5  -3 210.453 15.0419   4
   6   5  -3 179.261 12.5333   6
   5   5  -3 302.540 16.2747   3
   5   5  -3 311.483 13.9226   5
   5   5  -3 292.115 15.9256   4
   5   5  -3 297.906 13.1043   2
   5   5  -3 309.494 15.1902   5
   5   5  -3 312.362 13.7362   6
   4   5  -3 1340.94 34.7755   6
   4   5  -3 1312.27 34.1378   5
   4   5  -3 1329.25 36.4988   3
   4   5  -3 1324.48 36.4394   3
   4   5  -3 1282.81 32.9186   2
   4   5  -3 1304.28 36.4801   4
  -4  -5   3 1293.15 35.6012   1
   3   5  -3 6.54250 4.55500   6
   3   5  -3 4.27392 3.11320   2
   3   5  -3 -4.7764 9.57949   1
   3   5  -3 0.88520 3.99495   3
   3   5  -3 3.30037 3.01546   5
   3   5  -3 3.30660 5.19972   4
  -3  -5   3 5.55753 3.93517   6
  -3  -5   3 6.08307 10.6550   1
   2   5  -3 1485.41 37.4302   6
   2   5  -3 1421.51 37.8652   3
   2   5  -3 1408.93 33.9276   5
   2   5  -3 1410.25 54.4150   1
   2   5  -3 1410.63 33.8354   2
   2   5  -3 1416.38 37.9833   4
  -2  -5   3 1445.27 37.4933   6
  -2  -5   3 1429.43 33.9526   2
  -2  -5   3 1401.01 54.9210   1
   1   5  -3 370.556 11.2035   5
   1   5  -3 368.614 12.1232   2
   1   5  -3 392.744 15.5280   4
   1   5  -3 369.866 15.2232   3
   1   5  -3 390.622 33.5883   1
   1   5  -3 396.660 15.4036   6
  -1  -5   3 377.357 15.0313   6
  -1  -5   3 398.483 15.5341   3
  -1  -5   3 367.603 11.9263   2
  -1  -5   3 340.975 33.3014   1
   0   5  -3 433.503 16.2582   3
   0   5  -3 480.179 39.7601   1
   0   5  -3 431.580 14.1102   2
   0   5  -3 448.605 16.9396   6
   0   5  -3 438.866 16.3375   4
   0   5  -3 401.195 12.0195   5
   0  -5   3 449.730 16.3266   3
   0  -5   3 430.388 16.6872   6
   0  -5   3 442.692 13.9777   2
   0  -5   3 436.588 11.7022   5
  -1   5  -3 158.906 9.73815   4
  -1   5  -3 181.817 10.5633   4
  -1   5  -3 159.334 10.9082   3
  -1   5  -3 161.702 26.8456   1
  -1   5  -3 173.116 9.18294   2
  -1   5  -3 183.634 11.8769   6
   1  -5   3 165.646 11.8517   3
   1  -5   3 177.892 6.90498   5
   1  -5   3 162.924 9.16453   2
   1  -5   3 209.927 32.0229   1
   1  -5   3 184.676 11.2035   6
  -2   5  -3 10.8508 6.24322   6
  -2   5  -3 -13.006 21.4345   1
  -2   5  -3 4.77858 4.88728   3
  -2   5  -3 5.05190 2.69169   5
  -2   5  -3 4.99361 4.83125   2
  -2   5  -3 11.9472 4.35879   4
   2  -5   3 12.7334 7.00267   3
   2  -5   3 6.26171 5.16273   6
   2  -5   3 9.38311 3.55862   5
   2  -5   3 11.3384 25.4797   1
   2  -5   3 4.20484 4.60141   2
  -3   5  -3 162.184 9.81864   4
  -3   5  -3 161.662 12.6366   2
  -3   5  -3 154.808 13.1789   6
  -3   5  -3 135.151 11.5295   3
   3  -5   3 153.393 11.8358   2
   3  -5   3 151.017 13.5142   3
   3  -5   3 154.525 11.8576   6
   3  -5   3 154.347 9.16930   5
   3  -5   3 144.092 37.1915   1
  -4   5  -3 -6.1814 7.56880   2
  -4   5  -3 10.1789 6.80664   3
  -4   5  -3 0.02004 7.80627   6
  -4   5  -3 7.47170 4.69499   4
   4  -5   3 -4.0207 39.1279   1
   4  -5   3 -18.368 35.8989   1
   4  -5   3 -1.2036 8.52249   3
   4  -5   3 2.76809 6.68645   2
   4  -5   3 18.9313 6.67947   6
   4  -5   3 -6.0152 5.84711   5
  -5   5  -3 117.210 13.3400   6
  -5   5  -3 116.996 17.1774   2
  -5   5  -3 131.710 9.93389   4
  -5   5  -3 147.735 14.9944   3
  -5   5  -3 138.121 11.4944   4
   5  -5   3 133.857 13.0619   5
   5  -5   3 143.744 13.5975   6
   5  -5   3 158.461 50.4241   1
   5  -5   3 126.867 13.6355   2
   5  -5   3 91.9473 56.5958   1
  -6   5  -3 8.83292 8.91260   3
  -6   5  -3 8.00401 5.29348   4
   6  -5   3 -12.720 9.95584   2
   6  -5   3 -11.213 7.96042   6
   6  -5   3 -12.362 68.5344   1
   6  -5   3 -11.519 9.99176   5
  -7   5  -3 25.0036 11.5355   3
   7  -5   3 47.6023 14.1882   2
   7  -5   3 35.8959 18.3555   6
  -8   5  -3 12.6957 13.5148   3
   8  -5   3 -3.0417 12.2122   6
   8  -5   3 -5.1107 15.8188   2
  10   4  -3 126.874 18.9424   5
  10   4  -3 126.986 17.5137   2
   9   4  -3 30.7816 11.7700   2
   9   4  -3 2.12658 6.08441   6
   9   4  -3 0.96268 10.3393   5
   8   4  -3 425.261 21.8777   2
   8   4  -3 381.859 21.8508   5
   8   4  -3 341.975 21.1109   4
   8   4  -3 387.588 15.0551   6
   7   4  -3 180.205 14.5758   5
   7   4  -3 177.166 14.4534   4
   7   4  -3 196.319 13.6869   2
   7   4  -3 192.541 10.6418   6
   6   4  -3 491.557 20.1856   5
   6   4  -3 483.243 19.9352   4
   6   4  -3 533.285 22.0361   3
   6   4  -3 467.171 20.9675   5
   6   4  -3 501.809 17.1604   6
   6   4  -3 510.315 19.1029   2
   6   4  -3 530.815 19.6379   2
   5   4  -3 2739.83 64.6755   2
   5   4  -3 2767.32 63.6537   6
   5   4  -3 2685.26 66.1364   5
   5   4  -3 2752.98 67.3651   3
   5   4  -3 2807.60 66.8597   4
   4   4  -3 236.395 14.8590   1
   4   4  -3 208.605 12.0058   4
   4   4  -3 209.015 10.8441   5
   4   4  -3 214.840 9.39797   2
   4   4  -3 213.827 9.99004   6
   4   4  -3 200.603 12.0162   3
   4   4  -3 210.343 9.74969   2
  -4  -4   3 202.142 14.3505   1
   3   4  -3 4018.48 88.9300   5
   3   4  -3 3836.93 87.0167   2
   3   4  -3 3953.18 99.4853   1
   3   4  -3 3966.63 90.8617   4
   3   4  -3 4031.25 89.1852   6
  -3  -4   3 4091.14 99.9337   1
  -3  -4   3 3930.48 89.1480   6
   2   4  -3 390.950 12.2672   5
   2   4  -3 376.577 10.9068   2
   2   4  -3 359.996 14.1940   3
   2   4  -3 385.249 14.5917   4
   2   4  -3 354.897 25.1516   1
   2   4  -3 385.366 13.6199   6
  -2  -4   3 391.748 13.7076   6
  -2  -4   3 341.735 25.0675   1
   1   4  -3 2228.16 53.0916   3
   1   4  -3 2257.80 52.6816   6
   1   4  -3 2209.98 72.3265   1
   1   4  -3 2165.73 48.9545   2
   1   4  -3 2202.92 49.8155   5
  -1  -4   3 2175.92 52.5507   6
  -1  -4   3 2185.55 71.8251   1
  -1  -4   3 2213.53 49.7095   5
   0   4  -3 2283.13 51.6225   5
   0   4  -3 2322.74 55.7969   3
   0   4  -3 2333.34 52.2118   2
   0   4  -3 2351.98 55.1513   4
   0   4  -3 2390.82 80.2920   1
   0  -4   3 2303.84 51.7258   5
   0  -4   3 2325.48 52.1651   2
   0  -4   3 2302.39 55.6304   6
  -1   4  -3 322.914 11.0653   2
  -1   4  -3 307.598 9.58898   5
  -1   4  -3 303.155 13.2090   3
  -1   4  -3 303.025 12.1017   4
  -1   4  -3 289.099 30.7782   1
  -1   4  -3 300.720 13.0034   6
   1  -4   3 322.851 11.2805   2
   1  -4   3 291.624 35.1750   1
   1  -4   3 318.524 13.5769   3
   1  -4   3 304.336 9.84032   5
   1  -4   3 292.426 12.9195   6
  -2   4  -3 2339.95 53.3820   5
  -2   4  -3 2333.39 89.9377   1
  -2   4  -3 2359.89 55.5299   4
  -2   4  -3 2279.17 57.4437   3
  -2   4  -3 2405.43 55.8413   2
  -2   4  -3 2480.60 57.8984   6
  -2   4  -3 2386.22 55.5606   4
   2  -4   3 2333.97 55.7753   2
   2  -4   3 2398.02 57.6312   6
   2  -4   3 2360.36 53.5664   5
   2  -4   3 2370.91 57.6782   3
   2  -4   3 2309.52 92.5290   1
  -3   4  -3 57.8132 6.20384   4
  -3   4  -3 50.3560 22.9252   1
  -3   4  -3 58.2519 5.70346   5
  -3   4  -3 69.9659 7.22671   4
  -3   4  -3 46.8107 7.10075   3
  -3   4  -3 76.4040 8.47319   2
  -3   4  -3 62.6496 8.07418   6
   3  -4   3 64.2457 7.62499   2
   3  -4   3 49.3749 5.54229   5
   3  -4   3 33.2108 25.0662   1
   3  -4   3 64.7170 7.42900   6
   3  -4   3 56.3950 8.21203   3
  -4   4  -3 701.663 59.7461   1
  -4   4  -3 672.719 24.2060   3
  -4   4  -3 699.360 21.0249   5
  -4   4  -3 713.176 20.7271   4
  -4   4  -3 721.065 20.4393   4
  -4   4  -3 711.130 24.1825   6
  -4   4  -3 722.433 24.2523   2
   4  -4   3 718.690 24.6244   2
   4  -4   3 664.518 67.3294   1
   4  -4   3 711.320 24.1283   6
   4  -4   3 700.943 25.2124   3
  -5   4  -3 65.8978 9.69086   3
  -5   4  -3 57.0840 10.6656   2
  -5   4  -3 66.1769 6.57156   4
  -5   4  -3 83.0627 10.6992   6
  -5   4  -3 52.0320 5.55739   4
   5  -4   3 70.0344 10.1347   2
   5  -4   3 63.8625 8.25389   5
   5  -4   3 57.3344 10.4506   3
   5  -4   3 0.93394 40.7423   1
   5  -4   3 68.7973 8.98152   6
  -6   4  -3 87.4079 8.51889   4
  -6   4  -3 84.4830 6.98756   4
  -6   4  -3 71.9113 11.6277   6
   6  -4   3 16.5157 53.6644   1
   6  -4   3 62.9297 9.79072   5
   6  -4   3 91.0140 12.2311   2
   6  -4   3 44.3695 45.1126   1
   6  -4   3 81.9099 10.6859   6
  -7   4  -3 140.232 11.3331   4
  -7   4  -3 124.976 13.7222   3
   7  -4   3 46.6544 79.1037   1
   7  -4   3 85.8327 14.3320   2
   7  -4   3 146.738 16.0592   6
  -8   4  -3 23.2620 12.0680   3
   8  -4   3 14.3175 13.4304   2
  -9   4  -3 20.2628 15.9140   3
   9  -4   3 42.1905 14.1623   6
   9  -4   3 51.1018 19.3886   2
  10   3  -3 -16.559 14.9171   5
  10   3  -3 -12.835 14.6984   2
   9   3  -3 16.5043 11.6554   2
   9   3  -3 23.0517 11.7100   5
   8   3  -3 27.0990 10.1147   4
   8   3  -3 11.7173 9.22809   5
   8   3  -3 22.8996 4.92000   6
   8   3  -3 21.6717 4.41372   6
   8   3  -3 -14.433 23.1515   1
   8   3  -3 21.1010 9.44400   2
   7   3  -3 139.090 8.51555   6
   7   3  -3 100.819 20.9310   1
   7   3  -3 154.590 8.28837   6
   7   3  -3 143.047 13.7510   2
   7   3  -3 161.729 13.7712   5
   7   3  -3 133.922 13.6811   4
   7   3  -3 115.787 21.1904   1
   6   3  -3 287.693 11.0956   6
   6   3  -3 308.080 15.6830   5
   6   3  -3 243.977 29.9446   1
   6   3  -3 270.969 27.3616   1
   6   3  -3 295.444 17.2006   3
   6   3  -3 302.833 15.2373   2
   6   3  -3 330.393 15.2926   4
   6   3  -3 325.333 17.2451   5
   6   3  -3 292.767 10.9157   6
  -6  -3   3 312.435 14.9501   4
   5   3  -3 143.066 10.2782   3
   5   3  -3 167.264 10.9666   5
   5   3  -3 162.973 10.8150   4
   5   3  -3 151.845 7.93944   6
   5   3  -3 164.371 20.4444   1
   5   3  -3 154.968 9.76840   2
  -5  -3   3 140.751 10.4710   4
   4   3  -3 844.730 32.8353   1
   4   3  -3 875.365 25.2217   4
   4   3  -3 858.520 23.4056   2
   4   3  -3 863.394 22.3972   6
   4   3  -3 810.970 24.6965   5
   4   3  -3 926.427 26.2461   3
  -4  -3   3 835.281 25.1445   4
  -4  -3   3 835.010 32.4186   1
   3   3  -3 248.411 10.5868   5
   3   3  -3 242.998 18.7069   1
   3   3  -3 225.147 12.7369   4
   3   3  -3 240.204 8.88197   2
   3   3  -3 277.717 11.9988   3
   3   3  -3 243.748 8.90316   2
   3   3  -3 242.817 9.40276   6
  -3  -3   3 259.332 19.1199   1
  -3  -3   3 250.447 9.34149   6
  -3  -3   3 230.516 11.0978   4
   2   3  -3 1611.94 40.3291   4
   2   3  -3 1653.71 38.9114   6
   2   3  -3 1625.85 52.0217   1
   2   3  -3 1644.46 39.0409   5
   2   3  -3 1564.04 36.5311   2
  -2  -3   3 1596.42 40.4176   4
  -2  -3   3 1672.66 39.0339   6
  -2  -3   3 1703.16 52.8507   1
   1   3  -3 3711.30 85.0430   3
   1   3  -3 3665.24 80.6124   2
   1   3  -3 3834.61 84.9849   4
   1   3  -3 3806.61 102.234   1
   1   3  -3 3737.87 83.0075   5
   1   3  -3 3815.03 84.2441   6
  -1  -3   3 3801.58 84.3131   6
  -1  -3   3 3797.60 83.0414   5
  -1  -3   3 3851.41 102.110   1
   0   3  -3 337.541 9.62251   2
   0   3  -3 369.435 12.7027   4
   0   3  -3 364.058 12.8641   6
   0   3  -3 379.981 11.4271   5
   0   3  -3 356.881 13.2472   3
   0   3  -3 380.676 27.4861   1
   0  -3   3 357.956 10.9055   5
   0  -3   3 348.999 12.4953   3
   0  -3   3 359.638 12.8151   6
   0  -3   3 359.254 9.62375   2
  -1   3  -3 4372.95 121.412   1
  -1   3  -3 3941.90 89.6929   2
  -1   3  -3 4192.00 91.6174   4
  -1   3  -3 4103.25 92.7192   3
  -1   3  -3 4275.47 92.7715   6
  -1   3  -3 4139.14 89.8032   5
   1  -3   3 4207.32 120.414   1
   1  -3   3 4072.13 89.8014   5
   1  -3   3 4033.23 92.5465   6
   1  -3   3 4247.06 92.7992   3
   1  -3   3 3912.85 89.7563   2
  -2   3  -3 417.701 13.4222   4
  -2   3  -3 422.211 15.4418   6
  -2   3  -3 427.382 12.5879   5
  -2   3  -3 461.535 36.5752   1
  -2   3  -3 405.911 14.8128   3
  -2   3  -3 402.326 13.3508   2
   2  -3   3 412.977 12.7027   5
   2  -3   3 423.654 15.2409   6
   2  -3   3 414.676 13.8646   2
   2  -3   3 410.440 36.3541   1
   2  -3   3 389.260 16.9901   3
  -3   3  -3 2250.84 52.8556   2
  -3   3  -3 2250.41 53.9554   3
  -3   3  -3 2213.97 50.6330   4
  -3   3  -3 2263.67 51.2600   5
  -3   3  -3 2161.76 85.5072   1
  -3   3  -3 2218.20 50.7024   4
  -3   3  -3 2172.70 53.5096   6
   3  -3   3 2273.32 51.3537   5
   3  -3   3 2144.37 53.6628   6
   3  -3   3 2068.19 52.6011   2
   3  -3   3 2183.92 53.8048   3
   3  -3   3 2227.50 88.3985   1
  -4   3  -3 929.231 23.6474   4
  -4   3  -3 969.760 28.1194   6
  -4   3  -3 935.426 61.4035   1
  -4   3  -3 938.699 25.6328   5
  -4   3  -3 954.911 27.8891   2
  -4   3  -3 915.788 23.8426   4
  -4   3  -3 946.365 28.1406   3
   4  -3   3 944.694 28.0639   6
   4  -3   3 876.367 64.1266   1
   4  -3   3 931.108 28.2177   3
   4  -3   3 945.101 28.1785   2
   4  -3   3 872.096 27.4275   5
  -5   3  -3 228.142 13.7049   3
  -5   3  -3 220.332 13.5212   6
  -5   3  -3 155.818 34.4708   1
  -5   3  -3 224.156 8.97712   4
  -5   3  -3 213.733 14.2640   2
  -5   3  -3 217.821 8.43755   4
  -5   3  -3 221.682 11.9987   5
   5  -3   3 230.916 13.4871   6
   5  -3   3 232.985 14.8820   3
   5  -3   3 218.328 14.9816   2
   5  -3   3 218.725 42.6820   1
   5  -3   3 224.645 12.3841   5
  -6   3  -3 861.839 27.8933   6
  -6   3  -3 822.933 28.0165   3
  -6   3  -3 836.248 30.2409   2
  -6   3  -3 830.001 20.5166   4
   6  -3   3 779.108 29.9903   3
   6  -3   3 801.794 27.1787   5
   6  -3   3 886.068 30.6987   2
   6  -3   3 863.617 85.7984   1
   6  -3   3 843.240 27.8642   6
  -7   3  -3 2.80227 8.69697   3
  -7   3  -3 -5.4836 9.67154   6
   7  -3   3 7.77856 10.7635   5
   7  -3   3 -0.9977 7.40853   6
  -8   3  -3 170.696 17.0390   3
   8  -3   3 182.717 16.7390   6
   8  -3   3 151.716 17.5042   2
  -9   3  -3 41.1010 13.8483   3
   9  -3   3 9.90458 15.2484   2
 -10   3  -3 50.0402 18.6931   3
  10  -3   3 31.9631 21.1217   2
  10   2  -3 24.5996 15.8484   5
  10   2  -3 -10.092 15.4190   2
   9   2  -3 27.0153 12.5480   5
   9   2  -3 7.91608 11.9664   2
   8   2  -3 20.9604 9.91784   5
   8   2  -3 35.3002 10.3379   4
   7   2  -3 4.43471 5.86341   5
   7   2  -3 1.72012 2.26492   6
   7   2  -3 -0.6700 1.98642   6
   7   2  -3 9.53271 25.5302   1
   7   2  -3 -6.5721 7.63134   4
   7   2  -3 -1.9622 7.36612   2
   7   2  -3 11.6980 24.4686   1
  -7  -2   3 -3.7296 5.75960   4
   6   2  -3 -0.9261 6.16800   4
   6   2  -3 -10.816 7.18623   3
   6   2  -3 4.17342 5.81032   5
   6   2  -3 1.92706 2.57082   6
   6   2  -3 4.19465 5.61489   2
   6   2  -3 -22.815 18.0595   1
   6   2  -3 -7.3776 7.54515   5
   6   2  -3 -9.8334 17.6547   1
  -6  -2   3 -5.1861 4.90198   4
   5   2  -3 16.8142 5.46577   4
   5   2  -3 30.2554 5.89956   2
   5   2  -3 31.2093 6.07373   5
   5   2  -3 35.1693 14.5495   1
   5   2  -3 24.5450 3.13094   6
   5   2  -3 26.4269 3.08264   6
   5   2  -3 29.7968 6.93425   3
  -5  -2   3 22.2459 5.29712   4
   4   2  -3 1.27061 4.60799   3
   4   2  -3 -2.9905 2.88120   2
   4   2  -3 -1.0012 2.03972   6
   4   2  -3 -3.9695 3.22856   5
   4   2  -3 9.48898 10.9852   1
  -4  -2   3 5.08378 3.81961   4
  -4  -2   3 11.2154 10.8239   1
   3   2  -3 279.846 20.8644   1
   3   2  -3 257.319 10.9733   5
   3   2  -3 250.161 9.43329   2
   3   2  -3 265.167 11.1652   4
   3   2  -3 260.073 8.65722   6
  -3  -2   3 266.785 11.1791   4
  -3  -2   3 284.881 20.9714   1
   2   2  -3 155.571 7.33160   5
   2   2  -3 164.289 8.54935   3
   2   2  -3 162.822 6.79114   6
   2   2  -3 170.872 8.52848   4
   2   2  -3 129.609 6.56833   2
   2   2  -3 155.149 16.7326   1
  -2  -2   3 164.246 6.69261   6
  -2  -2   3 178.775 17.1047   1
  -2  -2   3 165.093 8.43164   4
   1   2  -3 302.274 11.0280   4
   1   2  -3 310.478 21.4569   1
   1   2  -3 296.096 10.2575   5
   1   2  -3 296.798 7.21275   2
   1   2  -3 293.443 7.26440   2
   1   2  -3 298.993 9.96069   6
  -1  -2   3 288.497 10.1037   5
  -1  -2   3 303.534 11.1533   4
  -1  -2   3 296.336 21.0978   1
  -1  -2   3 299.370 9.90548   6
   0   2  -3 975.979 24.4781   5
   0   2  -3 983.427 25.3593   4
   0   2  -3 1043.99 41.8458   1
   0   2  -3 994.780 25.5452   3
   0   2  -3 1004.23 25.2098   6
   0  -2   3 960.037 25.0122   6
   0  -2   3 1029.23 25.5143   4
   0  -2   3 999.341 24.4577   5
  -1   2  -3 5.89646 2.74535   6
  -1   2  -3 6.23994 3.60328   3
  -1   2  -3 10.2826 2.81211   5
  -1   2  -3 5.58617 2.66876   4
  -1   2  -3 11.6277 9.43290   1
  -1   2  -3 6.72301 1.74377   2
   1  -2   3 8.22198 3.30007   3
   1  -2   3 16.8900 10.8261   1
   1  -2   3 8.26316 3.14284   5
   1  -2   3 5.22189 3.06958   6
   1  -2   3 3.92756 2.05671   2
  -2   2  -3 1567.68 36.8141   4
  -2   2  -3 1600.50 37.0925   5
  -2   2  -3 1546.21 38.4193   3
  -2   2  -3 1543.93 61.1325   1
  -2   2  -3 1569.86 36.8465   2
  -2   2  -3 1659.49 38.9117   6
   2  -2   3 1529.45 62.3273   1
   2  -2   3 1607.02 37.1845   5
   2  -2   3 1581.78 38.8415   6
   2  -2   3 1569.71 37.0149   2
   2  -2   3 1570.10 38.5617   3
  -3   2  -3 1130.32 27.3554   4
  -3   2  -3 1174.22 30.4129   6
  -3   2  -3 1168.41 29.5200   2
  -3   2  -3 1116.93 28.7673   5
  -3   2  -3 1116.11 30.0055   3
  -3   2  -3 1109.13 55.3858   1
   3  -2   3 1148.47 30.4162   6
   3  -2   3 1189.55 57.9349   1
   3  -2   3 1124.35 29.6229   2
   3  -2   3 1141.31 30.2689   3
   3  -2   3 1189.26 29.0113   5
  -4   2  -3 155.910 6.86000   4
  -4   2  -3 154.857 25.5376   1
  -4   2  -3 148.120 11.2746   2
  -4   2  -3 178.087 10.0464   6
  -4   2  -3 167.687 8.80304   5
  -4   2  -3 164.285 9.98033   3
  -4   2  -3 171.378 6.66868   4
   4  -2   3 172.941 10.0968   6
   4  -2   3 186.217 10.6108   3
   4  -2   3 205.882 31.4983   1
   4  -2   3 173.196 9.96430   2
   4  -2   3 163.354 9.05115   5
  -5   2  -3 1249.23 28.3012   4
  -5   2  -3 1301.35 34.2587   6
  -5   2  -3 1233.69 28.0427   4
  -5   2  -3 1230.65 33.3486   5
  -5   2  -3 1210.87 67.8444   1
  -5   2  -3 1246.97 34.7307   3
   5  -2   3 1266.89 34.3130   6
   5  -2   3 1106.72 76.5136   1
   5  -2   3 1245.91 34.8697   3
   5  -2   3 1249.36 35.4793   2
   5  -2   3 1252.17 33.6612   5
  -6   2  -3 26.9389 6.32077   5
  -6   2  -3 -14.938 28.0108   1
  -6   2  -3 31.4280 7.19309   6
  -6   2  -3 12.6293 6.30310   3
   6  -2   3 19.2074 8.24255   3
   6  -2   3 28.3429 32.9711   1
   6  -2   3 25.9583 6.76106   6
   6  -2   3 26.9024 7.86441   2
   6  -2   3 37.5224 7.67689   5
  -7   2  -3 451.505 21.1286   3
  -7   2  -3 473.955 21.0733   6
   7  -2   3 452.798 20.0022   6
   7  -2   3 442.891 63.0249   1
   7  -2   3 495.089 22.9095   2
   7  -2   3 429.716 21.6959   5
  -8   2  -3 146.963 16.8180   6
  -8   2  -3 193.739 16.7377   3
   8  -2   3 131.845 15.5015   2
   8  -2   3 143.365 14.7422   6
  -9   2  -3 102.653 14.2457   3
   9  -2   3 65.0232 12.0681   6
   9  -2   3 54.7135 15.3469   2
 -10   2  -3 91.8473 17.6242   3
  10  -2   3 101.188 15.2002   6
  10  -2   3 69.4093 18.4795   2
  10   1  -3 25.4666 18.5035   5
  10   1  -3 -7.6239 18.5983   2
   9   1  -3 77.5117 15.6110   5
   9   1  -3 124.840 17.8663   2
  -9  -1   3 101.521 16.0126   3
   8   1  -3 19.6399 10.6751   2
   8   1  -3 19.9675 9.80787   5
   8   1  -3 19.8995 10.4929   4
  -8  -1   3 12.5676 7.99856   4
  -8  -1   3 24.6441 10.7327   3
   7   1  -3 204.068 16.2118   2
   7   1  -3 212.920 37.8631   1
   7   1  -3 182.075 14.1020   4
  -7  -1   3 167.099 17.8552   3
  -7  -1   3 164.465 12.9127   4
   6   1  -3 366.498 45.4389   1
   6   1  -3 321.477 44.7565   1
   6   1  -3 396.202 16.7234   4
   6   1  -3 405.446 18.6924   5
   6   1  -3 372.339 19.3854   5
   6   1  -3 419.769 20.3799   3
   6   1  -3 389.410 18.1086   2
  -6  -1   3 379.071 16.2470   4
  -6  -1   3 389.969 18.6596   3
   5   1  -3 43.1046 7.17608   5
   5   1  -3 61.7427 19.6229   1
   5   1  -3 47.8247 7.17639   2
   5   1  -3 55.7135 6.86665   4
   5   1  -3 39.3953 7.79782   3
  -5  -1   3 46.3709 7.17352   3
  -5  -1   3 43.0944 6.17206   4
   4   1  -3 638.145 14.6547   6
   4   1  -3 656.191 20.8645   5
   4   1  -3 666.916 20.9444   3
   4   1  -3 662.466 20.2932   2
   4   1  -3 653.921 20.3059   4
   4   1  -3 661.719 38.4530   1
   4   1  -3 648.179 14.7311   6
  -4  -1   3 630.141 21.0482   3
  -4  -1   3 656.052 20.4534   4
  -4  -1   3 659.958 38.8173   1
   3   1  -3 291.314 11.5551   4
   3   1  -3 276.414 11.6937   5
   3   1  -3 274.129 23.8614   1
   3   1  -3 287.834 7.66186   6
   3   1  -3 284.221 10.7396   2
  -3  -1   3 292.301 24.5943   1
  -3  -1   3 285.855 11.5165   4
  -3  -1   3 289.185 10.9709   2
   2   1  -3 150.194 5.38454   6
   2   1  -3 143.899 7.28358   5
   2   1  -3 156.993 6.84695   2
   2   1  -3 163.710 18.4478   1
   2   1  -3 151.881 7.95377   4
   2   1  -3 145.976 8.14108   3
  -2  -1   3 153.038 5.25429   6
  -2  -1   3 156.784 6.56787   2
  -2  -1   3 178.958 18.3533   1
  -2  -1   3 146.872 7.91332   4
   1   1  -3 107.163 5.85951   4
   1   1  -3 104.437 4.31200   2
   1   1  -3 91.4338 13.0485   1
   1   1  -3 111.976 6.37524   5
   1   1  -3 103.117 4.93571   6
  -1  -1   3 103.157 6.42130   4
  -1  -1   3 111.950 4.19661   2
  -1  -1   3 99.7197 5.61550   5
   0   1  -3 17.4354 3.04597   3
   0   1  -3 17.6861 3.21683   4
   0   1  -3 12.4627 8.51913   1
   0   1  -3 15.8574 3.20207   5
   0   1  -3 17.6547 2.79492   6
   0  -1   3 18.7259 2.84779   6
   0  -1   3 18.1026 2.76115   5
   0  -1   3 17.0713 3.16970   4
  -1   1  -3 100.864 14.7595   1
  -1   1  -3 106.313 5.85316   3
  -1   1  -3 100.816 5.79882   6
  -1   1  -3 98.7180 5.83093   5
  -1   1  -3 97.8970 5.28386   4
   1  -1   3 96.5725 5.74518   5
   1  -1   3 101.253 5.71499   3
   1  -1   3 115.935 16.8180   1
   1  -1   3 94.7473 5.30353   6
   1  -1   3 95.3063 3.64545   2
   1  -1   3 106.116 5.41227   4
  -2   1  -3 -2.5648 9.33034   1
  -2   1  -3 6.42241 2.51061   5
  -2   1  -3 7.16712 2.97880   6
  -2   1  -3 6.16441 2.78740   3
  -2   1  -3 6.35016 2.11816   4
   2  -1   3 14.1606 10.4074   1
   2  -1   3 4.25271 2.79714   5
   2  -1   3 8.00852 2.18952   2
   2  -1   3 4.86801 3.04598   6
   2  -1   3 7.52955 2.10572   4
   2  -1   3 2.75676 2.95256   3
  -3   1  -3 19.4904 12.3440   1
  -3   1  -3 21.8961 3.73162   3
  -3   1  -3 26.0878 3.08536   4
  -3   1  -3 28.6302 4.22890   6
  -3   1  -3 22.1818 3.70868   5
   3  -1   3 19.1420 3.67299   5
   3  -1   3 26.3939 3.85222   2
   3  -1   3 27.4365 4.55676   6
   3  -1   3 23.4647 4.08785   3
   3  -1   3 11.7714 13.9680   1
  -4   1  -3 19.2754 3.96667   3
  -4   1  -3 22.4039 2.15938   4
  -4   1  -3 25.5818 2.45088   4
  -4   1  -3 26.0854 15.7924   1
  -4   1  -3 31.1136 4.77638   6
  -4   1  -3 26.0156 4.34440   5
   4  -1   3 16.9001 4.25125   2
   4  -1   3 37.8403 18.0890   1
   4  -1   3 19.2414 4.40214   6
   4  -1   3 23.3595 4.22453   5
   4  -1   3 24.0997 4.52838   3
  -5   1  -3 41.4870 5.83576   3
  -5   1  -3 32.7996 19.4645   1
  -5   1  -3 46.8615 6.12329   6
  -5   1  -3 45.9703 5.93160   5
   5  -1   3 58.7886 7.22195   2
   5  -1   3 52.5846 6.31063   6
   5  -1   3 56.0485 6.49192   5
   5  -1   3 38.9797 22.2144   1
   5  -1   3 59.4282 6.86250   3
  -6   1  -3 80.6802 8.77553   5
  -6   1  -3 67.9862 7.96948   3
  -6   1  -3 91.7260 9.36618   6
  -6   1  -3 83.6894 27.3225   1
   6  -1   3 74.5880 9.06807   2
   6  -1   3 89.4530 10.7574   3
   6  -1   3 76.6939 8.79110   6
   6  -1   3 86.8939 9.02983   5
   6  -1   3 37.6045 28.0505   1
  -7   1  -3 321.222 45.2817   1
  -7   1  -3 372.435 17.5840   3
  -7   1  -3 380.043 17.0269   6
   7  -1   3 378.227 18.9693   5
   7  -1   3 376.069 17.3386   6
   7  -1   3 312.506 49.0047   1
   7  -1   3 374.705 19.2911   2
   7  -1   3 386.223 18.9962   3
  -8   1  -3 -1.0905 8.93924   6
  -8   1  -3 15.7804 8.05254   3
   8  -1   3 -38.799 47.9317   1
   8  -1   3 9.66715 7.29379   6
  -9   1  -3 130.243 15.7292   6
  -9   1  -3 154.201 16.6043   3
   9  -1   3 150.106 17.1643   2
   9  -1   3 143.656 16.1910   6
 -10   1  -3 10.6805 11.8083   3
  10  -1   3 8.40118 11.3757   6
  10  -1   3 10.4745 12.9023   2
 -11   1  -3 24.2926 16.7919   3
  11  -1   3 38.0807 21.4084   2
  10   0  -3 49.1868 21.7918   2
   9   0  -3 13.5738 14.5414   5
   9   0  -3 -3.4855 14.4854   2
  -9   0   3 -4.1099 13.7190   3
   8   0  -3 264.688 22.1282   2
   8   0  -3 290.173 21.6518   5
  -8   0   3 235.729 20.7872   3
  -8   0   3 268.629 17.0224   4
   7   0  -3 413.694 18.8265   4
   7   0  -3 423.706 21.9117   5
   7   0  -3 403.202 22.3864   2
  -7   0   3 379.400 21.3746   3
  -7   0   3 435.943 18.4409   4
   6   0  -3 138.513 33.6165   1
   6   0  -3 168.488 16.2183   3
   6   0  -3 120.986 30.9610   1
   6   0  -3 160.343 12.3667   4
   6   0  -3 160.725 16.5752   5
   6   0  -3 169.893 14.0992   2
   6   0  -3 178.587 14.1313   5
  -6   0   3 161.418 12.2420   3
  -6   0   3 176.603 11.6905   4
   5   0  -3 1209.60 34.9916   5
   5   0  -3 1159.60 34.7038   2
   5   0  -3 1147.62 34.8499   3
   5   0  -3 1258.83 63.1527   1
   5   0  -3 1227.79 32.4312   4
  -5   0   3 1177.12 32.6472   4
  -5   0   3 1203.95 35.0933   3
  -5   0   3 1149.65 34.5921   2
   4   0  -3 154.439 11.0341   3
   4   0  -3 159.442 10.6348   5
   4   0  -3 224.763 31.5938   1
   4   0  -3 170.049 10.8622   2
  -4   0   3 164.455 10.4782   3
  -4   0   3 178.534 10.8978   2
  -4   0   3 209.338 31.5390   1
  -4   0   3 171.978 9.51164   4
   3   0  -3 2327.11 54.3041   4
   3   0  -3 2372.09 55.4392   3
   3   0  -3 2286.61 77.5896   1
   3   0  -3 2253.59 55.1568   5
   3   0  -3 2310.53 54.7691   2
  -3   0   3 2247.32 54.4245   4
  -3   0   3 2355.26 54.7211   2
  -3   0   3 2345.91 55.4778   3
   2   0  -3 853.640 53.6458   1
   2   0  -3 1057.98 26.8673   3
   2   0  -3 1033.17 26.1364   2
   2   0  -3 1015.99 26.9464   5
   2   0  -3 1065.05 26.6939   4
  -2   0   3 1023.59 25.8993   2
  -2   0   3 1025.40 26.6593   4
  -2   0   3 1010.02 26.7391   3
   1   0  -3 278.425 9.25937   2
   1   0  -3 289.670 7.53187   6
   1   0  -3 296.294 10.3129   4
   1   0  -3 274.686 22.4713   1
   1   0  -3 282.511 10.0279   3
   1   0  -3 281.337 10.4732   5
  -1   0   3 277.289 7.60339   6
  -1   0   3 284.934 10.4146   5
  -1   0   3 283.933 9.09447   2
  -1   0   3 285.213 10.2863   4
   0   0  -3 3275.80 71.7787   5
   0   0  -3 3329.46 89.8206   1
   0   0  -3 3319.59 71.7198   4
   0   0  -3 3165.05 69.5786   2
   0   0  -3 3190.34 70.0018   6
   0   0   3 3334.49 71.7927   5
   0   0   3 3128.73 69.6030   2
   0   0   3 3096.76 70.0734   6
   0   0   3 3267.44 71.7462   4
   0   0   3 3231.45 89.4472   1
  -1   0  -3 515.032 14.5451   5
  -1   0  -3 519.258 13.8137   6
  -1   0  -3 514.251 13.9787   4
  -1   0  -3 504.537 12.5103   2
  -1   0  -3 476.860 14.7409   3
  -1   0  -3 505.651 27.2286   1
   1   0   3 501.106 12.5384   2
   1   0   3 528.931 28.4489   1
   1   0   3 511.876 13.9206   6
   1   0   3 512.411 14.4227   5
   1   0   3 501.990 13.9256   4
  -2   0  -3 1042.98 26.4223   5
  -2   0  -3 1070.25 26.4857   6
  -2   0  -3 1061.47 25.5025   3
  -2   0  -3 1075.86 25.2106   4
  -2   0  -3 1110.05 43.8171   1
   2   0   3 1090.54 25.6605   3
   2   0   3 1041.91 25.3127   2
   2   0   3 1082.83 44.2917   1
   2   0   3 1088.79 26.6028   5
   2   0   3 1114.07 26.7313   6
  -3   0  -3 443.748 14.0997   5
  -3   0  -3 461.027 30.4079   1
  -3   0  -3 448.359 11.5794   4
  -3   0  -3 453.556 13.2016   3
  -3   0  -3 451.356 13.9929   6
   3   0   3 484.581 13.7130   3
   3   0   3 469.720 14.4725   6
   3   0   3 458.048 14.2685   5
   3   0   3 499.585 30.9704   1
   3   0   3 455.329 11.6790   4
  -4   0  -3 188.940 24.7591   1
  -4   0  -3 213.942 5.31570   4
  -4   0  -3 215.716 8.77455   3
  -4   0  -3 217.372 9.15246   6
  -4   0  -3 207.617 9.53921   5
   4   0   3 219.520 26.0951   1
   4   0   3 226.277 9.17272   3
   4   0   3 216.284 9.74796   5
   4   0   3 200.250 9.59990   2
   4   0   3 200.001 9.05047   6
  -5   0  -3 112.135 8.19657   5
  -5   0  -3 110.089 7.25654   3
  -5   0  -3 103.748 21.2872   1
   5   0   3 104.464 8.27663   5
   5   0   3 111.278 8.69648   2
   5   0   3 107.289 23.8897   1
   5   0   3 105.808 7.67009   3
   5   0   3 100.914 7.83418   6
  -6   0  -3 1.38140 3.91117   3
  -6   0  -3 -29.232 19.5952   1
  -6   0  -3 7.44543 4.68022   5
  -6   0  -3 3.30435 4.68744   6
   6   0   3 8.69289 4.64794   6
   6   0   3 1.02496 3.78394   2
   6   0   3 7.16361 5.68857   5
   6   0   3 1.92133 22.0015   1
   6   0   3 3.71016 4.80644   3
  -7   0  -3 2.31612 5.64634   5
  -7   0  -3 -10.256 23.8269   1
  -7   0  -3 0.71820 4.90155   3
  -7   0  -3 -0.1950 6.19263   6
   7   0   3 4.45996 6.40453   3
   7   0   3 11.3006 28.9364   1
   7   0   3 -10.074 5.34768   2
   7   0   3 -6.9819 4.68176   6
   7   0   3 4.59248 6.94791   5
  -8   0  -3 27.4295 7.55801   3
  -8   0  -3 15.4336 7.98153   6
   8   0   3 24.6719 8.89941   2
   8   0   3 18.5365 9.55696   3
   8   0   3 16.5873 7.27704   6
   8   0   3 50.1252 39.6459   1
  -9   0  -3 57.3090 11.6726   6
   9   0   3 53.0968 9.78692   6
   9   0   3 62.7708 12.1981   2
 -10   0  -3 1.63442 10.2455   3
  10   0   3 5.89014 10.7843   2
  10   0   3 -10.109 10.0096   6
 -11   0  -3 26.3837 14.0498   3
  11   0   3 31.2012 14.2945   6
  11   0   3 64.7727 18.8932   2
   9  -1  -3 64.1519 17.7375   5
   9  -1  -3 30.0041 17.5028   2
  -9   1   3 48.0379 16.5575   3
   8  -1  -3 142.666 16.8622   5
   8  -1  -3 138.541 17.6217   2
  -8   1   3 151.096 16.4781   3
   7  -1  -3 39.5791 10.1012   4
   7  -1  -3 65.0100 11.2236   5
   7  -1  -3 40.3451 11.9133   2
  -7   1   3 50.1507 10.2617   3
  -7   1   3 53.5063 8.91238   4
   6  -1  -3 605.660 26.2824   2
   6  -1  -3 552.005 67.0426   1
   6  -1  -3 547.686 69.1925   1
   6  -1  -3 626.912 25.2698   5
   6  -1  -3 649.523 22.4604   4
  -6   1   3 630.821 24.3818   3
  -6   1   3 686.119 32.7165   2
  -6   1   3 630.733 22.2594   4
   5  -1  -3 31.3958 6.61629   4
   5  -1  -3 44.4632 7.75070   3
   5  -1  -3 10.1137 26.1100   1
   5  -1  -3 35.4480 7.66521   5
   5  -1  -3 59.3273 28.8290   1
   5  -1  -3 40.9058 8.94990   2
  -5   1   3 45.0661 9.39137   2
  -5   1   3 36.4897 7.33942   3
  -5   1   3 37.0676 6.47157   4
   4  -1  -3 1841.61 48.1303   2
   4  -1  -3 1721.95 76.5703   1
   4  -1  -3 1895.70 47.6256   3
   4  -1  -3 1888.07 47.8080   5
   4  -1  -3 1914.07 45.9096   4
  -4   1   3 1848.95 47.7589   3
  -4   1   3 1859.49 46.1044   4
  -4   1   3 1771.37 47.6595   2
   3  -1  -3 1556.24 40.1160   5
   3  -1  -3 1568.70 40.3009   2
   3  -1  -3 1628.35 39.1724   4
   3  -1  -3 1581.12 65.6570   1
   3  -1  -3 1572.74 39.9984   3
  -3   1   3 1408.67 42.2494   2
  -3   1   3 1586.75 39.2010   4
  -3   1   3 1598.78 40.2137   3
   2  -1  -3 613.197 37.5427   1
   2  -1  -3 594.527 17.9780   3
   2  -1  -3 600.550 17.7408   4
   2  -1  -3 579.075 18.1989   2
   2  -1  -3 594.407 18.2292   5
  -2   1   3 593.058 17.9207   3
  -2   1   3 593.972 17.8612   4
  -2   1   3 533.702 36.8610   1
  -2   1   3 594.849 17.9790   2
   1  -1  -3 6779.67 145.282   4
   1  -1  -3 6690.94 144.757   3
   1  -1  -3 6424.70 144.736   2
   1  -1  -3 7307.34 171.270   1
   1  -1  -3 6400.21 145.316   5
  -1   1   3 6877.61 169.796   1
  -1   1   3 6521.45 144.780   3
  -1   1   3 6606.96 145.312   4
  -1   1   3 6863.15 145.498   5
  -1   1   3 6645.54 144.830   2
   0  -1  -3 18.1017 2.07558   6
   0  -1  -3 20.2935 2.92903   2
   0  -1  -3 20.5719 2.73873   3
   0  -1  -3 22.0515 3.35387   4
   0  -1  -3 21.4513 3.31409   5
   0  -1  -3 23.4333 8.98924   1
   0   1   3 13.5929 9.76279   1
   0   1   3 22.3876 3.56165   5
   0   1   3 23.5974 3.45738   4
   0   1   3 22.9374 3.24913   2
   0   1   3 18.1882 2.65116   3
   0   1   3 19.2315 2.15161   6
  -1  -1  -3 7777.82 172.444   5
  -1  -1  -3 8138.56 172.273   4
  -1  -1  -3 8770.99 195.518   1
  -1  -1  -3 8091.83 171.573   6
  -1  -1  -3 7766.63 170.691   3
  -1  -1  -3 7409.36 171.705   2
   1   1   3 7935.21 171.578   2
   1   1   3 8069.38 171.604   6
   1   1   3 8593.45 194.476   1
   1   1   3 8163.42 172.360   4
   1   1   3 7991.17 172.459   5
  -2  -1  -3 1382.78 32.9170   6
  -2  -1  -3 1372.25 32.1956   4
  -2  -1  -3 1436.04 50.6117   1
  -2  -1  -3 1417.99 33.3902   5
  -2  -1  -3 1407.67 32.6853   2
  -2  -1  -3 1382.59 31.1272   3
   2   1   3 1431.83 51.3492   1
   2   1   3 1400.39 32.6764   2
   2   1   3 1377.65 32.2835   4
   2   1   3 1390.21 31.1329   3
   2   1   3 1405.27 32.9748   6
   2   1   3 1396.53 33.4029   5
  -3  -1  -3 1057.53 26.1229   6
  -3  -1  -3 1055.52 44.2023   1
  -3  -1  -3 1000.18 26.1192   5
  -3  -1  -3 898.906 24.7775   3
  -3  -1  -3 1039.63 23.9385   4
   3   1   3 1056.48 26.3811   5
   3   1   3 1056.03 24.0665   4
   3   1   3 1046.98 26.1671   6
   3   1   3 1019.78 43.3955   1
   3   1   3 1041.47 24.1665   3
   3   1   3 1064.77 25.9651   2
  -4  -1  -3 3258.57 98.2136   1
  -4  -1  -3 3198.28 70.9888   4
  -4  -1  -3 3453.05 75.0376   6
  -4  -1  -3 3208.73 72.9682   3
  -4  -1  -3 3406.34 75.4095   5
   4   1   3 3145.69 71.0336   4
   4   1   3 3259.78 98.2812   1
   4   1   3 3367.87 73.1480   3
   4   1   3 3453.89 75.3267   5
   4   1   3 3434.63 75.1600   6
  -5  -1  -3 9.28711 4.39351   6
  -5  -1  -3 7.52591 3.85080   5
  -5  -1  -3 14.5666 15.6238   1
  -5  -1  -3 0.52139 2.79392   3
   5   1   3 0.19554 3.79558   2
   5   1   3 11.1371 4.59733   5
   5   1   3 4.88461 3.33031   6
   5   1   3 9.19571 3.38481   3
   5   1   3 9.08669 14.6376   1
  -6  -1  -3 1193.09 31.8722   6
  -6  -1  -3 1182.65 58.7441   1
  -6  -1  -3 1121.10 30.7571   3
  -6  -1  -3 1194.93 32.8743   5
   6   1   3 1157.31 33.1562   2
   6   1   3 1121.99 60.4930   1
   6   1   3 1193.42 32.9793   5
   6   1   3 1225.23 32.3362   6
  -7  -1  -3 148.012 10.9005   6
  -7  -1  -3 180.088 28.8850   1
  -7  -1  -3 149.719 9.96730   3
  -7  -1  -3 137.333 11.1552   5
   7   1   3 144.096 11.0011   2
   7   1   3 129.358 12.3985   5
   7   1   3 155.031 10.5540   6
   7   1   3 144.333 11.0159   3
   7   1   3 138.211 30.9883   1
  -8  -1  -3 371.540 17.0117   3
  -8  -1  -3 346.959 52.2582   1
  -8  -1  -3 359.799 17.2431   6
   8   1   3 355.288 18.7279   5
   8   1   3 403.938 18.6379   3
   8   1   3 329.818 47.3027   1
   8   1   3 398.485 20.2862   2
   8   1   3 372.554 17.4249   6
  -9  -1  -3 26.3411 8.37109   3
   9   1   3 26.5004 7.97630   6
   9   1   3 58.3508 11.6929   2
 -10  -1  -3 16.0190 9.34695   3
  10   1   3 8.48636 11.0465   2
  10   1   3 5.41399 9.52396   6
 -11  -1  -3 13.6426 12.9926   3
  11   1   3 23.7444 14.8548   2
  11   1   3 13.3291 12.3884   6
 -12  -1  -3 -1.8475 18.3749   3
   9  -2  -3 -7.6057 18.4314   5
   9  -2  -3 31.3586 21.1093   2
   8  -2  -3 -3.4716 14.8942   2
   8  -2  -3 15.0672 12.6509   5
  -8   2   3 2.14684 11.6690   3
  -8   2   3 3.35001 11.9184   4
   7  -2  -3 80.2742 12.7095   4
   7  -2  -3 92.1554 14.3467   2
   7  -2  -3 79.3053 13.4448   5
  -7   2   3 79.9454 12.9403   3
  -7   2   3 69.4100 10.1096   4
   6  -2  -3 24.9631 8.47891   5
   6  -2  -3 32.5347 8.82418   4
  -6   2   3 32.1748 9.28689   3
  -6   2   3 43.8232 7.99469   4
   5  -2  -3 173.654 16.8429   3
   5  -2  -3 214.468 16.2058   2
   5  -2  -3 190.310 41.8916   1
   5  -2  -3 218.572 16.2816   5
   5  -2  -3 248.320 14.6471   5
   5  -2  -3 216.008 40.3890   1
   5  -2  -3 227.244 13.8787   4
  -5   2   3 200.395 17.4941   2
  -5   2   3 203.629 12.7161   4
  -5   2   3 225.505 14.7463   3
   4  -2  -3 329.180 15.4310   3
   4  -2  -3 347.538 14.8324   4
   4  -2  -3 316.580 15.7511   2
   4  -2  -3 301.838 44.3995   1
   4  -2  -3 331.219 15.5367   5
  -4   2   3 349.581 14.6579   4
  -4   2   3 335.612 15.7073   3
  -4   2   3 353.305 17.2834   2
  -4   2   3 319.739 42.9647   1
   3  -2  -3 425.938 16.0499   5
   3  -2  -3 423.935 16.5488   3
   3  -2  -3 453.450 39.9055   1
   3  -2  -3 439.456 15.4292   4
   3  -2  -3 403.370 16.9684   2
  -3   2   3 397.586 15.0625   4
  -3   2   3 409.813 16.8732   2
  -3   2   3 390.820 41.5404   1
  -3   2   3 412.461 15.9128   3
   2  -2  -3 1829.35 43.1538   4
   2  -2  -3 1777.27 44.3504   2
   2  -2  -3 1759.10 70.1287   1
   2  -2  -3 1740.21 43.3612   5
  -2   2   3 1735.41 38.0530   6
  -2   2   3 1752.91 37.9396   6
  -2   2   3 1756.08 43.1226   4
  -2   2   3 1719.23 71.2872   1
  -2   2   3 1767.94 43.2299   3
   1  -2  -3 52.9148 5.12341   3
   1  -2  -3 40.7400 5.01166   4
   1  -2  -3 46.2077 5.52272   2
   1  -2  -3 21.0664 13.2832   1
   1  -2  -3 39.0303 4.91179   5
  -1   2   3 45.6851 5.77223   2
  -1   2   3 45.6792 4.56192   4
  -1   2   3 55.2086 3.18938   6
  -1   2   3 47.2340 2.99583   6
  -1   2   3 40.3127 15.3152   1
  -1   2   3 52.5797 4.89805   3
  -1   2   3 41.0877 4.84529   5
   0  -2  -3 4051.84 89.5060   5
   0  -2  -3 4190.19 89.8205   4
   0  -2  -3 4056.03 89.8250   2
   0  -2  -3 4080.61 88.2853   3
   0  -2  -3 4269.14 115.335   1
   0   2   3 3965.15 88.2355   3
   0   2   3 4149.56 114.503   1
   0   2   3 4087.52 89.8240   2
   0   2   3 4003.48 89.7370   4
   0   2   3 3571.83 88.3594   6
   0   2   3 4195.33 89.5134   5
  -1  -2  -3 1810.26 41.5826   2
  -1  -2  -3 1836.29 41.7034   4
  -1  -2  -3 1821.68 61.5137   1
  -1  -2  -3 1758.24 39.2825   3
  -1  -2  -3 1774.12 41.5028   5
   1   2   3 1794.01 41.6236   4
   1   2   3 1777.31 41.5456   2
   1   2   3 1750.84 61.3291   1
   1   2   3 1780.01 40.4904   6
   1   2   3 1783.43 41.3655   5
   1   2   3 1706.56 39.2859   3
  -2  -2  -3 1761.23 39.1801   3
  -2  -2  -3 1874.29 42.8746   2
  -2  -2  -3 1814.77 61.4540   1
  -2  -2  -3 1901.19 42.3403   4
  -2  -2  -3 1824.59 42.5285   5
   2   2   3 1882.20 42.8376   2
   2   2   3 1777.46 60.4964   1
   2   2   3 1874.10 42.7181   5
   2   2   3 1836.19 42.2294   4
   2   2   3 1807.67 42.3052   6
  -3  -2  -3 4528.96 117.633   1
  -3  -2  -3 4385.72 95.7322   6
  -3  -2  -3 4355.72 95.8096   5
  -3  -2  -3 4286.25 95.9707   2
  -3  -2  -3 4232.87 94.2734   4
   3   2   3 4300.17 95.9475   2
   3   2   3 4322.43 94.3441   4
   3   2   3 4475.62 117.696   1
   3   2   3 4391.34 95.8296   6
   3   2   3 4467.15 95.9265   5
   3   2   3 4153.37 92.1374   3
  -4  -2  -3 83.0919 15.3393   1
  -4  -2  -3 71.7319 4.32955   4
  -4  -2  -3 71.2775 6.20903   6
  -4  -2  -3 61.2857 4.49140   3
  -4  -2  -3 68.6174 6.03332   5
   4   2   3 72.3485 4.27441   4
   4   2   3 77.9012 4.13403   3
   4   2   3 85.2135 6.35182   6
   4   2   3 72.3095 6.60755   2
   4   2   3 74.5143 6.55352   5
   4   2   3 76.7269 15.6109   1
  -5  -2  -3 3090.90 69.2385   3
  -5  -2  -3 3097.90 72.2253   5
  -5  -2  -3 3186.44 98.0227   1
   5   2   3 2949.34 67.4275   4
   5   2   3 3101.43 69.1822   3
   5   2   3 3145.53 95.9680   1
   5   2   3 3260.43 72.4770   5
   5   2   3 3142.84 72.5882   2
   5   2   3 3155.30 71.9325   6
  -6  -2  -3 662.757 18.9602   3
  -6  -2  -3 628.741 41.4801   1
  -6  -2  -3 621.502 20.3493   6
  -6  -2  -3 650.260 21.2732   5
   6   2   3 694.819 43.9962   1
   6   2   3 633.303 20.4390   6
   6   2   3 670.090 21.7166   5
   6   2   3 636.721 14.5512   4
   6   2   3 632.583 14.5169   4
   6   2   3 646.897 18.6979   3
  -7  -2  -3 701.325 22.6667   6
  -7  -2  -3 683.175 21.2818   3
  -7  -2  -3 673.290 46.9621   1
  -7  -2  -3 672.833 23.4048   5
   7   2   3 662.729 24.2933   2
   7   2   3 647.001 23.8506   5
   7   2   3 671.585 21.3659   3
   7   2   3 746.926 51.2744   1
   7   2   3 704.424 22.7984   6
  -8  -2  -3 804.844 27.1869   5
  -8  -2  -3 748.954 24.3327   3
  -8  -2  -3 595.512 54.5855   1
   8   2   3 756.665 28.2406   2
   8   2   3 751.569 28.0364   5
   8   2   3 744.781 24.7440   3
   8   2   3 782.474 25.4465   6
   8   2   3 796.731 60.1073   1
  -9  -2  -3 9.63738 6.83726   3
   9   2   3 7.68198 10.4530   2
   9   2   3 11.0467 7.19442   6
   9   2   3 4.47506 9.04639   3
 -10  -2  -3 226.778 21.5453   3
  10   2   3 286.704 21.9437   2
  10   2   3 238.954 17.1893   6
 -11  -2  -3 15.9204 12.3263   3
  11   2   3 25.0680 12.3203   6
  11   2   3 19.2537 14.6753   2
 -12  -2  -3 61.7603 17.8846   3
  12   2   3 71.5211 16.7211   6
  12   2   3 42.4160 20.8678   2
   8  -3  -3 -4.9080 15.2970   5
   8  -3  -3 13.4109 16.6887   2
  -8   3   3 26.6556 14.6786   3
   7  -3  -3 66.3097 15.5598   2
   7  -3  -3 51.8344 12.9586   5
  -7   3   3 21.8402 9.98727   4
  -7   3   3 38.6517 12.5451   3
   6  -3  -3 42.1662 11.6695   2
   6  -3  -3 33.6865 11.8673   5
   6  -3  -3 37.3737 10.7255   4
  -6   3   3 28.9498 9.79551   3
  -6   3   3 25.8201 8.35930   4
   5  -3  -3 11.6234 8.20726   4
   5  -3  -3 -24.875 40.6254   1
   5  -3  -3 39.9783 8.73705   5
   5  -3  -3 27.4207 9.59192   2
   5  -3  -3 25.2987 10.2680   5
  -5   3   3 31.9897 6.90392   4
  -5   3   3 34.9460 8.50275   3
   4  -3  -3 44.4238 7.46072   5
   4  -3  -3 45.3822 9.35024   3
   4  -3  -3 27.8268 8.50877   2
   4  -3  -3 37.4711 31.6208   1
   4  -3  -3 45.6999 8.05445   4
  -4   3   3 40.6940 7.71995   3
  -4   3   3 40.9671 6.91494   4
  -4   3   3 50.2925 10.8976   2
   3  -3  -3 126.248 30.2028   1
   3  -3  -3 160.212 12.4279   2
   3  -3  -3 174.909 11.0097   4
   3  -3  -3 167.324 11.9381   3
   3  -3  -3 157.839 10.7391   5
  -3   3   3 173.812 10.3160   4
  -3   3   3 175.718 11.0601   3
  -3   3   3 161.137 11.5045   2
  -3   3   3 182.616 33.1444   1
  -3   3   3 172.815 5.96052   6
   2  -3  -3 13.4033 4.39358   2
   2  -3  -3 20.4754 4.65431   3
   2  -3  -3 16.9644 4.90873   4
   2  -3  -3 -8.4622 18.0004   1
   2  -3  -3 15.0229 4.48062   5
  -2   3   3 20.5299 6.18190   2
  -2   3   3 13.3751 4.44025   4
  -2   3   3 16.7750 2.63651   6
  -2   3   3 10.5870 4.21381   3
  -2   3   3 23.2272 21.3962   1
   1  -3  -3 314.150 13.3728   2
   1  -3  -3 325.200 11.8592   3
   1  -3  -3 304.769 32.1887   1
   1  -3  -3 301.465 11.7977   5
  -1   3   3 304.027 34.4560   1
  -1   3   3 321.803 9.76402   6
  -1   3   3 301.836 12.1569   4
  -1   3   3 317.354 11.6327   3
  -1   3   3 302.181 15.3470   2
   0  -3  -3 197.146 26.3145   1
   0  -3  -3 200.621 8.86740   5
   0  -3  -3 197.014 8.77562   4
   0  -3  -3 179.160 9.46550   2
   0  -3  -3 193.880 7.92929   3
   0   3   3 182.061 8.40723   5
   0   3   3 209.098 10.3814   2
   0   3   3 190.681 27.2989   1
   0   3   3 190.600 9.06342   4
   0   3   3 185.301 7.59533   3
   0   3   3 193.332 7.33668   6
  -1  -3  -3 717.143 17.8308   3
  -1  -3  -3 744.939 39.0928   1
  -1  -3  -3 715.140 19.7563   5
  -1  -3  -3 735.554 20.6766   2
  -1  -3  -3 741.761 20.4503   4
   1   3   3 719.965 20.1946   4
   1   3   3 702.822 20.7125   2
   1   3   3 709.390 39.7708   1
   1   3   3 768.795 19.8043   5
  -2  -3  -3 1199.85 26.8300   3
  -2  -3  -3 1278.05 50.8744   1
  -2  -3  -3 1216.56 30.0285   5
  -2  -3  -3 1229.20 31.1709   2
  -2  -3  -3 1275.83 30.7803   4
   2   3   3 1195.04 49.6575   1
   2   3   3 1238.05 30.3123   5
   2   3   3 1233.56 30.2360   6
   2   3   3 1261.34 31.2263   2
   2   3   3 1234.17 30.6389   4
  -3  -3  -3 5.50609 3.31735   2
  -3  -3  -3 29.4032 12.0960   1
  -3  -3  -3 8.97679 2.96209   4
  -3  -3  -3 10.3396 3.13843   5
   3   3   3 13.0252 3.27622   6
   3   3   3 3.45067 3.65588   5
   3   3   3 11.2663 2.98189   4
   3   3   3 17.3804 3.48184   2
   3   3   3 13.6558 10.8512   1
  -4  -3  -3 3692.46 82.8287   5
  -4  -3  -3 3825.44 105.439   1
  -4  -3  -3 3733.11 81.4236   4
   4   3   3 3708.74 81.3379   4
   4   3   3 3612.52 83.1337   6
   4   3   3 3482.81 78.3614   3
   4   3   3 3675.34 104.054   1
   4   3   3 3801.50 83.0623   5
   4   3   3 3711.03 83.7956   2
  -5  -3  -3 297.427 9.04937   3
  -5  -3  -3 286.416 11.8960   5
  -5  -3  -3 284.437 27.2531   1
   5   3   3 300.820 8.94343   3
   5   3   3 294.441 9.59135   4
   5   3   3 284.969 11.8101   5
   5   3   3 281.554 11.9826   6
   5   3   3 282.406 12.8793   2
   5   3   3 272.046 27.0392   1
  -6  -3  -3 1310.69 55.3767   1
  -6  -3  -3 1290.60 31.7327   3
  -6  -3  -3 1318.09 34.9243   5
   6   3   3 1271.60 34.5615   6
   6   3   3 1325.46 56.4947   1
   6   3   3 1345.04 35.5027   5
   6   3   3 1264.19 31.4819   3
   6   3   3 1262.84 30.3176   4
   6   3   3 1333.78 36.3221   2
  -7  -3  -3 685.270 44.6351   1
  -7  -3  -3 679.194 23.2815   5
  -7  -3  -3 666.247 20.2078   3
   7   3   3 672.665 22.3977   6
   7   3   3 686.949 46.0023   1
   7   3   3 658.434 23.5895   5
   7   3   3 672.591 16.8355   4
   7   3   3 695.493 24.8387   2
   7   3   3 687.157 20.2704   3
  -8  -3  -3 36.7527 8.04792   5
  -8  -3  -3 52.6132 23.7486   1
  -8  -3  -3 55.3937 7.14484   3
   8   3   3 59.0468 8.08188   6
   8   3   3 64.3753 9.56006   2
   8   3   3 38.2288 8.78340   2
   8   3   3 36.5842 9.67549   5
   8   3   3 44.6035 23.8202   1
   8   3   3 49.3969 7.48344   3
  -9  -3  -3 636.325 23.2544   3
   9   3   3 626.581 24.4490   6
   9   3   3 632.725 24.5015   3
 -10  -3  -3 53.2842 9.62414   3
  10   3   3 42.7336 10.4024   2
  10   3   3 33.3627 10.0050   6
 -11  -3  -3 113.539 13.9122   3
  11   3   3 94.7049 13.6569   6
  11   3   3 126.969 18.2755   2
 -12  -3  -3 86.3168 16.6651   3
  12   3   3 48.8362 15.8472   6
  12   3   3 41.8527 17.9406   2
   8  -4  -3 40.9182 19.5626   5
   7  -4  -3 52.8958 17.4909   2
   7  -4  -3 45.9397 15.3132   5
  -7   4   3 50.9246 15.1145   3
  -7   4   3 33.9581 12.6627   4
   6  -4  -3 37.5765 22.6644   4
   6  -4  -3 12.6384 10.6338   5
   6  -4  -3 13.1426 13.2389   2
  -6   4   3 12.0891 10.5805   3
  -6   4   3 9.33136 9.07582   4
   5  -4  -3 160.165 15.3167   5
   5  -4  -3 144.561 16.6205   4
   5  -4  -3 160.515 17.9322   2
   5  -4  -3 20.7301 60.3615   1
  -5   4   3 140.183 13.6273   4
  -5   4   3 156.311 15.5806   3
   4  -4  -3 18.8657 39.8101   1
   4  -4  -3 58.3376 10.7262   2
   4  -4  -3 60.7849 8.93387   5
   4  -4  -3 33.7447 9.11983   5
   4  -4  -3 67.7964 43.2797   1
   4  -4  -3 40.1881 12.9586   3
   4  -4  -3 35.9330 8.65664   4
  -4   4   3 59.5424 8.36526   4
  -4   4   3 53.4397 5.12488   6
  -4   4   3 41.4340 8.42747   3
   3  -4  -3 -5.0319 29.5652   1
   3  -4  -3 15.7564 6.42027   4
   3  -4  -3 3.37599 5.19409   5
   3  -4  -3 5.97932 6.90995   2
   3  -4  -3 0.87537 6.98641   3
  -3   4   3 3.27664 8.33681   2
  -3   4   3 6.49885 5.03457   4
  -3   4   3 8.90147 5.18836   3
  -3   4   3 7.07786 3.41194   6
   2  -4  -3 793.940 24.3005   5
   2  -4  -3 835.095 27.4736   2
   2  -4  -3 852.770 25.6806   3
   2  -4  -3 775.878 58.3178   1
   2  -4  -3 828.385 25.4608   4
  -2   4   3 868.042 64.2386   1
  -2   4   3 830.428 21.7316   6
  -2   4   3 814.781 25.0539   3
  -2   4   3 822.477 26.7332   2
  -2   4   3 827.629 25.4194   4
   1  -4  -3 -3.3705 3.33892   5
   1  -4  -3 1.71700 3.69110   2
   1  -4  -3 -9.2834 18.7429   1
   1  -4  -3 3.68816 4.46086   4
   1  -4  -3 -1.9699 4.52538   3
  -1   4   3 -1.5270 21.2409   1
  -1   4   3 3.23626 3.39339   3
  -1   4   3 -4.8057 5.28035   2
  -1   4   3 7.43818 4.01326   4
  -1   4   3 2.14880 3.03090   6
   0  -4  -3 322.818 11.5909   3
   0  -4  -3 331.012 13.4267   2
   0  -4  -3 331.545 13.3268   4
   0  -4  -3 351.795 36.2166   1
   0  -4  -3 340.352 12.0123   5
   0   4   3 324.330 14.3016   2
   0   4   3 336.544 11.4140   3
   0   4   3 321.010 37.1050   1
   0   4   3 327.022 11.5079   5
   0   4   3 328.960 11.4313   6
   0   4   3 320.207 12.6773   4
  -1  -4  -3 15.2369 2.89369   3
  -1  -4  -3 -6.0688 13.8989   1
  -1  -4  -3 17.5495 4.45184   2
  -1  -4  -3 13.3438 3.67062   5
   1   4   3 17.3135 3.43666   5
   1   4   3 17.9836 2.75493   3
   1   4   3 20.7819 4.28206   4
   1   4   3 6.46153 15.3725   1
   1   4   3 20.7531 3.60174   6
  -2  -4  -3 21.7854 4.37827   4
  -2  -4  -3 26.3828 4.66994   2
  -2  -4  -3 27.3016 2.95941   3
  -2  -4  -3 28.1262 3.85482   5
  -2  -4  -3 13.2334 13.7825   1
   2   4   3 28.1934 4.85103   2
   2   4   3 23.2594 2.48554   3
   2   4   3 22.1631 4.15226   4
   2   4   3 15.1124 12.8741   1
   2   4   3 19.6053 3.75325   5
  -3  -4  -3 2.02967 2.53959   5
  -3  -4  -3 6.93116 11.8815   1
  -3  -4  -3 0.66877 3.44286   2
  -3  -4  -3 0.17066 3.11840   4
   3   4   3 -0.5311 3.52711   2
   3   4   3 -22.979 10.9283   1
   3   4   3 4.46212 3.57171   5
   3   4   3 10.0036 3.27632   4
   3   4   3 5.73928 3.19824   6
  -4  -4  -3 7.28787 3.14212   5
  -4  -4  -3 0.91118 13.7336   1
  -4  -4  -3 9.85018 3.96202   2
  -4  -4  -3 17.6525 3.80537   4
   4   4   3 13.9577 4.80064   2
   4   4   3 23.5385 12.8768   1
   4   4   3 10.5768 3.64400   6
   4   4   3 14.6413 3.47667   4
   4   4   3 8.62598 3.72427   5
  -5  -4  -3 8.75170 3.67528   5
  -5  -4  -3 13.7912 13.1291   1
   5   4   3 10.8531 3.68020   6
   5   4   3 24.9330 16.6631   1
   5   4   3 11.9886 1.79503   3
   5   4   3 11.8835 5.05314   2
   5   4   3 12.1324 2.93738   4
  -6  -4  -3 94.2552 19.1955   1
  -6  -4  -3 93.6284 8.23979   5
   6   4   3 108.326 8.30377   6
   6   4   3 106.590 6.39781   4
   6   4   3 92.7003 9.28843   5
   6   4   3 109.539 5.68657   3
   6   4   3 121.283 18.5786   1
   6   4   3 98.9506 10.4671   2
  -7  -4  -3 -5.7173 14.8069   1
  -7  -4  -3 -1.1355 4.62933   5
  -7  -4  -3 2.86766 3.15214   3
   7   4   3 8.33136 6.50292   5
   7   4   3 -2.4331 5.40193   2
   7   4   3 2.57733 4.35178   6
   7   4   3 -16.345 15.8047   1
   7   4   3 0.25444 2.80525   4
   7   4   3 0.10705 3.37372   3
  -8  -4  -3 404.034 15.4396   3
  -8  -4  -3 367.996 40.7191   1
  -8  -4  -3 402.177 18.3101   5
   8   4   3 402.272 12.8951   4
   8   4   3 419.099 17.9194   6
   8   4   3 413.889 15.7524   3
   8   4   3 417.552 20.4230   5
   8   4   3 423.960 21.7577   2
   8   4   3 430.411 42.6723   1
   8   4   3 391.274 12.2017   4
  -9  -4  -3 21.4178 6.38085   3
   9   4   3 26.5795 2.81741   4
   9   4   3 23.4049 8.13247   3
   9   4   3 41.9867 14.2214   2
   9   4   3 27.3635 7.92823   6
   9   4   3 22.7119 2.33012   4
 -10  -4  -3 42.4439 9.00512   3
  10   4   3 53.6787 10.7001   6
  10   4   3 45.5081 12.1790   2
  10   4   3 55.1089 12.1179   3
  11   4   3 103.347 13.7494   6
  11   4   3 111.849 16.1989   2
  12   4   3 54.7547 18.8758   2
  12   4   3 32.5044 15.0536   6
   7  -5  -3 0.09569 16.8091   5
   7  -5  -3 -3.5204 19.5813   2
  -7   5   3 -12.640 17.2345   3
   6  -5  -3 211.962 25.1118   2
   6  -5  -3 162.649 18.1997   5
  -6   5   3 173.714 21.0000   3
   5  -5  -3 65.7173 12.5085   2
   5  -5  -3 110.526 13.9465   5
  -5   5   3 77.0135 12.6509   3
  -5   5   3 98.0851 12.1437   4
   4  -5  -3 252.759 20.0976   2
   4  -5  -3 250.393 64.6702   1
   4  -5  -3 211.826 18.8060   4
   4  -5  -3 253.351 16.0988   5
   4  -5  -3 229.669 18.3631   5
  -4   5   3 216.764 10.9368   6
  -4   5   3 229.853 15.9333   4
   3  -5  -3 559.586 23.1203   4
   3  -5  -3 539.259 79.2299   1
   3  -5  -3 544.429 21.1408   5
   3  -5  -3 550.062 25.1401   2
   3  -5  -3 606.554 75.6683   1
   3  -5  -3 571.548 24.5566   3
  -3   5   3 566.400 17.8232   6
  -3   5   3 532.823 21.2321   4
  -3   5   3 546.261 22.0102   3
   2  -5  -3 124.891 10.2345   5
   2  -5  -3 156.770 36.4161   1
   2  -5  -3 110.487 12.1075   3
   2  -5  -3 94.6880 10.1987   4
   2  -5  -3 119.670 12.8367   2
  -2   5   3 132.778 10.4911   3
  -2   5   3 133.029 9.35329   6
  -2   5   3 56.7458 38.3104   1
  -2   5   3 100.675 12.0527   2
  -2   5   3 118.568 10.6208   4
   1  -5  -3 681.196 57.2687   1
   1  -5  -3 740.096 23.6726   4
   1  -5  -3 704.746 25.0077   2
   1  -5  -3 688.549 22.5172   3
   1  -5  -3 700.631 21.3907   5
  -1   5   3 718.959 25.8012   2
  -1   5   3 702.145 23.2927   4
  -1   5   3 697.363 22.1525   3
  -1   5   3 723.319 20.9559   6
  -1   5   3 649.965 60.8535   1
   0  -5  -3 360.537 13.1404   5
   0  -5  -3 357.438 43.2017   1
   0  -5  -3 329.690 15.2249   2
   0  -5  -3 377.882 13.7564   3
   0  -5  -3 381.761 15.6864   4
   0   5   3 345.545 46.0091   1
   0   5   3 363.088 15.1315   4
   0   5   3 377.261 13.7251   6
   0   5   3 371.026 17.1721   2
   0   5   3 365.259 13.1072   3
  -1  -5  -3 287.228 41.1065   1
  -1  -5  -3 275.476 12.9561   4
  -1  -5  -3 272.750 13.5331   2
  -1  -5  -3 266.472 10.4774   3
  -1  -5  -3 284.164 10.6293   5
   1   5   3 248.463 37.6723   1
   1   5   3 281.632 11.9317   6
   1   5   3 273.097 10.1227   5
   1   5   3 280.387 14.0434   2
   1   5   3 262.234 12.4613   4
   1   5   3 291.647 10.1917   3
  -2  -5  -3 1449.44 39.5252   2
  -2  -5  -3 1558.14 36.0233   5
  -2  -5  -3 1464.40 34.8096   3
  -2  -5  -3 1422.54 67.0477   1
  -2  -5  -3 1555.53 39.0296   4
   2   5   3 1519.62 36.0564   5
   2   5   3 1495.67 38.2843   6
   2   5   3 1617.77 68.4484   1
   2   5   3 1496.10 34.5824   3
   2   5   3 1527.26 39.7998   2
   2   5   3 1481.37 38.6116   4
  -3  -5  -3 5.67372 4.18006   4
  -3  -5  -3 0.92507 2.55458   5
  -3  -5  -3 2.39851 4.07588   2
  -3  -5  -3 -8.6337 13.1604   1
   3   5   3 9.12335 14.6599   1
   3   5   3 -6.3133 4.38083   2
   3   5   3 -4.9602 3.10216   4
   3   5   3 2.53192 1.28673   3
   3   5   3 3.93086 3.31843   5
  -4  -5  -3 516.136 16.2497   5
  -4  -5  -3 530.056 17.6170   4
  -4  -5  -3 548.083 37.2204   1
  -4  -5  -3 511.779 18.6157   2
   4   5   3 506.835 36.3238   1
   4   5   3 551.671 16.9989   5
   4   5   3 535.098 18.5178   2
   4   5   3 547.119 17.4961   4
   4   5   3 534.044 17.6141   6
  -5  -5  -3 210.092 9.86654   5
  -5  -5  -3 231.895 27.9396   1
  -5  -5  -3 193.671 11.4998   2
   5   5   3 207.569 5.83409   3
   5   5   3 213.768 10.3121   4
   5   5   3 212.542 5.70296   3
   5   5   3 214.488 11.2142   6
   5   5   3 180.953 27.2240   1
   5   5   3 207.334 12.4190   2
  -6  -5  -3 124.294 8.98085   5
  -6  -5  -3 129.393 21.0643   1
   6   5   3 130.919 9.97481   5
   6   5   3 105.804 19.2703   1
   6   5   3 121.283 8.08133   4
   6   5   3 122.934 11.5691   2
   6   5   3 119.708 5.53965   3
   6   5   3 135.967 10.1495   6
  -7  -5  -3 78.7724 8.68916   5
  -7  -5  -3 80.8650 18.7636   1
   7   5   3 81.9854 10.3577   2
   7   5   3 72.1861 6.33090   3
   7   5   3 125.773 11.7504   5
   7   5   3 92.4766 9.97911   6
   7   5   3 91.1096 7.49699   4
   7   5   3 76.4068 18.4234   1
  -8  -5  -3 -2.7658 5.56624   5
  -8  -5  -3 1.79476 18.3348   1
   8   5   3 -2.9447 8.25497   5
   8   5   3 -1.4786 17.8023   1
   8   5   3 -6.3180 4.89021   4
   8   5   3 -3.6897 3.62316   4
   8   5   3 -13.362 9.32096   2
   8   5   3 -4.2395 4.51716   3
   8   5   3 9.40811 6.25271   6
   9   5   3 14.0876 5.60853   4
   9   5   3 10.0650 7.55228   6
   9   5   3 15.5410 4.24107   4
   9   5   3 22.4232 7.00846   3
  10   5   3 13.7114 10.3022   3
  10   5   3 5.09343 10.2129   2
  10   5   3 12.7928 4.38094   4
  10   5   3 -15.960 25.3715   1
  11   5   3 -3.4929 10.9163   6
  11   5   3 -2.7184 12.7676   2
  12   5   3 -14.467 14.1726   6
  12   5   3 20.8886 17.5565   2
   6  -6  -3 43.0518 19.1839   2
   6  -6  -3 47.0032 15.8805   5
  -6   6   3 83.2867 17.6142   3
  -6   6   3 54.4751 15.1255   4
   5  -6  -3 53.4077 13.5045   5
   5  -6  -3 54.1338 16.2245   2
  -5   6   3 75.4730 13.2483   3
  -5   6   3 72.4224 13.3773   4
   4  -6  -3 259.132 22.7303   2
   4  -6  -3 125.488 89.4942   1
   4  -6  -3 240.010 21.7968   5
   4  -6  -3 279.541 18.4540   5
  -4   6   3 288.550 18.0265   4
  -4   6   3 275.336 19.6242   3
   3  -6  -3 12.2107 10.2583   2
   3  -6  -3 20.6933 9.28923   5
   3  -6  -3 63.3969 50.3207   1
   3  -6  -3 -1.7301 57.3839   1
   3  -6  -3 5.28593 7.27493   5
  -3   6   3 4.91750 7.90670   4
  -3   6   3 -1.7300 7.05254   6
  -3   6   3 17.7861 8.34348   3
   2  -6  -3 918.195 32.7950   2
   2  -6  -3 786.816 79.5102   1
   2  -6  -3 881.581 30.3187   4
   2  -6  -3 868.780 30.2083   3
   2  -6  -3 866.605 26.7883   5
  -2   6   3 886.526 26.6094   6
  -2   6   3 875.605 29.1284   3
  -2   6   3 890.552 29.4772   4
   1  -6  -3 254.465 12.4794   5
   1  -6  -3 254.414 16.0335   4
   1  -6  -3 215.108 40.9450   1
   1  -6  -3 218.204 14.2594   3
   1  -6  -3 241.208 16.5631   2
  -1   6   3 242.915 13.0188   3
  -1   6   3 205.029 46.7655   1
  -1   6   3 273.007 14.7951   4
  -1   6   3 266.007 13.7665   6
  -1   6   3 246.473 18.5355   2
   0  -6  -3 947.912 64.2589   1
   0  -6  -3 902.711 24.7574   5
   0  -6  -3 956.883 29.4684   4
   0  -6  -3 898.247 29.8811   2
   0  -6  -3 957.830 27.1247   3
   0   6   3 877.164 25.9922   3
   0   6   3 910.492 28.7498   4
   0   6   3 980.851 70.9984   1
   0   6   3 901.307 29.7881   2
   0   6   3 902.896 27.0736   6
  -1  -6  -3 1349.20 32.9400   5
  -1  -6  -3 1359.97 34.3308   3
  -1  -6  -3 1266.44 71.7433   1
  -1  -6  -3 1348.71 38.7990   2
  -1  -6  -3 1376.34 37.7455   4
   1   6   3 1358.06 33.9268   3
   1   6   3 1339.06 35.8325   6
   1   6   3 1315.70 38.7487   2
   1   6   3 1376.53 32.6756   5
   1   6   3 1358.41 37.4971   4
   1   6   3 1319.77 75.5847   1
  -2  -6  -3 139.590 28.2543   1
  -2  -6  -3 161.542 8.31539   3
  -2  -6  -3 152.604 10.4947   2
  -2  -6  -3 177.287 11.9643   4
  -2  -6  -3 166.711 7.55710   5
   2   6   3 155.814 7.46876   3
   2   6   3 148.378 29.4400   1
   2   6   3 158.300 12.4090   2
   2   6   3 147.569 10.7779   4
   2   6   3 181.748 8.07743   5
   2   6   3 162.367 10.7463   6
  -3  -6  -3 2182.02 54.4609   4
  -3  -6  -3 2219.37 55.4350   2
  -3  -6  -3 2199.41 49.1143   3
  -3  -6  -3 2122.07 84.1097   1
  -3  -6  -3 2199.07 50.3795   5
   3   6   3 2177.62 54.4663   4
   3   6   3 2178.46 85.4343   1
   3   6   3 2198.02 55.1969   2
   3   6   3 2251.39 54.1415   6
   3   6   3 2158.77 50.6583   5
  -4  -6  -3 349.825 14.9179   4
  -4  -6  -3 299.520 36.8360   1
  -4  -6  -3 337.350 11.9992   5
  -4  -6  -3 352.355 15.8540   2
   4   6   3 327.083 36.8852   1
   4   6   3 320.774 12.9681   5
   4   6   3 331.636 8.89054   3
   4   6   3 341.542 16.1864   2
   4   6   3 362.631 15.5757   6
   4   6   3 334.519 14.4688   4
  -5  -6  -3 948.981 25.9327   5
  -5  -6  -3 950.169 50.7978   1
  -5  -6  -3 963.209 29.7785   2
   5   6   3 933.485 21.2137   3
   5   6   3 929.755 21.1611   3
   5   6   3 930.831 29.6840   2
   5   6   3 1042.21 51.0148   1
   5   6   3 952.984 27.6591   4
   5   6   3 921.670 28.4940   6
  -6  -6  -3 884.886 25.9379   5
  -6  -6  -3 851.292 46.9798   1
   6   6   3 892.845 26.2896   4
   6   6   3 818.875 21.5501   3
   6   6   3 907.210 47.1547   1
   6   6   3 907.119 26.4125   5
   6   6   3 874.843 27.6113   6
   6   6   3 894.594 20.7299   3
   6   6   3 895.028 29.1809   2
  -7  -6  -3 16.7199 17.8486   1
  -7  -6  -3 16.1115 5.96468   5
   7   6   3 17.8879 5.15375   4
   7   6   3 19.6308 17.2854   1
   7   6   3 23.8733 3.75618   3
   7   6   3 14.0595 6.90209   5
   7   6   3 9.66348 6.56886   6
   7   6   3 26.9777 3.78280   3
   7   6   3 25.7781 8.94947   2
  -8  -6  -3 506.421 20.6169   5
  -8  -6  -3 392.016 37.8418   1
   8   6   3 513.501 16.3284   3
   8   6   3 504.569 37.1368   1
   8   6   3 500.713 21.3398   6
   8   6   3 505.447 17.9131   4
   8   6   3 525.617 22.5071   5
   9   6   3 30.0696 6.83450   3
   9   6   3 25.4328 5.90421   4
   9   6   3 4.53318 8.05144   6
   9   6   3 42.0351 8.17695   4
  10   6   3 117.248 10.4804   4
  10   6   3 115.971 13.4406   6
  10   6   3 134.168 15.6963   3
  10   6   3 128.169 14.9206   2
  11   6   3 40.8699 12.0150   6
  11   6   3 48.4239 15.1570   2
  12   6   3 -2.7253 17.2872   2
  12   6   3 2.59157 15.3948   6
   5  -7  -3 47.1408 15.6100   5
   5  -7  -3 59.7020 20.7092   2
  -5   7   3 69.4766 16.3925   3
  -5   7   3 70.4829 14.9925   4
   4  -7  -3 8.64884 10.7262   5
   4  -7  -3 15.6890 13.0257   2
  -4   7   3 -20.029 10.4924   3
  -4   7   3 -13.671 11.1259   4
   3  -7  -3 89.9068 14.6973   2
   3  -7  -3 101.854 11.3857   5
  -3   7   3 77.9739 12.0940   4
  -3   7   3 74.2352 12.2017   3
   2  -7  -3 74.6663 56.8377   1
   2  -7  -3 55.8820 8.36507   5
   2  -7  -3 55.0512 8.71648   5
   2  -7  -3 79.2447 12.6234   2
  -2   7   3 64.4505 10.6522   4
  -2   7   3 88.7078 11.1337   3
  -2   7   3 82.3952 10.7793   6
   1  -7  -3 268.480 16.9847   2
   1  -7  -3 220.275 49.0018   1
   1  -7  -3 301.386 18.9664   3
   1  -7  -3 256.612 13.0495   5
  -1   7   3 255.767 14.5173   3
  -1   7   3 270.281 16.6395   4
  -1   7   3 255.510 16.3774   6
   0  -7  -3 500.394 22.4231   2
   0  -7  -3 468.877 19.8260   3
   0  -7  -3 440.099 21.9010   4
   0  -7  -3 468.758 15.5739   5
   0  -7  -3 527.654 66.1555   1
   0   7   3 450.034 20.0864   4
   0   7   3 459.702 27.6086   2
   0   7   3 473.479 17.8063   3
   0   7   3 526.264 78.1492   1
   0   7   3 461.436 19.8996   6
  -1  -7  -3 95.3899 33.3309   1
  -1  -7  -3 98.5827 6.88967   5
  -1  -7  -3 96.5853 10.2078   3
  -1  -7  -3 85.2736 10.4427   4
  -1  -7  -3 95.6300 11.2751   2
   1   7   3 85.5859 9.79471   6
   1   7   3 91.8479 12.3100   2
   1   7   3 93.1829 10.9659   4
   1   7   3 95.7642 7.89522   3
   1   7   3 106.814 38.3447   1
  -2  -7  -3 1443.47 34.4471   5
  -2  -7  -3 1467.12 40.7466   4
  -2  -7  -3 1476.86 36.7458   3
  -2  -7  -3 1426.05 80.9343   1
  -2  -7  -3 1462.45 42.0479   2
   2   7   3 1527.25 80.7614   1
   2   7   3 1444.04 40.9677   4
   2   7   3 1432.17 34.5292   5
   2   7   3 1437.69 42.3528   2
   2   7   3 1493.40 36.2114   3
   2   7   3 1451.71 39.8655   6
  -3  -7  -3 66.7176 5.76075   5
  -3  -7  -3 56.0934 9.14796   4
  -3  -7  -3 60.4591 6.59744   3
  -3  -7  -3 54.5697 8.70892   2
  -3  -7  -3 38.7961 24.8372   1
   3   7   3 66.7163 9.80822   2
   3   7   3 55.1028 6.54022   5
   3   7   3 12.4544 27.0520   1
   3   7   3 50.9081 7.23892   4
   3   7   3 57.3107 8.28797   6
   3   7   3 56.4951 5.47839   3
  -4  -7  -3 1131.49 28.5179   5
  -4  -7  -3 1055.94 61.3946   1
  -4  -7  -3 1130.55 34.6155   2
   4   7   3 1117.23 26.5984   3
   4   7   3 1134.00 33.2749   4
   4   7   3 1110.46 34.6897   2
   4   7   3 1172.60 29.1953   5
   4   7   3 1073.06 63.1296   1
   4   7   3 1134.98 33.6552   6
  -5  -7  -3 811.667 28.0880   2
  -5  -7  -3 795.357 53.6623   1
  -5  -7  -3 821.764 23.0248   5
   5   7   3 781.524 19.9045   3
   5   7   3 812.720 28.6437   2
   5   7   3 838.129 24.3268   5
   5   7   3 794.358 26.2261   4
   5   7   3 842.695 27.9482   6
   5   7   3 812.770 19.2235   3
   5   7   3 794.202 51.8811   1
  -6  -7  -3 360.001 17.1930   2
  -6  -7  -3 391.789 41.3749   1
  -6  -7  -3 345.514 14.0653   5
   6   7   3 346.336 16.4284   4
   6   7   3 347.010 9.69960   3
   6   7   3 351.683 38.7982   1
   6   7   3 378.464 16.5570   6
   6   7   3 333.531 17.5192   2
   6   7   3 320.808 11.6330   3
   6   7   3 381.021 19.2503   6
   6   7   3 363.402 15.3834   5
  -7  -7  -3 977.828 29.2232   5
  -7  -7  -3 898.143 53.2372   1
   7   7   3 997.685 30.4662   5
   7   7   3 952.605 23.5326   3
   7   7   3 973.517 29.9186   4
   7   7   3 972.040 33.2125   2
   7   7   3 920.127 50.1895   1
   7   7   3 967.082 23.8287   3
   7   7   3 1002.27 32.0346   6
   7   7   3 1078.04 38.3564   6
  -8  -7  -3 18.6810 7.29307   5
   8   7   3 31.0582 4.96371   3
   8   7   3 28.7028 8.63301   6
   8   7   3 37.3462 5.08430   3
   8   7   3 15.6379 9.78451   5
   8   7   3 -0.1067 17.5350   1
   8   7   3 29.3356 6.74629   4
   9   7   3 287.965 18.9226   3
   9   7   3 309.003 15.6367   4
   9   7   3 316.929 19.2820   4
   9   7   3 315.772 13.9165   3
   9   7   3 351.073 20.3925   6
  10   7   3 258.475 20.6749   6
  10   7   3 228.029 14.8955   4
  11   7   3 32.8251 14.9303   2
  11   7   3 37.3830 13.1339   6
  12   7   3 123.838 18.6396   6
  12   7   3 62.4961 20.2531   2
   4  -8  -3 11.8276 16.8644   2
  -4   8   3 28.3613 15.5847   4
  -4   8   3 -22.578 13.7489   3
   3  -8  -3 66.0541 16.4155   2
   3  -8  -3 39.6244 11.1320   5
  -3   8   3 74.2865 14.0959   3
  -3   8   3 76.6655 13.7610   4
   2  -8  -3 -7.6603 8.96789   2
   2  -8  -3 -3.6257 6.95342   5
  -2   8   3 0.58791 9.49286   4
  -2   8   3 -3.9618 8.74762   3
   1  -8  -3 39.7554 6.73910   5
   1  -8  -3 39.6333 11.5506   2
   1  -8  -3 -77.380 55.2414   1
   1  -8  -3 28.8523 6.55313   5
  -1   8   3 43.4310 10.3786   4
  -1   8   3 46.9367 9.46532   3
  -1   8   3 41.0554 12.5698   6
   0  -8  -3 19.2732 4.88984   5
   0  -8  -3 21.0486 10.2296   2
   0  -8  -3 11.6611 47.5287   1
   0  -8  -3 13.9811 10.0514   3
   0  -8  -3 11.0336 4.37252   5
   0   8   3 13.9195 10.0709   6
   0   8   3 17.2464 6.79375   3
  -1  -8  -3 135.512 15.5826   2
  -1  -8  -3 178.584 7.86192   5
  -1  -8  -3 180.938 14.5637   3
  -1  -8  -3 95.0587 44.2247   1
   1   8   3 180.533 11.8628   3
   1   8   3 201.611 14.8427   4
   1   8   3 198.058 17.6009   6
  -2  -8  -3 17.0138 8.63502   2
  -2  -8  -3 63.2168 36.3084   1
  -2  -8  -3 11.8333 3.00698   5
  -2  -8  -3 24.4988 6.54815   3
   2   8   3 23.5087 7.53643   4
   2   8   3 11.3300 8.57746   6
   2   8   3 -10.793 36.9767   1
   2   8   3 14.3042 4.91787   3
  -3  -8  -3 312.111 13.1824   3
  -3  -8  -3 275.586 44.8560   1
  -3  -8  -3 303.959 17.7052   2
  -3  -8  -3 292.975 9.89052   5
   3   8   3 294.156 11.5860   3
   3   8   3 297.948 17.6332   2
   3   8   3 329.519 17.3518   4
   3   8   3 285.527 10.3245   5
   3   8   3 264.789 17.5478   6
   3   8   3 299.108 45.9472   1
  -4  -8  -3 222.698 9.35611   5
  -4  -8  -3 230.498 15.5985   2
  -4  -8  -3 127.249 34.5800   1
   4   8   3 225.795 16.9348   6
   4   8   3 221.045 17.9356   2
   4   8   3 231.058 14.5196   4
   4   8   3 188.088 37.8027   1
   4   8   3 228.187 9.05998   3
   4   8   3 204.878 10.0917   5
  -5  -8  -3 94.4154 32.6409   1
  -5  -8  -3 158.978 9.04671   5
  -5  -8  -3 157.773 14.4167   2
   5   8   3 135.963 15.6251   6
   5   8   3 153.392 6.89099   3
   5   8   3 163.228 33.9163   1
   5   8   3 162.363 12.6139   4
   5   8   3 169.035 10.8351   5
   5   8   3 122.295 14.0850   2
  -6  -8  -3 561.402 18.8803   5
  -6  -8  -3 565.979 24.5140   2
   6   8   3 596.352 22.8889   4
   6   8   3 594.749 20.4498   5
   6   8   3 513.884 52.2124   1
   6   8   3 564.806 14.6745   3
  -7  -8  -3 6.54535 5.81092   5
   7   8   3 10.3175 3.32452   3
   7   8   3 14.7311 7.85193   6
   7   8   3 7.04440 7.86400   5
   7   8   3 13.4890 6.78415   4
   8   8   3 594.950 25.4189   6
   8   8   3 561.272 22.3317   4
   8   8   3 540.107 15.7020   3
   8   8   3 522.904 15.5430   3
   8   8   3 509.501 23.1327   5
   9   8   3 176.006 10.4858   3
   9   8   3 182.352 21.3771   4
   9   8   3 178.046 14.9635   4
   9   8   3 156.990 16.8504   6
   9   8   3 160.467 11.5219   3
  10   8   3 250.629 20.8166   6
  10   8   3 228.868 14.8545   3
  10   8   3 228.281 17.0473   4
  11   8   3 125.147 14.8746   4
  11   8   3 112.046 16.1553   6
  12   8   3 31.7351 20.7352   2
  12   8   3 -5.1078 16.7369   6
   3  -9  -3 12.4314 19.3746   2
  -3   9   3 53.2743 16.4032   3
  -3   9   3 46.8296 17.3044   4
   2  -9  -3 0.36286 14.5932   2
  -2   9   3 -17.615 11.6173   3
  -2   9   3 -9.8917 12.6489   4
   1  -9  -3 82.2456 15.8666   2
  -1   9   3 60.0462 13.2870   4
  -1   9   3 65.5960 12.2631   3
   0  -9  -3 10.1708 10.7288   2
   0   9   3 20.0124 8.42472   3
   0   9   3 30.8198 10.9898   4
  -1  -9  -3 21.0385 11.7456   3
  -1  -9  -3 17.2934 10.7575   2
   1   9   3 -3.3375 8.46249   4
   1   9   3 2.10732 6.55419   3
  -2  -9  -3 57.9926 11.4440   2
  -2  -9  -3 50.0843 9.98729   3
   2   9   3 48.8542 7.32548   3
   2   9   3 42.0239 10.3268   4
  -3  -9  -3 1.06386 10.1319   2
  -3  -9  -3 -7.6592 6.67949   3
   3   9   3 3.07178 4.99841   3
   3   9   3 -4.8862 6.86826   4
   4   9   3 26.0574 4.80811   3
   4   9   3 26.6866 4.16826   5
   5   9   3 12.9681 3.82311   3
   5   9   3 10.1516 5.43420   5
  -6  -9  -3 1.25298 8.65464   2
   6   9   3 8.92148 12.3265   4
   6   9   3 0.00685 7.16011   5
   6   9   3 1.17217 3.68840   3
   6   9   3 4.45810 3.80972   3
   7   9   3 75.1749 10.7916   6
   7   9   3 63.3692 10.2901   5
   7   9   3 52.0408 11.7532   4
   7   9   3 52.5739 5.62899   3
   8   9   3 3.73924 4.02290   3
   8   9   3 4.46194 9.06426   6
   8   9   3 14.9923 11.5058   5
   8   9   3 1.28065 4.28856   3
   9   9   3 33.4344 7.76840   3
   9   9   3 38.2221 11.8290   6
  10   9   3 35.0491 13.1661   4
  10   9   3 47.4323 13.1885   6
  11   9   3 -3.7991 12.4562   4
  11   9   3 36.6995 15.9036   6
  -2  10   3 63.7865 18.4596   4
  -2  10   3 25.1978 17.0682   3
   1 -10  -3 47.6778 16.9917   2
  -1  10   3 33.4195 14.9742   4
  -1  10   3 83.6229 15.1974   3
   0 -10  -3 26.9066 15.4329   2
   0  10   3 36.1580 13.2065   4
   0  10   3 31.8467 11.4537   3
  -1 -10  -3 148.241 18.5094   2
   1  10   3 232.978 17.0770   3
   1  10   3 210.039 20.9057   4
  -2 -10  -3 -6.7955 9.94105   2
   2  10   3 -3.9323 9.90970   4
   2  10   3 -6.8116 7.48804   3
  -3 -10  -3 184.161 19.5033   2
   3  10   3 132.145 12.5035   3
   3  10   3 119.391 14.2643   4
  -4 -10  -3 64.0935 12.2226   2
   4  10   3 59.6553 11.8950   4
   4  10   3 41.2492 6.65892   3
  -5 -10  -3 -11.270 9.78827   2
   5  10   3 6.72021 5.01670   3
   5  10   3 10.3359 3.51731   5
   5  10   3 21.4260 10.0405   4
  -6 -10  -3 75.0621 13.2606   2
   6  10   3 112.596 13.6054   4
   6  10   3 90.9658 10.1865   3
   6  10   3 89.8060 7.20851   3
   6  10   3 95.7103 12.3002   5
  -7 -10  -3 7.86131 11.3895   2
   7  10   3 18.0849 10.4821   6
   7  10   3 -7.2845 9.54563   4
   8  10   3 21.6197 11.0136   4
   8  10   3 16.6761 11.2469   6
   9  10   3 2.57631 11.2740   4
  10  10   3 15.7638 12.6773   4
  10  10   3 20.8626 15.0690   6
  11  10   3 0.79562 17.6013   6
  11  10   3 1.04637 15.1432   4
   0 -11  -3 106.160 21.9739   2
   0  11   3 97.1159 20.1976   4
   0  11   3 91.0422 16.1390   3
  -1 -11  -3 19.6626 16.0266   2
   1  11   3 -17.708 14.7688   4
   1  11   3 -3.4488 12.3873   3
  -2 -11  -3 122.964 18.2153   2
   2  11   3 135.622 13.8600   3
   2  11   3 115.092 17.3596   4
  -3 -11  -3 98.7978 17.5643   2
   3  11   3 83.5339 14.7821   4
   3  11   3 102.700 11.4618   3
  -4 -11  -3 72.2166 15.8588   2
   4  11   3 71.4475 14.5263   4
   4  11   3 50.1429 8.84866   3
  -5 -11  -3 242.414 23.2871   2
   5  11   3 204.795 21.8490   4
  -6 -11  -3 23.8010 13.5856   2
   6  11   3 12.0182 11.7801   4
  -7 -11  -3 262.572 23.6854   2
   7  11   3 228.696 22.3152   6
   7  11   3 214.658 21.9710   4
   8  11   3 78.0225 15.3370   6
   8  11   3 71.5783 14.9530   4
   9  11   3 33.9282 15.5167   6
   9  11   3 22.6331 15.0301   4
  10  11   3 41.7152 18.9543   6
  10  11   3 79.1223 18.1578   4
  -2 -12  -3 69.0584 22.0454   2
   2  12   3 20.3083 22.1025   4
  -3 -12  -3 16.0055 18.6529   2
   3  12   3 31.8531 16.6229   4
  -4 -12  -3 120.334 20.9009   2
   4  12   3 139.946 20.5348   4
  -5 -12  -3 3.48292 16.1838   2
   5  12   3 -7.0621 14.8468   4
  -6 -12  -3 121.030 20.5894   2
   6  12   3 175.141 21.8782   4
  -7 -12  -3 20.7342 16.9905   2
   7  12   3 13.3523 14.9965   6
   7  12   3 7.03014 16.5240   4
   8  12   3 65.9623 18.5718   4
   8  12   3 72.9909 19.5454   6
   5  12  -4 14.1270 18.6246   3
   4  12  -4 -14.343 16.1547   3
   3  12  -4 19.0047 18.9430   4
   3  12  -4 -19.456 16.6859   3
   2  12  -4 27.8748 23.4642   4
   2  12  -4 40.3539 18.5624   3
   7  11  -4 84.7328 18.5263   3
   7  11  -4 62.5170 20.0830   4
   6  11  -4 -24.072 14.7534   3
   6  11  -4 1.35324 16.1284   4
   5  11  -4 132.205 17.6336   3
   5  11  -4 95.4933 17.9665   4
   4  11  -4 27.2822 13.9250   4
   4  11  -4 40.6467 13.8685   3
   3  11  -4 54.5629 15.3699   4
   3  11  -4 45.4003 14.7637   3
  -3 -11   4 53.6936 12.2174   2
   2  11  -4 53.3634 15.5029   4
   2  11  -4 100.086 16.0669   3
  -2 -11   4 51.3957 14.9940   6
  -2 -11   4 69.3563 13.1926   2
   1  11  -4 18.5611 14.0835   3
   1  11  -4 21.4424 14.3675   4
  -1 -11   4 5.60523 14.2087   6
  -1 -11   4 -0.7115 13.7168   2
   0  11  -4 27.0959 16.0816   3
   0  11  -4 46.1029 16.6454   4
   0 -11   4 36.8963 15.2195   2
   0 -11   4 63.1764 17.9462   6
  -1  11  -4 5.09349 17.2559   4
  -1  11  -4 17.2717 17.4902   3
   1 -11   4 8.47300 16.2546   2
   1 -11   4 -5.3369 16.7727   6
   8  10  -4 102.687 19.6415   4
   8  10  -4 124.561 21.1971   3
   7  10  -4 32.6433 12.3668   2
   7  10  -4 31.3987 14.5407   3
   7  10  -4 19.1032 15.3012   4
   6  10  -4 285.999 24.5726   3
   6  10  -4 240.480 24.4440   4
   5  10  -4 57.1329 13.4816   3
   5  10  -4 41.6930 13.1009   4
   4  10  -4 193.527 20.4886   4
   4  10  -4 203.825 21.0869   3
   3  10  -4 261.955 21.7096   4
   3  10  -4 250.135 19.9610   3
  -3 -10   4 252.764 16.5935   2
  -3 -10   4 231.240 21.0871   6
   2  10  -4 70.7413 12.6986   3
   2  10  -4 75.0764 13.5235   4
  -2 -10   4 79.8188 14.1884   6
  -2 -10   4 59.0860 10.3986   2
   1  10  -4 223.260 21.5520   3
   1  10  -4 215.279 20.6868   4
  -1 -10   4 220.708 17.5439   2
  -1 -10   4 206.891 20.7150   6
   0  10  -4 10.8511 11.8558   4
   0  10  -4 9.27639 11.6152   3
   0 -10   4 20.1072 12.0182   6
   0 -10   4 7.81987 10.6971   2
  -1  10  -4 175.142 20.7321   4
  -1  10  -4 163.046 18.9190   3
   1 -10   4 210.904 21.6308   2
   1 -10   4 149.571 18.5491   6
  -2  10  -4 27.3336 15.4035   3
  -2  10  -4 26.3680 13.5844   4
   2 -10   4 15.9667 14.8346   2
   2 -10   4 56.5791 16.3153   6
  -3  10  -4 81.4829 19.3091   3
  -3  10  -4 4.45893 15.5408   4
   3 -10   4 9.38970 17.0829   2
   3 -10   4 38.5223 18.2833   6
   9   9  -4 -2.8382 15.3775   5
   9   9  -4 -0.2659 15.6994   6
   9   9  -4 9.42813 16.2374   4
   9   9  -4 -9.2847 17.9887   3
   8   9  -4 18.9514 12.4802   2
   8   9  -4 11.4199 11.8786   5
   8   9  -4 4.19768 13.5351   3
   7   9  -4 36.7347 13.6747   3
   7   9  -4 69.9728 11.9965   5
   7   9  -4 47.0001 11.1460   2
   6   9  -4 -3.2300 9.74088   3
   6   9  -4 8.52816 8.19941   5
   5   9  -4 112.604 11.6417   5
   5   9  -4 122.481 11.8631   5
   5   9  -4 143.391 16.7695   2
   5   9  -4 151.131 17.3377   3
   4   9  -4 143.758 8.94769   5
   4   9  -4 157.432 15.0305   2
   4   9  -4 144.144 9.69044   5
   4   9  -4 140.012 16.7596   3
   3   9  -4 70.1332 10.1242   2
   3   9  -4 32.4364 11.9540   3
   3   9  -4 48.6644 9.38349   4
  -3  -9   4 82.8252 11.7970   6
  -3  -9   4 57.1963 8.29813   2
   2   9  -4 275.155 19.5111   4
   2   9  -4 235.590 18.3910   3
   2   9  -4 279.603 17.5978   2
  -2  -9   4 284.319 14.9668   2
  -2  -9   4 259.179 19.1364   6
   1   9  -4 61.7338 11.2354   3
   1   9  -4 60.7339 11.4076   4
   1   9  -4 45.9469 10.6092   2
  -1  -9   4 52.8116 9.03263   2
  -1  -9   4 51.2938 11.3771   6
   0   9  -4 212.559 18.1680   4
   0   9  -4 202.529 19.2173   2
   0   9  -4 204.280 18.1855   3
   0  -9   4 205.330 15.8924   2
   0  -9   4 197.721 18.7095   6
  -1   9  -4 98.0568 13.7825   3
  -1   9  -4 89.1707 15.1026   2
  -1   9  -4 105.236 13.7606   4
   1  -9   4 86.0628 12.1364   2
   1  -9   4 85.1803 13.7425   6
  -2   9  -4 11.1375 10.6788   3
  -2   9  -4 24.6454 11.5476   4
   2  -9   4 21.5225 11.7954   6
   2  -9   4 -5.4680 16.4217   2
  -3   9  -4 150.264 18.6768   3
  -3   9  -4 144.487 15.8128   4
   3  -9   4 217.836 22.2418   6
   3  -9   4 134.094 16.8643   2
  -4   9  -4 20.9064 13.3321   4
  -4   9  -4 5.31329 14.1895   3
   4  -9   4 13.6921 15.6144   2
   4  -9   4 26.5199 16.0860   6
   9   8  -4 6.89860 14.0621   5
   9   8  -4 28.6741 15.8526   3
   9   8  -4 20.7171 13.9673   2
   9   8  -4 6.72622 13.1004   6
   8   8  -4 -23.965 11.4608   5
   8   8  -4 7.98155 10.4156   2
   8   8  -4 14.2911 12.4429   3
   7   8  -4 -7.6834 9.24064   5
   7   8  -4 -2.6618 8.57126   2
   7   8  -4 4.58264 10.5434   3
   6   8  -4 5.04303 9.54407   3
   6   8  -4 15.0994 9.89838   2
   6   8  -4 -12.909 10.5614   5
   6   8  -4 -1.2711 7.32946   5
   6   8  -4 2.61553 7.04823   2
   5   8  -4 4.24337 5.97693   5
   5   8  -4 -2.5284 7.85549   5
   5   8  -4 15.5909 9.38518   3
   5   8  -4 3.45109 7.81157   2
   4   8  -4 7.95553 6.67442   2
   4   8  -4 5.24941 7.53356   3
   4   8  -4 14.4365 9.53246   5
   4   8  -4 8.37209 5.24100   5
  -4  -8   4 33.5193 24.8827   1
  -4  -8   4 12.4715 8.05235   6
   3   8  -4 22.7724 4.61725   5
   3   8  -4 11.7436 7.94924   2
   3   8  -4 21.6627 4.45438   5
   3   8  -4 24.6590 8.84249   3
  -3  -8   4 22.8309 8.30265   6
  -3  -8   4 10.8251 33.5830   1
   2   8  -4 -11.639 7.20276   3
   2   8  -4 5.77092 1.58864   5
   2   8  -4 -0.4656 6.30729   2
   2   8  -4 3.78546 1.31075   5
  -2  -8   4 9.83173 7.80773   6
  -2  -8   4 4.04210 5.18086   2
   1   8  -4 77.3081 9.01576   2
   1   8  -4 70.4131 11.2628   3
   1   8  -4 77.9471 10.8558   4
  -1  -8   4 88.1692 9.43704   2
  -1  -8   4 80.4208 11.1799   6
   0   8  -4 111.267 12.4873   4
   0   8  -4 123.665 13.3422   2
   0   8  -4 132.303 13.9013   3
   0  -8   4 120.581 11.3678   2
  -1   8  -4 15.7522 9.00607   3
  -1   8  -4 12.4963 7.93835   4
  -1   8  -4 10.9083 9.42098   2
   1  -8   4 8.57618 7.45395   2
   1  -8   4 11.9208 9.37023   6
  -2   8  -4 238.427 20.6555   2
  -2   8  -4 201.965 17.9453   3
  -2   8  -4 222.485 16.4480   4
   2  -8   4 238.711 18.7714   6
   2  -8   4 189.660 16.5954   2
  -3   8  -4 10.4202 10.6906   3
  -3   8  -4 15.0842 9.78331   4
   3  -8   4 17.0897 10.7130   6
   3  -8   4 3.08711 9.45626   2
  -4   8  -4 83.7126 14.6364   4
  -4   8  -4 61.8133 14.2465   3
   4  -8   4 61.0539 14.0443   6
   4  -8   4 67.6340 13.3716   2
  -5   8  -4 9.95295 15.1190   3
   5  -8   4 -6.1687 13.8229   6
   5  -8   4 17.4219 14.9318   2
   6  -8   4 -28.488 17.8934   2
   6  -8   4 3.93326 16.9507   6
  10   7  -4 30.8574 17.0091   2
  10   7  -4 56.3961 19.4632   5
   9   7  -4 139.202 16.8344   2
   9   7  -4 122.298 17.4221   5
   9   7  -4 94.1571 13.7441   6
   8   7  -4 23.2984 11.6906   5
   8   7  -4 29.1687 12.4484   3
   8   7  -4 14.3590 9.83819   2
   7   7  -4 305.950 20.7966   2
   7   7  -4 287.486 17.2953   2
   7   7  -4 276.538 20.3470   3
   7   7  -4 269.219 22.4108   6
   7   7  -4 285.512 19.4923   5
   6   7  -4 49.6635 9.21944   2
   6   7  -4 68.4116 11.6473   5
   6   7  -4 57.2622 11.2164   3
   6   7  -4 36.2170 11.2642   6
   6   7  -4 63.8877 8.27993   2
   6   7  -4 46.3881 8.38879   5
   5   7  -4 168.800 11.9351   2
   5   7  -4 156.636 14.6709   3
   5   7  -4 160.000 15.9117   6
   5   7  -4 160.864 14.2268   5
   5   7  -4 156.732 12.3008   5
   4   7  -4 184.387 15.4760   6
   4   7  -4 138.162 11.4167   5
   4   7  -4 168.810 13.8106   3
   4   7  -4 170.312 10.5820   2
   4   7  -4 157.079 10.4325   5
  -4  -7   4 135.091 21.4698   1
  -4  -7   4 102.041 20.2586   1
  -4  -7   4 150.939 12.8274   6
   3   7  -4 5.64041 4.70543   2
   3   7  -4 0.23611 6.55275   3
   3   7  -4 36.0874 10.3216   4
   3   7  -4 9.97402 4.63754   5
   3   7  -4 27.8091 9.06489   6
  -3  -7   4 5.88261 6.08596   6
  -3  -7   4 -14.319 20.9581   1
  -3  -7   4 17.9142 21.0385   1
   2   7  -4 89.1513 6.64992   5
   2   7  -4 80.5674 10.2637   3
   2   7  -4 104.328 8.77901   2
   2   7  -4 89.6429 11.9498   4
   2   7  -4 87.8717 11.2507   6
  -2  -7   4 82.0631 9.37484   6
  -2  -7   4 79.8190 7.46813   2
  -2  -7   4 95.6541 28.4511   1
   1   7  -4 1.90153 8.46285   6
   1   7  -4 -0.5060 4.85082   2
   1   7  -4 -2.6036 8.35889   4
   1   7  -4 -0.6590 6.70262   3
  -1  -7   4 -0.2339 3.88074   2
  -1  -7   4 -13.141 26.5467   1
  -1  -7   4 -1.0993 6.49170   6
   0   7  -4 70.9361 10.6619   4
   0   7  -4 68.7910 7.82726   2
   0   7  -4 48.7830 9.47446   3
   0   7  -4 56.1542 8.68287   4
   0   7  -4 69.3828 11.2977   6
   0  -7   4 65.9482 9.74051   6
   0  -7   4 57.5472 6.80486   2
   0  -7   4 68.2951 11.2666   3
   0  -7   4 60.0831 45.1909   1
  -1   7  -4 -5.5303 6.48403   3
  -1   7  -4 -0.4562 6.37514   2
  -1   7  -4 8.57449 8.99313   4
  -1   7  -4 2.60287 6.00445   4
   1  -7   4 1.96214 6.33782   6
   1  -7   4 -13.727 10.3051   3
   1  -7   4 29.2181 38.6295   1
   1  -7   4 -1.1660 5.20852   2
  -2   7  -4 34.8786 7.95731   4
  -2   7  -4 42.2412 9.30571   3
  -2   7  -4 52.8557 10.4247   4
  -2   7  -4 59.5775 9.90034   2
   2  -7   4 31.4021 45.1444   1
   2  -7   4 49.9829 5.67191   5
   2  -7   4 49.8081 8.23738   2
   2  -7   4 42.3557 9.02498   6
  -3   7  -4 -1.3854 8.00673   3
  -3   7  -4 6.80185 10.7058   4
  -3   7  -4 -4.4484 9.89239   2
  -3   7  -4 10.2912 6.80966   4
   3  -7   4 0.10918 4.93706   5
   3  -7   4 2.47091 7.64337   2
   3  -7   4 -30.472 51.0306   1
  -4   7  -4 63.9103 12.3909   3
  -4   7  -4 73.6429 13.4971   4
  -4   7  -4 61.0045 9.98116   4
   4  -7   4 60.9961 11.5797   2
   4  -7   4 73.8153 12.0925   6
   4  -7   4 -86.665 64.0762   1
  -5   7  -4 -6.5226 8.24623   4
  -5   7  -4 -20.579 10.7360   3
   5  -7   4 -13.270 10.8712   2
  -6   7  -4 49.3289 15.8225   3
   6  -7   4 27.5969 14.7546   2
   6  -7   4 30.3905 14.3847   6
   7  -7   4 35.0613 19.9785   2
   7  -7   4 16.1877 17.4680   6
  10   6  -4 80.4192 19.7331   5
  10   6  -4 65.1675 17.1905   2
   9   6  -4 100.439 14.9641   2
   9   6  -4 87.5158 11.3928   6
   9   6  -4 56.8568 14.6261   5
   8   6  -4 440.303 34.4558   2
   8   6  -4 424.855 23.7357   5
   8   6  -4 454.232 22.4005   2
   8   6  -4 428.214 19.7076   6
   7   6  -4 44.2230 8.96064   2
   7   6  -4 42.3662 11.1543   2
   7   6  -4 34.4682 9.54873   5
   7   6  -4 35.0406 10.4798   6
   6   6  -4 674.905 23.2220   2
   6   6  -4 611.070 23.7239   6
   6   6  -4 617.971 25.6844   5
   6   6  -4 646.599 23.8241   5
   6   6  -4 646.858 21.9630   2
   5   6  -4 545.855 24.3648   3
   5   6  -4 561.472 20.2245   5
   5   6  -4 532.271 24.4351   4
   5   6  -4 544.441 18.3132   2
   5   6  -4 546.123 20.9421   5
   5   6  -4 514.340 22.3465   3
   5   6  -4 537.601 20.8350   6
   4   6  -4 281.095 15.2041   6
   4   6  -4 308.727 17.8177   4
   4   6  -4 281.452 14.6941   3
   4   6  -4 281.161 11.9700   2
   4   6  -4 276.653 12.7745   5
  -4  -6   4 292.397 14.5197   6
  -4  -6   4 254.882 25.9109   1
   3   6  -4 1388.61 35.1095   5
   3   6  -4 1380.54 39.2277   4
   3   6  -4 1413.77 39.6857   3
   3   6  -4 1372.14 55.6336   1
   3   6  -4 1356.31 33.3807   2
   3   6  -4 1364.17 38.2882   6
  -3  -6   4 1372.95 38.2136   6
  -3  -6   4 1346.38 57.7309   1
   2   6  -4 1.79496 3.83936   5
   2   6  -4 2.96220 5.82592   3
   2   6  -4 7.45866 3.52591   2
   2   6  -4 19.5099 18.1296   1
   2   6  -4 -4.2950 5.19471   4
   2   6  -4 -1.4087 6.26507   6
  -2  -6   4 10.2510 20.4075   1
  -2  -6   4 1.61592 5.04137   6
   1   6  -4 922.488 23.2002   5
   1   6  -4 921.592 56.1099   1
   1   6  -4 936.645 29.4932   4
   1   6  -4 904.043 28.5881   3
   1   6  -4 903.450 23.9308   2
   1   6  -4 901.220 29.0743   6
  -1  -6   4 906.031 28.9897   6
  -1  -6   4 912.623 23.8402   2
  -1  -6   4 944.494 58.2627   1
   0   6  -4 39.6371 5.46842   2
   0   6  -4 46.4474 8.18409   3
   0   6  -4 35.9340 7.80772   4
   0   6  -4 28.5769 24.4298   1
   0   6  -4 56.7239 9.18659   6
   0   6  -4 61.1169 4.77361   5
   0  -6   4 56.6736 5.75074   2
   0  -6   4 44.7029 7.79747   6
   0  -6   4 52.6396 9.04394   3
   0  -6   4 47.0367 5.03069   5
   0  -6   4 37.8175 29.2194   1
  -1   6  -4 55.5164 7.84397   3
  -1   6  -4 85.4411 27.1555   1
  -1   6  -4 60.3610 8.81695   4
  -1   6  -4 67.6748 8.08676   2
  -1   6  -4 64.7353 4.86437   5
  -1   6  -4 55.4559 9.35939   6
   1  -6   4 59.0417 5.56153   5
   1  -6   4 30.2163 31.5004   1
   1  -6   4 57.6030 9.71282   3
   1  -6   4 54.3841 6.39455   2
   1  -6   4 41.3970 7.99614   6
  -2   6  -4 200.089 14.6649   4
  -2   6  -4 199.865 14.0309   3
  -2   6  -4 198.474 39.3702   1
  -2   6  -4 183.691 12.7808   2
  -2   6  -4 188.434 8.07914   5
  -2   6  -4 179.900 12.0231   4
  -2   6  -4 206.049 14.2138   6
   2  -6   4 156.710 43.4101   1
   2  -6   4 206.869 14.3826   6
   2  -6   4 177.942 11.8344   2
   2  -6   4 180.277 9.09168   5
   2  -6   4 177.671 16.4596   3
  -3   6  -4 8.89574 7.45747   3
  -3   6  -4 19.5649 8.26715   4
  -3   6  -4 6.19532 8.82849   6
  -3   6  -4 20.5512 8.79597   2
  -3   6  -4 19.0928 6.52791   4
   3  -6   4 56.0864 45.5995   1
   3  -6   4 18.2555 6.95419   2
   3  -6   4 24.2843 5.88544   5
   3  -6   4 10.3087 7.91530   6
  -4   6  -4 136.592 11.5786   4
  -4   6  -4 129.920 12.6735   3
  -4   6  -4 107.429 11.8180   4
  -4   6  -4 111.038 12.9915   2
   4  -6   4 120.964 13.8399   2
   4  -6   4 124.273 51.5390   1
   4  -6   4 139.017 13.7603   6
   4  -6   4 2.27194 64.8500   1
   4  -6   4 137.706 12.0163   5
  -5   6  -4 7.84510 9.62210   4
  -5   6  -4 10.7027 6.66720   4
  -5   6  -4 2.66564 9.39104   3
   5  -6   4 73.6391 76.0506   1
   5  -6   4 4.28703 9.28228   5
   5  -6   4 -15.210 9.48479   2
   5  -6   4 12.7832 9.38910   6
  -6   6  -4 56.7862 13.5152   3
  -6   6  -4 29.4247 7.78784   4
   6  -6   4 60.6562 13.9828   2
   6  -6   4 32.6267 11.6039   6
  -7   6  -4 -9.7428 14.0078   3
   7  -6   4 34.8771 15.6483   2
   7  -6   4 -2.5447 12.9725   6
   8  -6   4 20.9607 17.7050   6
   8  -6   4 22.8260 20.5744   2
  10   5  -4 11.7542 16.0603   2
  10   5  -4 25.2472 18.0371   5
   9   5  -4 107.661 16.3024   5
   9   5  -4 95.1085 14.5571   2
   8   5  -4 7.97596 9.27063   2
   8   5  -4 4.90876 6.71994   6
   8   5  -4 -2.4474 10.3516   5
   7   5  -4 478.697 19.3112   6
   7   5  -4 450.686 25.8150   5
   7   5  -4 500.592 23.5335   2
   7   5  -4 462.893 17.8822   6
   7   5  -4 400.940 38.3751   4
   7   5  -4 503.115 20.8545   2
   6   5  -4 455.929 23.2140   5
   6   5  -4 486.236 18.5666   6
   6   5  -4 478.706 22.9542   4
   6   5  -4 522.547 20.0467   2
   6   5  -4 503.818 18.8159   2
   6   5  -4 495.658 20.9394   5
   5   5  -4 559.300 18.3157   2
   5   5  -4 566.660 23.5749   3
   5   5  -4 517.907 18.8971   6
   5   5  -4 543.172 22.6633   4
   5   5  -4 552.308 20.8649   2
   5   5  -4 572.156 20.6583   5
   4   5  -4 1639.35 44.4929   4
   4   5  -4 1600.73 39.0162   2
   4   5  -4 1641.44 39.1062   2
   4   5  -4 1621.24 44.3806   3
   4   5  -4 1602.63 50.9109   1
   4   5  -4 1619.71 44.2758   3
   4   5  -4 1552.89 41.5205   5
   4   5  -4 1641.08 41.7987   6
  -4  -5   4 1622.67 41.5517   6
  -4  -5   4 1648.31 51.7501   1
   3   5  -4 5.18129 3.06525   2
   3   5  -4 7.49409 5.54725   6
   3   5  -4 -1.5318 12.8016   1
   3   5  -4 6.02119 4.16492   5
   3   5  -4 13.4680 5.71322   3
   3   5  -4 -0.4773 6.15816   4
  -3  -5   4 15.1384 14.9641   1
  -3  -5   4 6.95168 4.44413   6
   2   5  -4 2030.05 51.9162   3
   2   5  -4 2017.60 45.6917   2
   2   5  -4 1949.13 47.9960   5
   2   5  -4 1993.92 71.3925   1
   2   5  -4 2099.28 50.9089   6
   2   5  -4 2068.61 51.7077   4
  -2  -5   4 2052.89 73.0836   1
  -2  -5   4 2074.38 50.9773   6
   1   5  -4 990.695 24.0851   2
   1   5  -4 996.632 25.5119   5
   1   5  -4 997.721 52.4394   1
   1   5  -4 987.685 29.6722   3
   1   5  -4 1018.21 29.2481   6
   1   5  -4 1014.65 29.5090   4
  -1  -5   4 964.078 23.9503   2
  -1  -5   4 996.231 29.1025   6
  -1  -5   4 975.269 52.6089   1
   0   5  -4 762.750 20.0129   2
   0   5  -4 777.779 24.1187   6
   0   5  -4 749.904 50.0297   1
   0   5  -4 753.881 24.2097   4
   0   5  -4 745.968 24.8427   3
   0   5  -4 750.955 19.8904   5
   0  -5   4 684.561 54.9072   1
   0  -5   4 758.591 24.5175   6
   0  -5   4 783.827 20.1671   5
   0  -5   4 776.105 19.9967   2
   0  -5   4 749.523 24.8994   3
  -1   5  -4 2864.62 63.5360   2
  -1   5  -4 2816.85 67.8323   6
  -1   5  -4 2705.35 61.9675   5
  -1   5  -4 2738.31 67.7365   3
  -1   5  -4 2700.03 101.747   1
  -1   5  -4 2766.45 66.4147   4
   1  -5   4 2802.22 68.0706   6
   1  -5   4 2742.43 104.928   1
   1  -5   4 2841.77 68.1003   3
   1  -5   4 2766.30 62.2503   5
   1  -5   4 2775.40 63.5127   2
  -2   5  -4 158.918 11.9639   3
  -2   5  -4 146.778 11.4877   4
  -2   5  -4 164.076 13.4976   6
  -2   5  -4 151.271 7.64864   5
  -2   5  -4 155.793 10.0349   2
  -2   5  -4 136.327 30.9310   1
   2  -5   4 169.392 10.2839   2
   2  -5   4 151.123 35.5996   1
   2  -5   4 164.857 8.80018   5
   2  -5   4 153.027 11.7491   3
   2  -5   4 148.155 11.6317   6
  -3   5  -4 1000.00 28.6634   4
  -3   5  -4 1015.25 29.4603   4
  -3   5  -4 1048.27 71.3866   1
  -3   5  -4 1059.51 30.2059   2
  -3   5  -4 988.090 31.7815   3
  -3   5  -4 991.380 32.3624   6
  -3   5  -4 984.791 26.6167   5
   3  -5   4 1056.64 80.0401   1
   3  -5   4 984.178 32.5670   3
   3  -5   4 1031.28 30.2875   2
   3  -5   4 1048.98 27.4990   5
   3  -5   4 1003.86 31.9534   6
  -4   5  -4 19.2507 6.65706   4
  -4   5  -4 6.88875 9.37366   6
  -4   5  -4 9.80047 7.67253   2
  -4   5  -4 24.2658 7.72259   3
  -4   5  -4 17.1767 5.31742   4
  -4   5  -4 14.4450 5.04499   5
   4  -5   4 7.92143 7.05908   2
   4  -5   4 43.0145 43.7696   1
   4  -5   4 37.5605 7.09988   5
   4  -5   4 -0.4923 7.41336   3
   4  -5   4 22.6186 7.81389   6
  -5   5  -4 238.748 19.0846   2
  -5   5  -4 206.486 11.6670   4
  -5   5  -4 211.305 13.5381   4
   5  -5   4 235.250 16.6802   6
   5  -5   4 190.776 16.6026   2
   5  -5   4 204.272 62.8299   1
   5  -5   4 225.537 15.1420   5
  -6   5  -4 83.3080 12.1670   3
  -6   5  -4 77.6229 9.31260   4
   6  -5   4 77.1265 15.2366   2
   6  -5   4 66.1326 71.0320   1
   6  -5   4 67.0913 12.1705   5
  -7   5  -4 48.9451 12.1912   3
   7  -5   4 45.1802 12.7917   6
   7  -5   4 55.5642 14.0865   2
  -8   5  -4 88.3663 16.7332   3
   8  -5   4 52.8562 17.4825   2
   8  -5   4 46.6349 14.1340   6
  10   4  -4 -7.9315 18.1908   5
  10   4  -4 -24.067 15.7525   2
   9   4  -4 9.98288 12.7622   5
   9   4  -4 11.1818 11.7706   2
   8   4  -4 87.9439 8.65348   6
   8   4  -4 81.0947 13.5114   5
   8   4  -4 77.6080 11.9420   2
   7   4  -4 21.5240 5.15099   6
   7   4  -4 17.4884 5.99379   6
   7   4  -4 -13.913 10.2913   4
   7   4  -4 11.9720 7.34716   2
   6   4  -4 177.069 19.5314   1
   6   4  -4 162.344 15.1225   4
   6   4  -4 180.470 18.2381   1
   6   4  -4 172.339 17.9789   3
   6   4  -4 185.084 13.8147   5
   6   4  -4 176.558 10.5311   6
   6   4  -4 185.795 12.1924   2
   6   4  -4 212.815 14.2292   2
   5   4  -4 149.432 11.2813   5
   5   4  -4 170.129 9.85310   6
   5   4  -4 131.696 21.2243   1
   5   4  -4 143.335 12.8342   4
   5   4  -4 149.769 14.4738   3
   5   4  -4 154.165 9.79562   2
  -5  -4   4 145.600 16.0628   1
   4   4  -4 16.0076 6.50828   4
   4   4  -4 13.3270 3.80243   2
   4   4  -4 20.8926 4.38625   2
   4   4  -4 8.90680 4.74130   5
   4   4  -4 21.9803 5.78326   3
   4   4  -4 13.2982 11.7733   1
   4   4  -4 18.1726 4.91960   6
  -4  -4   4 -8.4161 11.4016   1
   3   4  -4 1277.17 33.5240   6
   3   4  -4 1284.25 30.4640   2
   3   4  -4 1287.99 30.3689   2
   3   4  -4 1302.68 33.8138   5
   3   4  -4 1281.07 35.5826   4
   3   4  -4 1303.29 49.1556   1
  -3  -4   4 1252.19 48.3006   1
  -3  -4   4 1262.56 33.0226   6
   2   4  -4 312.288 8.85178   2
   2   4  -4 315.627 27.9021   1
   2   4  -4 316.794 13.4277   4
   2   4  -4 308.911 13.2165   3
   2   4  -4 317.262 12.2163   5
  -2  -4   4 319.515 12.7368   6
  -2  -4   4 292.909 28.3229   1
   1   4  -4 1034.42 23.6691   2
   1   4  -4 1041.15 27.0017   5
   1   4  -4 1085.59 29.0371   6
   1   4  -4 1062.32 49.3746   1
   1   4  -4 1026.49 29.6686   3
   1   4  -4 1038.39 29.4069   4
  -1  -4   4 1031.30 28.8243   6
  -1  -4   4 1077.66 49.8766   1
  -1  -4   4 1056.98 26.9598   5
   0   4  -4 1687.14 41.9813   3
   0   4  -4 1731.87 41.7669   6
   0   4  -4 1642.06 38.5103   5
   0   4  -4 1582.08 36.3926   2
   0   4  -4 1659.06 68.1919   1
   0   4  -4 1630.10 41.2459   4
   0  -4   4 1492.12 36.5025   2
   0  -4   4 1644.61 41.5944   6
   0  -4   4 1393.09 77.6539   1
   0  -4   4 1688.07 38.6599   5
   0  -4   4 1645.97 41.9619   3
  -1   4  -4 31.0914 18.3982   1
  -1   4  -4 29.2207 5.96471   3
  -1   4  -4 26.7271 3.64140   5
  -1   4  -4 27.8273 5.97771   6
  -1   4  -4 21.1670 5.65359   4
  -1   4  -4 17.4965 3.36236   2
   1  -4   4 13.9576 19.3011   1
   1  -4   4 26.0421 4.14094   5
   1  -4   4 21.3384 5.64394   3
   1  -4   4 23.8837 5.44359   6
   1  -4   4 22.0591 3.42786   2
  -2   4  -4 1380.35 69.1929   1
  -2   4  -4 1339.80 33.5691   5
  -2   4  -4 1398.71 37.8477   6
  -2   4  -4 1346.76 37.5253   3
  -2   4  -4 1429.08 34.5368   2
   2  -4   4 1434.91 37.6619   3
   2  -4   4 1345.24 37.5646   6
   2  -4   4 1368.28 33.9269   5
   2  -4   4 1411.01 71.4022   1
   2  -4   4 1380.68 34.6657   2
  -3   4  -4 404.865 13.7731   5
  -3   4  -4 352.804 17.0486   2
  -3   4  -4 379.232 16.6272   3
  -3   4  -4 375.626 14.1258   4
  -3   4  -4 395.049 17.5166   6
  -3   4  -4 368.687 14.5431   4
  -3   4  -4 373.554 45.3618   1
   3  -4   4 374.268 15.1669   2
   3  -4   4 397.739 14.3677   5
   3  -4   4 337.984 43.7359   1
   3  -4   4 388.460 16.9614   6
   3  -4   4 399.668 17.7219   3
  -4   4  -4 486.324 61.4718   1
  -4   4  -4 549.650 18.2329   5
  -4   4  -4 541.236 17.9985   4
  -4   4  -4 539.019 21.2681   3
  -4   4  -4 553.339 17.5116   4
  -4   4  -4 589.249 21.2924   2
  -4   4  -4 554.462 22.0254   6
   4  -4   4 576.328 19.1553   5
   4  -4   4 569.862 69.0978   1
   4  -4   4 535.457 21.2484   6
   4  -4   4 522.009 22.1736   3
   4  -4   4 567.898 20.8937   2
  -5   4  -4 765.646 21.6579   4
  -5   4  -4 838.022 28.3231   6
  -5   4  -4 701.175 69.4509   1
  -5   4  -4 755.631 27.3644   2
  -5   4  -4 746.788 27.2826   3
  -5   4  -4 771.262 24.3801   5
  -5   4  -4 788.573 22.2523   4
   5  -4   4 719.357 85.2951   1
   5  -4   4 714.720 27.0651   2
   5  -4   4 702.397 27.0334   3
   5  -4   4 834.039 25.7324   5
   5  -4   4 761.733 27.5407   6
  -6   4  -4 2.24122 11.1282   6
  -6   4  -4 26.9405 4.42700   4
  -6   4  -4 22.4396 5.29712   4
   6  -4   4 22.0820 55.2586   1
   6  -4   4 27.1444 8.74954   6
   6  -4   4 26.0104 9.49782   5
   6  -4   4 18.2981 9.36777   2
  -7   4  -4 291.538 20.3283   3
   7  -4   4 295.566 21.8444   2
   7  -4   4 305.814 19.7820   6
   7  -4   4 279.884 80.2017   1
  -8   4  -4 12.2091 11.8540   3
   8  -4   4 12.1569 10.6883   6
   8  -4   4 27.3479 13.7569   2
  -9   4  -4 63.7792 17.6169   3
   9  -4   4 68.9341 15.6209   6
   9  -4   4 115.777 20.2546   2
  10   3  -4 50.0378 17.8086   2
  10   3  -4 19.2319 19.4498   5
   9   3  -4 17.0013 13.4448   5
   9   3  -4 34.3173 13.1526   2
   8   3  -4 7.59160 13.1815   4
   8   3  -4 -1.9698 9.61306   5
   8   3  -4 -2.4793 11.0888   2
   7   3  -4 38.9263 8.79079   2
   7   3  -4 67.0263 11.9608   4
   7   3  -4 40.9218 4.37254   6
   7   3  -4 48.0209 10.2382   5
   7   3  -4 19.0441 23.3783   1
  -7  -3   4 59.9384 9.30982   4
   6   3  -4 7.71196 3.86400   6
   6   3  -4 11.8924 6.56940   2
   6   3  -4 -1.1291 17.3073   1
   6   3  -4 4.45380 11.7457   3
   6   3  -4 17.0284 8.26731   4
   6   3  -4 9.63879 3.36432   6
   6   3  -4 12.8322 7.31621   5
  -6  -3   4 7.30655 6.08237   4
   5   3  -4 5.56492 7.39848   3
   5   3  -4 -7.2402 3.95072   2
   5   3  -4 2.99552 3.52317   6
   5   3  -4 -1.8001 5.15368   5
   5   3  -4 0.64377 6.55971   4
   5   3  -4 -7.1595 14.5059   1
  -5  -3   4 4.08239 5.24992   4
  -5  -3   4 -1.7321 15.5352   1
   4   3  -4 5.79173 4.70947   5
   4   3  -4 7.06413 6.21747   3
   4   3  -4 10.3525 3.55335   6
   4   3  -4 5.49986 5.80747   4
   4   3  -4 11.6787 3.61173   2
   4   3  -4 2.76028 11.9272   1
  -4  -3   4 10.1535 12.5369   1
  -4  -3   4 5.27506 4.68506   4
   3   3  -4 23.7690 5.88785   3
   3   3  -4 34.8081 5.43216   5
   3   3  -4 29.1577 4.22253   6
   3   3  -4 27.6508 3.52288   2
   3   3  -4 37.2464 6.32689   4
   3   3  -4 31.3209 12.6131   1
  -3  -3   4 41.5036 6.11765   4
  -3  -3   4 41.2709 13.1459   1
  -3  -3   4 31.5861 4.02763   6
   2   3  -4 87.7178 16.1306   1
   2   3  -4 104.631 4.43426   2
   2   3  -4 97.7399 4.29553   2
   2   3  -4 103.520 7.33297   5
   2   3  -4 98.1766 7.40619   4
   2   3  -4 108.867 7.35210   6
  -2  -3   4 109.214 7.00127   6
  -2  -3   4 114.075 17.0098   1
  -2  -3   4 101.240 8.11209   4
   1   3  -4 300.789 11.6010   5
   1   3  -4 286.869 26.5780   1
   1   3  -4 307.865 12.6721   3
   1   3  -4 304.473 11.6709   6
  -1  -3   4 289.925 11.3285   6
  -1  -3   4 285.307 12.4499   4
  -1  -3   4 283.951 11.1896   5
  -1  -3   4 271.466 26.2244   1
   0   3  -4 118.655 19.5658   1
   0   3  -4 136.346 8.20796   4
   0   3  -4 119.359 8.02628   6
   0   3  -4 130.665 7.91218   3
   0   3  -4 113.484 7.72469   5
   0  -3   4 114.091 7.77775   6
   0  -3   4 117.744 7.01478   5
   0  -3   4 115.508 7.92187   4
  -1   3  -4 879.041 21.1811   2
  -1   3  -4 843.651 46.1689   1
  -1   3  -4 891.375 25.6080   3
  -1   3  -4 919.600 24.6353   4
  -1   3  -4 917.409 23.3449   5
   1  -3   4 942.269 23.5734   5
   1  -3   4 965.914 50.7447   1
   1  -3   4 908.384 25.5796   6
   1  -3   4 776.631 21.7897   2
  -2   3  -4 142.970 7.05426   2
  -2   3  -4 145.233 9.28435   3
  -2   3  -4 167.847 26.0692   1
  -2   3  -4 145.467 7.99382   4
  -2   3  -4 157.301 10.0335   6
  -2   3  -4 153.652 7.37096   5
   2  -3   4 147.836 8.35288   5
   2  -3   4 145.892 25.8927   1
   2  -3   4 130.036 9.41527   3
   2  -3   4 140.272 9.45037   6
   2  -3   4 131.486 7.37871   2
  -3   3  -4 362.588 41.1818   1
  -3   3  -4 430.478 14.1426   5
  -3   3  -4 383.888 15.1947   3
  -3   3  -4 394.075 14.3704   2
  -3   3  -4 410.253 16.3293   6
  -3   3  -4 424.082 13.8859   4
   3  -3   4 375.305 44.0677   1
   3  -3   4 421.734 15.8507   3
   3  -3   4 400.925 14.7557   2
   3  -3   4 412.208 16.4417   6
   3  -3   4 413.466 14.2458   5
  -4   3  -4 675.641 55.0327   1
  -4   3  -4 700.871 23.7472   6
  -4   3  -4 729.829 23.6035   3
  -4   3  -4 705.062 19.4954   4
  -4   3  -4 702.101 22.3973   2
  -4   3  -4 712.366 19.7735   4
  -4   3  -4 711.548 21.5322   5
   4  -3   4 669.330 60.4442   1
   4  -3   4 715.295 23.8856   6
   4  -3   4 727.366 21.6476   5
   4  -3   4 700.224 23.8609   3
   4  -3   4 699.713 22.6737   2
  -5   3  -4 4.51171 4.66800   5
  -5   3  -4 7.04914 6.20673   3
  -5   3  -4 2.01674 3.51763   4
  -5   3  -4 13.2010 7.12814   6
  -5   3  -4 5.32683 3.02941   4
  -5   3  -4 8.05003 28.7263   1
   5  -3   4 5.34149 7.42094   3
   5  -3   4 -2.4331 5.49841   6
   5  -3   4 14.7383 6.30477   5
   5  -3   4 6.41582 6.07071   2
  -6   3  -4 459.302 12.7470   4
  -6   3  -4 370.007 52.3496   1
  -6   3  -4 470.232 18.6704   5
  -6   3  -4 429.277 21.6649   6
  -6   3  -4 455.792 20.6620   3
   6  -3   4 461.064 21.4122   2
   6  -3   4 483.303 20.5383   5
   6  -3   4 384.184 59.2985   1
   6  -3   4 389.746 22.0583   3
   6  -3   4 452.370 20.1250   6
  -7   3  -4 12.6416 11.6774   6
   7  -3   4 68.3554 57.0167   1
   7  -3   4 42.9511 11.3963   5
   7  -3   4 31.0910 10.1254   2
   7  -3   4 20.3546 8.94362   6
  -8   3  -4 100.600 13.6905   3
   8  -3   4 99.8452 15.3600   2
   8  -3   4 106.806 15.0519   6
  -9   3  -4 119.653 16.6087   3
   9  -3   4 92.5259 14.8852   6
   9  -3   4 121.433 17.8182   2
 -10   3  -4 -22.041 16.2171   3
  10  -3   4 4.91282 15.3371   6
  10  -3   4 16.2475 18.8981   2
  10   2  -4 67.1112 19.7510   2
   9   2  -4 22.4802 14.3861   2
   9   2  -4 -4.3068 10.4631   5
   8   2  -4 238.423 23.0931   4
   8   2  -4 241.606 20.8024   5
   8   2  -4 235.299 20.1059   2
  -8  -2   4 231.279 17.9269   4
   7   2  -4 136.459 14.5854   2
   7   2  -4 158.473 16.0316   5
   7   2  -4 157.673 16.9938   4
  -7  -2   4 168.699 14.7507   4
   6   2  -4 114.557 26.3922   1
   6   2  -4 180.656 14.0051   4
   6   2  -4 184.489 29.3066   1
   6   2  -4 198.880 14.1846   2
   6   2  -4 177.723 14.4830   5
  -6  -2   4 212.006 14.1315   4
   5   2  -4 783.804 24.0817   2
   5   2  -4 738.757 18.1439   6
   5   2  -4 755.360 26.0054   5
   5   2  -4 774.864 18.2857   6
   5   2  -4 750.188 26.6702   3
   5   2  -4 720.154 45.5459   1
   5   2  -4 767.842 24.9959   4
  -5  -2   4 795.030 47.9352   1
  -5  -2   4 790.488 25.2138   4
   4   2  -4 -2.3970 3.87428   2
   4   2  -4 -3.9934 5.59045   3
   4   2  -4 -4.3662 5.13431   4
   4   2  -4 4.20036 3.71222   5
   4   2  -4 1.56695 2.38521   6
   4   2  -4 -7.7789 13.6075   1
  -4  -2   4 21.3180 14.7051   1
  -4  -2   4 6.53520 4.62008   4
   3   2  -4 462.311 16.5207   5
   3   2  -4 446.037 13.8801   2
   3   2  -4 448.935 16.7111   4
   3   2  -4 469.939 17.2503   3
   3   2  -4 453.329 13.0435   6
   3   2  -4 472.814 31.7290   1
  -3  -2   4 469.787 31.3062   1
  -3  -2   4 435.147 12.7211   6
  -3  -2   4 438.730 16.5143   4
   2   2  -4 512.641 31.7300   1
   2   2  -4 542.571 17.3672   5
   2   2  -4 500.088 19.7942   3
   2   2  -4 570.095 15.4296   6
  -2  -2   4 544.972 15.1928   6
  -2  -2   4 586.584 32.9409   1
  -2  -2   4 536.352 17.9506   4
   1   2  -4 69.9508 2.13003   2
   1   2  -4 69.3960 2.17946   2
   1   2  -4 72.6111 6.66102   5
   1   2  -4 73.1728 6.75382   4
   1   2  -4 44.5343 13.9430   1
   1   2  -4 59.8767 5.71058   6
  -1  -2   4 79.6769 6.58699   5
  -1  -2   4 64.5914 5.17549   6
  -1  -2   4 71.3825 6.76430   4
   0   2  -4 755.171 21.2756   5
   0   2  -4 767.172 21.2453   6
   0   2  -4 806.105 21.9138   3
   0   2  -4 806.679 21.9454   4
   0   2  -4 716.141 38.6353   1
   0  -2   4 737.756 21.0990   6
   0  -2   4 760.827 21.5872   4
   0  -2   4 803.503 21.1573   5
  -1   2  -4 87.9054 6.15952   6
  -1   2  -4 72.9437 6.10703   4
  -1   2  -4 79.5077 6.15772   3
  -1   2  -4 106.088 17.7327   1
  -1   2  -4 72.9501 6.49149   5
   1  -2   4 51.6929 15.7735   1
   1  -2   4 69.7460 6.34468   5
   1  -2   4 74.6200 3.53321   2
   1  -2   4 71.0491 5.79269   6
   1  -2   4 74.7852 5.77117   3
   1  -2   4 73.5583 5.88907   4
  -2   2  -4 36.6165 15.8230   1
  -2   2  -4 57.6341 6.64160   3
  -2   2  -4 53.4479 5.96279   6
  -2   2  -4 60.5655 5.40572   4
  -2   2  -4 65.6603 5.50143   5
   2  -2   4 53.0117 4.73346   2
   2  -2   4 60.3612 18.1075   1
   2  -2   4 50.5997 5.80776   6
   2  -2   4 72.1633 6.77809   3
   2  -2   4 53.4574 5.54458   5
  -3   2  -4 -5.4484 15.4635   1
  -3   2  -4 5.18864 2.79555   4
  -3   2  -4 2.26810 2.94799   5
  -3   2  -4 -0.6225 4.23550   6
  -3   2  -4 3.91399 3.42500   3
   3  -2   4 5.96727 4.17286   6
   3  -2   4 -6.7409 16.8794   1
   3  -2   4 2.59482 3.05692   2
   3  -2   4 2.02361 3.69285   5
  -4   2  -4 16.3349 20.7641   1
  -4   2  -4 31.9075 3.70713   4
  -4   2  -4 30.5890 6.02106   6
  -4   2  -4 32.7137 5.07068   5
  -4   2  -4 31.0092 5.37349   3
   4  -2   4 27.9183 6.33678   5
   4  -2   4 36.1129 23.5061   1
   4  -2   4 25.5564 4.87344   6
   4  -2   4 25.2099 4.88978   2
   4  -2   4 28.4266 6.06866   3
  -5   2  -4 97.1177 5.25101   4
  -5   2  -4 88.3098 27.8511   1
  -5   2  -4 96.5229 9.15082   3
  -5   2  -4 83.6524 8.04081   5
  -5   2  -4 118.806 10.7162   6
   5  -2   4 114.374 9.98740   6
   5  -2   4 82.0334 9.11561   2
   5  -2   4 78.9305 9.06133   3
   5  -2   4 71.9556 30.3995   1
   5  -2   4 89.8314 9.50116   5
  -6   2  -4 109.430 35.2166   1
  -6   2  -4 100.095 11.7839   6
  -6   2  -4 95.1785 9.51501   5
  -6   2  -4 86.5658 10.2513   3
   6  -2   4 88.8634 10.1843   3
   6  -2   4 80.5851 9.49899   5
   6  -2   4 73.9675 36.5983   1
   6  -2   4 97.8583 10.5613   6
   6  -2   4 84.7718 9.85181   2
  -7   2  -4 27.9206 9.70590   6
  -7   2  -4 15.4262 7.16512   3
  -7   2  -4 3.80960 6.69733   5
  -7   2  -4 7.02529 39.3452   1
   7  -2   4 13.3596 8.28416   2
   7  -2   4 12.9401 7.48465   6
   7  -2   4 -43.965 43.1354   1
   7  -2   4 -0.9859 11.3053   3
   7  -2   4 10.0522 8.69852   5
  -8   2  -4 117.315 13.3568   3
   8  -2   4 117.599 14.7066   2
   8  -2   4 123.761 14.4036   6
  -9   2  -4 17.5003 10.7433   3
   9  -2   4 5.95162 16.9442   6
   9  -2   4 13.9303 12.8027   2
 -10   2  -4 29.8871 14.3230   3
  10  -2   4 9.43513 15.6949   2
  10  -2   4 37.8564 13.6734   6
   9   1  -4 309.051 29.4691   2
   9   1  -4 350.912 28.4007   5
   8   1  -4 24.0241 11.9028   2
   8   1  -4 32.8315 12.6777   5
  -8  -1   4 29.8228 10.0438   4
   7   1  -4 349.850 20.8181   4
   7   1  -4 337.237 20.4988   2
   7   1  -4 340.287 21.0680   5
  -7  -1   4 355.767 18.7147   4
   6   1  -4 625.102 56.1942   1
   6   1  -4 629.470 25.3429   5
   6   1  -4 536.502 57.0350   1
   6   1  -4 647.752 24.9882   2
   6   1  -4 640.918 23.1522   4
  -6  -1   4 595.860 23.8740   3
  -6  -1   4 612.692 22.4865   4
   5   1  -4 13.1191 21.2613   1
   5   1  -4 25.4954 6.89664   2
   5   1  -4 24.5301 7.23302   4
   5   1  -4 32.8204 8.65443   3
   5   1  -4 29.5924 6.94831   5
  -5  -1   4 31.1316 6.66431   4
  -5  -1   4 7.13116 21.6794   1
   4   1  -4 1906.06 72.3101   1
   4   1  -4 1868.70 46.8295   2
   4   1  -4 1830.67 48.3400   5
   4   1  -4 1858.25 48.6437   3
   4   1  -4 1907.89 47.5392   4
  -4  -1   4 1902.34 72.5852   1
  -4  -1   4 1877.48 47.7942   4
   3   1  -4 416.329 15.6345   4
   3   1  -4 391.446 15.6352   5
   3   1  -4 393.673 15.7616   3
   3   1  -4 438.715 33.6301   1
   3   1  -4 415.419 10.3673   6
   3   1  -4 444.482 14.4235   2
  -3  -1   4 402.276 32.7592   1
  -3  -1   4 413.173 15.6994   4
  -3  -1   4 420.054 14.2329   2
   2   1  -4 1720.93 43.2057   5
   2   1  -4 1744.43 39.1410   6
   2   1  -4 1774.98 40.5134   2
   2   1  -4 1742.23 63.5164   1
   2   1  -4 1748.37 43.5301   4
  -2  -1   4 1761.26 43.4263   4
  -2  -1   4 1743.27 40.3771   2
  -2  -1   4 1723.38 62.3270   1
   1   1  -4 2789.52 63.4167   5
   1   1  -4 2512.23 94.2414   1
   1   1  -4 2610.15 59.5304   2
   1   1  -4 2784.39 63.1935   3
   1   1  -4 2809.34 60.8305   6
   1   1  -4 2821.51 63.5013   4
  -1  -1   4 2812.25 63.3948   5
  -1  -1   4 2761.29 60.8298   6
  -1  -1   4 2727.83 59.6201   2
  -1  -1   4 2750.80 63.6401   4
   0   1  -4 140.377 6.73544   6
   0   1  -4 122.910 18.0313   1
   0   1  -4 130.881 7.35955   3
   0   1  -4 130.885 7.75037   4
   0   1  -4 137.582 8.58903   5
   0   1  -4 139.686 3.84914   2
   0  -1   4 130.703 7.72486   4
   0  -1   4 144.203 7.75926   5
   0  -1   4 142.541 4.04072   2
   0  -1   4 137.081 6.69315   6
  -1   1  -4 1405.88 35.1131   3
  -1   1  -4 1456.92 35.1592   6
  -1   1  -4 1488.71 57.2521   1
  -1   1  -4 1454.68 35.4770   5
  -1   1  -4 1474.60 35.2483   4
   1  -1   4 1440.29 35.1946   6
   1  -1   4 1458.56 57.3425   1
   1  -1   4 1466.75 35.2442   4
   1  -1   4 1410.68 31.7660   2
   1  -1   4 1444.53 35.2614   5
  -2   1  -4 507.638 15.3652   3
  -2   1  -4 514.354 15.8156   6
  -2   1  -4 468.187 15.0470   5
  -2   1  -4 464.235 34.5437   1
  -2   1  -4 479.001 14.4800   4
   2  -1   4 484.463 34.7569   1
   2  -1   4 507.027 15.8749   6
   2  -1   4 510.655 15.3140   3
   2  -1   4 473.965 13.4712   2
   2  -1   4 483.613 15.6141   5
   2  -1   4 503.673 14.5437   4
  -3   1  -4 930.218 49.1089   1
  -3   1  -4 874.233 24.7680   6
  -3   1  -4 905.410 22.4330   4
  -3   1  -4 898.307 24.1745   5
  -3   1  -4 883.432 23.9861   3
   3  -1   4 899.857 22.3153   4
   3  -1   4 801.856 48.2805   1
   3  -1   4 905.914 25.1234   6
   3  -1   4 904.228 24.4510   5
   3  -1   4 897.690 23.3337   2
   3  -1   4 903.287 24.2466   3
  -4   1  -4 168.118 8.90009   3
  -4   1  -4 166.968 9.16057   5
  -4   1  -4 181.954 9.32401   6
  -4   1  -4 183.206 27.2410   1
  -4   1  -4 171.668 6.46715   4
   4  -1   4 125.335 24.9928   1
   4  -1   4 168.697 9.25941   2
   4  -1   4 147.672 9.49917   6
   4  -1   4 166.816 9.45892   3
   4  -1   4 125.833 14.0812   5
  -5   1  -4 20.3934 4.87123   5
  -5   1  -4 17.4362 5.54459   6
  -5   1  -4 11.3068 4.39215   3
  -5   1  -4 20.3737 2.13598   4
  -5   1  -4 22.0143 2.45648   4
  -5   1  -4 47.4047 22.4434   1
   5  -1   4 18.3027 23.4515   1
   5  -1   4 16.1839 5.35775   3
   5  -1   4 21.6389 5.41753   2
   5  -1   4 24.9762 5.47052   6
   5  -1   4 23.1748 5.35662   5
  -6   1  -4 136.249 31.2417   1
  -6   1  -4 180.314 11.5249   5
  -6   1  -4 192.495 11.5422   3
  -6   1  -4 162.655 12.9174   6
   6  -1   4 164.380 12.2131   3
   6  -1   4 178.586 12.6630   2
   6  -1   4 196.788 12.8156   5
   6  -1   4 156.285 34.8353   1
   6  -1   4 164.879 11.6950   6
  -7   1  -4 23.1003 33.2163   1
  -7   1  -4 -4.5778 5.07937   3
  -7   1  -4 -3.2306 5.69054   5
  -7   1  -4 -3.9313 7.37915   6
   7  -1   4 4.35277 6.05307   6
   7  -1   4 -4.6663 6.11346   2
   7  -1   4 0.94932 7.86280   5
   7  -1   4 -8.3531 7.59108   3
   7  -1   4 -6.3288 35.2047   1
  -8   1  -4 50.0343 11.5893   6
  -8   1  -4 73.8221 10.3725   3
  -8   1  -4 73.7430 10.1682   5
   8  -1   4 95.5667 12.5640   2
   8  -1   4 -25.126 46.8835   1
   8  -1   4 72.7152 10.4995   6
  -9   1  -4 12.8538 9.06361   3
   9  -1   4 -7.7628 8.84449   6
   9  -1   4 14.3112 10.8940   2
 -10   1  -4 41.3804 12.9256   3
  10  -1   4 26.6170 13.4642   2
  10  -1   4 59.8029 13.5465   6
 -11   1  -4 19.7304 16.6241   3
  11  -1   4 -14.271 19.0742   2
  11  -1   4 -7.3091 14.8087   6
   9   0  -4 23.5251 16.6423   2
   9   0  -4 -3.5456 16.2040   5
  -9   0   4 28.9085 16.0292   3
   8   0  -4 19.1785 12.8449   2
   8   0  -4 14.7033 12.7790   5
  -8   0   4 35.5978 12.7432   3
  -8   0   4 8.84948 10.2835   4
   7   0  -4 261.043 20.4990   2
   7   0  -4 239.629 20.0210   4
   7   0  -4 256.112 19.2314   5
  -7   0   4 237.879 16.5065   4
  -7   0   4 276.345 18.8869   3
   6   0  -4 13.0397 6.84984   5
   6   0  -4 25.6595 52.3073   1
   6   0  -4 24.9258 9.19452   4
   6   0  -4 13.9245 8.33243   2
  -6   0   4 21.9804 7.54124   4
  -6   0   4 17.0045 8.24054   3
   5   0  -4 1401.37 71.5953   1
   5   0  -4 1318.22 38.5214   2
   5   0  -4 1298.53 39.1167   5
   5   0  -4 1325.97 39.6502   3
   5   0  -4 1401.39 37.6458   4
  -5   0   4 1373.07 37.4050   4
  -5   0   4 1322.38 39.0715   2
  -5   0   4 1263.58 75.4416   1
  -5   0   4 1299.79 39.0824   3
   4   0  -4 223.065 13.1685   2
   4   0  -4 197.297 29.6438   1
   4   0  -4 228.611 12.4787   4
   4   0  -4 213.805 13.8186   3
   4   0  -4 216.191 12.7132   5
  -4   0   4 225.926 12.7438   2
  -4   0   4 217.372 12.7005   3
  -4   0   4 230.090 12.1691   4
  -4   0   4 211.189 31.2622   1
   3   0  -4 1682.27 44.6809   5
   3   0  -4 1755.09 43.4914   2
   3   0  -4 1797.47 44.1126   4
   3   0  -4 1799.90 44.8503   3
  -3   0   4 1739.12 44.2106   4
  -3   0   4 1732.10 44.5328   3
  -3   0   4 1754.51 43.3400   2
   2   0  -4 3228.42 96.6028   1
   2   0  -4 2928.00 63.5230   6
   2   0  -4 3079.27 68.0416   2
   2   0  -4 3038.90 70.0237   5
   2   0  -4 2813.86 71.9225   4
  -2   0   4 2583.25 98.9716   1
  -2   0   4 3171.71 69.9780   4
  -2   0   4 3094.75 68.0358   2
   1   0  -4 698.765 20.9094   5
   1   0  -4 736.114 38.9189   1
   1   0  -4 743.112 20.4105   3
   1   0  -4 699.978 17.1910   6
   1   0  -4 702.914 18.6435   2
   1   0  -4 738.577 20.8300   4
  -1   0   4 733.618 20.7011   5
  -1   0   4 695.504 20.4656   4
  -1   0   4 604.078 51.0989   1
  -1   0   4 722.736 17.4576   6
  -1   0   4 724.996 18.7010   2
   0   0  -4 5413.23 114.107   4
   0   0  -4 5223.19 113.078   3
   0   0  -4 5103.01 111.662   6
   0   0  -4 5075.56 114.043   5
   0   0  -4 4728.75 111.178   2
   0   0  -4 5499.39 139.559   1
   0   0   4 5173.11 137.932   1
   0   0   4 5104.37 111.808   6
   0   0   4 5050.47 111.130   2
   0   0   4 5275.19 114.117   4
   0   0   4 5437.42 114.237   5
  -1   0  -4 367.486 12.1332   4
  -1   0  -4 374.436 10.0760   2
  -1   0  -4 369.598 13.3149   5
  -1   0  -4 343.750 26.9944   1
  -1   0  -4 372.727 11.6341   6
  -1   0  -4 354.745 11.4587   3
   1   0   4 372.777 10.1489   2
   1   0   4 371.990 11.7214   6
   1   0   4 376.683 12.9369   5
   1   0   4 353.641 12.0966   4
   1   0   4 376.997 29.4254   1
  -2   0  -4 4077.96 90.0856   5
  -2   0  -4 4113.72 88.9905   4
  -2   0  -4 4138.66 89.8143   6
  -2   0  -4 4059.08 115.908   1
  -2   0  -4 3900.51 88.5912   3
   2   0   4 4006.05 88.9260   4
   2   0   4 4009.96 89.9775   5
   2   0   4 3894.10 87.8896   2
   2   0   4 4046.24 89.8155   6
   2   0   4 4110.63 88.7464   3
   2   0   4 4274.74 118.013   1
  -3   0  -4 2767.76 90.0220   1
  -3   0  -4 2725.40 61.7077   6
  -3   0  -4 2657.08 60.2162   3
  -3   0  -4 2599.17 61.4473   5
  -3   0  -4 2637.67 59.3013   4
   3   0   4 2578.06 60.1306   2
   3   0   4 2626.26 60.2329   3
   3   0   4 2668.05 61.8358   6
   3   0   4 2812.94 61.9791   5
   3   0   4 2675.73 59.4476   4
   3   0   4 2699.08 89.0616   1
  -4   0  -4 271.104 10.1597   3
  -4   0  -4 262.134 8.01221   4
  -4   0  -4 268.349 32.4338   1
  -4   0  -4 247.439 11.0886   5
   4   0   4 266.410 32.9978   1
   4   0   4 242.028 8.55072   4
   4   0   4 259.618 10.8095   2
   4   0   4 269.922 11.9094   5
   4   0   4 266.964 11.6817   6
   4   0   4 274.473 10.7935   3
  -5   0  -4 2172.86 52.6657   5
  -5   0  -4 2102.27 45.8522   4
  -5   0  -4 2096.60 84.0297   1
  -5   0  -4 2158.67 52.4974   6
  -5   0  -4 2153.69 51.1689   3
   5   0   4 2111.06 52.5759   2
   5   0   4 2132.14 52.6534   6
   5   0   4 2226.64 51.3665   3
   5   0   4 2179.41 52.3687   5
   5   0   4 2127.54 86.2337   1
  -6   0  -4 12.9066 5.88040   6
  -6   0  -4 8.09743 5.09628   5
  -6   0  -4 9.51050 4.63282   3
  -6   0  -4 -17.107 20.7654   1
   6   0   4 28.2309 25.1940   1
   6   0   4 15.1417 6.05935   5
   6   0   4 14.8682 5.46958   3
   6   0   4 17.9295 5.98961   2
   6   0   4 7.64582 4.79703   6
  -7   0  -4 662.341 56.1420   1
  -7   0  -4 676.874 22.7439   3
  -7   0  -4 626.715 22.7791   5
  -7   0  -4 687.463 23.6205   6
   7   0   4 662.234 24.8339   2
   7   0   4 682.720 23.7121   5
   7   0   4 678.096 23.6781   6
   7   0   4 618.156 60.8243   1
   7   0   4 652.922 23.1373   3
  -8   0  -4 51.0527 42.0885   1
  -8   0  -4 62.5665 8.96227   3
  -8   0  -4 58.3142 9.75449   5
  -8   0  -4 49.9675 10.6790   6
   8   0   4 61.9804 10.5772   2
   8   0   4 77.8765 11.3681   3
   8   0   4 14.0595 40.1851   1
   8   0   4 55.6464 9.25069   6
  -9   0  -4 53.6649 10.1977   3
   9   0   4 68.7764 10.7884   6
   9   0   4 52.1351 11.4647   2
 -10   0  -4 91.3821 13.6696   3
  10   0   4 93.8367 13.6308   6
  10   0   4 96.7946 15.7810   2
 -11   0  -4 4.54830 14.0203   3
  11   0   4 23.8423 13.6728   6
  11   0   4 23.9710 16.9752   2
   9  -1  -4 -25.005 18.7972   5
   9  -1  -4 19.3042 19.8447   2
   8  -1  -4 9.32488 14.4032   2
   8  -1  -4 28.8134 14.6384   5
  -8   1   4 41.8156 13.9874   3
  -8   1   4 20.0463 11.7597   4
   7  -1  -4 -17.605 12.4171   4
   7  -1  -4 6.56416 9.32023   5
   7  -1  -4 -5.7640 10.7503   2
  -7   1   4 10.8224 10.0123   3
  -7   1   4 -11.429 8.60455   4
   6  -1  -4 96.5013 12.5303   2
   6  -1  -4 85.2703 14.0885   5
   6  -1  -4 88.6084 11.9538   4
  -6   1   4 60.8991 10.8571   3
  -6   1   4 85.1136 10.1914   4
   5  -1  -4 42.6803 8.04414   5
   5  -1  -4 43.7620 32.7855   1
   5  -1  -4 33.2133 8.80697   3
   5  -1  -4 44.1757 8.37580   4
   5  -1  -4 50.5492 9.30413   2
  -5   1   4 38.4988 10.0645   2
  -5   1   4 58.9622 8.53387   4
  -5   1   4 68.0089 9.25421   3
   4  -1  -4 267.550 15.7286   3
   4  -1  -4 293.478 14.1668   4
   4  -1  -4 282.665 14.7218   5
   4  -1  -4 248.752 35.6683   1
   4  -1  -4 261.545 14.7375   2
  -4   1   4 280.384 13.6713   3
  -4   1   4 273.336 13.5943   4
  -4   1   4 258.900 15.1211   2
  -4   1   4 174.247 40.6422   1
   3  -1  -4 383.948 39.8026   1
   3  -1  -4 445.699 16.6057   3
   3  -1  -4 444.094 17.5042   5
   3  -1  -4 447.839 16.7853   4
   3  -1  -4 451.235 17.2362   2
  -3   1   4 456.571 17.0239   4
  -3   1   4 434.408 16.8923   3
  -3   1   4 495.874 17.6079   2
   2  -1  -4 384.929 14.4087   4
   2  -1  -4 381.533 14.9321   5
   2  -1  -4 379.371 35.1033   1
   2  -1  -4 394.239 14.4148   3
   2  -1  -4 383.025 14.4230   2
  -2   1   4 393.420 14.1817   2
  -2   1   4 373.024 14.1650   3
  -2   1   4 383.716 14.4145   4
  -2   1   4 421.788 37.1035   1
   1  -1  -4 3010.26 94.7485   1
   1  -1  -4 3054.57 68.4210   4
   1  -1  -4 3054.31 67.6554   3
   1  -1  -4 2965.56 67.2582   2
   1  -1  -4 2930.11 68.5727   5
  -1   1   4 3020.32 68.5555   5
  -1   1   4 2895.58 67.4066   3
  -1   1   4 2964.92 68.5060   4
  -1   1   4 2895.60 94.5585   1
  -1   1   4 2988.60 67.2736   2
  -1   1   4 2827.53 63.8221   6
   0  -1  -4 104.836 17.8121   1
   0  -1  -4 98.7717 5.83078   3
   0  -1  -4 94.5081 7.94247   5
   0  -1  -4 95.4295 6.85226   4
   0  -1  -4 92.0902 5.57810   2
   0  -1  -4 98.7606 4.85095   6
   0   1   4 92.2139 6.06861   4
   0   1   4 80.6781 16.8078   1
   0   1   4 94.7622 6.41242   2
   0   1   4 94.5848 6.29386   5
   0   1   4 94.5544 4.96619   6
  -1  -1  -4 3984.16 86.7273   4
  -1  -1  -4 3863.92 87.0136   5
  -1  -1  -4 3840.99 85.2865   6
  -1  -1  -4 3803.79 85.2348   2
  -1  -1  -4 4044.25 112.994   1
  -1  -1  -4 3786.45 84.8908   3
   1   1   4 3845.51 86.6666   4
   1   1   4 3846.37 85.3038   2
   1   1   4 4100.37 113.193   1
   1   1   4 3855.81 85.4070   6
   1   1   4 4009.95 87.0757   5
  -2  -1  -4 2096.54 47.3361   6
  -2  -1  -4 1987.44 46.4904   2
  -2  -1  -4 2080.87 47.0776   4
  -2  -1  -4 2023.12 48.0737   5
  -2  -1  -4 2024.33 70.9399   1
   2   1   4 2138.13 48.0939   5
   2   1   4 2018.23 46.5207   2
   2   1   4 2006.05 47.2249   6
   2   1   4 2058.04 71.7534   1
   2   1   4 1991.55 47.0037   4
  -3  -1  -4 1474.47 58.4423   1
  -3  -1  -4 1472.19 35.3237   6
  -3  -1  -4 1376.70 32.7729   3
  -3  -1  -4 1450.75 33.5371   4
  -3  -1  -4 1359.70 35.2270   5
   3   1   4 1429.88 32.9064   3
   3   1   4 1437.23 35.2748   6
   3   1   4 1428.22 34.5305   2
   3   1   4 1451.22 35.7866   5
   3   1   4 1415.86 33.5956   4
   3   1   4 1416.04 59.3721   1
  -4  -1  -4 3298.96 72.6156   4
  -4  -1  -4 3340.26 76.2553   5
  -4  -1  -4 3393.27 105.079   1
  -4  -1  -4 3287.07 73.4269   3
  -4  -1  -4 3310.50 75.9301   6
   4   1   4 3310.90 76.1445   6
   4   1   4 3450.08 76.4533   5
   4   1   4 3285.12 103.983   1
   4   1   4 3214.92 72.7298   4
   4   1   4 3396.48 75.7080   2
   4   1   4 3396.82 73.6995   3
  -5  -1  -4 7.26022 3.49821   6
  -5  -1  -4 5.85000 1.68150   4
  -5  -1  -4 12.0278 15.6084   1
  -5  -1  -4 9.93912 3.60508   5
  -5  -1  -4 4.53832 2.93887   3
   5   1   4 11.4973 3.58464   3
   5   1   4 3.19453 3.50938   6
   5   1   4 1.47846 16.8561   1
   5   1   4 10.9963 1.88716   4
   5   1   4 5.85974 4.72168   5
  -6  -1  -4 1728.36 45.0281   5
  -6  -1  -4 1708.87 42.3775   3
  -6  -1  -4 1819.57 44.7212   6
  -6  -1  -4 1697.10 76.0923   1
   6   1   4 1745.82 42.5155   3
   6   1   4 1710.43 44.8098   5
   6   1   4 1771.13 44.6129   6
   6   1   4 1654.36 45.0646   2
   6   1   4 1683.78 76.5040   1
  -7  -1  -4 487.604 19.4285   6
  -7  -1  -4 539.586 18.4829   3
  -7  -1  -4 484.768 19.9265   5
  -7  -1  -4 518.373 50.1307   1
   7   1   4 496.838 19.6264   5
   7   1   4 534.903 18.9813   3
   7   1   4 495.677 19.5405   6
   7   1   4 438.646 51.9155   1
   7   1   4 506.549 20.9946   2
  -8  -1  -4 199.875 13.2003   3
  -8  -1  -4 206.068 16.3260   6
  -8  -1  -4 198.319 14.5354   5
  -8  -1  -4 166.461 39.8777   1
   8   1   4 219.767 15.8793   2
   8   1   4 219.608 20.9038   5
   8   1   4 147.959 38.9278   1
   8   1   4 213.782 14.5000   3
   8   1   4 197.234 13.7962   6
  -9  -1  -4 289.764 18.6998   5
  -9  -1  -4 304.448 17.3048   3
  -9  -1  -4 270.146 21.1372   6
   9   1   4 242.100 19.0805   3
   9   1   4 279.278 20.7714   2
   9   1   4 290.471 18.6330   6
 -10  -1  -4 1.91014 9.34547   3
  10   1   4 1.22159 11.3175   2
 -11  -1  -4 105.596 15.7857   3
  11   1   4 107.045 15.7780   6
  11   1   4 121.383 18.4213   2
 -12  -1  -4 25.9221 17.7346   3
  12   1   4 9.99535 17.5381   6
   8  -2  -4 22.7443 17.3267   2
   8  -2  -4 19.3718 15.9234   5
  -8   2   4 69.2883 16.4743   3
   7  -2  -4 24.5202 12.4882   2
   7  -2  -4 32.3699 12.7029   5
  -7   2   4 20.3092 10.4094   4
  -7   2   4 15.2743 11.0045   3
   6  -2  -4 23.4697 9.41784   5
   6  -2  -4 32.4828 11.2325   2
   6  -2  -4 35.7340 11.4222   4
  -6   2   4 41.1251 9.39420   4
  -6   2   4 34.0647 10.0147   3
   5  -2  -4 26.2588 8.31952   5
   5  -2  -4 22.0510 8.75683   2
   5  -2  -4 18.1436 8.29017   4
  -5   2   4 27.4156 7.50862   4
  -5   2   4 9.08287 6.96103   3
   4  -2  -4 3.12005 5.61852   5
   4  -2  -4 -12.335 27.6309   1
   4  -2  -4 14.8455 8.07807   3
   4  -2  -4 4.61734 6.34125   4
   4  -2  -4 -6.6138 6.51630   2
  -4   2   4 -19.332 29.9793   1
  -4   2   4 6.62138 5.61402   3
  -4   2   4 12.5526 5.74482   4
  -4   2   4 -15.960 7.39571   2
   3  -2  -4 19.2443 6.06446   4
   3  -2  -4 25.1324 6.12825   5
   3  -2  -4 14.6243 22.6646   1
   3  -2  -4 18.3540 6.48826   2
   3  -2  -4 31.8548 6.97800   3
  -3   2   4 28.4363 5.86808   3
  -3   2   4 26.2182 7.14993   2
  -3   2   4 30.0376 24.4057   1
  -3   2   4 29.0302 5.92871   4
   2  -2  -4 -0.6046 18.4164   1
   2  -2  -4 29.2288 5.56650   2
   2  -2  -4 21.9910 5.27579   4
   2  -2  -4 21.7699 5.36177   3
   2  -2  -4 23.6043 5.34020   5
  -2   2   4 13.3663 19.7892   1
  -2   2   4 19.9199 4.45605   3
  -2   2   4 15.0922 4.72932   4
   1  -2  -4 2.78867 3.57527   5
   1  -2  -4 -2.2735 14.1796   1
   1  -2  -4 3.68560 3.60878   2
   1  -2  -4 6.96873 3.47564   3
   1  -2  -4 6.00923 3.75512   4
  -1   2   4 2.98195 1.55088   6
  -1   2   4 4.40308 2.98360   3
  -1   2   4 5.16458 3.59415   5
  -1   2   4 6.93727 4.32333   2
  -1   2   4 -10.062 15.1333   1
  -1   2   4 0.66398 3.39206   4
  -1   2   4 2.48793 1.57440   6
   0  -2  -4 31.1352 4.53091   2
   0  -2  -4 67.6479 6.97002   5
   0  -2  -4 44.5812 15.6965   1
   0  -2  -4 37.9526 4.94727   4
   0  -2  -4 44.0887 4.51874   3
   0   2   4 40.3842 4.74097   5
   0   2   4 46.2590 3.76175   6
   0   2   4 24.6576 15.0300   1
   0   2   4 43.0319 5.20524   4
   0   2   4 42.4161 5.25670   2
   0   2   4 48.2452 4.46673   3
  -1  -2  -4 340.641 11.8194   2
  -1  -2  -4 337.336 12.2428   4
  -1  -2  -4 367.509 30.6243   1
  -1  -2  -4 350.198 10.2462   3
  -1  -2  -4 341.475 13.2193   5
   1   2   4 350.844 12.3699   4
   1   2   4 339.546 31.3059   1
   1   2   4 359.322 12.6801   5
   1   2   4 338.945 10.7600   6
   1   2   4 343.496 11.9846   2
  -2  -2  -4 96.1114 6.00190   6
  -2  -2  -4 96.5486 6.12582   2
  -2  -2  -4 106.817 6.34806   4
  -2  -2  -4 92.2502 7.53298   5
  -2  -2  -4 78.8204 16.9481   1
  -2  -2  -4 88.8581 4.10205   3
  -2  -2  -4 89.9344 3.97833   3
   2   2   4 99.5636 6.18407   4
   2   2   4 109.051 18.2650   1
   2   2   4 90.8865 6.21233   2
   2   2   4 86.2222 7.61606   5
   2   2   4 84.1021 5.71229   6
  -3  -2  -4 3035.71 67.9885   6
  -3  -2  -4 2980.46 68.2541   5
  -3  -2  -4 2806.41 64.0578   3
  -3  -2  -4 2952.83 67.9234   2
  -3  -2  -4 3064.66 67.0553   4
  -3  -2  -4 3088.68 94.8837   1
   3   2   4 2979.21 68.4053   5
   3   2   4 3048.06 68.0315   2
   3   2   4 3011.60 68.0477   6
   3   2   4 3011.88 66.9898   4
   3   2   4 2938.34 93.8809   1
  -4  -2  -4 4.89173 2.52125   4
  -4  -2  -4 4.42122 1.67897   3
  -4  -2  -4 7.82829 3.64650   5
  -4  -2  -4 -3.3378 12.8656   1
  -4  -2  -4 5.94062 3.10076   6
   4   2   4 1.83238 13.7147   1
   4   2   4 5.61752 3.79885   2
   4   2   4 5.82486 2.05527   3
   4   2   4 2.96323 3.99262   5
   4   2   4 5.80650 2.48225   4
   4   2   4 4.22869 3.29225   6
  -5  -2  -4 1425.86 37.8499   5
  -5  -2  -4 1497.26 34.5628   3
  -5  -2  -4 1499.78 37.9826   6
  -5  -2  -4 1462.15 34.0533   4
  -5  -2  -4 1500.65 64.8081   1
   5   2   4 1455.52 34.5595   3
   5   2   4 1464.05 38.0621   6
   5   2   4 1434.91 38.2171   2
   5   2   4 1562.55 65.5883   1
   5   2   4 1483.85 34.1423   4
   5   2   4 1547.68 38.6258   5
  -6  -2  -4 450.246 16.6098   6
  -6  -2  -4 397.471 16.3267   5
  -6  -2  -4 394.426 37.0446   1
  -6  -2  -4 406.291 13.4299   3
   6   2   4 407.458 13.7185   3
   6   2   4 411.350 10.7674   4
   6   2   4 386.563 15.7555   6
   6   2   4 433.256 17.2772   2
   6   2   4 410.775 39.7429   1
   6   2   4 438.856 16.9695   5
  -7  -2  -4 357.001 42.1624   1
  -7  -2  -4 335.528 16.2541   5
  -7  -2  -4 390.085 16.5541   6
  -7  -2  -4 326.821 13.3914   3
   7   2   4 344.895 15.6678   6
   7   2   4 339.105 16.6538   2
   7   2   4 327.645 15.7669   3
   7   2   4 331.812 17.4776   2
   7   2   4 345.829 17.3896   5
   7   2   4 349.261 45.4827   1
  -8  -2  -4 649.993 24.6567   5
  -8  -2  -4 615.651 21.1743   3
  -8  -2  -4 624.775 58.3595   1
  -8  -2  -4 653.249 23.9805   6
   8   2   4 643.468 22.0481   3
   8   2   4 649.620 26.1008   5
   8   2   4 538.374 60.9146   1
   8   2   4 635.747 23.2963   6
   8   2   4 657.789 25.7976   2
  -9  -2  -4 -8.0635 8.45963   5
  -9  -2  -4 -1.6407 5.89409   3
   9   2   4 10.9737 8.56072   3
   9   2   4 9.33591 9.36020   2
   9   2   4 -4.7747 6.83557   6
 -10  -2  -4 444.052 21.0031   3
  10   2   4 427.713 26.5333   6
  10   2   4 397.399 25.5339   2
 -11  -2  -4 47.9220 11.9033   3
  11   2   4 50.2076 14.7427   2
  11   2   4 25.1212 12.9517   6
 -12  -2  -4 50.0509 15.5527   3
  12   2   4 8.13883 16.6770   6
  12   2   4 53.8183 20.9308   2
   8  -3  -4 26.9555 20.8498   2
   8  -3  -4 19.3394 18.7708   5
   7  -3  -4 43.3032 14.4550   5
   7  -3  -4 36.3868 16.0271   2
  -7   3   4 46.8837 14.2267   3
  -7   3   4 52.8022 15.3502   4
   6  -3  -4 123.253 15.1315   2
   6  -3  -4 80.9460 13.6498   5
  -6   3   4 97.2893 12.3446   4
  -6   3   4 100.828 13.1835   3
   5  -3  -4 6.39166 8.70799   5
   5  -3  -4 17.7070 11.1669   4
   5  -3  -4 20.3422 11.6706   2
  -5   3   4 15.3493 7.36815   4
  -5   3   4 19.2835 8.58581   3
   4  -3  -4 256.888 18.5794   3
   4  -3  -4 269.641 16.7804   4
   4  -3  -4 219.905 45.6001   1
   4  -3  -4 246.877 17.0440   2
   4  -3  -4 280.743 16.3425   5
  -4   3   4 190.723 47.2849   1
  -4   3   4 280.367 19.6331   2
  -4   3   4 287.828 15.9931   3
  -4   3   4 254.580 14.7081   4
   3  -3  -4 481.409 19.2971   4
   3  -3  -4 527.829 57.7082   1
   3  -3  -4 492.379 19.9224   3
   3  -3  -4 503.587 20.6642   2
   3  -3  -4 473.019 19.3033   5
  -3   3   4 464.260 20.8635   2
  -3   3   4 492.327 19.3139   3
  -3   3   4 406.158 59.5097   1
  -3   3   4 475.156 18.6329   4
   2  -3  -4 45.7236 24.6896   1
   2  -3  -4 53.5048 7.48059   2
   2  -3  -4 60.5444 7.81846   4
   2  -3  -4 46.5991 6.95140   3
   2  -3  -4 53.0570 7.15275   5
  -2   3   4 57.9924 3.42337   6
  -2   3   4 58.5279 26.7111   1
  -2   3   4 45.2303 6.68806   4
  -2   3   4 60.4448 3.97296   6
  -2   3   4 78.1340 7.82927   3
  -2   3   4 68.7807 8.57990   2
   1  -3  -4 508.406 44.9165   1
   1  -3  -4 524.482 18.0387   4
   1  -3  -4 518.420 17.6659   5
   1  -3  -4 517.647 18.4192   2
  -1   3   4 526.374 13.7693   6
  -1   3   4 507.333 17.8049   4
  -1   3   4 527.368 47.4711   1
  -1   3   4 503.006 18.5821   2
  -1   3   4 485.316 16.4663   3
  -1   3   4 521.509 13.9506   6
   0  -3  -4 64.0064 5.79418   3
   0  -3  -4 66.1893 6.91764   5
   0  -3  -4 78.3780 20.2826   1
   0  -3  -4 64.2112 6.98499   4
   0  -3  -4 57.9428 6.77117   2
   0   3   4 63.5413 4.81709   6
   0   3   4 67.6731 20.9310   1
   0   3   4 63.5781 5.49887   3
   0   3   4 62.5721 6.51282   5
   0   3   4 64.2740 5.79710   4
   0   3   4 58.2172 4.64911   6
  -1  -3  -4 106.190 7.90221   5
  -1  -3  -4 96.4619 5.21947   3
  -1  -3  -4 89.9288 6.56113   4
  -1  -3  -4 62.4108 17.6743   1
  -1  -3  -4 95.9496 7.28790   2
   1   3   4 103.265 7.76604   2
   1   3   4 91.2626 6.35873   4
   1   3   4 97.2287 5.87427   6
   1   3   4 95.4265 5.04853   3
   1   3   4 92.5477 6.96562   5
   1   3   4 71.2931 18.6972   1
  -2  -3  -4 257.090 10.5754   4
  -2  -3  -4 241.559 10.6341   2
  -2  -3  -4 256.007 10.7885   5
  -2  -3  -4 268.373 7.24785   3
  -2  -3  -4 307.073 30.4234   1
   2   3   4 236.372 10.3315   4
   2   3   4 261.608 9.88574   6
   2   3   4 276.714 11.0662   5
   2   3   4 238.718 30.2703   1
   2   3   4 252.268 10.9370   2
  -3  -3  -4 185.240 8.95596   5
  -3  -3  -4 193.869 8.88206   4
  -3  -3  -4 189.987 27.0755   1
  -3  -3  -4 191.455 9.38643   2
   3   3   4 209.392 10.1859   5
   3   3   4 201.210 27.5462   1
   3   3   4 193.438 8.93485   6
   3   3   4 188.638 8.58952   4
   3   3   4 205.323 9.66720   2
  -4  -3  -4 567.749 17.7930   5
  -4  -3  -4 557.944 37.9668   1
  -4  -3  -4 579.619 18.2999   2
  -4  -3  -4 575.036 16.5047   4
   4   3   4 578.041 18.1364   5
   4   3   4 544.142 17.7252   6
   4   3   4 528.876 19.4439   2
   4   3   4 557.367 37.6356   1
   4   3   4 585.920 16.6150   4
  -5  -3  -4 64.1364 17.7088   1
  -5  -3  -4 49.9139 3.26515   3
  -5  -3  -4 40.3873 4.78716   4
  -5  -3  -4 37.9739 5.58819   5
   5   3   4 30.6478 19.0706   1
   5   3   4 42.5441 6.11899   2
   5   3   4 45.9712 6.42664   5
   5   3   4 45.7085 4.81094   4
   5   3   4 45.7179 5.61197   6
   5   3   4 43.1612 3.44438   3
  -6  -3  -4 -3.0021 3.93259   5
  -6  -3  -4 -6.3001 17.0083   1
  -6  -3  -4 -0.5790 2.22828   3
   6   3   4 6.96721 5.44178   2
   6   3   4 -12.275 16.8001   1
   6   3   4 0.37785 5.41214   5
   6   3   4 4.61587 2.88655   3
   6   3   4 -5.8910 2.19922   4
   6   3   4 1.03247 3.77715   6
  -7  -3  -4 169.491 11.9204   5
  -7  -3  -4 137.213 26.1436   1
  -7  -3  -4 194.309 8.85927   3
   7   3   4 189.564 11.9998   6
   7   3   4 172.563 12.2190   2
   7   3   4 178.085 9.23197   3
   7   3   4 182.336 30.6830   1
   7   3   4 169.163 13.2664   5
  -8  -3  -4 2.65528 4.83451   5
  -8  -3  -4 4.50780 4.55468   3
  -8  -3  -4 -6.3760 25.6058   1
   8   3   4 10.9728 5.89002   6
   8   3   4 4.11199 7.05722   2
   8   3   4 7.98700 8.73484   5
   8   3   4 -12.553 9.03415   2
   8   3   4 56.0451 27.5677   1
   8   3   4 14.6576 5.65728   3
  -9  -3  -4 85.8967 10.2756   3
   9   3   4 117.290 13.2490   3
   9   3   4 72.7394 10.4484   6
 -10  -3  -4 29.1709 8.58210   3
  10   3   4 43.1964 12.2039   2
  10   3   4 8.57409 11.4269   3
 -11  -3  -4 14.7350 11.2591   3
  11   3   4 24.7826 13.8616   2
  11   3   4 -10.164 11.6924   6
 -12  -3  -4 38.3350 15.2710   3
  12   3   4 58.7679 19.9231   2
  12   3   4 53.1963 16.1907   6
   7  -4  -4 122.054 19.6710   5
   7  -4  -4 122.352 22.3678   2
  -7   4   4 145.636 22.2770   4
  -7   4   4 136.161 20.3148   3
   6  -4  -4 21.4134 14.6748   2
   6  -4  -4 21.6227 12.5987   5
  -6   4   4 9.51202 11.0273   3
   5  -4  -4 417.339 26.6365   5
   5  -4  -4 441.583 26.1529   2
  -5   4   4 394.673 22.6398   3
  -5   4   4 412.986 20.6390   4
   4  -4  -4 260.634 18.2980   4
   4  -4  -4 278.398 27.9900   2
   4  -4  -4 275.566 18.1804   5
  -4   4   4 279.560 17.5755   3
  -4   4   4 269.847 16.1233   4
   3  -4  -4 416.699 19.7045   4
   3  -4  -4 320.113 50.8583   1
   3  -4  -4 416.670 20.5219   2
   3  -4  -4 384.761 17.8349   5
   3  -4  -4 394.565 19.6212   3
  -3   4   4 358.133 54.1599   1
  -3   4   4 416.913 18.3324   3
  -3   4   4 411.310 18.0853   4
  -3   4   4 372.169 10.3082   6
  -3   4   4 383.735 21.7756   2
  -3   4   4 397.721 10.6649   6
   2  -4  -4 859.562 27.2347   3
   2  -4  -4 874.496 27.0119   5
   2  -4  -4 851.981 27.4490   4
   2  -4  -4 830.242 67.1176   1
   2  -4  -4 853.147 28.8113   2
  -2   4   4 811.143 71.4241   1
  -2   4   4 891.463 22.0233   6
  -2   4   4 842.259 29.4376   2
  -2   4   4 880.787 21.4127   6
  -2   4   4 864.853 26.6647   3
  -2   4   4 862.014 27.3972   4
   1  -4  -4 38.2363 7.27065   2
   1  -4  -4 34.7762 6.06629   5
   1  -4  -4 37.3751 7.12759   4
   1  -4  -4 47.7009 6.47522   3
   1  -4  -4 44.5804 23.7874   1
  -1   4   4 38.6981 6.31957   4
  -1   4   4 40.6596 5.73752   3
  -1   4   4 33.7601 4.30572   6
  -1   4   4 7.28582 26.8438   1
  -1   4   4 24.1100 7.52547   2
   0  -4  -4 1737.21 41.2832   3
   0  -4  -4 1769.35 78.0425   1
   0  -4  -4 1711.83 44.4043   2
   0  -4  -4 1659.49 42.2271   5
   0  -4  -4 1687.79 43.5930   4
   0   4   4 1708.40 44.5045   2
   0   4   4 1716.60 41.2009   3
   0   4   4 1671.35 40.2885   6
   0   4   4 1665.76 43.4899   4
   0   4   4 1655.35 77.4072   1
   0   4   4 1742.10 42.0766   5
  -1  -4  -4 1127.49 27.2973   3
  -1  -4  -4 1079.12 30.6034   2
  -1  -4  -4 1072.78 29.0618   5
  -1  -4  -4 1092.73 58.9742   1
  -1  -4  -4 1117.13 30.5385   4
   1   4   4 1167.56 29.3805   5
   1   4   4 1091.45 30.3766   4
   1   4   4 1123.93 27.1906   3
   1   4   4 1117.66 31.1272   2
   1   4   4 1115.66 28.4097   6
   1   4   4 1111.12 28.2330   6
   1   4   4 1058.66 58.5038   1
  -2  -4  -4 388.698 13.8809   5
  -2  -4  -4 398.680 10.8884   3
  -2  -4  -4 411.439 35.5846   1
  -2  -4  -4 440.108 14.7872   4
  -2  -4  -4 396.162 15.3421   2
   2   4   4 394.412 14.7370   4
   2   4   4 430.898 37.5635   1
   2   4   4 399.364 13.6462   6
   2   4   4 412.322 14.0790   5
   2   4   4 407.595 10.9746   3
   2   4   4 427.397 15.1649   2
  -3  -4  -4 1368.02 63.8046   1
  -3  -4  -4 1484.15 38.0696   2
  -3  -4  -4 1472.66 36.3539   5
   3   4   4 1510.23 38.1441   2
   3   4   4 1454.51 36.4430   5
   3   4   4 1453.18 36.8284   4
   3   4   4 1431.92 36.6954   6
   3   4   4 1481.48 62.8586   1
  -4  -4  -4 0.46382 14.6945   1
  -4  -4  -4 6.42577 4.07842   2
  -4  -4  -4 3.37577 3.48636   5
  -4  -4  -4 2.50489 3.41077   4
   4   4   4 8.93189 15.1926   1
   4   4   4 3.01186 3.57945   6
   4   4   4 0.97179 4.21128   5
   4   4   4 3.71393 4.17952   2
   4   4   4 4.56394 3.00169   4
  -5  -4  -4 341.587 12.8310   4
  -5  -4  -4 351.973 13.6645   5
  -5  -4  -4 311.590 33.2726   1
   5   4   4 365.504 15.3165   2
   5   4   4 356.339 14.3998   6
   5   4   4 337.781 14.2914   5
   5   4   4 355.508 12.6270   4
   5   4   4 373.581 34.7074   1
  -6  -4  -4 239.550 12.2022   5
  -6  -4  -4 200.815 27.8708   1
   6   4   4 232.323 11.6593   6
   6   4   4 235.713 9.93570   4
   6   4   4 246.188 7.62528   3
   6   4   4 248.959 13.2037   5
   6   4   4 296.860 34.2625   1
   6   4   4 240.310 14.0109   2
  -7  -4  -4 23.4787 20.1370   1
  -7  -4  -4 24.3364 3.64642   3
  -7  -4  -4 18.2083 5.86455   5
   7   4   4 22.5516 3.78113   4
   7   4   4 21.8172 6.40113   2
   7   4   4 19.8855 7.35404   5
   7   4   4 19.9115 5.98492   6
   7   4   4 38.3799 22.5185   1
   7   4   4 17.0626 3.66862   3
  -8  -4  -4 138.616 8.85147   3
  -8  -4  -4 121.622 11.9091   5
  -8  -4  -4 124.262 27.9454   1
   8   4   4 122.089 6.71941   4
   8   4   4 120.387 7.46957   4
   8   4   4 117.006 29.0526   1
   8   4   4 148.457 15.2868   5
   8   4   4 131.662 11.8637   6
   8   4   4 138.498 9.34978   3
   8   4   4 108.153 13.2750   2
  -9  -4  -4 8.20806 7.79439   5
  -9  -4  -4 -0.0824 5.14839   3
   9   4   4 -3.7271 6.56252   6
   9   4   4 14.4821 7.13351   3
 -10  -4  -4 -5.2024 7.03276   3
  10   4   4 24.4520 10.6570   2
  10   4   4 7.42006 9.70130   3
 -11  -4  -4 3.41546 9.52246   3
  11   4   4 -5.6959 10.2140   6
  11   4   4 24.7399 13.3769   2
 -12  -4  -4 24.5713 12.9283   3
  12   4   4 22.4471 17.4955   2
  12   4   4 5.48781 13.4247   6
   6  -5  -4 88.7124 20.0460   2
   6  -5  -4 27.6492 15.4426   5
  -6   5   4 47.4638 15.5797   3
  -6   5   4 61.1678 14.7283   4
   5  -5  -4 70.2648 16.0430   2
   5  -5  -4 62.4707 13.0849   5
  -5   5   4 86.2704 13.5482   4
  -5   5   4 66.0937 13.0443   3
   4  -5  -4 -2.5093 64.7937   1
   4  -5  -4 70.1085 13.1807   2
   4  -5  -4 83.7004 12.1688   5
  -4   5   4 50.6170 10.6457   4
  -4   5   4 65.2633 11.3790   3
   3  -5  -4 624.691 26.8232   4
   3  -5  -4 550.642 80.2485   1
   3  -5  -4 637.761 24.0450   5
  -3   5   4 656.029 24.7329   4
  -3   5   4 618.518 17.6972   6
  -3   5   4 633.985 24.6784   3
   2  -5  -4 7.13292 7.83478   2
   2  -5  -4 6.45319 8.19342   4
   2  -5  -4 15.8598 8.18128   3
   2  -5  -4 8.93694 36.7494   1
   2  -5  -4 11.5526 6.20953   5
  -2   5   4 8.21100 6.38129   4
  -2   5   4 2.04663 4.71306   6
  -2   5   4 4.28026 10.3286   2
  -2   5   4 9.46182 6.02239   3
  -2   5   4 -9.3507 39.2531   1
   1  -5  -4 1222.00 35.8749   4
   1  -5  -4 1210.08 33.8717   5
   1  -5  -4 1296.66 77.2367   1
   1  -5  -4 1212.64 34.4501   3
   1  -5  -4 1225.08 36.6746   2
  -1   5   4 1218.02 35.4549   4
  -1   5   4 1127.66 80.6443   1
  -1   5   4 1220.42 33.8678   3
  -1   5   4 1235.92 37.8052   2
  -1   5   4 1246.32 31.6043   6
   0  -5  -4 696.747 23.5523   2
   0  -5  -4 672.990 21.2753   5
   0  -5  -4 619.802 23.2238   3
   0  -5  -4 632.910 67.1502   1
   0  -5  -4 687.362 23.4725   4
   0   5   4 648.327 58.8669   1
   0   5   4 681.216 20.2138   6
   0   5   4 672.814 20.2327   3
   0   5   4 686.426 23.0171   4
   0   5   4 650.969 24.4421   2
  -1  -5  -4 913.685 28.2893   2
  -1  -5  -4 919.954 27.7337   4
  -1  -5  -4 901.101 25.3833   5
  -1  -5  -4 833.087 67.9330   1
  -1  -5  -4 917.813 24.1367   3
   1   5   4 883.381 27.3014   4
   1   5   4 955.760 25.2889   5
   1   5   4 927.918 60.4509   1
   1   5   4 890.762 28.6037   2
   1   5   4 912.507 23.8589   3
  -2  -5  -4 2528.64 63.0193   2
  -2  -5  -4 2441.44 94.4070   1
  -2  -5  -4 2624.25 62.3733   4
  -2  -5  -4 2592.99 57.3183   3
  -2  -5  -4 2543.98 59.7727   5
   2   5   4 2592.05 62.2687   4
   2   5   4 2564.87 60.6478   6
   2   5   4 2653.63 98.3973   1
   2   5   4 2634.19 63.2195   2
   2   5   4 2543.12 57.0666   3
   2   5   4 2628.02 59.9458   5
  -3  -5  -4 5.28626 3.65700   5
  -3  -5  -4 7.60739 1.37262   3
  -3  -5  -4 1.76051 18.0263   1
  -3  -5  -4 15.4503 5.20498   2
  -3  -5  -4 11.9868 5.15790   4
   3   5   4 2.59345 3.99423   5
   3   5   4 12.8721 4.22858   6
   3   5   4 8.14452 5.54319   2
   3   5   4 6.35012 4.07409   4
  -4  -5  -4 2629.69 92.6715   1
  -4  -5  -4 2675.36 62.3489   4
  -4  -5  -4 2587.72 63.8264   2
  -4  -5  -4 2664.30 61.1752   5
   4   5   4 2523.78 91.3579   1
   4   5   4 2563.89 61.9227   4
   4   5   4 2676.56 63.7921   2
   4   5   4 2576.25 62.3855   6
   4   5   4 2603.97 61.4145   5
  -5  -5  -4 742.692 24.7996   2
  -5  -5  -4 745.073 22.5773   5
  -5  -5  -4 777.716 48.4681   1
  -5  -5  -4 749.836 22.6532   4
   5   5   4 763.830 47.5970   1
   5   5   4 770.503 22.5775   4
   5   5   4 767.466 23.3167   5
   5   5   4 725.766 24.8251   2
   5   5   4 737.887 23.8627   6
  -6  -5  -4 567.899 19.4909   5
  -6  -5  -4 527.639 43.4874   1
   6   5   4 563.899 17.9820   4
   6   5   4 561.094 21.8558   2
   6   5   4 545.365 19.9478   5
   6   5   4 570.622 20.5357   6
   6   5   4 541.452 44.7603   1
  -7  -5  -4 923.403 28.6485   5
  -7  -5  -4 883.143 53.7659   1
   7   5   4 904.745 29.8850   2
   7   5   4 926.587 29.2119   6
   7   5   4 923.167 53.9053   1
   7   5   4 944.142 29.6000   5
   7   5   4 892.680 25.2385   4
   7   5   4 927.425 21.9979   3
  -8  -5  -4 14.9392 24.5133   1
  -8  -5  -4 12.1589 6.53328   5
   8   5   4 5.69720 8.81059   5
   8   5   4 9.06286 4.10085   3
   8   5   4 15.3578 6.95245   6
   8   5   4 -30.187 22.6875   1
   8   5   4 3.66335 3.97762   4
  -9  -5  -4 428.516 20.7851   5
   9   5   4 390.598 13.4980   4
   9   5   4 428.964 20.8242   6
  10   5   4 44.1227 5.10109   4
  10   5   4 24.3293 10.9462   2
  10   5   4 27.3708 9.69133   3
  10   5   4 19.7042 9.42714   6
  11   5   4 58.4769 13.1542   6
  11   5   4 74.4753 15.2812   2
  12   5   4 22.6635 17.1267   2
  12   5   4 59.0008 15.7501   6
   6  -6  -4 7.83708 19.0060   5
  -6   6   4 24.7263 19.2211   3
   5  -6  -4 10.2331 15.7038   2
   5  -6  -4 9.40848 14.1050   5
  -5   6   4 10.1059 13.1811   3
  -5   6   4 1.31395 12.2898   4
   4  -6  -4 69.9495 12.8537   5
   4  -6  -4 57.2048 15.0429   2
  -4   6   4 80.9352 13.0995   3
  -4   6   4 69.3471 13.0422   4
   3  -6  -4 -13.228 66.3292   1
   3  -6  -4 7.03150 8.88063   5
   3  -6  -4 4.71000 9.66379   2
   3  -6  -4 16.6254 10.4267   5
  -3   6   4 11.5401 8.67528   3
  -3   6   4 8.15654 6.87319   6
   2  -6  -4 184.510 17.9987   3
   2  -6  -4 168.678 13.9025   5
   2  -6  -4 153.399 52.5081   1
  -2   6   4 218.590 16.1907   4
  -2   6   4 191.127 14.7356   3
  -2   6   4 179.540 59.9689   1
   1  -6  -4 207.451 12.9696   5
   1  -6  -4 236.219 17.2898   4
   1  -6  -4 148.330 44.8769   1
   1  -6  -4 237.028 17.0260   2
   1  -6  -4 230.417 14.9409   3
  -1   6   4 204.737 14.5966   4
  -1   6   4 222.343 13.5316   3
  -1   6   4 203.249 12.6895   6
  -1   6   4 184.146 51.1698   1
   0  -6  -4 485.549 20.9946   2
   0  -6  -4 549.080 19.6302   3
   0  -6  -4 535.753 22.1242   4
   0  -6  -4 542.746 62.8224   1
   0  -6  -4 515.977 18.3296   5
   0   6   4 491.721 23.5938   2
   0   6   4 558.477 19.2992   6
   0   6   4 550.447 18.6328   3
   0   6   4 442.689 65.0332   1
   0   6   4 517.361 20.8846   4
  -1  -6  -4 825.355 63.8608   1
  -1  -6  -4 896.447 29.1673   4
  -1  -6  -4 909.178 25.2397   3
  -1  -6  -4 899.889 25.2538   5
  -1  -6  -4 865.078 29.4671   2
   1   6   4 888.278 24.5602   3
   1   6   4 937.576 30.5402   2
   1   6   4 921.481 26.5626   6
   1   6   4 859.425 68.5182   1
   1   6   4 927.997 24.9831   5
   1   6   4 859.564 28.3702   4
  -2  -6  -4 112.705 11.5518   4
  -2  -6  -4 110.673 7.35410   3
  -2  -6  -4 101.890 10.8596   2
  -2  -6  -4 110.643 8.07392   5
  -2  -6  -4 82.0842 26.9830   1
   2   6   4 106.213 10.4956   6
   2   6   4 112.927 10.0576   4
   2   6   4 101.363 30.1880   1
   2   6   4 113.270 6.51127   3
   2   6   4 97.8456 10.9071   2
   2   6   4 113.503 8.31181   5
  -3  -6  -4 1347.43 33.8532   5
  -3  -6  -4 1330.40 38.2841   2
  -3  -6  -4 1368.02 37.5724   4
  -3  -6  -4 1338.17 30.7786   3
  -3  -6  -4 1257.81 68.6282   1
   3   6   4 1354.71 71.0297   1
   3   6   4 1325.29 38.4194   2
   3   6   4 1375.08 34.3955   5
   3   6   4 1347.76 36.5055   6
   3   6   4 1346.11 37.1950   4
  -4  -6  -4 380.070 42.0560   1
  -4  -6  -4 284.472 15.3748   2
  -4  -6  -4 304.455 14.8791   4
  -4  -6  -4 292.258 11.9066   5
   4   6   4 302.893 13.3620   6
   4   6   4 252.428 34.0527   1
   4   6   4 288.986 13.7711   4
   4   6   4 296.315 13.3732   5
   4   6   4 295.150 16.0724   2
  -5  -6  -4 1173.09 31.0105   5
  -5  -6  -4 1170.60 32.7527   4
  -5  -6  -4 1101.61 61.6324   1
  -5  -6  -4 1121.51 34.5390   2
   5   6   4 1158.24 31.8940   5
   5   6   4 1090.93 60.8793   1
   5   6   4 1171.27 34.9512   2
   5   6   4 1159.53 32.8423   6
   5   6   4 1113.59 32.2096   4
  -6  -6  -4 1037.82 57.6010   1
  -6  -6  -4 1037.75 29.7174   5
  -6  -6  -4 1034.69 32.2743   2
   6   6   4 1047.58 30.0026   4
   6   6   4 1049.61 31.7946   6
   6   6   4 995.463 32.8813   2
   6   6   4 1008.06 57.1504   1
   6   6   4 1055.87 30.5082   5
  -7  -6  -4 66.1965 8.51903   5
  -7  -6  -4 59.5707 24.4857   1
   7   6   4 52.9406 9.40322   5
   7   6   4 61.3298 7.33071   4
   7   6   4 67.5365 11.3811   2
   7   6   4 67.4824 8.88485   6
   7   6   4 31.0138 22.1695   1
  -8  -6  -4 1040.11 31.8928   5
   8   6   4 1029.43 25.3417   3
   8   6   4 954.796 32.9190   5
   8   6   4 958.046 32.1345   6
   8   6   4 979.916 23.9241   3
   8   6   4 877.013 58.3456   1
   8   6   4 1034.27 28.5255   4
  -9  -6  -4 99.0207 11.5670   5
   9   6   4 93.3048 9.50426   4
   9   6   4 59.7961 8.67320   4
   9   6   4 65.0424 6.74168   3
  10   6   4 188.817 20.7068   3
  10   6   4 196.304 18.1873   6
  10   6   4 208.202 11.6130   4
  11   6   4 123.028 18.0569   2
  11   6   4 160.843 18.9329   6
  12   6   4 29.9365 15.8526   6
  12   6   4 37.9932 17.7053   2
  -5   7   4 -2.1312 17.2780   3
  -5   7   4 -30.833 16.4182   4
   4  -7  -4 43.6484 14.2206   5
   4  -7  -4 28.6527 16.1250   2
  -4   7   4 63.0000 13.8018   4
  -4   7   4 53.3381 14.1981   3
   3  -7  -4 7.96622 10.0727   5
   3  -7  -4 -0.0087 11.2770   2
  -3   7   4 7.23777 9.99284   3
  -3   7   4 -5.0512 9.36774   4
   2  -7  -4 49.8925 12.5043   2
   2  -7  -4 33.1067 9.28495   5
  -2   7   4 47.3089 11.0722   4
  -2   7   4 70.1276 10.6228   3
  -2   7   4 37.4545 10.3006   6
   1  -7  -4 24.4894 11.2628   3
   1  -7  -4 13.4674 6.75866   5
   1  -7  -4 5.11259 47.8920   1
   1  -7  -4 28.1666 9.48601   2
  -1   7   4 7.63368 6.60244   3
  -1   7   4 -0.6460 8.38342   6
  -1   7   4 11.8695 10.0777   4
  -1   7   4 1.77100 58.0315   1
   0  -7  -4 25.7703 6.27661   5
   0  -7  -4 33.7793 8.93715   2
   0  -7  -4 34.7531 8.84063   3
   0  -7  -4 -1.0999 40.6805   1
   0   7   4 24.9269 6.11838   3
   0   7   4 39.8661 8.86154   6
   0   7   4 8.37516 45.4609   1
   0   7   4 23.4900 8.09095   4
  -1  -7  -4 -0.0417 6.55149   2
  -1  -7  -4 -0.2058 9.19193   4
  -1  -7  -4 10.1127 34.6329   1
  -1  -7  -4 11.5867 6.22697   3
  -1  -7  -4 7.48447 4.86597   5
   1   7   4 8.55633 6.83351   4
   1   7   4 -11.744 37.9120   1
   1   7   4 -1.8732 7.27463   6
   1   7   4 -4.7241 10.0877   2
   1   7   4 12.8047 4.61749   3
  -2  -7  -4 137.887 34.3834   1
  -2  -7  -4 121.868 8.45970   5
  -2  -7  -4 113.348 12.6875   2
  -2  -7  -4 132.375 9.43894   3
  -2  -7  -4 143.692 14.6163   4
   2   7   4 121.138 8.98355   5
   2   7   4 115.557 11.7703   4
   2   7   4 131.622 8.00146   3
   2   7   4 118.440 13.1770   2
   2   7   4 143.020 39.8202   1
   2   7   4 130.295 12.1678   6
  -3  -7  -4 99.3830 11.2483   4
  -3  -7  -4 84.7906 30.5349   1
  -3  -7  -4 95.5996 7.49351   5
  -3  -7  -4 94.3227 6.69793   3
  -3  -7  -4 100.664 11.3952   2
   3   7   4 104.376 8.63157   5
   3   7   4 100.589 10.2581   6
   3   7   4 103.909 11.9351   2
   3   7   4 84.5539 5.62523   3
   3   7   4 112.634 10.7503   4
   3   7   4 25.3477 28.3287   1
  -4  -7  -4 418.738 19.7289   2
  -4  -7  -4 464.750 54.1215   1
  -4  -7  -4 448.380 19.9188   4
  -4  -7  -4 407.995 14.9143   5
   4   7   4 453.240 16.0830   5
   4   7   4 424.307 19.4727   2
   4   7   4 437.790 18.5840   4
   4   7   4 451.059 19.5487   6
   4   7   4 359.367 51.6948   1
   4   7   4 433.944 10.3036   3
  -5  -7  -4 309.368 17.0302   2
  -5  -7  -4 361.115 48.2244   1
  -5  -7  -4 297.594 12.9329   5
  -5  -7  -4 286.508 16.4022   4
   5   7   4 292.547 15.4650   6
   5   7   4 268.895 15.8723   2
   5   7   4 308.028 14.6390   5
   5   7   4 295.922 39.1172   1
   5   7   4 282.053 15.0697   4
   5   7   4 296.909 17.2054   6
  -6  -7  -4 19.4954 6.50146   2
  -6  -7  -4 8.82259 25.5172   1
  -6  -7  -4 34.7869 6.64570   5
   6   7   4 16.9670 8.67211   6
   6   7   4 44.0778 11.1050   2
   6   7   4 33.1340 8.05858   5
   6   7   4 32.8279 7.55433   6
   6   7   4 36.5455 7.15530   4
   6   7   4 38.3364 25.2821   1
  -7  -7  -4 700.108 23.9576   5
   7   7   4 722.474 25.8233   5
   7   7   4 722.651 26.7199   6
   7   7   4 702.683 53.4339   1
   7   7   4 680.588 23.8205   4
  -8  -7  -4 -2.8950 6.67840   5
   8   7   4 10.4925 6.49965   4
   8   7   4 2.81641 9.41422   5
  -9  -7  -4 342.065 19.2980   5
   9   7   4 360.524 20.8251   6
   9   7   4 348.272 14.0386   3
   9   7   4 343.242 11.3633   3
   9   7   4 328.999 16.2502   4
  10   7   4 151.739 17.4268   6
  10   7   4 147.837 10.7082   3
  10   7   4 149.172 13.4341   4
  11   7   4 12.7863 12.1458   6
  12   7   4 105.554 21.1643   2
  12   7   4 117.952 18.3428   6
  -4   8   4 71.2427 18.1612   4
  -4   8   4 52.2191 17.7780   3
   3  -8  -4 19.1644 16.0488   2
  -3   8   4 35.6278 12.8429   3
  -3   8   4 14.9321 12.7636   4
   2  -8  -4 142.723 15.9020   5
   2  -8  -4 133.850 17.8631   2
  -2   8   4 153.095 15.6818   3
  -2   8   4 161.832 19.2246   4
   1  -8  -4 18.4450 7.65189   5
   1  -8  -4 21.7934 11.8638   2
   1  -8  -4 60.1385 70.2426   1
  -1   8   4 22.6219 9.26073   3
  -1   8   4 18.0337 21.7548   6
  -1   8   4 19.0404 9.68564   4
   0  -8  -4 47.0252 7.31310   5
   0  -8  -4 56.5653 11.9323   3
   0  -8  -4 18.1934 54.8985   1
   0  -8  -4 56.5203 12.2090   2
   0   8   4 45.4480 8.39069   3
   0   8   4 53.2911 12.0508   6
   0   8   4 56.7311 10.8424   4
  -1  -8  -4 95.3523 13.3501   2
  -1  -8  -4 129.866 14.2047   3
  -1  -8  -4 15.1417 48.6431   1
  -1  -8  -4 97.8014 8.81442   5
   1   8   4 103.989 14.4084   4
   1   8   4 111.273 10.4608   3
   1   8   4 105.044 13.1646   6
   1   8   4 78.8323 51.9558   1
  -2  -8  -4 11.7436 8.37186   2
  -2  -8  -4 -23.955 40.1494   1
  -2  -8  -4 -0.2957 6.62959   3
  -2  -8  -4 8.03516 4.26749   5
   2   8   4 12.5862 4.74412   3
   2   8   4 5.88367 7.53270   4
   2   8   4 8.45557 9.17434   6
   2   8   4 12.2167 44.4244   1
  -3  -8  -4 66.9342 7.02386   5
  -3  -8  -4 64.0201 38.6953   1
  -3  -8  -4 57.1986 9.37564   2
  -3  -8  -4 49.1256 6.16361   3
   3   8   4 57.0205 10.5528   6
   3   8   4 47.9059 5.22015   3
   3   8   4 49.7888 8.42164   4
   3   8   4 60.4935 41.0101   1
   3   8   4 50.2429 6.12082   5
  -4  -8  -4 16.4678 8.35987   2
  -4  -8  -4 25.2459 4.84404   5
  -4  -8  -4 41.0663 35.6093   1
   4   8   4 15.1457 5.43485   5
   4   8   4 -8.4148 8.83449   6
   4   8   4 1.63498 34.4641   1
   4   8   4 12.7632 7.20682   4
  -5  -8  -4 -5.1793 4.36805   5
  -5  -8  -4 7.95592 7.79566   2
   5   8   4 -10.761 5.93521   4
   5   8   4 35.7906 32.4823   1
   5   8   4 -3.9078 5.96817   5
   5   8   4 10.2557 6.41008   6
  -6  -8  -4 3.33845 5.18790   5
  -6  -8  -4 1.40167 7.61934   2
   6   8   4 4.33275 6.34766   4
   6   8   4 4.28431 6.25331   6
   6   8   4 7.56253 7.44739   5
  -7  -8  -4 17.6153 6.51349   5
   7   8   4 -6.9853 8.07007   5
   7   8   4 9.39117 8.17830   6
   7   8   4 9.94068 7.20038   4
  -8  -8  -4 22.3556 7.36166   5
   8   8   4 5.82359 11.1498   5
   8   8   4 22.9540 8.82145   6
   8   8   4 23.3838 7.74954   4
  -9  -8  -4 20.3742 8.87155   5
   9   8   4 27.4128 8.74698   4
   9   8   4 -5.1866 9.59078   6
  10   8   4 14.9491 10.2153   6
  10   8   4 -3.4694 8.64420   4
  11   8   4 61.2903 17.9531   4
  11   8   4 45.2259 14.4206   6
  12   8   4 36.7470 17.4065   6
  12   8   4 16.8404 20.5457   2
  -3   9   4 79.4525 19.9634   4
  -3   9   4 44.6875 18.6056   3
   2  -9  -4 -15.633 17.0105   2
  -2   9   4 21.8041 14.4969   4
  -2   9   4 43.8430 13.5037   3
   1  -9  -4 146.608 18.9264   2
  -1   9   4 120.770 14.9923   3
  -1   9   4 95.6852 15.7647   4
   0  -9  -4 182.740 21.9350   2
   0  -9  -4 187.156 14.3161   5
   0   9   4 209.224 17.2986   3
   0   9   4 223.004 19.8053   4
  -1  -9  -4 3.78695 11.0211   2
  -1  -9  -4 12.5593 4.50689   5
  -1  -9  -4 21.9478 12.0570   3
   1   9   4 14.1995 10.1223   4
   1   9   4 18.4259 7.83511   3
  -2  -9  -4 387.032 23.3945   2
  -2  -9  -4 356.005 19.5894   3
  -2  -9  -4 384.523 12.5189   5
   2   9   4 370.665 16.3109   3
   2   9   4 400.138 21.9826   4
  -3  -9  -4 50.3318 11.4651   2
  -3  -9  -4 72.7448 7.04868   5
   3   9   4 75.5676 8.82844   3
   3   9   4 52.7608 10.9599   4
  -4  -9  -4 161.388 17.3032   2
  -4  -9  -4 159.843 9.44564   5
   4   9   4 162.580 15.2157   4
   4   9   4 161.542 8.38602   3
   4   9   4 171.042 10.7935   5
  -5  -9  -4 216.384 11.2364   5
  -5  -9  -4 200.672 15.9081   2
   5   9   4 223.828 16.5463   4
  -6  -9  -4 14.6702 9.79234   2
  -6  -9  -4 16.9382 6.08615   5
   6   9   4 9.16652 9.92385   4
   6   9   4 5.88207 7.49868   6
   6   9   4 16.9728 8.25030   5
  -7  -9  -4 184.610 12.9110   5
  -7  -9  -4 192.020 18.5615   2
   7   9   4 152.338 17.9622   4
   7   9   4 174.722 16.3761   6
   7   9   4 155.383 16.5453   5
  -8  -9  -4 4.14645 7.74687   5
   8   9   4 17.0978 10.3441   6
   8   9   4 4.19724 9.73271   4
   8   9   4 4.75968 12.4907   5
   9   9   4 18.9602 10.3514   6
   9   9   4 36.5682 12.4579   4
  10   9   4 10.9371 13.0111   4
  10   9   4 -18.188 11.9471   6
  11   9   4 -13.267 14.5436   6
  11   9   4 4.66798 15.1538   4
   1 -10  -4 63.2986 20.9467   2
  -1  10   4 78.3885 18.5699   4
  -1  10   4 87.4860 16.3454   3
   0 -10  -4 -12.509 14.2446   2
   0  10   4 0.36051 11.2436   3
   0  10   4 27.6304 14.0915   4
  -1 -10  -4 218.350 23.6866   2
   1  10   4 229.167 18.5106   3
   1  10   4 208.851 22.1458   4
  -2 -10  -4 15.2038 12.4046   2
   2  10   4 22.2597 8.45910   3
   2  10   4 7.12894 11.5060   4
  -3 -10  -4 178.703 20.7884   2
   3  10   4 200.837 13.2993   3
   3  10   4 211.318 19.3946   4
  -4 -10  -4 246.726 22.3010   2
   4  10   4 248.248 20.5415   4
   4  10   4 238.518 11.6454   3
  -5 -10  -4 26.0909 11.8601   2
   5  10   4 17.8687 10.3634   4
  -6 -10  -4 496.741 27.7643   2
   6  10   4 513.961 25.7747   4
   6  10   4 511.703 26.2336   6
  -7 -10  -4 26.4579 12.9175   2
   7  10   4 39.1716 11.5902   6
   7  10   4 38.1191 11.7531   4
   8  10   4 141.009 16.6346   6
   8  10   4 210.684 19.6078   4
   9  10   4 136.270 16.0921   4
   9  10   4 117.231 17.2255   6
  10  10   4 12.7638 13.6704   4
  10  10   4 13.4738 15.0900   6
  11  10   4 66.3725 20.1951   6
  11  10   4 92.4951 21.4625   4
   0  11   4 72.0968 25.2530   3
  -1 -11  -4 21.4441 18.4851   2
   1  11   4 20.8661 16.2126   4
   1  11   4 30.0767 15.3486   3
  -2 -11  -4 77.6982 18.8899   2
   2  11   4 110.209 15.7515   3
   2  11   4 74.1235 17.1105   4
  -3 -11  -4 98.4923 19.2846   2
   3  11   4 127.578 17.9755   4
  -4 -11  -4 61.7256 15.1193   2
   4  11   4 57.2787 14.9528   4
  -5 -11  -4 236.690 24.4991   2
   5  11   4 265.573 23.7593   4
  -6 -11  -4 -5.2744 12.3358   2
   6  11   4 -19.704 11.9293   4
   6  11   4 6.66856 12.6694   6
  -7 -11  -4 149.357 18.8807   2
   7  11   4 157.860 18.1220   6
   7  11   4 171.765 18.7244   4
   8  11   4 106.819 17.6841   6
   8  11   4 109.863 17.1919   4
   9  11   4 40.9762 17.0485   6
   9  11   4 46.5227 15.0649   4
  10  11   4 146.535 20.9239   4
  -3 -12  -4 -11.779 22.8127   2
  -4 -12  -4 -23.433 18.0373   2
   4  12   4 31.5929 18.5032   4
  -5 -12  -4 -1.7324 17.8200   2
   5  12   4 15.3881 16.0644   4
  -6 -12  -4 35.3166 17.7759   2
   6  12   4 25.6283 17.6090   4
   6  12   4 18.5440 16.8258   6
  -7 -12  -4 51.0236 19.8271   2
   7  12   4 49.9526 18.6216   4
   7  12   4 38.9969 17.7937   6
   8  12   4 37.7598 18.7233   4
   6  11  -5 10.2318 18.2684   3
   6  11  -5 18.5859 20.2156   4
   5  11  -5 166.067 22.3346   4
   5  11  -5 130.913 19.8827   3
   4  11  -5 29.7643 16.2587   3
   4  11  -5 65.7803 18.0214   4
   3  11  -5 54.2937 17.3402   4
   3  11  -5 52.7083 16.6032   3
  -3 -11   5 94.5793 18.1451   6
   2  11  -5 119.634 19.2657   4
   2  11  -5 104.896 17.9520   3
  -2 -11   5 121.095 18.3472   6
   1  11  -5 3.21016 15.3153   4
   1  11  -5 17.3299 15.7213   3
  -1 -11   5 -5.7099 15.6359   6
   0  11  -5 150.699 20.5202   4
   0  11  -5 142.411 20.8862   3
   0 -11   5 84.9050 19.7998   6
  -1  11  -5 0.04035 20.1018   3
  -1  11  -5 12.0514 19.3514   4
   7  10  -5 -19.684 15.6825   3
   6  10  -5 44.5029 15.4093   3
   5  10  -5 17.1048 13.4658   3
   5  10  -5 11.8623 13.5513   4
   4  10  -5 33.1931 13.2999   3
   4  10  -5 42.7774 13.2588   4
   3  10  -5 56.1202 13.6328   4
   3  10  -5 45.5709 13.9256   3
  -3 -10   5 56.9431 13.9939   6
   2  10  -5 2.74250 12.1522   3
   2  10  -5 11.4091 11.8900   4
  -2 -10   5 4.00469 8.34417   2
  -2 -10   5 29.1166 12.9840   6
   1  10  -5 109.317 16.2128   4
   1  10  -5 89.9418 15.4802   3
  -1 -10   5 101.852 11.8248   2
  -1 -10   5 102.793 15.5097   6
   0  10  -5 23.7675 13.4920   3
   0  10  -5 53.3531 13.6481   4
   0 -10   5 23.2207 10.7386   2
   0 -10   5 1.18502 12.0760   6
  -1  10  -5 37.5298 15.0255   3
  -1  10  -5 30.5843 13.7214   4
   1 -10   5 35.7678 12.7651   2
   1 -10   5 25.2927 14.4989   6
  -2  10  -5 82.1387 17.9007   4
  -2  10  -5 56.3751 17.8450   3
   2 -10   5 52.6220 17.8500   6
   2 -10   5 64.5890 15.3844   2
  -3  10  -5 29.2357 15.9583   4
   3 -10   5 5.09610 17.8325   6
   3 -10   5 11.2107 17.7220   2
   8   9  -5 3.01244 14.7547   5
   8   9  -5 -3.1957 16.9028   3
   7   9  -5 -2.1505 12.6440   5
   7   9  -5 25.2761 14.7782   3
   6   9  -5 -11.400 11.4282   3
   6   9  -5 7.43081 9.81869   5
   6   9  -5 2.63799 8.48203   2
   5   9  -5 6.35961 8.20923   5
   5   9  -5 -10.693 10.5124   3
   4   9  -5 8.24514 6.28888   5
   4   9  -5 21.2045 11.2451   3
  -4  -9   5 14.7195 10.1458   6
   3   9  -5 1.70297 4.25116   5
   3   9  -5 4.04427 4.87136   5
   3   9  -5 7.33551 10.1186   3
  -3  -9   5 16.2317 9.79772   6
   2   9  -5 13.3527 10.6093   4
   2   9  -5 33.7123 11.6430   3
   2   9  -5 29.3937 8.46345   2
  -2  -9   5 29.1412 7.03347   2
  -2  -9   5 32.6492 9.94796   6
   1   9  -5 5.65142 9.55129   4
   1   9  -5 13.0398 8.91997   2
   1   9  -5 11.0401 10.7034   3
  -1  -9   5 -2.7362 6.48161   2
  -1  -9   5 10.1087 9.86444   6
   0   9  -5 30.9442 17.2689   2
   0   9  -5 9.91153 10.5775   3
   0   9  -5 17.5009 10.1653   4
   0  -9   5 36.1199 11.8689   6
   0  -9   5 30.8484 8.43107   2
  -1   9  -5 58.9421 12.5240   4
  -1   9  -5 70.7455 13.3563   3
   1  -9   5 90.5663 14.2954   6
   1  -9   5 75.8800 11.0442   2
  -2   9  -5 10.3485 12.2245   3
  -2   9  -5 -1.7158 10.6498   4
   2  -9   5 1.35824 10.3444   2
   2  -9   5 -1.6411 10.9890   6
  -3   9  -5 23.6578 12.8233   4
  -3   9  -5 37.1924 15.0117   3
   3  -9   5 35.4885 14.8084   6
   3  -9   5 27.8866 12.5952   2
  -4   9  -5 9.87573 14.1801   4
  -4   9  -5 10.2873 16.8195   3
   4  -9   5 -32.619 15.0343   6
   4  -9   5 40.1726 15.5953   2
   9   8  -5 45.2061 19.6741   3
   9   8  -5 16.8141 17.6724   5
   8   8  -5 200.411 23.5285   5
   8   8  -5 206.768 21.2913   3
   7   8  -5 4.00393 11.4629   5
   7   8  -5 8.90902 12.9144   3
   7   8  -5 -4.8550 8.83220   2
   6   8  -5 280.203 18.4479   5
   6   8  -5 262.381 21.3677   3
   6   8  -5 274.037 15.8087   2
   6   8  -5 209.770 23.2075   5
   5   8  -5 86.2627 12.2746   5
   5   8  -5 67.6899 7.91365   2
   5   8  -5 52.9763 12.1430   3
   5   8  -5 69.2040 9.51231   5
   4   8  -5 81.4402 12.3283   3
   4   8  -5 74.7515 9.57170   5
   4   8  -5 94.9961 10.1759   2
   4   8  -5 78.0004 8.82277   5
  -4  -8   5 31.6338 29.0901   1
   3   8  -5 120.730 10.3120   5
   3   8  -5 124.413 10.2359   2
   3   8  -5 120.630 10.0826   5
   2   8  -5 26.2325 4.45900   5
   2   8  -5 23.3729 6.11571   2
   1   8  -5 57.5829 7.48598   2
   1   8  -5 66.1128 6.35178   5
  -1  -8   5 88.9434 9.02705   2
  -1  -8   5 86.2840 12.1544   6
   0   8  -5 -7.3942 6.68236   2
   0   8  -5 0.23290 8.81898   3
   0  -8   5 1.75361 5.52399   2
   0  -8   5 -0.5220 8.38593   6
  -1   8  -5 36.5094 9.64673   2
  -1   8  -5 47.4007 10.8630   3
   1  -8   5 55.2501 8.57667   2
   1  -8   5 38.5979 11.1656   6
  -2   8  -5 0.97819 11.1816   2
  -2   8  -5 -5.7822 9.24438   3
   2  -8   5 5.80419 10.2209   6
   2  -8   5 2.63465 7.86404   2
  -3   8  -5 19.0938 11.8020   3
   3  -8   5 32.7801 10.6631   2
   3  -8   5 20.6470 10.8228   6
  -4   8  -5 2.14227 12.1139   3
   4  -8   5 -7.8126 11.9783   6
   4  -8   5 -23.088 10.5862   2
  -5   8  -5 8.98474 15.1817   3
  -5   8  -5 21.7511 16.8693   4
   5  -8   5 13.8913 14.5343   6
   5  -8   5 12.7432 15.6020   2
   6  -8   5 41.3036 18.6679   6
   6  -8   5 -2.6458 19.2548   2
   9   7  -5 148.893 21.5362   3
   9   7  -5 156.110 20.4355   5
   8   7  -5 3.64709 13.8328   3
   8   7  -5 16.4170 10.9444   2
   8   7  -5 -1.2310 12.9922   5
   7   7  -5 547.945 26.6313   5
   7   7  -5 506.888 27.5763   3
   6   7  -5 39.3275 9.48333   5
   6   7  -5 54.6332 11.5058   3
   6   7  -5 29.9068 13.0846   6
   6   7  -5 34.4792 8.91472   2
   6   7  -5 39.9833 7.80298   2
   5   7  -5 365.573 14.3912   2
   5   7  -5 367.384 20.4260   5
   5   7  -5 371.535 18.1667   5
   5   7  -5 354.450 21.4030   6
   5   7  -5 302.445 21.7060   3
   5   7  -5 367.969 14.8670   2
   4   7  -5 644.981 26.8038   3
   4   7  -5 671.104 22.4137   5
   4   7  -5 612.686 27.1800   6
   4   7  -5 663.769 19.1178   2
   4   7  -5 650.170 19.1972   2
  -4  -7   5 672.599 25.1896   6
  -4  -7   5 687.152 47.2492   1
   3   7  -5 104.341 12.3036   3
   3   7  -5 110.009 27.5874   1
   3   7  -5 157.805 17.2075   6
   3   7  -5 104.686 7.76571   2
   3   7  -5 113.722 10.1029   5
  -3  -7   5 122.393 49.1613   1
  -3  -7   5 113.766 12.3253   6
   2   7  -5 684.203 27.7820   6
   2   7  -5 710.228 27.3579   3
   2   7  -5 715.003 19.4194   2
   2   7  -5 705.737 21.1207   5
   2   7  -5 749.631 58.4005   1
  -2  -7   5 721.578 62.1277   1
  -2  -7   5 743.806 26.6322   6
   1   7  -5 21.2102 10.0341   6
   1   7  -5 28.7392 9.08465   3
   1   7  -5 -11.391 29.1344   1
   1   7  -5 44.4169 5.38348   2
   1   7  -5 26.0904 10.1545   4
   1   7  -5 38.4138 4.85865   5
  -1  -7   5 21.6523 31.8266   1
  -1  -7   5 38.6498 4.73637   2
  -1  -7   5 45.1134 9.19123   6
   0   7  -5 336.031 18.9172   3
   0   7  -5 327.209 10.7182   5
   0   7  -5 322.408 19.2081   4
   0   7  -5 193.717 42.2436   1
   0   7  -5 321.178 13.1913   2
   0  -7   5 356.936 13.3406   2
   0  -7   5 300.230 18.3452   6
  -1   7  -5 122.107 11.4475   2
  -1   7  -5 118.435 14.3186   3
  -1   7  -5 112.783 12.7746   4
  -1   7  -5 61.3293 41.4499   1
  -1   7  -5 150.516 17.1812   4
  -1   7  -5 129.756 6.91947   5
   1  -7   5 142.408 10.5516   2
   1  -7   5 127.118 7.82071   5
   1  -7   5 157.003 14.6659   6
  -2   7  -5 122.426 7.16585   5
  -2   7  -5 120.040 13.0831   4
  -2   7  -5 140.671 13.4999   2
  -2   7  -5 152.436 16.9329   4
  -2   7  -5 129.098 16.2156   3
   2  -7   5 118.619 11.9467   2
   2  -7   5 110.768 19.0866   6
   2  -7   5 114.198 8.55372   5
  -3   7  -5 156.739 14.5948   4
  -3   7  -5 170.059 16.9306   2
  -3   7  -5 142.320 16.4392   3
  -3   7  -5 168.373 19.2556   4
   3  -7   5 143.466 11.1637   5
   3  -7   5 160.586 14.1151   2
   3  -7   5 148.173 17.1159   6
  -4   7  -5 22.1442 11.0240   3
  -4   7  -5 30.8461 9.37720   4
  -4   7  -5 26.3534 13.0077   4
   4  -7   5 40.9361 10.6663   2
   4  -7   5 44.1852 11.8593   6
  -5   7  -5 24.8777 13.3654   3
  -5   7  -5 36.4479 10.0813   4
   5  -7   5 64.7894 13.8279   6
   5  -7   5 52.0215 13.8302   2
  -6   7  -5 30.1344 14.7769   3
   6  -7   5 39.7815 16.0130   2
   6  -7   5 9.00487 13.8846   6
   7  -7   5 42.5526 19.3067   2
   7  -7   5 9.53902 17.0901   6
   9   6  -5 20.0242 13.9626   2
   9   6  -5 19.0748 15.6511   5
   8   6  -5 210.739 18.8010   2
   8   6  -5 216.188 16.5072   6
   8   6  -5 180.904 20.3392   5
   7   6  -5 0.27547 12.0688   6
   7   6  -5 14.7670 9.63329   5
   7   6  -5 6.04352 7.63141   2
   7   6  -5 21.9193 16.6656   2
   6   6  -5 372.259 16.2726   2
   6   6  -5 337.347 19.8510   6
   6   6  -5 376.881 17.9568   2
   6   6  -5 380.524 19.7587   5
   6   6  -5 385.845 22.0956   3
   5   6  -5 508.957 20.5196   5
   5   6  -5 519.860 17.4857   2
   5   6  -5 482.723 16.6555   2
   5   6  -5 470.561 21.3540   6
   5   6  -5 492.542 23.4356   3
   4   6  -5 157.563 13.8342   3
   4   6  -5 168.196 19.8355   4
   4   6  -5 186.172 11.9219   5
   4   6  -5 170.044 8.83090   2
   4   6  -5 159.594 21.9211   1
   4   6  -5 166.003 8.47584   2
   4   6  -5 168.520 15.1053   6
  -4  -6   5 159.705 23.4467   1
  -4  -6   5 167.705 12.2793   6
   3   6  -5 923.931 32.5687   4
   3   6  -5 1049.93 24.6444   2
   3   6  -5 1010.76 31.5830   6
   3   6  -5 954.841 31.5006   3
   3   6  -5 982.574 24.0684   2
   3   6  -5 1010.01 52.8041   1
   3   6  -5 995.780 28.5179   5
  -3  -6   5 918.749 55.7742   1
  -3  -6   5 1006.35 30.6467   6
   2   6  -5 100.516 10.7463   6
   2   6  -5 89.9637 10.5799   3
   2   6  -5 98.6922 8.99608   5
   2   6  -5 92.9327 5.63848   2
   2   6  -5 86.9905 25.0883   1
   2   6  -5 91.5510 11.1659   4
  -2  -6   5 84.0164 9.51135   6
  -2  -6   5 53.7390 25.5467   1
   1   6  -5 1056.18 27.6337   5
   1   6  -5 1036.98 25.0042   2
   1   6  -5 1039.39 32.6575   6
   1   6  -5 995.660 61.6824   1
   1   6  -5 1036.20 32.9824   4
   1   6  -5 1065.26 33.3742   3
  -1  -6   5 1066.31 32.6397   6
  -1  -6   5 1030.45 25.1532   2
  -1  -6   5 1022.40 65.1121   1
   0   6  -5 919.106 29.8419   4
   0   6  -5 887.639 23.0963   2
   0   6  -5 935.967 30.2912   6
   0   6  -5 899.230 23.7097   5
   0   6  -5 903.665 30.3341   3
   0   6  -5 699.579 91.5134   1
   0  -6   5 904.954 30.5974   3
   0  -6   5 874.865 23.8930   5
   0  -6   5 886.825 29.7812   6
   0  -6   5 902.438 23.1567   2
  -1   6  -5 406.484 13.1706   5
  -1   6  -5 388.411 20.7726   6
  -1   6  -5 404.588 18.4736   3
  -1   6  -5 393.460 18.9302   4
  -1   6  -5 490.672 58.9643   1
  -1   6  -5 386.864 14.3005   2
   1  -6   5 404.659 51.6458   1
   1  -6   5 394.385 13.8514   5
   1  -6   5 399.986 20.7441   3
   1  -6   5 414.599 19.5238   6
   1  -6   5 394.112 14.1090   2
  -2   6  -5 720.893 20.2053   5
  -2   6  -5 684.979 69.4765   1
  -2   6  -5 729.853 29.0067   6
  -2   6  -5 765.531 27.3695   3
  -2   6  -5 741.699 22.7539   2
  -2   6  -5 709.988 26.4235   4
   2  -6   5 644.729 80.1950   1
   2  -6   5 701.154 27.1260   6
   2  -6   5 720.368 22.6636   2
   2  -6   5 719.357 20.9391   5
   2  -6   5 654.871 28.6143   3
  -3   6  -5 6.96514 7.39683   2
  -3   6  -5 53.4515 40.9304   1
  -3   6  -5 0.04183 4.34973   5
  -3   6  -5 -1.3522 6.96828   3
  -3   6  -5 10.2374 6.57264   4
  -3   6  -5 4.42342 8.34142   4
   3  -6   5 10.7615 7.90928   6
   3  -6   5 4.00225 6.11682   5
   3  -6   5 6.65193 6.27818   2
   3  -6   5 46.7734 48.4136   1
  -4   6  -5 318.389 18.6181   4
  -4   6  -5 310.891 19.9209   3
  -4   6  -5 318.348 16.3002   4
  -4   6  -5 328.881 20.0626   2
   4  -6   5 354.208 19.1371   2
   4  -6   5 275.361 28.5735   6
   4  -6   5 353.868 17.1916   5
  -5   6  -5 48.1823 12.0466   3
  -5   6  -5 38.7211 8.12159   4
  -5   6  -5 40.8877 11.1219   4
   5  -6   5 50.4586 12.1607   6
   5  -6   5 61.1900 12.2619   5
   5  -6   5 51.1822 11.4641   2
  -6   6  -5 82.2713 9.30830   4
  -6   6  -5 72.3431 14.4481   3
   6  -6   5 97.2081 14.9282   2
   6  -6   5 86.9187 14.3022   6
  -7   6  -5 127.903 18.6339   3
   7  -6   5 116.792 18.3020   2
   7  -6   5 107.719 16.8485   6
   8  -6   5 -23.329 19.9470   2
   8  -6   5 24.3744 17.8415   6
   9   5  -5 9.08653 14.3171   5
   9   5  -5 21.5590 14.4936   2
   8   5  -5 6.08408 7.33936   6
   8   5  -5 17.4581 11.2985   5
   8   5  -5 -0.7817 9.99100   2
   7   5  -5 35.5673 8.63993   2
   7   5  -5 35.4860 8.70113   6
   7   5  -5 22.7879 6.75146   6
   7   5  -5 3.91519 10.9532   2
   7   5  -5 31.0634 10.4736   5
   6   5  -5 33.8459 8.56701   2
   6   5  -5 37.4447 7.04120   2
   6   5  -5 17.3396 7.96818   5
   6   5  -5 27.9141 8.08265   6
   5   5  -5 65.9956 7.96514   2
   5   5  -5 69.1270 15.2490   1
   5   5  -5 84.4176 7.98946   2
   5   5  -5 63.2085 8.51834   6
   5   5  -5 51.5736 12.2099   4
   5   5  -5 64.3560 9.12615   5
  -5  -5   5 97.0241 16.4718   1
   4   5  -5 392.138 12.7614   2
   4   5  -5 324.594 32.8214   1
   4   5  -5 385.535 17.0172   6
   4   5  -5 363.691 19.8842   3
   4   5  -5 398.856 12.6598   2
   4   5  -5 361.037 16.7187   5
   4   5  -5 383.463 18.5466   3
   4   5  -5 352.833 19.4067   4
  -4  -5   5 372.982 34.9738   1
  -4  -5   5 385.829 15.7635   6
   3   5  -5 5.60394 17.2167   1
   3   5  -5 1.01500 4.61974   5
   3   5  -5 1.85253 5.71389   6
   3   5  -5 11.6875 7.31281   4
   3   5  -5 0.16123 2.42514   2
   3   5  -5 -0.6405 5.48005   3
  -3  -5   5 14.5655 18.3537   1
  -3  -5   5 -8.0555 4.14433   6
   2   5  -5 903.565 50.4036   1
   2   5  -5 844.894 28.4388   3
   2   5  -5 888.470 28.2793   4
   2   5  -5 887.728 20.0317   2
   2   5  -5 946.961 28.1015   6
   2   5  -5 892.372 25.6576   5
   2   5  -5 889.849 20.0690   2
  -2  -5   5 884.179 27.2817   6
  -2  -5   5 944.749 53.5160   1
   1   5  -5 358.674 40.9885   1
   1   5  -5 405.969 14.6720   5
   1   5  -5 425.280 17.6252   6
   1   5  -5 394.133 9.60350   2
   1   5  -5 373.071 17.4745   3
   1   5  -5 425.040 18.0053   4
  -1  -5   5 379.631 41.5229   1
  -1  -5   5 411.210 14.6817   5
  -1  -5   5 378.197 16.4977   6
   0   5  -5 307.639 15.9347   6
   0   5  -5 320.247 9.49204   2
   0   5  -5 321.789 12.3385   5
   0   5  -5 339.525 16.5022   3
   0   5  -5 308.677 15.2757   4
   0  -5   5 330.816 15.6298   6
   0  -5   5 329.940 12.7122   5
  -1   5  -5 761.135 25.6358   6
  -1   5  -5 773.203 25.1587   4
  -1   5  -5 764.293 26.5961   3
  -1   5  -5 812.481 21.7359   5
  -1   5  -5 760.919 20.4998   2
  -1   5  -5 736.553 56.6752   1
   1  -5   5 748.475 61.5705   1
   1  -5   5 773.155 26.3293   6
   1  -5   5 805.241 22.0812   5
   1  -5   5 812.591 27.0556   3
   1  -5   5 770.400 20.6091   2
  -2   5  -5 -0.5944 26.7850   1
  -2   5  -5 11.3188 4.07499   5
  -2   5  -5 10.6195 5.37758   3
  -2   5  -5 13.1161 6.40854   4
  -2   5  -5 16.4987 4.67804   2
  -2   5  -5 -1.4763 7.63968   6
   2  -5   5 12.8436 6.40843   6
   2  -5   5 15.8188 8.05810   3
   2  -5   5 37.6270 31.9201   1
   2  -5   5 12.6492 4.62856   2
   2  -5   5 15.2409 5.18213   5
  -3   5  -5 679.551 20.9558   5
  -3   5  -5 701.426 25.9357   6
  -3   5  -5 706.968 22.9692   4
  -3   5  -5 699.853 23.8320   4
  -3   5  -5 680.480 67.8854   1
  -3   5  -5 709.882 26.2736   3
  -3   5  -5 755.151 23.2682   2
   3  -5   5 659.819 74.4091   1
   3  -5   5 711.381 27.3936   3
   3  -5   5 726.377 23.0022   2
   3  -5   5 712.173 26.3961   6
  -4   5  -5 262.743 51.1377   1
  -4   5  -5 232.074 13.7793   4
  -4   5  -5 242.303 16.4605   3
  -4   5  -5 218.257 14.8733   2
  -4   5  -5 243.016 12.6850   4
  -4   5  -5 246.098 12.2661   5
  -4   5  -5 232.628 22.2573   6
   4  -5   5 216.456 14.1243   5
   4  -5   5 268.508 15.7265   2
   4  -5   5 236.697 54.6622   1
   4  -5   5 235.456 16.4904   6
  -5   5  -5 117.512 10.6269   4
  -5   5  -5 123.147 50.3148   1
  -5   5  -5 131.534 12.9405   4
  -5   5  -5 131.059 11.6581   5
  -5   5  -5 137.864 15.4329   3
   5  -5   5 112.647 12.4164   2
   5  -5   5 94.1812 59.8013   1
   5  -5   5 106.186 12.8903   6
   5  -5   5 122.133 12.1467   5
  -6   5  -5 261.213 19.9178   3
  -6   5  -5 256.622 12.7615   4
   6  -5   5 233.098 20.6723   5
   6  -5   5 233.270 20.5616   6
   6  -5   5 237.590 23.9291   2
  -7   5  -5 -5.8408 10.5742   3
   7  -5   5 6.65546 12.9269   2
   7  -5   5 7.84777 11.3182   6
  -8   5  -5 89.4218 17.2534   3
   8  -5   5 67.4168 16.2401   6
   8  -5   5 72.0048 17.6499   2
   9   4  -5 20.2663 15.3486   5
   9   4  -5 0.25522 14.6475   2
   8   4  -5 84.2485 12.6176   2
   8   4  -5 67.5762 13.8961   5
   7   4  -5 15.6803 18.0536   1
   7   4  -5 31.8105 4.99101   6
   7   4  -5 41.4459 11.1192   5
   7   4  -5 24.7396 6.01013   6
   7   4  -5 30.9228 9.23291   2
   6   4  -5 32.0945 7.16441   2
   6   4  -5 11.3852 18.0570   1
   6   4  -5 39.8086 6.32393   6
   6   4  -5 -4.2527 11.3254   4
   6   4  -5 19.5073 8.52465   2
   6   4  -5 36.2106 8.88613   5
   5   4  -5 53.6342 19.2857   1
   5   4  -5 54.1706 10.2644   3
   5   4  -5 62.2568 6.92533   2
   5   4  -5 69.2685 10.9367   4
   5   4  -5 41.7934 8.47333   5
   5   4  -5 55.2391 7.32792   6
  -5  -4   5 53.4376 9.08225   4
  -5  -4   5 42.2635 18.7004   1
   4   4  -5 16.1903 4.28500   2
   4   4  -5 13.2783 3.95963   2
   4   4  -5 11.3296 7.91037   3
   4   4  -5 30.0907 17.1943   1
   4   4  -5 9.70410 7.95608   4
   4   4  -5 12.8053 5.76588   5
  -4  -4   5 12.8650 6.47347   4
  -4  -4   5 17.8274 17.0764   1
   3   4  -5 3.66056 5.99163   4
   3   4  -5 -0.4049 6.54636   3
   3   4  -5 5.23223 2.52959   2
   3   4  -5 14.2812 15.6579   1
   3   4  -5 1.61155 4.70101   6
   3   4  -5 2.32244 4.44269   5
   3   4  -5 6.44037 5.67674   3
  -3  -4   5 11.6096 16.0305   1
  -3  -4   5 -0.7050 4.82573   4
  -3  -4   5 2.84719 3.79004   6
   2   4  -5 0.95175 4.60698   6
   2   4  -5 5.32758 4.46454   5
   2   4  -5 2.54605 4.72333   3
   2   4  -5 14.4608 15.8137   1
   2   4  -5 6.17451 5.96582   4
  -2  -4   5 17.0532 17.4370   1
  -2  -4   5 13.0620 4.60466   6
  -2  -4   5 4.45446 5.18691   4
   1   4  -5 11.6468 4.63274   5
   1   4  -5 12.0260 4.71681   4
   1   4  -5 7.10863 5.23163   3
   1   4  -5 11.3965 17.1461   1
   1   4  -5 7.87920 4.81718   6
  -1  -4   5 5.58265 4.32336   5
  -1  -4   5 13.4568 4.61373   6
  -1  -4   5 17.1423 17.8482   1
   0   4  -5 172.781 11.0003   4
   0   4  -5 151.580 10.8025   6
   0   4  -5 119.108 24.9581   1
   0   4  -5 153.180 10.9875   3
   0   4  -5 179.393 9.72274   5
   0  -4   5 170.120 10.6077   6
   0  -4   5 166.893 9.36054   5
   0  -4   5 149.832 26.6565   1
  -1   4  -5 6.43083 5.54619   3
  -1   4  -5 2.79916 3.39818   5
  -1   4  -5 12.2977 5.23337   4
  -1   4  -5 4.23332 5.53373   6
  -1   4  -5 -4.5429 19.1348   1
   1  -4   5 1.33608 4.71181   6
   1  -4   5 -14.793 19.8334   1
   1  -4   5 6.88739 4.46728   3
   1  -4   5 7.65703 4.30051   5
  -2   4  -5 250.495 12.6848   4
  -2   4  -5 229.070 13.2668   3
  -2   4  -5 223.346 10.3234   5
  -2   4  -5 224.711 33.8472   1
  -2   4  -5 232.734 14.1125   6
   2  -4   5 175.618 34.3778   1
   2  -4   5 243.510 11.6486   5
   2  -4   5 244.594 10.0351   2
   2  -4   5 229.915 13.3011   6
   2  -4   5 246.693 14.3099   3
  -3   4  -5 454.798 15.7868   5
  -3   4  -5 378.506 52.3601   1
  -3   4  -5 470.227 17.0861   4
  -3   4  -5 447.750 18.6970   3
  -3   4  -5 439.248 19.6203   6
   3  -4   5 477.734 58.2267   1
   3  -4   5 432.844 19.4397   3
   3  -4   5 461.650 16.4636   2
   3  -4   5 460.871 19.3147   6
  -4   4  -5 58.5667 6.94979   5
  -4   4  -5 69.1667 7.64689   4
  -4   4  -5 56.5948 34.9847   1
  -4   4  -5 67.1981 9.22503   3
  -4   4  -5 75.9726 10.4355   6
   4  -4   5 73.2886 11.1273   3
   4  -4   5 78.4156 8.57216   5
   4  -4   5 83.7562 9.87670   6
   4  -4   5 50.7597 38.8110   1
   4  -4   5 69.4567 8.43058   2
  -5   4  -5 340.549 21.0093   6
  -5   4  -5 434.512 57.1675   1
  -5   4  -5 400.316 19.7188   3
  -5   4  -5 391.927 16.6905   5
  -5   4  -5 376.569 15.0346   4
  -5   4  -5 389.942 14.1906   4
   5  -4   5 375.886 19.1148   6
   5  -4   5 244.349 56.6153   1
   5  -4   5 366.037 18.0686   5
   5  -4   5 362.744 18.2341   2
  -6   4  -5 -0.6748 3.87886   4
  -6   4  -5 -0.1714 5.36371   4
  -6   4  -5 3.16319 9.46011   3
  -6   4  -5 -0.0271 6.71306   5
  -6   4  -5 -8.5160 47.1292   1
   6  -4   5 2.56034 8.64167   2
   6  -4   5 -6.4367 7.95040   6
   6  -4   5 -6.2995 9.24491   5
   6  -4   5 22.9087 59.4907   1
  -7   4  -5 205.419 18.8118   3
   7  -4   5 191.776 19.1183   6
   7  -4   5 168.633 18.9992   2
   7  -4   5 160.980 80.2290   1
  -8   4  -5 65.8536 13.1951   3
   8  -4   5 49.0297 12.7850   6
   8  -4   5 46.8260 14.7360   2
  -9   4  -5 25.7329 15.5317   3
   9  -4   5 55.8215 15.4603   6
   9  -4   5 -15.993 16.4656   2
   9   3  -5 154.876 19.7655   2
   9   3  -5 170.587 21.2748   5
   8   3  -5 1.90454 11.1869   5
   8   3  -5 -4.2072 10.9198   2
   7   3  -5 381.263 20.0116   2
   7   3  -5 312.230 21.1039   5
  -7  -3   5 363.812 20.2951   4
   6   3  -5 253.017 17.4418   5
   6   3  -5 232.850 31.1956   1
   6   3  -5 263.805 14.6462   2
   6   3  -5 277.106 19.0015   4
   6   3  -5 256.384 9.10968   6
  -6  -3   5 273.370 16.7304   4
   5   3  -5 113.147 7.60257   6
   5   3  -5 128.558 10.3936   2
   5   3  -5 107.003 12.1135   4
   5   3  -5 106.796 11.9165   5
   5   3  -5 89.0810 22.2897   1
   5   3  -5 98.6362 12.5131   3
  -5  -3   5 101.514 11.8016   4
  -5  -3   5 113.883 25.6443   1
   4   3  -5 414.665 18.5159   4
   4   3  -5 437.445 36.7683   1
   4   3  -5 398.286 16.7272   5
   4   3  -5 433.799 13.9330   6
   4   3  -5 398.759 17.9537   3
   4   3  -5 405.583 14.2678   2
  -4  -3   5 417.732 18.1325   4
  -4  -3   5 411.353 37.4732   1
   3   3  -5 335.583 16.3404   3
   3   3  -5 315.554 10.6291   2
   3   3  -5 312.505 14.3711   5
   3   3  -5 315.825 15.7320   4
   3   3  -5 317.660 12.3163   6
   3   3  -5 332.469 33.1475   1
  -3  -3   5 324.184 11.9775   6
  -3  -3   5 345.431 15.6524   4
  -3  -3   5 324.219 34.5863   1
   2   3  -5 479.341 35.7765   1
   2   3  -5 473.051 11.2170   2
   2   3  -5 473.879 15.7038   6
   2   3  -5 467.329 16.8758   5
   2   3  -5 474.045 11.3015   2
   2   3  -5 471.310 18.0743   4
  -2  -3   5 436.894 17.5439   4
  -2  -3   5 463.039 15.3949   6
  -2  -3   5 419.535 35.5807   1
   1   3  -5 519.956 38.2356   1
   1   3  -5 510.655 18.4284   4
   1   3  -5 509.259 17.3417   5
   1   3  -5 517.463 18.4238   3
   1   3  -5 519.643 17.1122   6
  -1  -3   5 538.968 19.8074   5
  -1  -3   5 507.334 18.4592   4
  -1  -3   5 513.044 16.8691   6
  -1  -3   5 529.958 38.9792   1
   0   3  -5 89.0969 20.1475   1
   0   3  -5 107.268 8.63429   6
   0   3  -5 105.310 8.82919   3
   0   3  -5 111.210 8.21508   5
   0   3  -5 106.318 8.51736   4
   0  -3   5 118.494 8.11971   6
   0  -3   5 104.896 7.81572   5
   0  -3   5 118.141 8.59488   4
  -1   3  -5 288.569 11.7621   5
  -1   3  -5 287.650 34.6353   1
  -1   3  -5 289.153 13.2318   6
  -1   3  -5 294.828 13.5214   3
  -1   3  -5 304.550 12.8503   4
   1  -3   5 292.263 12.5215   6
   1  -3   5 271.379 35.3557   1
   1  -3   5 284.401 12.4448   4
   1  -3   5 294.159 7.78805   2
   1  -3   5 299.694 11.8927   5
   1  -3   5 317.047 13.6610   3
  -2   3  -5 7.83532 18.2256   1
  -2   3  -5 3.41996 4.64119   3
  -2   3  -5 0.85592 3.93128   4
  -2   3  -5 1.73319 3.21387   5
  -2   3  -5 2.52506 4.96740   6
   2  -3   5 1.14359 3.14304   6
   2  -3   5 -0.9444 3.93473   5
   2  -3   5 0.10837 2.78415   2
   2  -3   5 5.68565 5.32137   3
   2  -3   5 6.79927 19.6693   1
  -3   3  -5 22.3813 4.50117   5
  -3   3  -5 19.6669 5.34009   3
  -3   3  -5 5.04331 21.9390   1
  -3   3  -5 28.3878 6.62239   6
  -3   3  -5 13.4360 4.39520   4
   3  -3   5 54.4976 26.9760   1
   3  -3   5 26.3878 4.67674   2
   3  -3   5 18.2554 6.45088   3
   3  -3   5 12.8438 5.49380   6
   3  -3   5 27.4730 10.3416   5
  -4   3  -5 4.00328 5.14955   3
  -4   3  -5 8.26621 6.76707   6
  -4   3  -5 -9.9932 25.1255   1
  -4   3  -5 4.59442 4.14974   5
  -4   3  -5 6.55162 4.27284   4
   4  -3   5 7.39096 5.69953   6
   4  -3   5 5.51985 5.57119   5
   4  -3   5 8.29908 28.5576   1
   4  -3   5 -6.3054 4.89291   3
   4  -3   5 -5.3004 4.34733   2
  -5   3  -5 49.8060 7.93601   3
  -5   3  -5 59.6915 6.13685   4
  -5   3  -5 75.5059 34.0904   1
  -5   3  -5 52.6151 5.70701   4
  -5   3  -5 64.9813 10.0829   6
  -5   3  -5 45.1777 6.97285   5
   5  -3   5 53.2738 8.67647   6
   5  -3   5 38.5386 9.44376   3
   5  -3   5 46.9383 7.60463   2
   5  -3   5 64.6598 8.43299   5
  -6   3  -5 0.21884 8.80422   6
  -6   3  -5 -5.1300 3.49268   4
  -6   3  -5 7.15836 2.86097   4
  -6   3  -5 -2.3145 5.43055   5
  -6   3  -5 -4.7716 5.86894   3
  -6   3  -5 5.23949 39.6809   1
   6  -3   5 6.73583 7.51859   6
   6  -3   5 15.2203 46.1104   1
   6  -3   5 -2.9934 10.0471   3
   6  -3   5 -1.0489 7.15360   2
   6  -3   5 3.41000 8.18323   5
  -7   3  -5 142.895 53.2292   1
  -7   3  -5 139.992 16.5024   3
  -7   3  -5 166.954 13.8341   5
   7  -3   5 157.333 15.7392   6
   7  -3   5 101.930 60.8327   1
   7  -3   5 131.542 14.1987   2
   7  -3   5 146.034 22.8517   5
  -8   3  -5 9.79435 9.12093   3
   8  -3   5 -7.0074 9.72141   6
   8  -3   5 -7.5944 10.3905   2
  -9   3  -5 34.0322 12.9514   3
   9  -3   5 42.4974 14.1893   6
   9  -3   5 30.4347 14.6695   2
 -10   3  -5 23.5707 16.7443   3
  10  -3   5 12.1087 19.6370   2
  10  -3   5 -3.7607 16.0572   6
   9   2  -5 0.65738 16.9740   5
   9   2  -5 -3.3637 16.5217   2
   8   2  -5 278.182 22.2705   2
   8   2  -5 241.941 23.4074   5
   7   2  -5 234.664 18.9876   5
   7   2  -5 236.004 18.8545   2
  -7  -2   5 242.412 17.5684   4
   6   2  -5 167.664 35.5195   1
   6   2  -5 200.005 15.3957   2
   6   2  -5 178.245 17.3060   4
  -6  -2   5 210.984 15.2877   4
   5   2  -5 1279.43 35.3825   2
   5   2  -5 1318.24 38.0838   5
   5   2  -5 1175.86 37.8863   3
   5   2  -5 1315.51 65.1426   1
   5   2  -5 1229.90 37.6795   4
  -5  -2   5 1243.63 66.7165   1
  -5  -2   5 1284.47 37.7997   4
   4   2  -5 20.0017 7.63667   4
   4   2  -5 13.0443 4.83060   2
   4   2  -5 29.7021 8.29491   3
   4   2  -5 -2.9969 18.7349   1
   4   2  -5 13.2031 2.87802   6
   4   2  -5 10.6988 6.20562   5
  -4  -2   5 22.5624 19.6977   1
  -4  -2   5 10.7300 6.12298   4
   3   2  -5 3146.33 70.5861   2
   3   2  -5 3083.22 74.7093   5
   3   2  -5 3136.05 75.2772   3
   3   2  -5 3215.21 75.1165   4
   3   2  -5 3164.37 100.324   1
   3   2  -5 3081.24 69.4992   6
  -3  -2   5 3127.35 69.4491   6
  -3  -2   5 3191.18 100.009   1
  -3  -2   5 3132.19 75.2163   4
   2   2  -5 578.947 19.5367   4
   2   2  -5 601.629 39.4648   1
   2   2  -5 537.384 18.9886   5
   2   2  -5 575.359 16.5199   6
   2   2  -5 563.148 19.8009   3
  -2  -2   5 545.906 19.5539   4
  -2  -2   5 548.811 19.3092   5
  -2  -2   5 570.597 16.3629   6
  -2  -2   5 649.934 40.6799   1
   1   2  -5 1069.74 29.4707   5
   1   2  -5 1087.84 52.4335   1
   1   2  -5 1126.71 30.3554   4
   1   2  -5 1106.29 27.9344   6
  -1  -2   5 997.840 31.7553   5
  -1  -2   5 1096.04 27.8359   6
  -1  -2   5 1064.36 30.1497   4
   0   2  -5 1600.55 40.1315   5
   0   2  -5 1634.88 65.3933   1
   0   2  -5 1661.61 39.7982   6
   0   2  -5 1610.96 40.7001   3
   0   2  -5 1457.66 42.9984   4
   0  -2   5 1671.14 40.2123   5
   0  -2   5 1593.99 40.7985   4
   0  -2   5 1636.62 39.7238   6
  -1   2  -5 15.9997 4.41321   3
  -1   2  -5 7.41717 4.05604   4
  -1   2  -5 1.56036 13.9024   1
  -1   2  -5 8.07651 4.40975   5
  -1   2  -5 11.9303 4.19175   6
   1  -2   5 2.83554 15.9056   1
   1  -2   5 13.5411 4.26916   5
   1  -2   5 11.6002 1.35000   2
   1  -2   5 5.54527 3.87879   6
   1  -2   5 11.3783 3.99254   4
  -2   2  -5 1406.46 35.8024   6
  -2   2  -5 1382.42 34.4173   4
  -2   2  -5 1340.78 34.3602   5
  -2   2  -5 1317.08 35.1599   3
  -2   2  -5 1349.98 63.7070   1
   2  -2   5 1331.69 34.2035   4
   2  -2   5 1338.87 31.9183   2
   2  -2   5 1336.18 65.2624   1
   2  -2   5 1421.22 34.8158   5
   2  -2   5 1297.04 35.4551   6
  -3   2  -5 117.739 25.2740   1
  -3   2  -5 191.401 10.0176   5
  -3   2  -5 175.504 10.3168   3
  -3   2  -5 183.430 10.9238   6
  -3   2  -5 188.931 9.18720   4
   3  -2   5 191.114 10.7367   3
   3  -2   5 184.798 8.56048   2
   3  -2   5 209.475 31.8859   1
   3  -2   5 188.826 11.0853   6
  -4   2  -5 339.978 11.9365   4
  -4   2  -5 335.169 14.2234   3
  -4   2  -5 313.632 13.3049   5
  -4   2  -5 322.178 15.3027   6
  -4   2  -5 328.730 42.4195   1
   4  -2   5 304.846 14.4427   3
   4  -2   5 316.593 41.8067   1
   4  -2   5 330.302 14.3978   5
   4  -2   5 349.667 15.3238   6
   4  -2   5 345.932 13.5187   2
  -5   2  -5 277.722 42.8755   1
  -5   2  -5 307.972 10.6855   4
  -5   2  -5 297.491 16.0493   6
  -5   2  -5 318.737 14.2649   5
  -5   2  -5 314.363 14.9173   3
   5  -2   5 319.840 15.2130   5
   5  -2   5 296.741 15.6299   6
   5  -2   5 308.697 15.6089   3
   5  -2   5 279.976 44.4308   1
   5  -2   5 326.844 14.5642   2
  -6   2  -5 38.1578 32.0844   1
  -6   2  -5 45.2547 7.24797   5
  -6   2  -5 42.4469 3.67787   4
  -6   2  -5 46.0879 3.29256   4
  -6   2  -5 42.8839 7.52527   3
  -6   2  -5 52.2026 9.16325   6
   6  -2   5 64.1672 40.7102   1
   6  -2   5 44.5436 8.83717   5
   6  -2   5 41.5055 8.03020   2
   6  -2   5 44.7737 9.07806   3
   6  -2   5 42.7106 8.05964   6
  -7   2  -5 65.7061 9.81695   3
  -7   2  -5 56.5567 9.02353   5
  -7   2  -5 38.5766 11.5125   6
  -7   2  -5 46.8686 42.4372   1
   7  -2   5 35.7722 12.9411   3
   7  -2   5 57.3590 9.56325   6
   7  -2   5 74.9381 11.8826   5
   7  -2   5 115.771 51.9183   1
   7  -2   5 68.9456 10.7241   2
  -8   2  -5 7.16614 13.6286   5
  -8   2  -5 4.65321 8.44786   3
   8  -2   5 -0.9873 9.94032   6
   8  -2   5 -1.1219 9.70665   2
  -9   2  -5 55.9240 12.2468   3
   9  -2   5 34.4086 12.2243   6
   9  -2   5 57.1419 14.5444   2
 -10   2  -5 10.9271 13.1350   3
  10  -2   5 -4.8919 15.4117   2
  10  -2   5 15.0609 14.6130   6
   9   1  -5 22.8518 18.3861   5
   9   1  -5 25.6444 17.5470   2
   8   1  -5 48.1400 15.3585   5
   8   1  -5 52.6002 13.7935   2
  -8  -1   5 47.8029 18.6226   4
   7   1  -5 88.7302 14.1690   5
  -7  -1   5 82.7349 11.7679   4
   6   1  -5 372.278 21.2585   5
   6   1  -5 389.890 19.9141   2
   6   1  -5 360.451 21.2689   4
  -6  -1   5 411.378 21.6164   4
   5   1  -5 1.35366 5.56145   5
   5   1  -5 16.4991 8.61934   4
   5   1  -5 5.83139 6.47791   2
   5   1  -5 -21.753 26.1008   1
  -5  -1   5 7.90111 6.55652   4
  -5  -1   5 36.3408 28.7947   1
   4   1  -5 1334.39 38.7920   3
   4   1  -5 1398.18 36.9032   2
   4   1  -5 1257.91 67.0769   1
   4   1  -5 1424.26 38.8991   4
   4   1  -5 1363.83 39.3961   5
  -4  -1   5 1377.01 38.7924   4
  -4  -1   5 1473.30 70.0321   1
   3   1  -5 593.046 14.2061   6
   3   1  -5 602.098 18.5519   2
   3   1  -5 640.871 44.8520   1
   3   1  -5 602.958 20.7785   5
   3   1  -5 596.429 21.4474   3
   3   1  -5 579.337 20.6886   4
  -3  -1   5 585.150 20.9640   4
  -3  -1   5 606.268 18.6019   2
  -3  -1   5 527.054 43.1461   1
   2   1  -5 1105.14 26.4151   6
   2   1  -5 1102.34 30.9843   5
   2   1  -5 1129.63 30.9383   3
   2   1  -5 1132.74 53.8511   1
   2   1  -5 1148.95 27.7080   2
   2   1  -5 1137.63 31.2005   4
  -2  -1   5 1102.60 27.5194   2
  -2  -1   5 1040.52 52.8206   1
  -2  -1   5 1107.34 26.4879   6
  -2  -1   5 1111.15 31.3143   4
  -2  -1   5 1106.51 31.3241   5
   1   1  -5 3323.31 76.4559   5
   1   1  -5 3361.35 73.2989   6
   1   1  -5 3029.38 78.7190   3
   1   1  -5 3430.24 77.0623   4
   1   1  -5 3276.91 103.540   1
  -1  -1   5 3420.34 76.7423   5
  -1  -1   5 3310.22 73.3477   6
  -1  -1   5 3320.67 76.9403   4
  -1  -1   5 3264.72 71.8163   2
   0   1  -5 83.3569 6.93630   3
   0   1  -5 76.6356 8.31363   5
   0   1  -5 80.9760 3.23294   2
   0   1  -5 75.9193 8.12981   4
   0   1  -5 88.8758 18.1894   1
   0   1  -5 87.5772 6.57268   6
   0  -1   5 82.7365 3.45984   2
   0  -1   5 85.3371 6.06972   6
   0  -1   5 87.2023 6.64388   5
   0  -1   5 62.5163 18.4869   1
   0  -1   5 86.7024 7.25706   4
  -1   1  -5 5501.45 117.524   6
  -1   1  -5 5420.58 149.342   1
  -1   1  -5 5388.35 118.014   4
  -1   1  -5 5229.85 117.621   3
  -1   1  -5 5393.99 118.216   5
   1  -1   5 5311.73 117.427   6
   1  -1   5 4989.36 113.157   2
   1  -1   5 5271.58 118.004   4
   1  -1   5 5436.21 117.939   5
   1  -1   5 5445.76 150.347   1
  -2   1  -5 782.933 21.4158   4
  -2   1  -5 746.448 21.5073   3
  -2   1  -5 723.925 46.3183   1
  -2   1  -5 761.372 21.7071   5
  -2   1  -5 822.831 22.3920   6
   2  -1   5 788.712 21.6473   3
   2  -1   5 743.576 21.1493   4
   2  -1   5 771.614 18.7399   2
   2  -1   5 784.331 47.2415   1
   2  -1   5 726.802 22.0467   6
   2  -1   5 776.861 22.0834   5
   2  -1   5 635.504 19.5070   2
  -3   1  -5 1820.96 41.8244   4
  -3   1  -5 1752.71 43.2185   5
  -3   1  -5 1750.90 42.7783   3
  -3   1  -5 1778.42 43.9557   6
  -3   1  -5 1797.48 75.4156   1
   3  -1   5 1576.59 45.0091   5
   3  -1   5 1808.00 42.9959   3
   3  -1   5 1738.05 41.5812   4
   3  -1   5 1804.47 75.6486   1
   3  -1   5 1727.88 43.9482   6
   3  -1   5 1720.25 41.0883   2
  -4   1  -5 1827.54 46.3823   6
  -4   1  -5 1877.19 81.2307   1
  -4   1  -5 1793.29 44.9010   3
  -4   1  -5 1842.89 42.5102   4
  -4   1  -5 1855.15 45.6797   5
   4  -1   5 1736.78 44.1691   2
   4  -1   5 1871.75 45.8941   5
   4  -1   5 1825.12 46.3330   6
   4  -1   5 1805.48 42.3465   4
   4  -1   5 1853.96 81.7046   1
  -5   1  -5 138.096 6.44443   4
  -5   1  -5 135.566 29.5406   1
  -5   1  -5 155.828 9.40428   5
  -5   1  -5 142.714 9.61797   3
  -5   1  -5 153.599 11.6955   6
   5  -1   5 134.174 9.73639   2
   5  -1   5 152.565 11.1455   5
   5  -1   5 151.905 11.0964   6
   5  -1   5 161.911 10.9922   3
   5  -1   5 119.147 31.9567   1
  -6   1  -5 829.716 27.0695   6
  -6   1  -5 766.058 25.0492   3
  -6   1  -5 687.653 62.8626   1
  -6   1  -5 795.403 26.0770   5
   6  -1   5 776.114 26.1832   2
   6  -1   5 786.029 25.8129   3
   6  -1   5 769.129 70.4686   1
   6  -1   5 818.626 26.6769   5
   6  -1   5 782.588 26.4600   6
  -7   1  -5 54.5042 35.3613   1
  -7   1  -5 29.5846 8.82553   6
  -7   1  -5 32.1180 7.85617   5
  -7   1  -5 33.9144 7.52678   3
   7  -1   5 29.2318 8.22379   2
   7  -1   5 26.2725 9.01396   3
   7  -1   5 50.0108 41.9198   1
   7  -1   5 34.3565 8.33448   6
   7  -1   5 29.1106 9.87417   5
  -8   1  -5 235.367 16.9404   3
  -8   1  -5 235.587 16.3787   5
   8  -1   5 259.611 17.3617   6
   8  -1   5 251.967 18.2229   2
   8  -1   5 110.106 57.2866   1
  -9   1  -5 92.3677 12.6537   3
   9  -1   5 101.331 14.0520   6
   9  -1   5 92.0960 14.3559   2
 -10   1  -5 24.9027 12.4795   3
  10  -1   5 36.9358 13.7026   6
  10  -1   5 16.5997 14.1144   2
 -11   1  -5 51.0469 16.7394   3
  11  -1   5 47.2425 19.6862   2
  11  -1   5 18.6069 16.5338   6
   8   0  -5 11.2467 14.4959   5
   8   0  -5 1.82775 14.0283   2
  -8   0   5 -11.609 12.4490   4
   7   0  -5 26.7111 11.4272   5
   7   0  -5 53.9929 13.2255   2
  -7   0   5 13.5848 10.5631   4
   6   0  -5 17.6564 8.98669   2
   6   0  -5 5.24458 6.93444   5
   6   0  -5 6.18639 11.7783   4
  -6   0   5 0.90082 7.11234   4
   5   0  -5 62.8340 32.9783   1
   5   0  -5 91.8973 11.5055   4
   5   0  -5 112.198 11.8735   2
   5   0  -5 104.038 11.8862   5
  -5   0   5 118.005 12.5810   2
  -5   0   5 102.428 11.1593   4
   4   0  -5 13.1774 7.52218   4
   4   0  -5 15.0288 7.12868   5
   4   0  -5 28.5199 25.8696   1
   4   0  -5 20.0403 6.39349   2
   4   0  -5 29.7665 8.24426   3
  -4   0   5 25.1248 6.28653   4
  -4   0   5 2.97272 6.53796   2
  -4   0   5 18.0288 24.1318   1
   3   0  -5 361.743 15.6679   4
   3   0  -5 340.143 40.2593   1
   3   0  -5 330.212 15.0451   5
   3   0  -5 345.029 14.1037   2
   3   0  -5 333.495 15.9967   3
  -3   0   5 351.878 15.4516   4
  -3   0   5 322.611 15.7370   2
   2   0  -5 702.105 22.5135   4
   2   0  -5 707.329 20.3098   2
   2   0  -5 719.445 16.2259   6
   2   0  -5 681.634 22.6574   5
   2   0  -5 731.435 49.0657   1
   2   0  -5 708.887 21.8114   3
  -2   0   5 693.571 16.2907   6
  -2   0   5 694.819 20.2756   2
  -2   0   5 675.656 22.4205   4
   1   0  -5 96.0701 20.0384   1
   1   0  -5 143.525 6.89643   2
   1   0  -5 150.684 8.66638   4
   1   0  -5 146.817 6.03572   6
   1   0  -5 140.210 9.62664   5
  -1   0   5 135.998 9.05829   4
  -1   0   5 144.636 7.13574   2
  -1   0   5 124.391 24.3635   1
  -1   0   5 149.443 6.38391   6
  -1   0   5 147.554 8.79422   5
   0   0  -5 2359.42 52.4233   2
   0   0  -5 2490.23 55.2434   3
   0   0  -5 2434.08 84.1091   1
   0   0  -5 2372.03 53.2821   6
   0   0  -5 2376.03 56.4333   5
   0   0  -5 2148.02 58.0167   4
   0   0   5 2356.14 52.5672   2
   0   0   5 2347.69 83.3121   1
   0   0   5 2402.91 56.1323   4
   0   0   5 2246.80 58.7627   5
   0   0   5 2357.09 53.4491   6
  -1   0  -5 433.638 13.6984   6
  -1   0  -5 432.812 14.7990   4
  -1   0  -5 428.449 13.8724   3
  -1   0  -5 416.971 15.7398   5
  -1   0  -5 429.654 34.1526   1
   1   0   5 436.963 13.8407   6
   1   0   5 455.148 15.4958   5
   1   0   5 416.463 14.6365   4
   1   0   5 442.483 36.9786   1
   1   0   5 436.231 12.0130   2
  -2   0  -5 2297.73 53.0443   6
  -2   0  -5 2176.26 53.4395   5
  -2   0  -5 2370.18 52.9310   4
  -2   0  -5 2241.76 52.0696   3
  -2   0  -5 2316.96 82.8235   1
   2   0   5 2246.92 53.0472   6
   2   0   5 2247.01 50.6312   2
   2   0   5 2244.56 53.5900   5
   2   0   5 2254.86 82.4970   1
   2   0   5 2182.56 52.5693   4
  -3   0  -5 1804.40 42.1284   3
  -3   0  -5 1762.97 41.8473   4
  -3   0  -5 1821.74 43.7805   5
  -3   0  -5 1758.38 72.9892   1
   3   0   5 1774.74 73.0914   1
   3   0   5 1747.43 41.5314   2
   3   0   5 1764.19 41.9602   4
   3   0   5 1661.20 46.1305   5
   3   0   5 1764.56 43.7375   6
   3   0   5 1870.06 42.3869   3
  -4   0  -5 284.410 12.8789   6
  -4   0  -5 293.470 9.93254   4
  -4   0  -5 306.342 36.3151   1
  -4   0  -5 293.895 11.0174   3
  -4   0  -5 289.597 12.4368   5
   4   0   5 286.107 9.99454   4
   4   0   5 297.616 11.8237   2
   4   0   5 284.126 13.1560   5
   4   0   5 284.305 11.5606   3
   4   0   5 277.566 39.1758   1
   4   0   5 271.341 12.4483   6
  -5   0  -5 2491.81 97.2803   1
  -5   0  -5 2406.32 59.1887   5
  -5   0  -5 2394.59 53.9262   4
  -5   0  -5 2510.92 59.8318   6
  -5   0  -5 2497.46 57.6070   3
   5   0   5 2390.31 58.6571   2
   5   0   5 2368.15 95.9555   1
   5   0   5 2513.02 57.9185   3
   5   0   5 2542.59 59.4861   5
   5   0   5 2416.29 59.7532   6
   5   0   5 2326.75 54.6139   4
  -6   0  -5 92.3905 9.74522   5
  -6   0  -5 82.1977 8.01379   3
  -6   0  -5 70.8672 8.62183   6
  -6   0  -5 98.0282 28.6200   1
   6   0   5 95.0344 10.1512   5
   6   0   5 57.9557 30.0566   1
   6   0   5 92.4124 10.1567   3
   6   0   5 79.8304 8.98258   6
   6   0   5 92.4159 9.60545   2
  -7   0  -5 598.894 62.5174   1
  -7   0  -5 708.806 23.5894   3
  -7   0  -5 690.943 24.9753   5
  -7   0  -5 703.440 25.3653   6
   7   0   5 671.140 25.2793   2
   7   0   5 725.764 24.5464   3
   7   0   5 633.654 68.5104   1
   7   0   5 673.166 25.5028   5
   7   0   5 699.430 25.0481   6
  -8   0  -5 235.576 19.8702   6
  -8   0  -5 249.533 16.6199   5
  -8   0  -5 199.210 55.0433   1
  -8   0  -5 249.089 15.0019   3
   8   0   5 270.415 18.5111   3
   8   0   5 269.222 17.8648   2
   8   0   5 275.652 16.9407   6
   8   0   5 253.818 53.0229   1
  -9   0  -5 40.8313 9.57863   3
  -9   0  -5 38.4185 10.5873   5
   9   0   5 54.9353 11.3661   2
   9   0   5 62.9869 13.1467   6
 -10   0  -5 126.727 14.6969   3
  10   0   5 109.885 15.4995   6
  10   0   5 149.163 17.0210   2
 -11   0  -5 2.48102 13.9487   3
  11   0   5 24.0566 14.3041   6
  11   0   5 3.93975 15.5110   2
   8  -1  -5 10.9871 15.8776   5
   8  -1  -5 -14.154 16.1609   2
  -8   1   5 3.92752 14.5447   4
  -8   1   5 -11.135 15.0471   3
   7  -1  -5 29.7770 12.7577   5
   7  -1  -5 43.2686 13.5100   2
  -7   1   5 20.2488 14.1905   4
  -7   1   5 20.0606 11.5386   3
   6  -1  -5 61.4875 19.1977   2
   6  -1  -5 67.5770 12.7443   5
  -6   1   5 70.2271 10.7788   4
  -6   1   5 52.1437 11.1824   3
   5  -1  -5 -1.3792 7.29647   2
   5  -1  -5 -6.1887 6.84193   5
   5  -1  -5 8.66753 9.90405   4
  -5   1   5 -1.5565 5.58314   3
  -5   1   5 -4.0104 7.05034   4
  -5   1   5 -11.294 10.2153   2
   4  -1  -5 86.2936 33.5657   1
   4  -1  -5 123.323 12.9224   2
   4  -1  -5 119.916 12.2778   3
   4  -1  -5 124.989 12.3041   5
   4  -1  -5 136.545 14.1747   4
  -4   1   5 124.715 11.5291   4
  -4   1   5 138.972 13.6934   2
  -4   1   5 116.411 11.4620   3
  -4   1   5 59.8044 39.0648   1
   3  -1  -5 3.38908 5.70066   5
   3  -1  -5 -0.3055 4.76959   2
   3  -1  -5 0.30466 6.02233   4
   3  -1  -5 -40.617 21.4539   1
   3  -1  -5 2.01434 6.13341   3
  -3   1   5 7.44247 5.16436   3
  -3   1   5 8.07419 31.8392   1
  -3   1   5 0.48696 5.53718   2
  -3   1   5 -2.7828 4.78375   4
   2  -1  -5 4.02496 4.78585   5
   2  -1  -5 -0.0263 3.65740   2
   2  -1  -5 11.6623 5.27103   4
   2  -1  -5 3.85527 4.83679   3
   2  -1  -5 10.9843 18.9478   1
  -2   1   5 5.12531 4.34943   4
  -2   1   5 3.52392 20.2008   1
   1  -1  -5 35.0422 4.79937   2
   1  -1  -5 40.7925 5.86153   4
   1  -1  -5 28.6569 5.04564   5
   1  -1  -5 33.9486 17.7271   1
  -1   1   5 37.0338 19.1022   1
  -1   1   5 32.8681 5.54807   4
  -1   1   5 28.8948 5.02484   2
  -1   1   5 30.3136 5.20151   5
   0  -1  -5 7.46340 15.4483   1
   0  -1  -5 21.2739 3.11258   6
   0  -1  -5 23.8992 4.34462   4
   0  -1  -5 23.9518 3.77080   2
   0  -1  -5 18.5636 5.22049   5
   0  -1  -5 18.6157 3.86590   3
   0   1   5 13.9479 4.28063   4
   0   1   5 22.8407 3.20089   6
   0   1   5 22.6108 3.87871   2
   0   1   5 25.2514 5.72855   5
   0   1   5 -1.3209 15.4059   1
  -1  -1  -5 209.665 8.19276   2
  -1  -1  -5 217.689 11.4595   5
  -1  -1  -5 183.815 26.8895   1
  -1  -1  -5 217.768 8.58623   6
  -1  -1  -5 211.000 8.71809   3
  -1  -1  -5 225.438 9.74240   4
   1   1   5 223.456 10.1102   5
   1   1   5 220.002 8.80849   6
   1   1   5 214.323 8.65518   2
   1   1   5 223.592 9.60717   4
   1   1   5 184.631 25.6428   1
  -2  -1  -5 287.413 10.9392   6
  -2  -1  -5 293.811 10.0945   2
  -2  -1  -5 309.933 30.7913   1
  -2  -1  -5 279.790 11.0565   4
  -2  -1  -5 271.664 12.3973   5
  -2  -1  -5 299.546 9.95388   3
   2   1   5 294.218 11.8617   5
   2   1   5 283.006 11.0548   4
   2   1   5 240.823 30.3904   1
   2   1   5 289.583 10.2780   2
   2   1   5 287.288 10.9522   6
  -3  -1  -5 41.4697 4.67222   3
  -3  -1  -5 37.2245 5.53569   5
  -3  -1  -5 46.8380 5.14300   4
  -3  -1  -5 43.3801 5.23037   6
  -3  -1  -5 10.2471 14.9718   1
   3   1   5 42.8388 4.91705   4
   3   1   5 39.0543 4.47713   2
   3   1   5 51.8614 19.0532   1
   3   1   5 42.5513 5.14312   6
  -4  -1  -5 906.944 51.5661   1
  -4  -1  -5 846.672 24.8560   6
  -4  -1  -5 864.993 22.2863   4
  -4  -1  -5 854.877 25.0333   5
  -4  -1  -5 846.839 22.0853   3
   4   1   5 845.505 24.8767   6
   4   1   5 867.449 24.0873   2
   4   1   5 862.222 22.3917   4
   4   1   5 897.227 53.2715   1
   4   1   5 865.956 22.3302   3
   4   1   5 885.890 25.6050   5
  -5  -1  -5 57.2857 4.52479   4
  -5  -1  -5 51.5933 20.2717   1
  -5  -1  -5 62.4800 5.54939   3
  -5  -1  -5 60.2649 7.18913   6
  -5  -1  -5 60.9844 6.99096   5
   5   1   5 66.1609 4.99997   4
   5   1   5 72.3464 23.4345   1
   5   1   5 61.8240 6.70625   2
   5   1   5 71.6820 7.96705   6
   5   1   5 67.4910 7.87916   5
   5   1   5 65.1463 6.31438   3
  -6  -1  -5 333.688 8.88615   4
  -6  -1  -5 338.343 15.7189   6
  -6  -1  -5 322.697 15.0370   5
  -6  -1  -5 334.684 43.9075   1
  -6  -1  -5 336.082 12.9157   3
   6   1   5 330.578 13.5197   3
   6   1   5 320.919 15.2694   2
   6   1   5 331.324 16.1500   5
   6   1   5 320.738 14.8404   2
   6   1   5 340.967 46.8182   1
   6   1   5 309.803 14.8762   6
   6   1   5 319.075 8.88201   4
  -7  -1  -5 526.650 20.7473   6
  -7  -1  -5 490.547 17.9426   3
  -7  -1  -5 487.026 20.4080   5
  -7  -1  -5 533.270 55.6118   1
   7   1   5 530.150 21.1985   2
   7   1   5 532.962 20.6008   5
   7   1   5 524.200 20.6285   6
   7   1   5 511.849 18.3705   3
   7   1   5 527.338 58.8910   1
  -8  -1  -5 41.9372 9.68818   6
  -8  -1  -5 16.7069 7.45497   5
  -8  -1  -5 33.9831 35.9166   1
  -8  -1  -5 22.0181 6.39482   3
   8   1   5 40.7751 37.8521   1
   8   1   5 25.6738 8.07080   6
   8   1   5 13.2863 7.42141   2
   8   1   5 22.3452 8.28509   3
  -9  -1  -5 586.207 24.9618   5
  -9  -1  -5 609.765 23.3685   3
   9   1   5 641.857 26.8303   6
   9   1   5 617.160 27.5773   2
   9   1   5 578.081 25.0758   3
 -10  -1  -5 -8.2551 7.16932   5
  10   1   5 -2.6050 10.3321   6
  10   1   5 -1.4022 11.4023   2
 -11  -1  -5 55.2399 13.3818   3
  11   1   5 57.1998 15.3356   2
  11   1   5 57.0465 14.4122   6
 -12  -1  -5 22.2643 17.2430   3
  12   1   5 51.7001 18.6137   6
   8  -2  -5 93.9962 21.6656   2
   8  -2  -5 33.2712 20.4382   5
   7  -2  -5 85.0012 17.0974   2
   7  -2  -5 112.477 16.9734   5
  -7   2   5 109.395 15.2244   4
  -7   2   5 99.9702 16.9597   3
   6  -2  -5 18.6499 11.3144   2
   6  -2  -5 22.5819 11.0444   5
  -6   2   5 -2.3040 9.13361   4
  -6   2   5 30.0557 10.7389   3
   5  -2  -5 470.664 23.6699   2
   5  -2  -5 467.912 23.3701   5
   5  -2  -5 428.768 22.7179   4
  -5   2   5 439.535 20.8897   4
  -5   2   5 426.473 22.4071   3
   4  -2  -5 88.1881 37.6459   1
   4  -2  -5 83.0304 11.1738   4
   4  -2  -5 75.8383 12.0203   3
   4  -2  -5 95.7364 11.3456   5
   4  -2  -5 70.6885 10.6534   2
  -4   2   5 100.368 12.7307   2
  -4   2   5 73.6707 9.90200   3
  -4   2   5 95.1105 11.3648   4
   3  -2  -5 246.404 15.3938   3
   3  -2  -5 253.018 14.7422   5
   3  -2  -5 163.488 34.4697   1
   3  -2  -5 244.113 14.4929   2
   3  -2  -5 262.061 15.7097   4
  -3   2   5 232.045 15.9920   2
  -3   2   5 257.841 14.2649   4
  -3   2   5 201.466 39.7842   1
  -3   2   5 265.847 13.9561   3
   2  -2  -5 752.120 24.4671   2
   2  -2  -5 778.160 25.3531   5
   2  -2  -5 757.934 57.0178   1
   2  -2  -5 789.831 24.5889   3
   2  -2  -5 797.071 25.1398   4
  -2   2   5 780.643 24.1884   3
  -2   2   5 767.824 24.6965   2
  -2   2   5 726.581 58.1340   1
  -2   2   5 763.454 24.8954   4
   1  -2  -5 17.8763 4.78051   2
   1  -2  -5 31.3954 5.20214   3
   1  -2  -5 43.3361 20.3997   1
   1  -2  -5 16.8596 5.59531   5
   1  -2  -5 33.0019 5.97597   4
  -1   2   5 21.9771 6.34291   2
  -1   2   5 35.2257 21.9317   1
  -1   2   5 19.0291 5.21119   4
  -1   2   5 21.8577 4.48753   3
  -1   2   5 12.2028 5.59314   5
   0  -2  -5 353.737 14.1783   4
   0  -2  -5 341.045 14.3367   5
   0  -2  -5 361.231 12.6492   3
   0  -2  -5 355.561 13.0774   2
   0  -2  -5 301.413 35.7749   1
   0   2   5 341.624 38.1471   1
   0   2   5 339.552 13.3941   4
   0   2   5 351.953 13.6569   2
   0   2   5 341.801 10.7279   6
   0   2   5 359.207 14.2044   5
  -1  -2  -5 395.257 16.3342   4
  -1  -2  -5 398.322 15.3691   5
  -1  -2  -5 398.596 12.4188   3
  -1  -2  -5 372.340 36.4839   1
  -1  -2  -5 402.586 13.6242   2
   1   2   5 424.795 38.4963   1
   1   2   5 406.806 14.5606   4
   1   2   5 404.417 14.0659   2
   1   2   5 412.465 12.7764   6
  -2  -2  -5 121.511 5.56206   3
  -2  -2  -5 125.463 22.5250   1
  -2  -2  -5 125.032 7.14771   2
  -2  -2  -5 138.643 7.37574   6
  -2  -2  -5 117.642 5.73687   3
  -2  -2  -5 117.676 8.88521   5
  -2  -2  -5 132.202 7.85133   4
   2   2   5 114.245 7.55911   4
   2   2   5 127.472 8.70295   5
   2   2   5 78.3100 21.0866   1
   2   2   5 117.808 7.58225   2
   2   2   5 120.632 6.93936   6
  -3  -2  -5 676.865 18.9925   4
  -3  -2  -5 654.069 19.0848   2
  -3  -2  -5 630.593 19.9910   5
  -3  -2  -5 621.542 42.5590   1
  -3  -2  -5 655.448 19.4266   6
   3   2   5 639.852 19.2966   6
   3   2   5 628.599 18.6926   4
   3   2   5 662.403 19.3696   2
   3   2   5 627.183 44.8835   1
  -4  -2  -5 21.9252 3.82969   4
  -4  -2  -5 32.0172 5.29601   5
  -4  -2  -5 27.4981 4.41991   6
  -4  -2  -5 4.71278 16.2888   1
   4   2   5 30.9719 4.89684   2
   4   2   5 2.83723 17.2029   1
   4   2   5 23.6265 4.65787   6
   4   2   5 29.9406 5.90024   5
   4   2   5 26.2958 3.76698   4
  -5  -2  -5 4.16236 2.30803   3
  -5  -2  -5 1.98115 2.75805   4
  -5  -2  -5 0.85185 18.0369   1
  -5  -2  -5 6.96512 3.86384   6
  -5  -2  -5 -1.1928 3.78753   5
   5   2   5 3.08403 2.67906   3
   5   2   5 7.83083 20.5531   1
   5   2   5 4.97199 4.59345   2
   5   2   5 -5.0388 3.57703   6
   5   2   5 13.0706 5.45900   5
   5   2   5 0.72809 2.61029   4
  -6  -2  -5 19.7330 3.11501   4
  -6  -2  -5 20.1044 4.83638   5
  -6  -2  -5 52.3268 23.0383   1
  -6  -2  -5 19.9412 6.40183   6
  -6  -2  -5 23.1224 3.79251   3
   6   2   5 14.2492 6.44845   2
   6   2   5 27.1774 5.81532   6
   6   2   5 11.9744 6.59636   5
   6   2   5 -6.2716 22.7337   1
   6   2   5 31.3416 3.42958   4
   6   2   5 22.8755 4.39445   3
  -7  -2  -5 4.57939 6.86325   6
  -7  -2  -5 0.04658 4.78666   5
  -7  -2  -5 -3.8539 3.68030   3
  -7  -2  -5 -5.3394 24.0142   1
   7   2   5 -2.1632 7.38486   5
   7   2   5 -2.0091 4.77627   6
   7   2   5 -13.023 26.9795   1
   7   2   5 -12.287 6.76713   2
   7   2   5 2.20871 4.57632   3
   7   2   5 0.59838 1.04948   4
  -8  -2  -5 45.7598 6.51172   3
  -8  -2  -5 32.5281 9.55090   6
  -8  -2  -5 37.2807 8.51784   5
  -8  -2  -5 13.0347 32.2902   1
   8   2   5 34.0063 34.3092   1
   8   2   5 39.6103 7.29873   3
   8   2   5 57.5936 8.72087   6
   8   2   5 35.3930 8.27950   2
   8   2   5 23.8768 10.4569   2
  -9  -2  -5 1.01834 6.17684   5
  -9  -2  -5 10.8094 6.29201   3
   9   2   5 -5.9938 11.0981   2
   9   2   5 -5.0388 7.59183   6
   9   2   5 -2.1854 8.65618   3
 -10  -2  -5 -10.220 7.86638   3
 -10  -2  -5 -1.8392 7.29595   5
  10   2   5 -35.022 19.9946   3
  10   2   5 -8.6907 10.7565   2
  10   2   5 -8.0038 8.68891   6
 -11  -2  -5 92.3488 14.0448   3
  11   2   5 66.2277 15.9244   2
  11   2   5 55.9618 13.5548   6
 -12  -2  -5 -21.831 14.0031   3
  12   2   5 -50.797 18.2795   2
  12   2   5 14.8045 16.1193   6
   7  -3  -5 -14.921 14.8899   5
   7  -3  -5 -18.791 15.5761   2
  -7   3   5 8.38774 15.7633   3
  -7   3   5 -2.4672 13.9067   4
   6  -3  -5 343.844 25.4187   2
   6  -3  -5 292.262 23.3955   5
  -6   3   5 294.071 23.3550   3
  -6   3   5 330.319 22.5453   4
   5  -3  -5 35.7269 11.2185   5
   5  -3  -5 54.9744 12.4601   2
  -5   3   5 43.1765 10.7171   4
  -5   3   5 38.2066 10.6906   3
   4  -3  -5 428.490 21.8663   2
   4  -3  -5 402.708 20.7124   5
   4  -3  -5 408.606 22.9789   4
  -4   3   5 412.449 20.5996   3
  -4   3   5 396.417 19.7496   4
   3  -3  -5 666.474 25.1483   4
   3  -3  -5 666.185 25.5943   2
   3  -3  -5 674.569 70.2136   1
   3  -3  -5 670.010 25.0369   5
   3  -3  -5 653.924 25.1268   3
  -3   3   5 635.795 24.1514   3
  -3   3   5 665.085 26.1997   2
  -3   3   5 597.732 73.4948   1
  -3   3   5 676.084 24.2985   4
   2  -3  -5 127.116 11.5848   2
   2  -3  -5 127.886 11.7499   5
   2  -3  -5 141.033 33.2970   1
   2  -3  -5 109.091 10.8951   4
   2  -3  -5 133.304 11.8521   3
  -2   3   5 130.034 35.0104   1
  -2   3   5 137.091 11.1719   4
  -2   3   5 134.945 10.2165   3
  -2   3   5 114.633 12.8004   2
   1  -3  -5 2237.15 55.1902   5
   1  -3  -5 2273.86 55.4023   2
   1  -3  -5 2055.81 92.4355   1
   1  -3  -5 2276.97 53.7896   3
   1  -3  -5 2177.68 55.1911   4
  -1   3   5 2194.15 49.3005   6
  -1   3   5 2222.31 49.2518   6
  -1   3   5 2149.26 95.6593   1
  -1   3   5 2262.48 54.9085   5
  -1   3   5 2226.55 53.7283   3
  -1   3   5 2238.10 55.4674   2
  -1   3   5 2104.05 54.9857   4
   0  -3  -5 424.573 41.7120   1
   0  -3  -5 406.694 13.8114   3
   0  -3  -5 417.735 15.6076   2
   0  -3  -5 390.520 16.0472   4
   0  -3  -5 381.647 15.7765   5
   0   3   5 356.961 44.0345   1
   0   3   5 382.193 15.3362   5
   0   3   5 378.120 15.5858   4
   0   3   5 393.894 13.7167   3
   0   3   5 396.511 15.7450   2
   0   3   5 392.790 12.1824   6
  -1  -3  -5 1889.39 79.2650   1
  -1  -3  -5 1870.48 43.4581   3
  -1  -3  -5 1857.60 46.5620   5
  -1  -3  -5 1910.41 46.5217   2
  -1  -3  -5 1915.41 46.7859   4
   1   3   5 1896.74 46.8442   5
   1   3   5 1848.52 44.0028   6
   1   3   5 1864.97 46.6429   4
   1   3   5 1808.92 78.2080   1
  -2  -3  -5 1586.82 39.6693   2
  -2  -3  -5 1551.00 35.6134   3
  -2  -3  -5 1609.92 70.7825   1
  -2  -3  -5 1556.18 39.5920   4
  -2  -3  -5 1542.37 39.7655   5
   2   3   5 1587.07 72.2141   1
   2   3   5 1609.15 39.7648   2
   2   3   5 1561.99 39.6440   4
   2   3   5 1554.68 38.3506   6
  -3  -3  -5 293.509 11.8120   5
  -3  -3  -5 276.225 11.9860   2
  -3  -3  -5 287.913 7.29815   3
  -3  -3  -5 281.725 7.37151   3
  -3  -3  -5 265.128 13.0638   4
  -3  -3  -5 285.791 34.7682   1
   3   3   5 276.190 11.4551   6
   3   3   5 252.196 14.2175   5
   3   3   5 274.459 34.8755   1
   3   3   5 287.462 13.9524   2
   3   3   5 291.048 11.6106   4
  -4  -3  -5 1157.00 29.9698   4
  -4  -3  -5 1126.81 30.8808   5
  -4  -3  -5 1140.09 31.2991   2
  -4  -3  -5 1145.68 61.4651   1
   4   3   5 1135.70 31.0430   6
   4   3   5 1183.55 31.7558   5
   4   3   5 1177.01 31.5055   2
   4   3   5 1153.44 29.7909   4
   4   3   5 1142.68 59.0521   1
  -5  -3  -5 167.015 27.8552   1
  -5  -3  -5 166.447 5.24032   3
  -5  -3  -5 169.464 10.7840   6
  -5  -3  -5 159.322 8.30401   4
  -5  -3  -5 143.965 9.84187   5
   5   3   5 173.593 10.9338   2
   5   3   5 172.533 10.2276   6
   5   3   5 173.863 8.41069   4
   5   3   5 176.773 11.4333   5
   5   3   5 137.537 26.1169   1
  -6  -3  -5 566.591 14.9064   3
  -6  -3  -5 541.630 20.2843   6
  -6  -3  -5 571.391 49.2359   1
  -6  -3  -5 570.075 16.3259   4
  -6  -3  -5 542.686 19.9488   5
   6   3   5 534.486 19.4012   6
   6   3   5 536.467 20.5494   2
   6   3   5 551.444 15.0314   3
   6   3   5 575.627 16.3088   4
   6   3   5 574.063 49.5883   1
   6   3   5 539.294 20.5295   5
  -7  -3  -5 219.781 9.26737   3
  -7  -3  -5 219.062 13.5988   5
  -7  -3  -5 210.114 33.0228   1
   7   3   5 191.463 12.8259   6
   7   3   5 215.300 15.5023   5
   7   3   5 210.924 9.69948   3
   7   3   5 236.524 15.6037   2
   7   3   5 209.707 8.26306   4
   7   3   5 233.206 34.4690   1
  -8  -3  -5 -46.526 27.6223   1
  -8  -3  -5 50.3196 8.09056   5
  -8  -3  -5 47.3574 6.08646   3
   8   3   5 40.3915 8.74381   5
   8   3   5 40.4334 7.92946   6
   8   3   5 68.4380 33.7434   1
   8   3   5 39.3618 11.0057   2
  -9  -3  -5 52.0242 7.24075   3
  -9  -3  -5 59.4127 10.2572   5
   9   3   5 40.1050 8.55088   3
   9   3   5 44.2206 9.27504   6
 -10  -3  -5 26.2849 10.6137   5
 -10  -3  -5 28.9211 8.16011   3
  10   3   5 18.9640 9.87015   6
  10   3   5 16.2809 11.2886   3
  10   3   5 13.6351 11.1322   2
 -11  -3  -5 11.2575 10.7594   3
  11   3   5 5.14225 11.9662   6
  11   3   5 20.7928 13.7102   2
 -12  -3  -5 -9.6750 14.0906   3
  12   3   5 -2.3853 17.6410   2
  12   3   5 5.42957 14.6588   6
   6  -4  -5 23.2689 14.5343   5
   6  -4  -5 25.2886 16.2915   2
  -6   4   5 20.2712 13.5041   4
  -6   4   5 14.6024 13.7446   3
   5  -4  -5 128.380 15.5959   5
   5  -4  -5 134.834 17.1324   2
  -5   4   5 83.9165 13.1161   4
  -5   4   5 151.347 17.9402   3
   4  -4  -5 252.358 19.3168   2
   4  -4  -5 217.092 18.3349   5
  -4   4   5 239.807 17.0528   4
  -4   4   5 248.636 18.3350   3
   3  -4  -5 95.7922 12.0552   2
   3  -4  -5 97.1275 13.0370   4
   3  -4  -5 147.390 45.7430   1
   3  -4  -5 73.1749 12.6672   3
   3  -4  -5 79.8025 11.0218   5
  -3   4   5 86.5477 10.5399   3
  -3   4   5 76.6828 10.8088   4
   2  -4  -5 963.047 31.6915   2
   2  -4  -5 922.387 29.7962   5
   2  -4  -5 902.624 30.7392   4
   2  -4  -5 986.877 77.5415   1
   2  -4  -5 893.293 30.1057   3
  -2   4   5 1004.57 83.8191   1
  -2   4   5 917.753 30.0881   4
  -2   4   5 909.711 31.7230   2
  -2   4   5 917.792 22.3234   6
  -2   4   5 927.344 28.9620   3
   1  -4  -5 55.5950 30.0519   1
   1  -4  -5 58.6213 8.61406   4
   1  -4  -5 55.6949 8.67849   2
   1  -4  -5 51.6026 7.87153   5
   1  -4  -5 64.9046 7.76050   3
  -1   4   5 50.1720 7.78776   4
  -1   4   5 46.5356 33.0789   1
  -1   4   5 51.9377 5.15884   6
  -1   4   5 45.4770 9.22829   2
  -1   4   5 50.4987 6.82336   3
  -1   4   5 54.4601 6.07401   6
   0  -4  -5 1510.90 40.3892   4
   0  -4  -5 1482.57 40.7456   2
   0  -4  -5 1544.72 80.1639   1
   0  -4  -5 1464.00 39.6463   5
   0  -4  -5 1436.16 40.0764   3
   0   4   5 1500.27 40.4872   4
   0   4   5 1476.27 37.5915   3
   0   4   5 1530.64 36.2976   6
   0   4   5 1564.62 39.5869   5
   0   4   5 1486.32 36.2842   6
   0   4   5 1555.44 41.4483   2
   0   4   5 1409.22 79.6235   1
  -1  -4  -5 1235.97 30.2793   3
  -1  -4  -5 1259.73 68.2670   1
  -1  -4  -5 1186.85 33.8597   2
  -1  -4  -5 1221.97 34.0295   4
  -1  -4  -5 1206.24 33.0466   5
   1   4   5 1242.80 32.8863   5
   1   4   5 1195.32 30.1061   3
   1   4   5 1207.12 30.9034   6
   1   4   5 1240.47 34.2278   2
   1   4   5 1189.08 33.6748   4
   1   4   5 1173.56 67.3667   1
  -2  -4  -5 641.469 20.9041   2
  -2  -4  -5 615.585 20.3122   5
  -2  -4  -5 572.524 46.4796   1
  -2  -4  -5 630.667 16.1376   3
  -2  -4  -5 618.836 20.7236   4
   2   4   5 633.367 50.4706   1
   2   4   5 630.658 21.0318   2
   2   4   5 631.416 20.6246   4
   2   4   5 614.492 18.8998   6
   2   4   5 633.443 20.5730   5
  -3  -4  -5 3140.42 72.7820   5
  -3  -4  -5 3267.40 110.977   1
  -3  -4  -5 3075.45 73.8581   2
  -3  -4  -5 3194.07 73.2617   4
   3   4   5 3015.58 72.3478   6
   3   4   5 3150.99 109.780   1
   3   4   5 3150.30 73.8582   2
   3   4   5 3169.58 72.9984   5
   3   4   5 3101.60 73.1146   4
  -4  -4  -5 60.9865 6.70063   4
  -4  -4  -5 72.2375 8.21337   2
  -4  -4  -5 14.8547 18.8525   1
  -4  -4  -5 71.6176 7.21645   5
   4   4   5 57.1846 6.28171   4
   4   4   5 62.2519 7.59937   5
   4   4   5 72.7023 8.77191   2
   4   4   5 66.3856 7.45604   6
  -5  -4  -5 1399.72 37.0073   5
  -5  -4  -5 1380.19 67.9375   1
  -5  -4  -5 1384.52 37.8599   2
   5   4   5 1381.51 37.9399   2
   5   4   5 1363.85 37.1243   6
   5   4   5 1352.91 67.7782   1
   5   4   5 1379.56 37.4180   5
   5   4   5 1395.58 35.2823   4
  -6  -4  -5 1009.50 29.4679   5
  -6  -4  -5 1019.73 27.0392   4
  -6  -4  -5 989.539 60.2115   1
   6   4   5 992.779 59.0792   1
   6   4   5 990.993 29.9566   6
   6   4   5 997.597 30.3558   5
   6   4   5 991.619 30.2379   2
   6   4   5 985.775 26.7391   4
  -7  -4  -5 243.463 12.9185   5
  -7  -4  -5 232.241 36.5533   1
   7   4   5 230.671 10.0336   4
   7   4   5 234.544 8.46829   3
   7   4   5 237.491 13.9595   6
   7   4   5 190.657 32.4255   1
   7   4   5 229.984 15.3889   5
   7   4   5 234.313 16.1166   2
  -8  -4  -5 823.852 22.1061   3
  -8  -4  -5 834.514 28.4966   5
  -8  -4  -5 741.103 62.0051   1
   8   4   5 817.493 21.2824   4
   8   4   5 834.587 34.4955   2
   8   4   5 773.086 28.3082   5
   8   4   5 676.563 63.6660   1
   8   4   5 844.593 28.5024   6
   8   4   5 780.520 21.9238   3
  -9  -4  -5 -5.9080 4.92825   3
   9   4   5 4.92587 2.10391   4
   9   4   5 2.25504 1.78643   4
   9   4   5 1.40045 7.48606   6
   9   4   5 0.90253 6.24213   3
 -10  -4  -5 255.677 15.0354   3
 -10  -4  -5 249.248 19.6197   5
  10   4   5 210.375 17.0817   3
  10   4   5 226.273 18.4596   6
  10   4   5 239.883 20.6294   2
 -11  -4  -5 22.1131 9.71042   3
  11   4   5 38.3111 12.1330   6
  11   4   5 40.0286 14.8943   2
 -12  -4  -5 -16.134 16.6068   3
  12   4   5 23.7108 14.8081   6
  12   4   5 46.0716 18.1449   2
   6  -5  -5 34.8842 19.9830   2
   6  -5  -5 -7.7678 17.7444   5
  -6   5   5 10.9968 15.9553   4
  -6   5   5 13.6492 17.1991   3
   5  -5  -5 31.6862 16.0275   2
   5  -5  -5 24.4549 14.2420   5
  -5   5   5 48.9823 12.6823   4
  -5   5   5 20.2258 12.2740   3
   4  -5  -5 8.14697 10.1851   5
   4  -5  -5 -3.4464 11.3788   2
  -4   5   5 14.9421 9.86103   4
  -4   5   5 12.7349 9.66136   3
   3  -5  -5 124.301 14.2389   5
   3  -5  -5 108.326 14.3133   2
  -3   5   5 137.190 14.7784   4
  -3   5   5 128.497 14.4418   3
   2  -5  -5 64.2318 50.1124   1
   2  -5  -5 49.1723 10.5044   2
   2  -5  -5 71.8575 11.2523   3
   2  -5  -5 61.2113 9.50250   5
  -2   5   5 63.6227 5.99408   6
  -2   5   5 66.9818 9.25622   3
  -2   5   5 64.2317 50.2445   1
  -2   5   5 50.1607 5.51890   6
  -2   5   5 79.5894 10.4116   4
   1  -5  -5 744.684 24.6406   5
   1  -5  -5 695.096 26.1883   4
   1  -5  -5 690.951 24.6832   3
   1  -5  -5 727.619 27.0060   2
  -1   5   5 697.190 23.1938   3
  -1   5   5 704.596 20.4659   6
  -1   5   5 652.897 27.1457   2
  -1   5   5 703.429 19.8029   6
  -1   5   5 644.214 75.9279   1
  -1   5   5 691.084 25.4393   4
   0  -5  -5 196.668 14.5105   4
   0  -5  -5 188.337 39.0314   1
   0  -5  -5 190.569 11.1454   3
   0  -5  -5 202.063 12.9714   5
   0  -5  -5 171.906 13.3435   2
   0   5   5 207.361 12.6167   5
   0   5   5 214.260 10.7398   6
   0   5   5 169.395 39.8451   1
   0   5   5 205.993 9.64081   6
   0   5   5 214.581 11.1139   3
   0   5   5 189.943 15.6061   2
   0   5   5 186.378 12.9180   4
  -1  -5  -5 359.380 17.2038   2
  -1  -5  -5 376.265 17.2755   4
  -1  -5  -5 382.812 13.6427   3
  -1  -5  -5 444.620 50.5309   1
  -1  -5  -5 387.475 15.6949   5
   1   5   5 370.035 13.9144   6
   1   5   5 383.546 14.4804   6
   1   5   5 387.829 16.8115   4
   1   5   5 356.210 18.2292   2
   1   5   5 417.301 53.7395   1
   1   5   5 371.826 13.1408   3
   1   5   5 388.035 15.6938   5
  -2  -5  -5 1187.27 32.6708   5
  -2  -5  -5 1246.38 69.8146   1
  -2  -5  -5 1220.43 29.0352   3
  -2  -5  -5 1200.86 34.4606   2
  -2  -5  -5 1249.80 34.3723   4
   2   5   5 1194.69 32.0674   6
   2   5   5 1212.86 32.5219   5
   2   5   5 1033.26 108.385   1
   2   5   5 1247.64 34.4591   4
   2   5   5 1173.30 28.8001   3
   2   5   5 1202.15 35.1532   2
  -3  -5  -5 0.00120 5.46092   4
  -3  -5  -5 0.51472 1.27510   3
  -3  -5  -5 2.58776 4.45270   5
  -3  -5  -5 23.1464 23.0948   1
  -3  -5  -5 1.06687 4.76045   2
   3   5   5 -3.0378 4.58505   5
   3   5   5 -26.493 20.9386   1
   3   5   5 6.81175 4.81361   4
   3   5   5 3.71545 4.01393   6
   3   5   5 8.75794 6.13547   2
  -4  -5  -5 1778.00 44.5078   4
  -4  -5  -5 1707.08 79.4037   1
  -4  -5  -5 1709.82 45.7055   2
  -4  -5  -5 1758.96 43.5801   5
   4   5   5 1711.46 45.8519   2
   4   5   5 1722.60 44.2077   4
   4   5   5 1754.30 43.9318   5
   4   5   5 1658.91 78.3214   1
   4   5   5 1681.76 44.2658   6
  -5  -5  -5 643.262 20.9505   4
  -5  -5  -5 649.022 22.8127   2
  -5  -5  -5 637.096 50.9923   1
  -5  -5  -5 635.989 20.9837   5
   5   5   5 611.677 21.6806   6
   5   5   5 647.957 52.8785   1
   5   5   5 602.147 22.8263   2
   5   5   5 646.499 21.9450   5
   5   5   5 606.326 20.3350   4
  -6  -5  -5 1062.87 31.0463   5
  -6  -5  -5 1007.44 62.6614   1
  -6  -5  -5 1090.31 29.7877   4
   6   5   5 1064.94 29.4113   4
   6   5   5 1054.42 63.6544   1
   6   5   5 1050.77 33.0660   2
   6   5   5 1065.19 31.9184   6
   6   5   5 1066.92 31.9315   5
  -7  -5  -5 1037.44 64.0843   1
  -7  -5  -5 989.480 30.6838   5
   7   5   5 1003.63 31.7651   5
   7   5   5 943.326 32.5801   2
   7   5   5 990.801 27.6593   4
   7   5   5 998.660 31.4380   6
   7   5   5 1058.48 64.9678   1
  -8  -5  -5 11.4597 7.25254   5
   8   5   5 44.9211 28.8800   1
   8   5   5 11.3807 4.69704   4
   8   5   5 15.2357 7.35523   6
   8   5   5 14.7731 3.39628   3
   8   5   5 1.59019 9.88160   5
   9   5   5 385.496 14.3188   3
   9   5   5 391.389 13.6067   4
 -10  -5  -5 99.3608 13.5334   5
  10   5   5 152.648 13.4612   3
  10   5   5 138.733 16.2191   6
  10   5   5 134.037 6.09895   4
  11   5   5 119.250 15.4929   2
  11   5   5 105.839 15.2533   6
  12   5   5 65.0521 18.9417   2
  12   5   5 70.7078 16.0408   6
   5  -6  -5 41.8544 19.8439   2
   5  -6  -5 46.3717 16.9526   5
  -5   6   5 54.5015 15.5431   4
  -5   6   5 43.1265 17.2452   3
   4  -6  -5 -7.8731 13.9961   2
   4  -6  -5 16.2657 13.4181   5
  -4   6   5 -0.4830 11.7433   4
  -4   6   5 8.34823 11.7948   3
   3  -6  -5 28.8752 11.4445   5
   3  -6  -5 14.7127 12.1943   2
  -3   6   5 27.0933 10.4931   4
  -3   6   5 12.1654 9.57439   3
   2  -6  -5 19.2341 9.24165   5
   2  -6  -5 21.5412 10.3244   2
  -2   6   5 12.7949 9.59222   4
  -2   6   5 16.6540 6.75207   6
  -2   6   5 27.0244 5.22935   6
  -2   6   5 22.8782 8.81190   3
   1  -6  -5 63.4823 45.5277   1
   1  -6  -5 4.78575 8.66119   3
   1  -6  -5 -2.1202 8.17461   2
   1  -6  -5 7.46218 6.59938   5
  -1   6   5 -5.6222 6.77787   6
  -1   6   5 -5.2471 7.21418   4
  -1   6   5 -0.6337 4.28376   6
  -1   6   5 -16.414 52.4427   1
  -1   6   5 2.24792 5.87413   3
   0  -6  -5 146.193 11.8769   3
   0  -6  -5 28.8554 37.6226   1
   0  -6  -5 139.872 13.4773   2
   0  -6  -5 144.820 12.2064   5
   0  -6  -5 109.352 15.2434   4
   0   6   5 145.144 12.9549   4
   0   6   5 139.993 10.3610   3
   0   6   5 157.376 11.7929   6
   0   6   5 72.4398 45.9616   1
   0   6   5 95.2403 14.3355   2
   0   6   5 145.532 9.49882   6
  -1  -6  -5 54.9047 8.18355   2
  -1  -6  -5 -13.606 31.4256   1
  -1  -6  -5 46.3951 7.01512   5
  -1  -6  -5 39.0757 9.51715   4
   1   6   5 47.9785 6.05362   6
   1   6   5 54.3461 6.04678   3
   1   6   5 52.1269 7.56162   5
   1   6   5 26.2694 36.3263   1
   1   6   5 46.5700 10.4365   2
   1   6   5 58.4286 8.82845   4
   1   6   5 45.4171 7.39308   6
  -2  -6  -5 18.9687 27.3265   1
  -2  -6  -5 10.4795 6.54633   2
  -2  -6  -5 -0.5669 4.80203   5
  -2  -6  -5 8.77544 3.92928   3
  -2  -6  -5 12.3815 7.29062   4
   2   6   5 9.29152 5.49813   5
   2   6   5 9.80359 3.24713   3
   2   6   5 5.06260 5.75295   6
   2   6   5 32.4793 31.1616   1
   2   6   5 21.8262 8.91424   2
   2   6   5 14.4125 4.92991   6
   2   6   5 9.53420 5.72430   4
  -3  -6  -5 285.354 12.8186   5
  -3  -6  -5 267.258 38.7547   1
  -3  -6  -5 283.702 8.56891   3
  -3  -6  -5 290.426 15.8542   4
  -3  -6  -5 296.970 15.8161   2
   3   6   5 219.229 39.0393   1
   3   6   5 312.826 13.9003   5
   3   6   5 296.576 13.9390   6
   3   6   5 270.684 14.9831   2
   3   6   5 263.823 14.4346   4
   3   6   5 269.315 14.9163   6
  -4  -6  -5 54.9925 8.62880   2
  -4  -6  -5 47.8743 26.8187   1
  -4  -6  -5 75.2616 9.14721   4
  -4  -6  -5 66.9328 7.10833   5
   4   6   5 61.4941 9.93794   2
   4   6   5 83.4611 29.4163   1
   4   6   5 66.2561 7.82842   6
   4   6   5 53.8898 7.61413   5
   4   6   5 54.8669 7.43622   4
  -5  -6  -5 174.091 12.5797   4
  -5  -6  -5 182.870 13.6356   2
  -5  -6  -5 165.591 10.4002   5
  -5  -6  -5 160.299 32.8693   1
   5   6   5 195.503 15.3296   2
   5   6   5 175.052 11.4038   4
   5   6   5 193.601 13.6599   5
   5   6   5 198.917 33.8377   1
   5   6   5 192.088 12.3579   6
  -6  -6  -5 346.408 47.9264   1
  -6  -6  -5 379.158 15.7902   5
  -6  -6  -5 383.561 17.2648   4
  -6  -6  -5 355.599 18.1382   2
   6   6   5 351.230 17.2540   5
   6   6   5 335.961 16.9810   6
   6   6   5 288.267 38.9812   1
   6   6   5 360.949 15.6275   4
   6   6   5 342.567 19.6667   2
  -7  -6  -5 3.26550 27.2791   1
  -7  -6  -5 8.97774 6.08662   5
   7   6   5 10.0657 6.83505   6
   7   6   5 19.4449 11.9694   2
   7   6   5 10.3566 8.42104   5
   7   6   5 37.5555 28.6692   1
   7   6   5 18.1600 5.89685   4
  -8  -6  -5 422.553 19.3406   5
   8   6   5 407.040 20.3701   6
   8   6   5 409.899 16.3845   4
   8   6   5 328.003 20.9469   5
   9   6   5 83.0091 9.77125   4
   9   6   5 83.4662 5.57428   3
   9   6   5 92.6391 11.5484   6
 -10  -6  -5 208.345 18.3539   5
  10   6   5 220.105 12.0982   4
  10   6   5 225.361 18.7050   6
  11   6   5 169.787 17.4701   6
  11   6   5 112.087 17.7349   2
  12   6   5 -3.7434 17.2395   2
  12   6   5 -2.1186 14.7754   6
   4  -7  -5 13.0862 15.3174   5
   4  -7  -5 4.34968 19.1856   2
  -4   7   5 27.7996 16.2538   4
  -4   7   5 63.5562 16.6112   3
   3  -7  -5 129.274 19.2057   2
  -3   7   5 141.104 17.4826   4
  -3   7   5 184.373 19.6601   3
   2  -7  -5 -1.3040 11.8327   2
   2  -7  -5 -12.293 9.34419   5
  -2   7   5 -1.0127 9.90611   4
  -2   7   5 -9.7875 5.82542   6
  -2   7   5 13.7795 9.33531   3
   1  -7  -5 159.051 14.7055   5
   1  -7  -5 160.938 19.1517   3
   1  -7  -5 142.687 61.9121   1
   1  -7  -5 172.453 15.5091   2
  -1   7   5 154.991 11.9439   6
  -1   7   5 188.124 15.0572   3
  -1   7   5 177.494 16.5144   4
  -1   7   5 131.115 15.4331   6
   0  -7  -5 100.617 51.1653   1
   0  -7  -5 67.1833 10.8281   2
   0  -7  -5 47.3309 10.2930   3
   0  -7  -5 64.2683 8.89745   5
   0   7   5 36.1788 55.7027   1
   0   7   5 82.6793 10.0097   6
   0   7   5 56.2859 8.20872   3
  -1  -7  -5 5.22216 39.2097   1
  -1  -7  -5 16.9486 6.49740   5
  -1  -7  -5 30.3136 9.33839   2
  -1  -7  -5 16.9079 7.24072   3
   1   7   5 25.4423 5.72356   3
   1   7   5 -50.327 45.6347   1
   1   7   5 29.6044 8.71638   6
   1   7   5 27.6326 8.47451   4
  -2  -7  -5 226.289 11.8713   3
  -2  -7  -5 261.727 45.1832   1
  -2  -7  -5 226.822 16.1610   2
  -2  -7  -5 242.814 12.5829   5
   2   7   5 225.968 10.2748   3
   2   7   5 206.399 47.2998   1
   2   7   5 249.569 14.2999   4
   2   7   5 219.496 14.9186   6
   2   7   5 242.824 13.3081   5
   2   7   5 246.436 13.2816   6
  -3  -7  -5 19.0768 9.14825   4
  -3  -7  -5 15.8778 5.10416   5
  -3  -7  -5 17.8785 3.77377   3
  -3  -7  -5 12.9767 7.76207   2
  -3  -7  -5 32.5557 33.0014   1
   3   7   5 21.0636 6.29517   5
   3   7   5 16.4824 10.5119   2
   3   7   5 16.3908 5.96865   6
   3   7   5 17.2568 3.19660   3
   3   7   5 34.7506 36.8815   1
   3   7   5 16.8334 6.91460   4
   3   7   5 9.40204 7.53991   6
  -4  -7  -5 139.959 14.4358   4
  -4  -7  -5 115.472 9.38509   5
  -4  -7  -5 132.338 36.3420   1
  -4  -7  -5 119.733 13.1209   2
   4   7   5 142.770 11.9548   4
   4   7   5 129.851 14.0020   2
   4   7   5 128.110 11.5519   5
   4   7   5 150.020 38.5783   1
   4   7   5 152.954 14.0980   6
   4   7   5 126.806 11.2263   6
  -5  -7  -5 -18.916 29.9464   1
  -5  -7  -5 37.2244 9.12089   4
  -5  -7  -5 30.7163 6.27930   5
  -5  -7  -5 37.3131 8.48481   2
   5   7   5 31.5276 7.64934   5
   5   7   5 42.3150 7.57010   4
   5   7   5 37.3501 10.7732   2
   5   7   5 -24.828 30.3313   1
   5   7   5 40.3647 9.66261   6
   5   7   5 31.4300 6.58254   6
  -6  -7  -5 -1.7509 5.30707   5
  -6  -7  -5 -2.4903 8.08036   4
  -6  -7  -5 -5.8863 6.58281   2
  -6  -7  -5 -38.341 34.7239   1
   6   7   5 -23.668 30.1216   1
   6   7   5 9.19950 6.56946   6
   6   7   5 12.8739 6.02658   4
   6   7   5 -3.3897 7.30920   5
  -7  -7  -5 9.94456 6.13357   5
   7   7   5 1.50852 5.76417   4
   7   7   5 27.3748 8.25250   6
   7   7   5 -23.007 8.28838   5
  -8  -7  -5 7.53489 7.31927   5
   8   7   5 8.76906 8.21702   6
   8   7   5 3.01004 6.44850   4
   8   7   5 -8.1825 10.8984   5
   9   7   5 23.7095 9.58226   6
   9   7   5 15.0472 6.97129   4
 -10  -7  -5 16.9611 10.0151   5
  10   7   5 22.6967 7.86692   4
  10   7   5 25.9697 10.7623   6
  11   7   5 -3.8260 13.1100   6
  12   7   5 10.6652 16.5739   6
  12   7   5 22.7061 18.9466   2
   3  -8  -5 6.31720 16.3952   2
  -3   8   5 -2.4496 14.2896   3
  -3   8   5 8.39716 15.6049   4
   2  -8  -5 189.429 19.9466   5
   2  -8  -5 152.918 18.9976   2
  -2   8   5 194.283 21.6530   4
  -2   8   5 187.346 19.6765   3
   1  -8  -5 81.5912 11.3363   5
   1  -8  -5 70.7386 15.6741   2
  -1   8   5 60.5343 9.50408   6
  -1   8   5 87.4644 14.2350   4
   0  -8  -5 137.516 109.797   1
   0  -8  -5 155.998 14.2621   5
   0  -8  -5 132.844 16.4356   2
   0  -8  -5 109.971 14.4264   3
   0   8   5 165.611 17.7974   4
   0   8   5 138.870 77.0778   1
   0   8   5 108.829 14.1590   6
   0   8   5 162.201 14.9230   3
  -1  -8  -5 447.911 21.1171   3
  -1  -8  -5 288.143 67.5784   1
  -1  -8  -5 494.429 25.6099   2
  -1  -8  -5 449.391 18.0214   5
   1   8   5 325.662 72.2742   1
   1   8   5 449.953 22.9425   6
   1   8   5 471.410 23.7560   4
  -2  -8  -5 27.4928 50.7365   1
  -2  -8  -5 9.78901 7.30497   3
  -2  -8  -5 -3.8882 5.39568   5
  -2  -8  -5 11.8126 8.41812   2
   2   8   5 13.1233 10.2986   6
   2   8   5 -41.737 51.4388   1
   2   8   5 3.61740 7.93108   4
   2   8   5 0.08964 4.82790   3
  -3  -8  -5 485.959 17.2875   5
   3   8   5 465.725 20.5203   6
   3   8   5 497.538 18.0087   5
   3   8   5 436.930 22.7946   6
   3   8   5 469.661 65.0076   1
  -4  -8  -5 219.414 11.9461   5
  -4  -8  -5 257.675 21.2562   2
   4   8   5 232.049 13.7425   5
   4   8   5 225.115 15.9398   4
   4   8   5 215.594 47.4051   1
   4   8   5 205.300 15.1260   6
  -5  -8  -5 182.371 11.5550   5
   5   8   5 166.364 14.1030   6
   5   8   5 181.307 14.5785   4
   5   8   5 189.085 14.0946   5
  -6  -8  -5 390.853 16.7825   5
  -6  -8  -5 324.794 22.0996   2
   6   8   5 391.652 18.7005   5
   6   8   5 374.448 19.0080   4
  -7  -8  -5 -2.0811 6.53394   5
  -7  -8  -5 -3.2863 8.33743   2
   7   8   5 14.0235 10.5757   5
   7   8   5 5.16564 7.08917   4
   7   8   5 9.21689 6.72333   6
  -8  -8  -5 202.444 16.1486   5
   8   8   5 208.092 17.4786   6
   8   8   5 203.451 20.0015   5
   8   8   5 204.762 16.0868   4
   9   8   5 31.4053 10.1103   6
   9   8   5 29.6541 9.69012   4
 -10  -8  -5 14.9653 10.8709   5
  10   8   5 17.3555 9.57318   4
  10   8   5 35.3224 12.2940   6
  11   8   5 2.02932 13.6561   6
  12   8   5 11.8601 17.7367   6
   2  -9  -5 25.6876 21.5822   2
  -2   9   5 44.0858 17.1999   4
  -2   9   5 24.3391 16.2617   3
   1  -9  -5 44.5337 16.9873   2
  -1   9   5 18.1818 14.1381   4
  -1   9   5 34.0553 12.8915   3
   0  -9  -5 208.596 24.5864   2
   0   9   5 182.861 21.9493   4
   0   9   5 214.307 18.4856   3
  -1  -9  -5 -19.695 11.6248   2
  -1  -9  -5 7.99622 7.16585   5
   1   9   5 9.13064 8.35167   3
   1   9   5 18.7319 11.3631   4
  -2  -9  -5 375.846 24.3097   2
  -2  -9  -5 358.064 15.0943   5
   2   9   5 358.389 21.9972   4
  -3  -9  -5 97.7628 14.5677   2
  -3  -9  -5 118.126 10.6735   5
  -3  -9  -5 138.338 16.6251   3
   3   9   5 110.210 14.0142   4
   3   9   5 112.252 9.25531   3
  -4  -9  -5 320.947 14.3038   5
  -4  -9  -5 327.106 22.2747   2
   4   9   5 323.198 20.5811   4
   4   9   5 315.356 19.0688   6
  -5  -9  -5 439.833 25.2308   2
  -5  -9  -5 483.625 17.9915   5
   5   9   5 487.037 23.7716   4
   5   9   5 456.351 19.8698   5
   5   9   5 486.485 23.8352   6
  -6  -9  -5 15.1235 10.1705   2
  -6  -9  -5 3.52920 6.58586   5
   6   9   5 10.7037 9.25750   6
   6   9   5 7.84074 8.98014   4
   6   9   5 25.4806 9.89414   5
  -7  -9  -5 476.312 20.0807   5
  -7  -9  -5 451.546 25.8146   2
   7   9   5 439.936 23.7335   5
   7   9   5 472.068 23.3211   4
   7   9   5 453.476 24.2607   6
  -8  -9  -5 65.6140 10.5677   5
   8   9   5 32.6490 10.1142   4
   8   9   5 10.6192 14.8667   5
   8   9   5 42.7850 12.0224   6
  -9  -9  -5 117.938 15.4736   5
   9   9   5 119.685 15.7353   6
   9   9   5 95.6435 13.3868   4
  10   9   5 127.694 17.8699   6
  10   9   5 186.881 20.1039   4
  11   9   5 16.0309 16.3256   6
  -1  10   5 52.7240 17.1740   3
   0 -10  -5 9.12848 18.9134   2
   0  10   5 -12.430 12.2082   6
   0  10   5 7.00907 12.8628   3
   0  10   5 -4.5809 15.3488   4
  -1 -10  -5 75.7684 17.9144   2
   1  10   5 82.5461 16.1207   4
   1  10   5 61.2231 12.2088   3
  -2 -10  -5 33.5991 15.3104   2
   2  10   5 37.6634 13.8643   4
   2  10   5 50.6960 9.58342   3
  -3 -10  -5 169.759 18.7386   2
   3  10   5 136.175 12.3448   3
   3  10   5 199.822 20.4900   4
  -4 -10  -5 140.394 13.5429   5
  -4 -10  -5 119.625 16.7256   2
   4  10   5 137.407 16.5031   4
   4  10   5 170.298 18.0980   6
  -5 -10  -5 49.8663 7.38250   5
  -5 -10  -5 49.8666 14.0144   2
   5  10   5 55.3689 12.1936   6
   5  10   5 35.3141 11.8620   4
  -6 -10  -5 301.578 15.6478   5
  -6 -10  -5 279.618 24.0301   2
   6  10   5 273.176 21.4137   6
   6  10   5 306.424 22.6253   4
  -7 -10  -5 23.0146 8.46490   5
  -7 -10  -5 44.5532 12.0623   2
   7  10   5 46.1454 12.1407   4
   7  10   5 7.48234 10.9061   6
  -8 -10  -5 260.390 18.4673   5
   8  10   5 234.922 20.7496   4
   8  10   5 246.097 23.1140   6
   9  10   5 186.884 22.1770   4
   9  10   5 181.872 19.9181   6
  10  10   5 40.9398 15.4324   4
  10  10   5 40.1936 16.8650   6
   1  11   5 37.8209 15.8721   6
  -2 -11  -5 -16.435 18.1428   2
   2  11   5 -3.1148 14.9608   4
  -3 -11  -5 -22.628 16.0207   2
   3  11   5 -22.393 12.5171   6
   3  11   5 -20.310 14.1187   4
  -4 -11  -5 -14.437 13.5127   2
   4  11   5 2.19566 12.4655   6
   4  11   5 -4.8091 13.0939   4
  -5 -11  -5 41.1092 16.0198   2
   5  11   5 -0.2701 12.3411   6
   5  11   5 36.7101 14.0775   4
  -6 -11  -5 1.58006 15.6587   2
   6  11   5 1.54066 13.0522   6
   6  11   5 -1.3802 13.0177   4
  -7 -11  -5 67.5253 17.6752   2
   7  11   5 80.6441 16.4494   6
   7  11   5 54.5985 15.5793   4
   8  11   5 8.97727 14.8871   4
   8  11   5 33.3181 15.4956   6
   9  11   5 0.00072 16.0973   6
   9  11   5 41.7863 16.4965   4
  10  11   5 70.5965 19.7505   4
   4  12   5 33.6748 17.6559   6
   5  12   5 -11.807 18.6764   4
   5  12   5 -2.8029 16.3503   6
  -6 -12  -5 -32.069 19.1071   2
   6  12   5 -13.925 16.3966   4
   6  12   5 20.9401 17.3049   6
  -7 -12  -5 -3.1203 23.3008   2
   7  12   5 -16.364 17.5734   6
   7  12   5 0.90166 18.1357   4
   5  11  -6 -9.5027 19.0095   3
   4  11  -6 33.2189 18.4256   3
   4  11  -6 21.5736 20.7151   4
   3  11  -6 25.0034 17.7509   3
   3  11  -6 30.7949 17.3262   4
  -3 -11   6 -29.005 15.8111   6
   2  11  -6 28.7284 17.0678   3
   2  11  -6 49.9658 18.7598   4
  -2 -11   6 21.7093 17.8603   6
   1  11  -6 13.9010 18.0124   3
   1  11  -6 -0.4310 17.0789   4
  -1 -11   6 -10.659 17.0780   6
   0  11  -6 47.0505 23.9448   3
   0  11  -6 -27.876 17.2637   4
   6  10  -6 37.5592 18.4100   3
   5  10  -6 -17.668 14.5834   3
   4  10  -6 29.3900 14.8661   3
   3  10  -6 10.2338 13.7117   4
   3  10  -6 -16.982 13.5375   3
  -3 -10   6 -5.3634 11.7772   6
   2  10  -6 11.9230 13.8770   3
   2  10  -6 4.39466 13.0103   4
  -2 -10   6 26.7126 14.3718   6
   1  10  -6 12.4090 12.9218   3
   1  10  -6 25.0729 13.2749   4
  -1 -10   6 9.66574 13.7713   6
   0  10  -6 32.4734 14.4851   4
   0  10  -6 19.6265 13.4383   3
   0 -10   6 55.0935 15.1404   6
  -1  10  -6 1.67187 15.0617   3
  -1  10  -6 8.45759 14.1323   4
   1 -10   6 3.84200 15.3068   6
  -2  10  -6 4.56863 16.5660   4
  -2  10  -6 31.4925 18.3519   3
   2 -10   6 0.28060 17.8407   6
   7   9  -6 146.979 21.6294   3
   7   9  -6 138.995 17.6568   5
   6   9  -6 12.0622 14.8140   3
   6   9  -6 2.08421 12.5363   5
   5   9  -6 123.266 17.2548   3
   5   9  -6 103.485 12.5993   5
   4   9  -6 39.5320 9.37510   5
   4   9  -6 54.8992 13.7920   3
  -4  -9   6 22.4065 11.7040   6
   3   9  -6 30.2564 12.8615   3
   3   9  -6 26.0605 6.89534   5
  -3  -9   6 16.6518 11.3127   6
   2   9  -6 62.2374 6.88034   5
   2   9  -6 66.2475 14.0002   3
  -2  -9   6 93.0593 14.2350   6
   1   9  -6 6.55597 10.5002   4
   1   9  -6 9.63921 11.7872   3
  -1  -9   6 8.01806 11.0894   6
   0   9  -6 102.787 15.5539   3
   0   9  -6 90.7230 13.9505   4
   0  -9   6 92.2321 9.39495   2
   0  -9   6 90.1935 14.5170   6
  -1   9  -6 3.13379 11.1475   4
  -1   9  -6 -6.3351 11.9015   3
   1  -9   6 11.4501 8.70830   2
   1  -9   6 -3.8900 11.0834   6
  -2   9  -6 50.2942 14.7653   3
  -2   9  -6 32.0203 13.6846   4
   2  -9   6 21.7595 13.5593   6
   2  -9   6 11.0019 11.1156   2
  -3   9  -6 29.5026 15.3077   3
  -3   9  -6 -2.5949 12.9207   4
   3  -9   6 -1.7800 14.3088   6
  -4   9  -6 -2.3421 17.5457   3
  -4   9  -6 21.5590 15.8772   4
   4  -9   6 25.4450 19.1632   6
   8   8  -6 148.653 19.9198   5
   8   8  -6 162.953 23.4462   3
   7   8  -6 -22.413 13.6006   3
   7   8  -6 -18.915 12.5232   5
   6   8  -6 284.638 24.4381   3
   5   8  -6 90.8602 9.26375   2
   5   8  -6 100.236 12.0201   5
   5   8  -6 98.6899 15.5406   3
   4   8  -6 223.711 8.16934   2
   4   8  -6 214.929 19.8788   3
   4   8  -6 214.146 15.7540   5
  -4  -8   6 226.592 18.4201   6
   3   8  -6 424.689 24.0503   3
   3   8  -6 391.168 9.91882   2
   3   8  -6 413.391 17.5479   5
  -3  -8   6 401.548 22.3526   6
   2   8  -6 -0.4105 3.42822   2
   2   8  -6 -0.4238 5.36046   5
   2   8  -6 3.45715 10.2486   3
  -2  -8   6 3.54368 8.58920   6
   1   8  -6 425.666 24.1850   3
   1   8  -6 438.582 14.1031   2
   1   8  -6 433.274 14.5536   5
  -1  -8   6 478.107 24.2790   6
   0   8  -6 14.3561 9.54451   3
   0   8  -6 2.68253 3.63151   5
   0   8  -6 0.77077 6.15504   2
   0  -8   6 -3.5102 8.52660   6
   0  -8   6 4.90644 5.22846   2
  -1   8  -6 132.121 15.2989   3
  -1   8  -6 113.070 13.7425   4
  -1   8  -6 148.795 13.6347   2
   1  -8   6 133.753 12.1944   2
   1  -8   6 133.215 15.0777   6
  -2   8  -6 79.8205 14.0837   3
  -2   8  -6 90.6510 13.1625   4
   2  -8   6 106.584 15.0118   6
   2  -8   6 86.3153 10.4247   2
  -3   8  -6 45.0515 12.0332   4
  -3   8  -6 78.3981 14.2709   3
   3  -8   6 99.2268 15.1546   6
   3  -8   6 70.6057 11.6190   2
  -4   8  -6 33.7752 13.7051   3
  -4   8  -6 45.1635 12.5005   4
   4  -8   6 63.9799 15.2737   6
  -5   8  -6 -16.789 15.3371   3
   5  -8   6 18.5528 16.4905   6
   5  -8   6 -32.818 14.9411   2
   8   7  -6 1.91356 14.8205   5
   8   7  -6 3.97493 16.6771   3
   7   7  -6 98.1499 14.6643   5
   7   7  -6 125.057 16.4057   2
   7   7  -6 124.441 18.0456   3
   6   7  -6 93.3004 14.8642   3
   6   7  -6 54.3202 12.3071   5
   6   7  -6 57.7760 7.77186   2
   5   7  -6 208.942 19.2796   3
   5   7  -6 230.195 16.2430   5
   5   7  -6 230.347 10.4878   2
   5   7  -6 219.749 11.0100   2
   4   7  -6 431.948 47.1322   1
   4   7  -6 370.617 10.4703   2
   4   7  -6 360.601 18.4222   5
   4   7  -6 419.766 23.0197   3
  -4  -7   6 313.117 41.7910   1
  -4  -7   6 415.147 20.7926   6
   3   7  -6 6.98085 6.77484   5
   3   7  -6 -22.487 28.7450   1
   3   7  -6 16.8353 10.9761   3
  -3  -7   6 8.01691 7.35791   6
   2   7  -6 750.537 66.9179   1
   2   7  -6 603.427 31.6569   3
   2   7  -6 760.336 23.6947   5
  -2  -7   6 815.184 28.7074   6
   1   7  -6 79.2490 9.08248   5
   1   7  -6 70.8847 11.9429   3
   1   7  -6 86.2547 4.51895   2
  -1  -7   6 72.5178 10.3771   6
   0   7  -6 384.665 12.6942   2
   0   7  -6 396.103 14.2862   5
   0  -7   6 416.820 21.7701   6
   0  -7   6 379.411 12.6119   2
  -1   7  -6 442.810 22.7621   3
  -1   7  -6 428.573 15.7965   2
  -1   7  -6 400.880 14.3535   5
   1  -7   6 429.896 15.4184   2
   1  -7   6 445.803 22.9595   6
  -2   7  -6 38.2540 5.64585   5
  -2   7  -6 33.6711 9.60272   4
  -2   7  -6 21.9258 9.85814   3
  -2   7  -6 9.87641 7.88883   2
   2  -7   6 32.3381 6.92474   5
   2  -7   6 33.6819 10.5289   6
   2  -7   6 38.4737 7.10361   2
  -3   7  -6 280.123 17.3576   4
  -3   7  -6 267.594 19.9856   3
  -3   7  -6 263.105 19.1051   2
   3  -7   6 257.856 20.7664   6
   3  -7   6 257.627 16.6124   2
  -4   7  -6 12.1684 9.06582   4
  -4   7  -6 18.8429 12.0998   3
   4  -7   6 4.35666 9.17538   2
   4  -7   6 6.82602 11.1355   6
  -5   7  -6 137.196 17.8730   3
  -5   7  -6 99.9071 12.4550   4
   5  -7   6 159.134 17.7568   6
   5  -7   6 90.0614 14.7835   2
  -6   7  -6 55.7453 16.1202   3
   6  -7   6 46.0255 16.4422   6
   6  -7   6 46.8394 15.7795   2
   9   6  -6 3.29011 18.5947   5
   8   6  -6 0.42454 14.1737   5
   7   6  -6 -3.5578 8.73779   2
   7   6  -6 -1.4326 10.7322   5
   6   6  -6 24.2552 7.08493   2
   6   6  -6 8.60467 11.3030   6
   6   6  -6 24.0814 10.3205   5
   6   6  -6 33.3428 11.6441   3
   5   6  -6 16.1311 5.64311   2
   5   6  -6 20.5362 4.94462   2
   5   6  -6 36.9921 18.2929   1
   5   6  -6 40.8050 11.2176   6
   5   6  -6 15.4199 8.81329   5
   5   6  -6 14.1009 9.09915   3
  -5  -6   6 -13.610 19.5019   1
   4   6  -6 31.3710 8.06017   5
   4   6  -6 35.2808 3.70512   2
   4   6  -6 83.3043 25.4009   1
   4   6  -6 33.7627 10.0494   6
  -4  -6   6 32.3516 7.81199   6
  -4  -6   6 4.51112 24.9303   1
   3   6  -6 250.644 14.0009   5
   3   6  -6 249.531 16.9585   3
   3   6  -6 214.322 16.6511   6
   3   6  -6 256.018 34.4234   1
  -3  -6   6 262.918 15.1838   6
  -3  -6   6 207.769 33.8527   1
   2   6  -6 51.4981 27.2999   1
   2   6  -6 16.4804 6.30824   5
   2   6  -6 38.4628 9.58206   6
   2   6  -6 28.5705 7.36648   3
  -2  -6   6 31.5488 30.3520   1
  -2  -6   6 38.6745 7.66656   6
   1   6  -6 132.622 33.0904   1
   1   6  -6 232.804 16.4165   3
   1   6  -6 252.132 12.6795   5
   1   6  -6 231.337 17.4476   4
   1   6  -6 198.020 16.0040   6
  -1  -6   6 232.046 14.9924   6
  -1  -6   6 191.672 40.0769   1
   0   6  -6 321.928 19.0964   4
   0   6  -6 342.735 19.3302   3
   0   6  -6 298.972 43.8642   1
   0   6  -6 349.159 13.9904   5
   0   6  -6 347.156 20.3559   6
   0  -6   6 331.191 18.0501   6
  -1   6  -6 52.5640 34.2886   1
  -1   6  -6 24.1173 5.34039   5
  -1   6  -6 39.2122 9.53067   3
  -1   6  -6 13.5977 9.10263   4
   1  -6   6 35.0478 6.44960   5
   1  -6   6 -48.975 35.7067   1
   1  -6   6 34.1335 8.64090   6
   1  -6   6 22.8566 4.14391   2
  -2   6  -6 596.191 72.0958   1
  -2   6  -6 491.915 23.7075   3
  -2   6  -6 553.235 18.0957   5
  -2   6  -6 549.090 24.3181   4
   2  -6   6 545.527 18.0458   2
   2  -6   6 570.424 24.6748   6
  -3   6  -6 23.4461 5.89028   5
  -3   6  -6 21.8375 8.00470   4
  -3   6  -6 31.0336 9.89585   4
  -3   6  -6 19.4205 10.3712   3
   3  -6   6 29.1865 7.87598   5
   3  -6   6 36.5543 7.19643   2
  -4   6  -6 210.392 13.2724   5
  -4   6  -6 232.789 15.4177   4
  -4   6  -6 207.067 18.3834   4
  -4   6  -6 271.190 17.1222   3
   4  -6   6 217.914 16.4349   5
   4  -6   6 237.162 16.3833   2
   4  -6   6 274.499 19.6524   6
  -5   6  -6 136.636 16.0860   3
  -5   6  -6 158.504 14.4825   4
  -5   6  -6 143.644 13.1573   5
   5  -6   6 126.459 15.3868   6
   5  -6   6 150.257 18.0369   2
  -6   6  -6 12.0552 11.8771   3
  -6   6  -6 7.44232 8.18415   4
   6  -6   6 34.5324 13.5030   2
   6  -6   6 10.1344 12.7040   6
  -7   6  -6 94.8243 17.7890   3
   7  -6   6 55.9276 16.4217   2
   7  -6   6 75.0337 17.5997   6
   9   5  -6 28.5547 20.0465   5
   8   5  -6 8.77597 12.3304   2
   8   5  -6 2.59322 13.7900   5
   7   5  -6 90.1861 11.2028   2
   7   5  -6 83.3796 13.1184   5
   7   5  -6 67.8755 7.91097   6
   6   5  -6 25.9320 9.49000   5
   6   5  -6 41.2021 9.37849   2
   6   5  -6 21.3419 16.9099   1
   6   5  -6 17.2592 8.72525   6
   6   5  -6 34.6686 7.50243   2
   5   5  -6 24.1715 8.63344   5
   5   5  -6 18.2683 5.20719   2
   5   5  -6 20.5469 6.06309   2
   5   5  -6 29.9927 22.3798   1
   5   5  -6 33.3717 8.58492   6
  -5  -5   6 57.5020 23.6829   1
   4   5  -6 53.1279 8.60630   6
   4   5  -6 70.5366 5.85670   2
   4   5  -6 52.5750 10.0060   3
   4   5  -6 81.8602 6.82284   2
   4   5  -6 61.9532 9.10780   5
  -4  -5   6 71.6080 24.9702   1
  -4  -5   6 74.7247 8.06869   6
   3   5  -6 11.3145 7.08017   3
   3   5  -6 -10.244 7.91784   4
   3   5  -6 0.61192 5.86396   5
   3   5  -6 3.22681 7.44082   6
   3   5  -6 -2.8030 22.5273   1
  -3  -5   6 6.64068 5.57818   6
  -3  -5   6 2.77275 22.9926   1
   2   5  -6 2.58802 6.54569   3
   2   5  -6 -3.0982 22.0270   1
   2   5  -6 -1.0397 5.87791   5
   2   5  -6 9.06433 8.17664   4
   2   5  -6 13.8477 7.04276   6
  -2  -5   6 5.14625 5.39168   6
  -2  -5   6 -4.2628 24.4740   1
   1   5  -6 -4.4707 5.10890   5
   1   5  -6 -1.2471 6.33299   6
   1   5  -6 -2.7927 6.84121   4
   1   5  -6 11.5827 24.2653   1
   1   5  -6 2.12268 6.48243   3
  -1  -5   6 5.18670 5.50005   6
  -1  -5   6 33.6951 26.9563   1
  -1  -5   6 -7.9106 5.50368   5
   0   5  -6 -16.538 31.7854   1
   0   5  -6 -7.0488 6.25830   3
   0   5  -6 -13.250 7.25632   6
   0   5  -6 -4.3769 7.16295   4
   0   5  -6 4.89862 4.94457   5
   0  -5   6 -3.4101 5.28271   6
   0  -5   6 2.53998 5.14695   5
   0  -5   6 30.1189 27.1280   1
  -1   5  -6 31.6018 7.82489   4
  -1   5  -6 28.9427 5.54897   5
  -1   5  -6 0.83060 26.9746   1
  -1   5  -6 28.8643 7.84954   3
  -1   5  -6 17.9326 8.41817   6
   1  -5   6 14.7066 8.52977   3
   1  -5   6 38.2002 7.60389   5
   1  -5   6 -21.270 30.9077   1
   1  -5   6 30.4553 7.26254   6
  -2   5  -6 163.111 15.8576   6
  -2   5  -6 160.237 9.89765   5
  -2   5  -6 149.800 13.4725   3
  -2   5  -6 166.697 13.0905   4
  -2   5  -6 110.711 37.2589   1
   2  -5   6 174.711 11.4799   5
   2  -5   6 174.348 8.73151   2
   2  -5   6 161.853 13.6579   6
   2  -5   6 127.153 15.4330   3
   2  -5   6 123.331 38.6437   1
  -3   5  -6 52.7876 9.65266   4
  -3   5  -6 75.5849 8.53828   5
  -3   5  -6 48.1186 38.2436   1
  -3   5  -6 49.1542 9.68379   3
   3  -5   6 65.7837 44.3917   1
   3  -5   6 60.0396 7.17555   2
   3  -5   6 57.3787 9.91118   6
   3  -5   6 52.7120 13.5924   3
   3  -5   6 61.7515 8.28380   5
  -4   5  -6 189.811 12.2466   4
  -4   5  -6 186.298 14.9813   4
  -4   5  -6 116.441 47.9826   1
  -4   5  -6 194.580 15.9903   3
  -4   5  -6 186.013 12.0411   5
   4  -5   6 168.136 13.1879   2
   4  -5   6 186.967 14.4585   6
   4  -5   6 245.530 60.8745   1
   4  -5   6 201.879 15.3027   5
  -5   5  -6 -2.4957 8.35372   3
  -5   5  -6 3.08556 6.07564   4
  -5   5  -6 12.2381 6.87214   5
  -5   5  -6 92.4055 55.5484   1
  -5   5  -6 -11.516 8.21100   4
   5  -5   6 5.41293 8.77007   6
   5  -5   6 -8.6999 7.97210   2
   5  -5   6 1.74193 9.94893   5
  -6   5  -6 127.492 11.4125   4
  -6   5  -6 125.356 12.2561   5
  -6   5  -6 134.258 14.1430   3
   6  -5   6 102.759 14.5158   5
   6  -5   6 120.097 14.7564   2
   6  -5   6 106.217 14.1631   6
  -7   5  -6 52.3187 13.6523   3
   7  -5   6 -2.9590 11.6580   6
   7  -5   6 39.9147 14.3943   2
  -8   5  -6 11.1507 15.5044   3
   8  -5   6 -7.4858 15.2913   2
   8  -5   6 19.3833 14.8330   6
   9   4  -6 38.0298 32.5515   5
   9   4  -6 10.3137 17.4395   2
   8   4  -6 301.771 25.3789   5
   7   4  -6 31.6507 9.91007   2
   7   4  -6 26.9987 11.6854   5
   6   4  -6 248.404 15.1724   2
   6   4  -6 238.291 12.4525   6
   6   4  -6 272.619 18.2944   5
   6   4  -6 246.484 17.5918   2
   6   4  -6 245.918 30.9947   1
  -6  -4   6 260.821 21.7761   4
   5   4  -6 454.506 16.5724   2
   5   4  -6 490.603 19.4337   2
   5   4  -6 407.356 45.9439   1
   5   4  -6 418.184 23.3811   6
   5   4  -6 466.368 21.5308   5
  -5  -4   6 485.796 22.7301   4
  -5  -4   6 444.617 49.3553   1
   4   4  -6 0.46529 5.80900   5
   4   4  -6 9.55946 7.74950   4
   4   4  -6 -8.6699 5.55315   6
   4   4  -6 -1.8376 3.60984   2
   4   4  -6 10.8511 21.6904   1
   4   4  -6 -2.7806 3.82896   2
  -4  -4   6 36.0383 23.8662   1
  -4  -4   6 6.39983 7.10540   4
   3   4  -6 777.193 25.6642   5
   3   4  -6 748.833 26.8806   3
   3   4  -6 746.256 27.3703   4
   3   4  -6 728.477 51.5768   1
   3   4  -6 791.703 23.9609   6
   3   4  -6 765.700 17.6046   2
   3   4  -6 750.614 17.6283   2
   3   4  -6 753.107 28.0292   3
  -3  -4   6 767.049 27.1950   4
  -3  -4   6 735.824 51.8685   1
  -3  -4   6 759.702 23.3441   6
   2   4  -6 78.6838 22.7788   1
   2   4  -6 70.7871 8.00933   6
   2   4  -6 69.9039 8.41482   5
   2   4  -6 86.8496 9.04646   3
   2   4  -6 86.0602 10.2251   4
  -2  -4   6 78.8829 9.29024   4
  -2  -4   6 108.355 24.5371   1
  -2  -4   6 82.9663 8.30810   6
   1   4  -6 346.222 15.7611   6
   1   4  -6 381.002 43.2248   1
   1   4  -6 325.628 14.9335   5
   1   4  -6 323.055 15.5374   3
   1   4  -6 325.622 16.8556   4
  -1  -4   6 351.884 16.5894   4
  -1  -4   6 400.742 16.0355   5
  -1  -4   6 337.487 15.3599   6
  -1  -4   6 365.999 43.1897   1
   0   4  -6 194.300 12.7142   6
   0   4  -6 178.068 12.8349   4
   0   4  -6 156.770 29.6314   1
   0   4  -6 179.616 12.7209   3
   0   4  -6 174.298 10.9054   5
   0  -4   6 183.470 11.8402   6
   0  -4   6 137.230 31.1850   1
   0  -4   6 179.164 11.3210   5
  -1   4  -6 40.4827 6.96046   3
  -1   4  -6 20.2281 22.8091   1
  -1   4  -6 48.4591 8.09220   6
  -1   4  -6 46.2688 6.30783   5
  -1   4  -6 35.1207 7.49694   4
   1  -4   6 18.7671 25.5135   1
   1  -4   6 47.4611 7.58000   6
   1  -4   6 50.0283 6.84712   5
  -2   4  -6 20.1298 7.72368   6
  -2   4  -6 -3.9659 24.8745   1
  -2   4  -6 23.2249 5.02906   5
  -2   4  -6 25.2707 6.16411   3
  -2   4  -6 35.2988 6.88118   4
   2  -4   6 30.7071 7.26011   6
   2  -4   6 20.6656 3.61557   2
   2  -4   6 18.0553 5.82204   5
   2  -4   6 12.6044 7.72009   3
   2  -4   6 25.6005 29.3083   1
  -3   4  -6 66.7180 9.28774   3
  -3   4  -6 72.0920 7.56030   5
  -3   4  -6 66.3595 10.0317   6
  -3   4  -6 84.2074 32.3946   1
  -3   4  -6 68.5032 8.19287   4
   3  -4   6 61.6984 9.02693   6
   3  -4   6 123.462 40.5838   1
   3  -4   6 72.6499 8.58931   5
   3  -4   6 72.1782 10.6898   3
   3  -4   6 80.1473 7.62182   2
  -4   4  -6 81.3540 8.95622   5
  -4   4  -6 99.6539 40.1083   1
  -4   4  -6 82.5402 10.5612   6
  -4   4  -6 99.4786 10.7237   4
  -4   4  -6 118.182 12.1624   3
   4  -4   6 95.1585 11.8322   3
   4  -4   6 115.813 12.8607   5
   4  -4   6 128.157 45.7589   1
   4  -4   6 85.2361 10.8127   6
   4  -4   6 109.050 10.6446   2
  -5   4  -6 -6.2311 5.29369   5
  -5   4  -6 8.83048 4.92294   4
  -5   4  -6 11.8527 42.2434   1
  -5   4  -6 -7.0340 7.20333   3
  -5   4  -6 -6.8933 6.22327   4
   5  -4   6 51.9998 51.6183   1
   5  -4   6 27.3012 9.30663   5
   5  -4   6 -4.1501 7.48222   6
   5  -4   6 -8.3153 6.47248   2
  -6   4  -6 99.9295 12.5861   3
  -6   4  -6 99.3938 11.0656   4
  -6   4  -6 103.476 10.8275   5
  -6   4  -6 56.3575 54.7379   1
  -6   4  -6 93.7209 8.76561   4
   6  -4   6 113.509 13.4517   5
   6  -4   6 97.7618 12.2552   2
   6  -4   6 93.2913 12.6395   6
   6  -4   6 37.3708 65.1888   1
  -7   4  -6 15.2783 10.0983   3
  -7   4  -6 14.9852 9.10597   5
   7  -4   6 2.41318 10.0560   6
   7  -4   6 7.54574 10.5253   2
  -8   4  -6 22.1294 12.2323   3
   8  -4   6 29.1536 13.2405   6
   8  -4   6 23.7091 14.1350   2
  -9   4  -6 34.5829 16.1980   3
   9  -4   6 -12.935 14.8071   6
   9  -4   6 0.93431 17.4790   2
   9   3  -6 130.741 20.0041   2
   8   3  -6 23.5457 14.7528   5
   8   3  -6 24.4286 13.0775   2
   7   3  -6 210.251 18.5626   2
   7   3  -6 173.068 18.8424   5
  -7  -3   6 214.829 20.6895   4
   6   3  -6 491.660 24.8081   5
   6   3  -6 519.092 21.3696   2
  -6  -3   6 481.772 27.5248   4
   5   3  -6 134.967 11.3817   2
   5   3  -6 128.818 7.88331   6
   5   3  -6 96.5653 30.2447   1
   5   3  -6 137.088 14.6304   5
  -5  -3   6 126.705 13.9144   4
   4   3  -6 1815.89 49.2457   5
   4   3  -6 1759.70 76.2416   1
   4   3  -6 1815.33 43.0957   6
   4   3  -6 1819.84 50.5726   4
   4   3  -6 1824.81 43.5413   2
   4   3  -6 1721.24 50.7454   3
  -4  -3   6 1943.48 50.7876   4
  -4  -3   6 1738.06 76.8784   1
   3   3  -6 26.0273 3.59660   2
   3   3  -6 5.79348 8.31406   3
   3   3  -6 23.4338 3.56598   2
   3   3  -6 16.1794 8.31256   4
   3   3  -6 20.9160 6.83761   5
   3   3  -6 19.0712 5.09418   6
   3   3  -6 41.4750 22.0911   1
  -3  -3   6 26.0920 22.0773   1
  -3  -3   6 17.0406 5.75497   4
  -3  -3   6 22.1416 4.57557   6
   2   3  -6 1352.42 39.9591   6
   2   3  -6 1508.52 68.3622   1
   2   3  -6 1458.92 41.2537   4
   2   3  -6 1498.70 41.2953   3
   2   3  -6 1487.26 41.0341   3
   2   3  -6 1492.89 40.0100   5
  -2  -3   6 1534.49 40.4468   5
  -2  -3   6 1453.31 40.8869   4
  -2  -3   6 1519.02 67.7948   1
  -2  -3   6 1487.58 37.5640   6
   1   3  -6 1396.85 37.3108   5
   1   3  -6 1388.84 38.2971   4
   1   3  -6 1385.18 35.9321   6
   1   3  -6 1269.17 64.7710   1
   1   3  -6 1365.65 38.0157   3
  -1  -3   6 1375.83 36.0002   6
  -1  -3   6 1359.64 38.2829   4
  -1  -3   6 1425.36 68.2896   1
  -1  -3   6 1346.64 36.7485   5
   0   3  -6 316.680 15.2846   4
   0   3  -6 325.796 14.4625   5
   0   3  -6 316.985 14.2837   6
   0   3  -6 345.265 15.3464   3
   0   3  -6 357.627 41.7022   1
   0  -3   6 333.805 14.2067   6
   0  -3   6 341.567 14.4062   5
   0  -3   6 327.113 14.9465   4
  -1   3  -6 1875.34 46.9527   6
  -1   3  -6 1886.24 45.9852   5
  -1   3  -6 1762.04 46.8234   3
  -1   3  -6 1751.37 80.7663   1
  -1   3  -6 1821.91 46.7133   4
   1  -3   6 1905.57 45.9938   5
   1  -3   6 1809.59 46.6937   4
   1  -3   6 1768.97 81.8871   1
   1  -3   6 1797.74 46.8123   6
  -2   3  -6 0.21446 21.3956   1
  -2   3  -6 4.55465 4.18923   5
  -2   3  -6 8.65953 6.03674   6
  -2   3  -6 6.04476 5.70719   3
  -2   3  -6 10.4703 5.35519   4
   2  -3   6 7.69666 6.01116   3
   2  -3   6 9.68652 5.23488   5
   2  -3   6 2.64829 4.80348   6
   2  -3   6 -19.887 22.7010   1
  -3   3  -6 1209.47 32.7859   4
  -3   3  -6 1183.89 32.7813   5
  -3   3  -6 1170.81 34.4464   3
  -3   3  -6 1207.69 73.4039   1
  -3   3  -6 1203.17 35.4739   6
   3  -3   6 1171.82 30.2287   2
   3  -3   6 1179.27 34.8512   3
   3  -3   6 1204.49 35.3179   6
   3  -3   6 1150.45 74.1829   1
   3  -3   6 1294.25 33.6808   5
  -4   3  -6 55.6512 7.36845   5
  -4   3  -6 53.7069 9.36974   6
  -4   3  -6 43.1081 31.6698   1
  -4   3  -6 62.8008 8.10261   3
   4  -3   6 49.6481 7.83969   6
   4  -3   6 54.1096 6.78459   2
   4  -3   6 62.3779 8.41153   5
   4  -3   6 42.6819 8.49000   3
   4  -3   6 121.285 37.8564   1
  -5   3  -6 180.726 13.4354   3
  -5   3  -6 174.455 15.8548   6
  -5   3  -6 172.549 43.5611   1
  -5   3  -6 164.426 10.5778   4
  -5   3  -6 164.143 12.3851   5
   5  -3   6 219.033 16.4010   3
   5  -3   6 167.825 14.2063   6
   5  -3   6 168.292 14.1850   5
   5  -3   6 155.733 12.2399   2
  -6   3  -6 82.4702 8.44105   4
  -6   3  -6 85.8569 10.9698   3
  -6   3  -6 84.7881 7.02811   4
  -6   3  -6 69.6797 9.24439   5
  -6   3  -6 72.4862 45.0352   1
   6  -3   6 98.4865 11.4768   6
   6  -3   6 19.3452 51.3566   1
   6  -3   6 84.9376 11.9907   5
   6  -3   6 77.5966 9.98645   2
  -7   3  -6 9.94114 7.72732   5
  -7   3  -6 -76.790 52.9743   1
  -7   3  -6 5.68205 8.68266   3
   7  -3   6 4.60444 9.20760   6
   7  -3   6 -53.300 61.8853   1
   7  -3   6 -2.2030 8.46180   2
  -8   3  -6 73.1511 11.8206   5
  -8   3  -6 64.5335 12.5641   3
   8  -3   6 39.7194 12.9932   2
   8  -3   6 55.3531 12.7204   6
  -9   3  -6 -9.7361 12.5959   3
   9  -3   6 -11.377 14.1265   2
   9  -3   6 -12.960 13.0369   6
 -10   3  -6 12.5162 17.6338   3
  10  -3   6 47.6849 19.8790   2
  10  -3   6 33.5629 17.1829   6
   8   2  -6 31.9489 14.8091   5
   8   2  -6 66.9794 15.7892   2
  -8  -2   6 50.2741 14.1588   4
   7   2  -6 82.4010 12.6230   2
   7   2  -6 74.5765 14.0655   5
  -7  -2   6 73.4221 13.4070   4
   6   2  -6 110.573 11.9262   2
   6   2  -6 106.752 14.0490   5
  -6  -2   6 109.280 13.2721   4
   5   2  -6 538.368 29.1474   4
   5   2  -6 481.446 57.1281   1
   5   2  -6 487.239 22.3709   5
   5   2  -6 510.513 19.9254   2
  -5  -2   6 500.455 23.0546   4
   4   2  -6 25.3769 27.0634   1
   4   2  -6 2.19086 8.59639   4
   4   2  -6 -0.6872 4.86366   2
   4   2  -6 -1.7377 9.28410   3
   4   2  -6 6.80807 2.69087   6
   4   2  -6 11.0052 7.14951   5
  -4  -2   6 4.81635 26.4762   1
  -4  -2   6 -1.0432 6.19198   4
   3   2  -6 961.946 30.1371   3
   3   2  -6 860.935 55.9732   1
   3   2  -6 921.026 29.8394   5
   3   2  -6 960.038 24.2458   6
   3   2  -6 974.481 24.9413   2
   3   2  -6 945.719 30.7559   4
  -3  -2   6 959.951 30.0024   4
  -3  -2   6 928.375 58.4135   1
  -3  -2   6 963.459 24.0666   6
   2   2  -6 774.410 25.6537   5
   2   2  -6 824.394 26.6715   3
   2   2  -6 797.608 22.0271   6
   2   2  -6 752.832 50.5864   1
   2   2  -6 784.325 26.3746   4
  -2  -2   6 775.958 51.9345   1
  -2  -2   6 817.302 26.2667   5
  -2  -2   6 800.958 21.8862   6
  -2  -2   6 794.323 26.2899   4
   1   2  -6 642.833 22.0690   5
   1   2  -6 665.242 22.2086   3
   1   2  -6 648.629 47.8023   1
   1   2  -6 662.521 20.1052   6
   1   2  -6 699.155 23.0880   4
  -1  -2   6 683.990 22.4852   5
  -1  -2   6 674.625 19.8685   6
  -1  -2   6 661.111 22.6432   4
   0   2  -6 2637.67 62.6099   4
   0   2  -6 2317.23 62.6012   6
   0   2  -6 2624.55 62.2238   3
   0   2  -6 2517.41 93.8938   1
   0   2  -6 2570.98 61.7416   5
   0  -2   6 2589.33 60.6624   6
   0  -2   6 2550.65 62.4219   4
   0  -2   6 2712.87 62.0632   5
  -1   2  -6 12.5129 5.11031   6
  -1   2  -6 10.8689 5.03287   4
  -1   2  -6 18.6075 18.4214   1
  -1   2  -6 14.3381 5.15235   3
  -1   2  -6 6.42003 5.01328   5
   1  -2   6 19.1048 4.76505   4
   1  -2   6 13.7713 20.5021   1
   1  -2   6 5.56251 5.09380   5
   1  -2   6 9.62235 4.40282   6
  -2   2  -6 2337.24 93.5917   1
  -2   2  -6 2367.94 56.5707   6
  -2   2  -6 2356.03 55.6759   4
  -2   2  -6 2337.70 55.6687   5
  -2   2  -6 2331.30 56.2219   3
   2  -2   6 2287.43 55.4531   4
   2  -2   6 2255.64 93.1454   1
   2  -2   6 2268.36 50.5068   2
   2  -2   6 2336.65 56.1128   3
   2  -2   6 2237.32 56.2521   6
   2  -2   6 2364.16 55.8083   5
   2  -2   6 2071.43 51.0895   2
  -3   2  -6 873.235 25.7120   5
  -3   2  -6 862.531 60.2047   1
  -3   2  -6 881.608 26.1741   3
  -3   2  -6 870.564 27.2401   6
  -3   2  -6 914.578 25.6946   4
   3  -2   6 856.137 24.8047   4
   3  -2   6 889.462 26.2972   5
   3  -2   6 795.908 61.6110   1
   3  -2   6 855.290 26.9920   6
   3  -2   6 885.863 26.6076   3
   3  -2   6 843.786 22.6874   2
  -4   2  -6 483.891 18.3620   5
  -4   2  -6 517.257 53.6982   1
  -4   2  -6 490.673 20.1340   6
  -4   2  -6 506.278 18.8131   3
  -4   2  -6 488.669 16.6007   4
   4  -2   6 469.393 18.9763   6
   4  -2   6 505.025 57.4344   1
   4  -2   6 524.350 19.6386   3
   4  -2   6 491.052 16.7157   2
   4  -2   6 553.576 20.0642   5
  -5   2  -6 901.416 28.2215   3
  -5   2  -6 769.331 69.9786   1
  -5   2  -6 893.024 23.8836   4
  -5   2  -6 866.715 29.4362   6
  -5   2  -6 895.168 27.5502   5
   5  -2   6 883.521 28.4633   3
   5  -2   6 858.006 26.6459   2
   5  -2   6 890.304 28.2653   5
   5  -2   6 838.979 28.8977   6
   5  -2   6 843.658 74.9007   1
  -6   2  -6 13.7549 9.55109   6
  -6   2  -6 8.69716 3.12071   4
  -6   2  -6 -23.380 34.5195   1
  -6   2  -6 5.29403 6.01000   5
  -6   2  -6 8.76354 3.68291   4
  -6   2  -6 6.63034 6.31742   3
   6  -2   6 6.62841 6.66675   2
   6  -2   6 -1.0469 8.35493   5
   6  -2   6 -16.609 38.9295   1
   6  -2   6 2.91644 6.95466   6
   6  -2   6 12.8121 8.59490   3
  -7   2  -6 465.069 21.3682   5
  -7   2  -6 505.787 22.0733   3
  -7   2  -6 510.774 65.2412   1
   7  -2   6 390.937 65.3532   1
   7  -2   6 477.108 22.6838   2
   7  -2   6 472.749 22.6032   6
  -8   2  -6 34.3289 10.3853   5
  -8   2  -6 25.7924 9.80285   3
   8  -2   6 13.4110 10.4986   2
   8  -2   6 52.0469 11.7553   6
  -9   2  -6 91.4285 13.7325   3
  -9   2  -6 90.1159 13.7126   5
   9  -2   6 95.1432 14.5623   6
   9  -2   6 68.6106 14.8415   2
 -10   2  -6 53.4671 15.4490   3
  10  -2   6 35.2342 16.1275   6
  10  -2   6 4.34278 15.4640   2
   8   1  -6 42.1268 17.2647   5
   8   1  -6 3.33188 15.3121   2
  -8  -1   6 44.1386 14.8487   4
   7   1  -6 -6.3576 11.2792   2
   7   1  -6 -6.8049 11.0619   5
  -7  -1   6 -3.1251 11.4547   4
   6   1  -6 23.7395 9.82015   2
   6   1  -6 10.0824 10.0546   5
  -6  -1   6 21.7824 9.52355   4
   5   1  -6 -7.8659 12.5251   4
   5   1  -6 -0.3423 6.45007   2
   5   1  -6 -7.3707 6.63942   5
  -5  -1   6 3.46265 7.29270   4
   4   1  -6 132.545 10.6567   2
   4   1  -6 136.056 15.0066   4
   4   1  -6 113.530 12.8152   3
   4   1  -6 49.5769 31.0659   1
   4   1  -6 110.874 10.9558   5
  -4  -1   6 100.401 11.9204   4
  -4  -1   6 133.725 34.5441   1
   3   1  -6 54.7547 6.38573   2
   3   1  -6 39.4910 23.6159   1
   3   1  -6 43.6830 8.85009   4
   3   1  -6 47.1102 8.78519   3
   3   1  -6 52.1568 8.21113   5
   3   1  -6 58.4774 3.59871   6
  -3  -1   6 67.4750 8.74540   4
  -3  -1   6 39.1789 6.06854   2
  -3  -1   6 11.1252 23.9326   1
   2   1  -6 224.912 9.22007   2
   2   1  -6 191.866 29.0058   1
   2   1  -6 224.802 13.5674   3
   2   1  -6 226.653 13.4700   5
   2   1  -6 245.475 13.7401   4
   2   1  -6 209.242 8.39938   6
  -2  -1   6 214.258 9.33589   2
  -2  -1   6 207.258 8.31866   6
  -2  -1   6 231.428 14.0347   5
  -2  -1   6 213.406 13.0351   4
   1   1  -6 1109.26 32.2556   4
   1   1  -6 1132.25 28.2471   6
   1   1  -6 1145.61 31.7200   3
   1   1  -6 1025.57 27.9159   2
   1   1  -6 1096.76 31.6300   5
   1   1  -6 1248.93 60.7507   1
  -1  -1   6 1106.70 28.2787   6
  -1  -1   6 1104.97 26.4363   2
  -1  -1   6 1151.24 32.2694   5
  -1  -1   6 1111.24 31.8858   4
   0   1  -6 18.1764 1.97857   2
   0   1  -6 16.8284 4.11304   3
   0   1  -6 13.8266 5.58447   5
   0   1  -6 20.2356 18.0605   1
   0   1  -6 23.0189 5.93852   4
   0   1  -6 24.0651 4.57203   6
   0  -1   6 24.9843 5.40473   4
   0  -1   6 19.5053 2.21212   2
   0  -1   6 13.8958 3.84742   6
   0  -1   6 15.0673 5.52188   5
   0  -1   6 26.3163 19.7174   1
  -1   1  -6 1845.00 45.3465   3
  -1   1  -6 1867.26 45.9139   4
  -1   1  -6 1897.09 44.9405   6
  -1   1  -6 1763.96 75.4844   1
  -1   1  -6 1810.97 45.9136   5
   1  -1   6 1842.44 44.7404   6
   1  -1   6 1676.95 75.6795   1
   1  -1   6 1817.89 45.7552   5
   1  -1   6 1802.23 39.8554   2
   1  -1   6 1818.36 45.7940   4
  -2   1  -6 238.034 11.2347   3
  -2   1  -6 269.381 35.6078   1
  -2   1  -6 241.737 11.7929   6
  -2   1  -6 226.357 11.9274   5
   2  -1   6 184.216 30.3635   1
   2  -1   6 233.260 12.3530   5
   2  -1   6 254.345 8.01098   2
   2  -1   6 245.482 11.1821   4
   2  -1   6 239.750 11.6342   6
  -3   1  -6 735.964 52.6036   1
  -3   1  -6 826.632 23.7655   3
  -3   1  -6 794.709 24.4287   6
  -3   1  -6 757.117 23.8261   5
  -3   1  -6 816.024 22.9028   4
   3  -1   6 799.937 20.8337   2
   3  -1   6 764.939 24.4126   6
   3  -1   6 726.190 54.1963   1
   3  -1   6 793.486 20.9331   2
   3  -1   6 827.661 24.6418   5
   3  -1   6 770.164 22.6693   4
  -4   1  -6 1418.56 39.1269   6
  -4   1  -6 1502.11 77.4355   1
  -4   1  -6 1460.10 38.5585   5
  -4   1  -6 1408.56 37.3681   3
  -4   1  -6 1485.30 35.8751   4
   4  -1   6 1422.14 36.0056   2
   4  -1   6 1412.42 36.1175   2
   4  -1   6 1429.25 35.7321   4
   4  -1   6 1457.36 37.9683   3
   4  -1   6 1390.52 39.1411   6
   4  -1   6 1451.23 38.8014   5
   4  -1   6 1468.73 79.7268   1
  -5   1  -6 1.47308 26.7360   1
  -5   1  -6 41.2851 7.17257   6
  -5   1  -6 4.09194 5.12956   5
  -5   1  -6 19.4757 5.33669   3
  -5   1  -6 20.6768 4.20507   4
   5  -1   6 21.7730 7.61657   5
   5  -1   6 18.2057 6.59019   6
   5  -1   6 29.2803 31.0197   1
   5  -1   6 23.7474 6.56812   3
   5  -1   6 15.3216 5.31314   2
  -6   1  -6 891.679 72.7912   1
  -6   1  -6 937.493 28.6400   3
  -6   1  -6 946.962 29.9512   5
  -6   1  -6 924.860 22.6177   4
  -6   1  -6 912.449 30.8313   6
   6  -1   6 925.696 30.7216   6
   6  -1   6 971.184 29.4812   2
   6  -1   6 922.526 29.2157   3
   6  -1   6 928.097 30.4277   5
   6  -1   6 909.537 79.0189   1
  -7   1  -6 153.493 43.7881   1
  -7   1  -6 175.293 20.0024   6
  -7   1  -6 159.247 12.6580   3
  -7   1  -6 169.896 13.9423   5
   7  -1   6 167.125 15.6600   3
   7  -1   6 138.769 13.8975   5
   7  -1   6 129.185 49.1391   1
   7  -1   6 178.453 14.4682   2
   7  -1   6 165.715 14.1998   6
  -8   1  -6 191.172 16.0982   3
   8  -1   6 26.8305 58.7100   1
   8  -1   6 203.193 16.9378   2
  -9   1  -6 148.587 16.9027   3
  -9   1  -6 154.692 17.8951   5
   9  -1   6 124.096 14.8226   6
   9  -1   6 172.594 18.6920   2
 -10   1  -6 10.3749 11.9533   3
  10  -1   6 -0.4370 13.9469   2
  10  -1   6 7.18915 12.3266   6
 -11   1  -6 78.9639 18.1184   3
  11  -1   6 81.7771 18.1729   6
  11  -1   6 80.7854 21.6914   2
   8   0  -6 2.74410 18.3450   5
   8   0  -6 23.5488 16.7000   2
  -8   0   6 15.5779 15.9642   4
   7   0  -6 123.175 17.5439   5
   7   0  -6 127.632 16.7799   2
  -7   0   6 105.021 14.7776   4
   6   0  -6 48.0222 11.8483   2
   6   0  -6 21.4235 11.3653   5
   5   0  -6 165.936 16.7230   5
   5   0  -6 185.488 14.7948   2
  -5   0   6 166.861 16.0901   4
  -5   0   6 167.971 19.1991   2
   4   0  -6 3.87785 7.03575   5
   4   0  -6 0.20761 6.08654   2
   4   0  -6 3.78088 8.94535   4
   4   0  -6 -62.818 30.5815   1
  -4   0   6 4.65499 7.51318   2
  -4   0   6 -5.1174 30.4452   1
  -4   0   6 -3.9899 6.77868   4
   3   0  -6 83.4775 29.3082   1
   3   0  -6 132.825 12.7264   4
   3   0  -6 116.965 13.1764   3
   3   0  -6 115.686 9.80830   2
   3   0  -6 124.286 11.9987   5
  -3   0   6 52.1042 27.2002   1
  -3   0   6 118.320 11.4611   4
  -3   0   6 112.550 10.4569   2
   2   0  -6 38.3768 7.45415   3
   2   0  -6 51.4700 3.58872   6
   2   0  -6 58.3355 6.16742   2
   2   0  -6 56.4183 7.99576   5
   2   0  -6 64.8554 8.51973   4
   2   0  -6 39.3347 23.0339   1
  -2   0   6 50.5844 3.59218   6
  -2   0   6 44.1560 7.41845   4
  -2   0   6 54.3202 6.20059   2
   1   0  -6 2.20674 2.74590   2
   1   0  -6 1.31237 18.9883   1
   1   0  -6 5.06147 5.32396   4
   1   0  -6 3.03236 5.20330   5
   1   0  -6 -1.5548 4.51225   3
   1   0  -6 -3.4732 2.31750   6
  -1   0   6 1.31396 2.46967   6
  -1   0   6 2.91274 4.56819   4
  -1   0   6 -8.6064 21.2447   1
  -1   0   6 9.42960 5.71706   5
  -1   0   6 8.92680 3.51878   2
   0   0  -6 17.4665 5.88615   5
   0   0  -6 16.9828 5.40811   4
   0   0  -6 7.06271 5.15835   3
   0   0  -6 27.7644 18.6011   1
   0   0  -6 14.6180 2.84648   2
   0   0  -6 11.7750 3.48180   6
   0   0   6 11.9849 4.58643   4
   0   0   6 12.7012 4.59518   5
   0   0   6 19.0898 3.61217   6
   0   0   6 1.22513 18.9024   1
   0   0   6 12.8822 3.14626   2
  -1   0  -6 5.45983 3.47955   6
  -1   0  -6 7.16839 3.51623   3
  -1   0  -6 -0.3882 3.72341   4
  -1   0  -6 5.02967 5.35025   5
  -1   0  -6 -4.0730 17.2765   1
  -1   0  -6 6.03227 2.24396   2
   1   0   6 4.21672 3.82715   5
   1   0   6 9.05167 4.07854   4
   1   0   6 17.7914 19.0918   1
   1   0   6 0.32503 2.98159   6
   1   0   6 -1.6996 2.32347   2
  -2   0  -6 6.37970 3.43902   3
  -2   0  -6 -33.816 17.3358   1
  -2   0  -6 -2.8970 4.70561   5
   2   0   6 -0.6867 2.34314   2
   2   0   6 1.94596 4.76658   5
   2   0   6 2.39183 3.59379   4
   2   0   6 36.0054 20.4492   1
   2   0   6 -1.1341 3.39678   6
  -3   0  -6 488.241 15.8043   3
  -3   0  -6 511.480 44.7743   1
  -3   0  -6 481.655 15.8941   4
  -3   0  -6 458.910 16.9555   6
  -3   0  -6 456.441 17.1283   5
   3   0   6 475.264 17.5897   5
   3   0   6 466.423 47.4512   1
   3   0   6 479.549 16.9397   6
   3   0   6 477.728 14.4745   2
   3   0   6 439.366 15.3971   4
  -4   0  -6 -3.1890 19.7522   1
  -4   0  -6 -1.1547 3.26433   4
  -4   0  -6 0.44408 4.27303   5
  -4   0  -6 1.10537 4.85001   6
  -4   0  -6 0.64602 3.50633   3
   4   0   6 5.45779 3.56023   2
   4   0   6 -2.9725 4.19456   5
   4   0   6 0.48077 4.01323   6
   4   0   6 -1.9359 22.5345   1
   4   0   6 -3.1697 3.51277   3
   4   0   6 1.82096 3.03946   4
  -5   0  -6 200.358 10.6562   3
  -5   0  -6 228.013 9.25531   4
  -5   0  -6 225.066 12.3977   5
  -5   0  -6 164.423 31.9593   1
  -5   0  -6 203.925 13.2975   6
   5   0   6 187.204 12.4886   6
   5   0   6 232.675 11.6116   2
   5   0   6 214.925 13.7906   5
   5   0   6 213.753 11.2006   2
   5   0   6 207.982 36.4016   1
   5   0   6 201.618 13.1292   3
   5   0   6 237.338 9.32385   4
  -6   0  -6 222.793 11.5814   3
  -6   0  -6 243.213 8.28373   4
  -6   0  -6 225.754 15.0197   6
  -6   0  -6 172.537 36.7684   1
  -6   0  -6 225.077 13.6706   5
   6   0   6 261.364 13.1292   3
   6   0   6 221.731 42.9260   1
   6   0   6 224.926 12.9865   6
   6   0   6 250.775 15.8405   5
   6   0   6 219.462 12.9320   2
  -7   0  -6 187.219 14.1541   5
  -7   0  -6 174.901 42.0157   1
  -7   0  -6 167.013 16.1042   6
  -7   0  -6 164.031 11.6705   3
   7   0   6 128.301 44.5527   1
   7   0   6 192.525 16.7665   5
   7   0   6 162.317 13.6742   6
   7   0   6 188.649 13.7803   2
   7   0   6 189.414 13.6869   3
  -8   0  -6 326.265 19.1392   5
  -8   0  -6 315.914 16.7825   3
   8   0   6 344.638 60.9728   1
   8   0   6 343.943 20.3140   3
   8   0   6 281.944 18.7347   6
   8   0   6 282.151 18.6582   2
  -9   0  -6 2.40203 8.61046   5
  -9   0  -6 1.62640 8.06839   3
   9   0   6 0.27957 8.94363   6
   9   0   6 4.94777 9.94179   2
 -10   0  -6 120.553 14.3159   3
 -10   0  -6 97.0526 14.5872   5
  10   0   6 88.4129 16.3277   2
  10   0   6 95.5806 14.5435   6
 -11   0  -6 42.5480 14.9289   3
  11   0   6 38.8602 17.5625   2
  11   0   6 41.9626 15.7337   6
   7  -1  -6 104.590 17.9108   2
   7  -1  -6 94.6884 18.3083   5
  -7   1   6 109.038 15.9738   4
   6  -1  -6 175.393 21.0543   2
   6  -1  -6 199.666 21.0719   5
  -6   1   6 184.326 18.5558   4
   5  -1  -6 -0.2495 9.11951   2
   5  -1  -6 -0.8569 9.03864   5
  -5   1   6 -2.6451 7.93778   4
   4  -1  -6 436.588 21.8227   5
   4  -1  -6 425.147 20.4654   2
   4  -1  -6 482.149 23.6681   4
  -4   1   6 450.174 20.6040   4
  -4   1   6 416.604 21.3747   2
   3  -1  -6 369.372 48.6544   1
   3  -1  -6 486.846 20.9661   5
   3  -1  -6 462.977 20.7755   3
   3  -1  -6 449.809 18.8740   2
   3  -1  -6 472.643 21.2963   4
  -3   1   6 489.477 20.3793   4
  -3   1   6 467.603 20.1369   2
   2  -1  -6 196.083 12.8314   3
   2  -1  -6 211.960 12.4863   4
   2  -1  -6 151.919 32.5750   1
   2  -1  -6 198.764 13.4676   5
   2  -1  -6 193.714 10.9778   2
  -2   1   6 156.507 33.8201   1
  -2   1   6 196.982 12.2612   2
  -2   1   6 200.576 12.9814   4
   1  -1  -6 842.317 27.1193   5
   1  -1  -6 884.102 25.7991   3
   1  -1  -6 836.473 26.1534   4
   1  -1  -6 862.419 24.2792   2
   1  -1  -6 790.774 55.6035   1
  -1   1   6 863.055 21.2445   6
  -1   1   6 959.916 61.0414   1
  -1   1   6 877.172 24.4966   2
  -1   1   6 822.270 26.6770   4
  -1   1   6 835.870 27.0041   5
   0  -1  -6 37.4698 4.58283   2
   0  -1  -6 35.3928 6.72359   4
   0  -1  -6 31.7447 6.38774   5
   0  -1  -6 42.4500 22.6468   1
   0  -1  -6 45.2801 5.23518   6
   0   1   6 44.9255 6.32868   5
   0   1   6 43.9277 4.94631   6
   0   1   6 46.3544 5.38496   2
   0   1   6 46.3109 23.5869   1
   0   1   6 43.6372 6.42045   4
  -1  -1  -6 930.500 24.1114   2
  -1  -1  -6 985.445 56.6978   1
  -1  -1  -6 924.906 24.6453   6
  -1  -1  -6 929.854 27.2454   5
  -1  -1  -6 930.382 26.9895   4
  -1  -1  -6 945.464 25.0173   3
   1   1   6 826.864 54.1270   1
   1   1   6 918.763 24.7733   6
   1   1   6 949.591 27.3937   5
   1   1   6 938.848 24.3956   2
   1   1   6 894.577 26.6969   4
  -2  -1  -6 327.994 14.5027   5
  -2  -1  -6 318.585 11.3634   2
  -2  -1  -6 349.670 37.4448   1
  -2  -1  -6 335.737 13.4859   4
  -2  -1  -6 327.559 11.6369   3
  -2  -1  -6 349.828 12.8435   6
   2   1   6 338.251 12.7607   6
   2   1   6 317.682 13.2210   4
   2   1   6 343.637 40.9115   1
   2   1   6 325.225 14.3442   5
   2   1   6 340.004 11.8024   2
  -3  -1  -6 29.0447 5.33141   6
  -3  -1  -6 36.7299 4.39412   3
  -3  -1  -6 61.3318 6.26770   4
  -3  -1  -6 33.8042 6.04490   5
  -3  -1  -6 27.6213 19.6311   1
   3   1   6 37.7532 5.08126   4
   3   1   6 41.0735 4.88213   2
   3   1   6 37.1141 6.63826   5
   3   1   6 47.0310 23.2242   1
   3   1   6 38.7727 5.58299   6
  -4  -1  -6 224.578 33.2031   1
  -4  -1  -6 233.691 11.5270   5
  -4  -1  -6 267.341 12.5976   6
  -4  -1  -6 242.372 10.2905   4
  -4  -1  -6 253.051 9.75740   3
   4   1   6 238.335 9.86791   3
   4   1   6 216.795 11.6958   6
   4   1   6 246.844 13.3089   5
   4   1   6 239.832 10.8477   2
   4   1   6 240.203 34.6728   1
   4   1   6 243.262 10.1961   4
  -5  -1  -6 35.2060 24.4749   1
  -5  -1  -6 16.1423 3.75113   4
  -5  -1  -6 15.9244 3.74282   3
  -5  -1  -6 15.9264 5.24944   5
  -5  -1  -6 5.71125 5.90045   6
   5   1   6 20.4541 3.94396   4
   5   1   6 13.9420 4.34173   3
   5   1   6 23.3884 5.67095   2
   5   1   6 20.3024 5.78360   5
   5   1   6 70.2913 31.5927   1
   5   1   6 16.7550 4.65407   6
  -6  -1  -6 4.47781 3.73127   3
  -6  -1  -6 12.2067 6.73892   6
  -6  -1  -6 4.79677 2.91693   4
  -6  -1  -6 3.55015 4.85329   5
  -6  -1  -6 19.0050 26.2635   1
   6   1   6 27.2573 30.4691   1
   6   1   6 9.49827 5.43788   6
   6   1   6 0.31297 2.74948   4
   6   1   6 4.17369 5.87466   2
   6   1   6 8.70646 4.86851   3
   6   1   6 8.05062 5.03909   2
   6   1   6 16.3863 6.26777   5
  -7  -1  -6 6.85770 6.40197   5
  -7  -1  -6 1.38250 4.39290   3
  -7  -1  -6 5.21615 8.28104   6
  -7  -1  -6 38.6040 31.4548   1
   7   1   6 14.1690 5.40430   6
   7   1   6 1.24877 8.15446   5
   7   1   6 -1.6699 5.97354   3
   7   1   6 -5.4879 34.2990   1
   7   1   6 0.20874 5.66709   2
   7   1   6 5.47535 8.12374   2
  -8  -1  -6 28.3513 6.95247   3
  -8  -1  -6 37.8972 49.4778   1
  -8  -1  -6 32.1555 8.14128   5
   8   1   6 35.8438 8.46000   2
   8   1   6 37.7380 42.7560   1
   8   1   6 14.6282 16.6051   2
   8   1   6 24.3849 9.03253   3
   8   1   6 21.5246 8.40033   6
  -9  -1  -6 1.44977 6.63333   3
  -9  -1  -6 5.05063 8.84549   5
   9   1   6 17.8884 9.16518   6
   9   1   6 -1.4422 9.13695   2
   9   1   6 -4.3667 10.9652   3
 -10  -1  -6 52.6651 12.7454   5
 -10  -1  -6 45.1803 12.6463   3
  10   1   6 55.1151 13.1047   6
  10   1   6 61.6814 13.2005   2
 -11  -1  -6 3.95734 12.5804   3
  11   1   6 6.46665 14.9585   2
  11   1   6 10.1031 14.0246   6
 -12  -1  -6 28.1344 17.3752   3
  12   1   6 11.6416 17.6155   6
   7  -2  -6 76.0199 19.6360   5
   7  -2  -6 165.317 21.3736   2
  -7   2   6 138.587 18.3150   4
   6  -2  -6 25.0366 13.1271   5
   6  -2  -6 14.6832 12.5446   2
  -6   2   6 -2.3617 10.9481   4
  -6   2   6 1.55995 11.6036   3
   5  -2  -6 443.741 25.0241   5
   5  -2  -6 479.186 25.5982   2
  -5   2   6 462.872 23.6501   3
   4  -2  -6 202.975 16.2578   2
  -4   2   6 189.164 15.9962   4
  -4   2   6 213.609 20.3897   2
  -4   2   6 219.496 18.7516   3
   3  -2  -6 554.036 24.2013   4
   3  -2  -6 577.960 22.6570   2
   3  -2  -6 599.182 24.4318   5
   3  -2  -6 571.811 69.7812   1
   3  -2  -6 613.476 24.1827   3
  -3   2   6 591.169 22.9499   3
  -3   2   6 534.058 70.4475   1
  -3   2   6 582.533 24.7981   2
  -3   2   6 547.121 23.1697   4
   2  -2  -6 1303.21 38.7081   5
   2  -2  -6 1341.83 37.4775   3
   2  -2  -6 1337.70 36.8797   2
   2  -2  -6 1297.48 38.3667   4
   2  -2  -6 1316.75 76.0454   1
  -2   2   6 1376.09 37.4763   2
  -2   2   6 1339.98 38.3925   4
  -2   2   6 1137.73 79.1259   1
   1  -2  -6 9.49879 5.45998   3
   1  -2  -6 13.8204 6.97774   4
   1  -2  -6 14.3733 5.40028   2
   1  -2  -6 20.6414 7.04239   5
   1  -2  -6 47.1796 25.9780   1
  -1   2   6 37.0635 27.1682   1
  -1   2   6 11.8541 2.89992   6
  -1   2   6 12.0951 6.19710   2
  -1   2   6 12.6259 6.97574   5
  -1   2   6 17.8810 5.07679   4
   0  -2  -6 2464.45 61.2716   5
   0  -2  -6 2527.79 59.2731   2
   0  -2  -6 2375.49 96.9585   1
   0  -2  -6 2490.91 61.1044   4
   0   2   6 2561.10 100.872   1
   0   2   6 2506.51 56.4464   6
   0   2   6 2500.66 61.0791   5
   0   2   6 2465.12 61.2646   4
  -1  -2  -6 674.985 20.2225   2
  -1  -2  -6 646.716 50.4568   1
  -1  -2  -6 691.152 19.3531   3
  -1  -2  -6 683.277 22.1002   4
  -1  -2  -6 637.962 22.3890   5
   1   2   6 669.443 20.3671   2
   1   2   6 640.190 53.5915   1
   1   2   6 680.533 19.2897   6
   1   2   6 659.888 21.8141   4
   1   2   6 710.893 22.4314   5
  -2  -2  -6 856.062 55.2495   1
  -2  -2  -6 884.576 26.7902   5
  -2  -2  -6 918.910 23.5157   3
  -2  -2  -6 901.640 23.6032   3
  -2  -2  -6 950.436 26.7840   4
  -2  -2  -6 925.258 25.2398   6
  -2  -2  -6 933.549 25.2908   2
   2   2   6 999.662 58.5030   1
   2   2   6 908.467 26.5085   4
   2   2   6 925.798 25.2921   2
   2   2   6 927.731 27.2018   5
   2   2   6 914.242 25.2830   6
  -3  -2  -6 1882.54 80.7257   1
  -3  -2  -6 1818.66 44.0571   4
  -3  -2  -6 1712.35 44.9749   5
  -3  -2  -6 1739.17 40.6820   3
  -3  -2  -6 1750.83 43.3082   2
  -3  -2  -6 1809.73 44.1057   6
   3   2   6 1755.72 43.9319   4
   3   2   6 1602.18 76.8131   1
   3   2   6 1744.74 43.8805   6
   3   2   6 1797.37 45.0153   5
   3   2   6 1826.30 43.6853   2
  -4  -2  -6 17.8225 2.92809   3
  -4  -2  -6 13.0027 4.24503   5
  -4  -2  -6 12.0701 4.19230   4
  -4  -2  -6 20.1952 5.45518   6
   4   2   6 5.69108 4.74558   5
   4   2   6 37.5545 23.8439   1
   4   2   6 16.8516 4.73287   6
   4   2   6 9.03425 3.69741   4
  -5  -2  -6 1378.88 37.3268   6
  -5  -2  -6 1352.62 33.7753   4
  -5  -2  -6 1344.78 32.0623   3
  -5  -2  -6 1381.72 70.8609   1
  -5  -2  -6 1358.99 37.3065   5
   5   2   6 1339.14 73.8340   1
   5   2   6 1354.61 33.9042   4
   5   2   6 1302.18 36.8074   6
   5   2   6 1335.00 32.2848   3
   5   2   6 1370.59 36.3780   2
   5   2   6 1371.30 37.3266   5
  -6  -2  -6 178.539 8.43976   3
  -6  -2  -6 183.974 11.2207   5
  -6  -2  -6 181.138 8.59816   4
  -6  -2  -6 233.198 36.0378   1
  -6  -2  -6 174.743 11.8239   6
   6   2   6 169.848 9.10190   3
   6   2   6 156.569 34.9690   1
   6   2   6 180.608 12.7375   2
   6   2   6 193.465 8.62584   4
   6   2   6 184.572 12.2375   6
   6   2   6 182.559 14.1013   5
  -7  -2  -6 288.111 16.1419   5
  -7  -2  -6 287.892 11.8538   3
  -7  -2  -6 313.816 17.4522   6
  -7  -2  -6 334.083 45.2893   1
  -7  -2  -6 303.342 9.68779   4
   7   2   6 256.817 44.4933   1
   7   2   6 275.884 17.6608   5
   7   2   6 295.073 13.0120   3
   7   2   6 272.056 16.7437   2
   7   2   6 302.756 9.88680   4
   7   2   6 304.465 15.8815   6
  -8  -2  -6 128.766 11.5271   5
  -8  -2  -6 129.156 10.1324   3
  -8  -2  -6 89.9154 40.0925   1
   8   2   6 115.217 11.9854   3
   8   2   6 157.927 13.9997   6
   8   2   6 86.9212 43.7874   1
   8   2   6 154.581 14.2302   2
   8   2   6 98.4457 13.6080   2
  -9  -2  -6 28.0116 7.26416   3
  -9  -2  -6 43.1490 10.5062   5
   9   2   6 56.9305 10.3594   3
   9   2   6 59.2668 10.5502   2
 -10  -2  -6 52.6694 9.85505   3
 -10  -2  -6 42.8171 12.2260   5
  10   2   6 48.9797 12.8883   2
  10   2   6 48.8313 13.9170   3
  10   2   6 30.6253 11.2217   6
 -11  -2  -6 -18.968 10.1763   3
 -11  -2  -6 13.1043 13.0225   5
  11   2   6 -2.6798 12.1584   6
  11   2   6 2.72490 13.8178   2
 -12  -2  -6 57.5374 16.1273   3
  12   2   6 23.9224 20.3290   2
  12   2   6 15.6344 17.9356   6
   6  -3  -6 92.8715 17.9045   2
   6  -3  -6 55.2182 16.4587   5
  -6   3   6 47.9726 15.4731   3
  -6   3   6 46.3325 15.1264   4
   5  -3  -6 20.1894 11.8157   5
   5  -3  -6 31.3124 12.6102   2
  -5   3   6 38.1088 12.5159   4
  -5   3   6 21.3000 11.8354   3
   4  -3  -6 142.240 17.6887   2
   4  -3  -6 122.389 14.5438   5
  -4   3   6 128.169 13.7681   3
   3  -3  -6 485.337 23.5025   5
   3  -3  -6 541.822 23.6151   2
  -3   3   6 510.745 25.8163   2
  -3   3   6 557.278 22.6299   3
  -3   3   6 554.455 23.2015   4
   2  -3  -6 51.6627 9.44171   3
   2  -3  -6 46.1909 10.3689   4
   2  -3  -6 54.6319 9.38021   5
   2  -3  -6 20.4349 35.2217   1
   2  -3  -6 51.5910 8.78588   2
  -2   3   6 86.8204 40.5093   1
  -2   3   6 67.3577 10.7041   2
  -2   3   6 42.3723 7.59068   3
  -2   3   6 45.2672 8.31465   4
   1  -3  -6 1334.58 38.5125   5
   1  -3  -6 1348.06 81.4292   1
   1  -3  -6 1340.13 36.4188   3
   1  -3  -6 1364.92 38.1706   4
   1  -3  -6 1343.58 37.5199   2
  -1   3   6 1302.48 31.0632   6
  -1   3   6 1356.57 38.3752   2
  -1   3   6 1366.57 36.4658   3
  -1   3   6 1324.43 31.1157   6
  -1   3   6 1270.28 37.7116   5
  -1   3   6 1264.70 79.5844   1
  -1   3   6 1334.05 38.4896   4
   0  -3  -6 190.524 34.2018   1
   0  -3  -6 209.227 13.4217   4
   0  -3  -6 173.922 11.2628   2
   0  -3  -6 200.579 10.9954   3
   0  -3  -6 188.835 13.0114   5
   0   3   6 197.973 12.8729   2
   0   3   6 202.129 8.71009   6
   0   3   6 200.373 12.3145   4
   0   3   6 156.777 35.6767   1
   0   3   6 213.974 13.1507   5
  -1  -3  -6 1984.35 46.2089   3
  -1  -3  -6 1932.24 49.7701   4
  -1  -3  -6 1952.21 48.7830   2
  -1  -3  -6 1956.70 87.8126   1
  -1  -3  -6 1915.36 49.7235   5
   1   3   6 1852.37 88.5934   1
   1   3   6 2025.42 49.8603   5
   1   3   6 1915.31 49.6949   4
   1   3   6 1928.01 46.2840   6
   1   3   6 2003.94 49.0097   2
  -2  -3  -6 1631.00 43.0877   5
  -2  -3  -6 1613.52 38.4209   3
  -2  -3  -6 1705.36 79.2143   1
  -2  -3  -6 1681.41 43.0875   4
  -2  -3  -6 1685.06 42.2193   2
   2   3   6 1592.24 42.6492   4
   2   3   6 1682.04 43.1769   5
   2   3   6 1622.65 80.2610   1
   2   3   6 1639.00 40.9401   6
   2   3   6 1705.25 42.3419   2
  -3  -3  -6 289.070 13.1702   4
  -3  -3  -6 291.512 13.8262   5
  -3  -3  -6 268.575 40.4724   1
  -3  -3  -6 280.695 8.65254   3
  -3  -3  -6 281.751 12.6143   2
   3   3   6 281.323 12.6127   4
   3   3   6 281.781 13.0135   2
   3   3   6 286.206 13.1126   5
   3   3   6 293.472 12.3458   6
   3   3   6 291.189 41.9367   1
  -4  -3  -6 1989.03 44.3439   3
  -4  -3  -6 2067.98 50.7705   2
  -4  -3  -6 1978.95 51.1862   5
  -4  -3  -6 2043.06 44.4107   3
  -4  -3  -6 2147.62 88.9983   1
  -4  -3  -6 2044.99 50.8323   6
  -4  -3  -6 2103.08 50.0979   4
   4   3   6 2058.45 51.6728   5
   4   3   6 2010.93 50.6747   6
   4   3   6 2059.26 49.8766   4
   4   3   6 1991.44 86.4794   1
   4   3   6 2053.02 50.8198   2
  -5  -3  -6 300.980 14.5133   5
  -5  -3  -6 312.003 8.36785   3
  -5  -3  -6 319.674 15.1790   6
  -5  -3  -6 312.587 44.2827   1
  -5  -3  -6 311.455 14.3347   4
   5   3   6 324.430 12.8493   4
   5   3   6 316.685 14.8040   2
   5   3   6 301.150 16.0084   5
   5   3   6 296.203 40.3704   1
   5   3   6 307.881 14.5883   6
  -6  -3  -6 936.936 23.0405   3
  -6  -3  -6 927.681 29.0714   5
  -6  -3  -6 913.816 28.5383   6
  -6  -3  -6 962.192 25.4522   4
  -6  -3  -6 986.309 63.6882   1
   6   3   6 897.223 29.5294   5
   6   3   6 936.356 22.5663   3
   6   3   6 938.947 25.2254   4
   6   3   6 897.418 29.0031   2
   6   3   6 898.430 66.6663   1
   6   3   6 928.925 28.9567   6
  -7  -3  -6 662.125 25.2315   6
  -7  -3  -6 686.323 18.6438   3
  -7  -3  -6 720.529 25.2200   5
  -7  -3  -6 672.767 19.1802   4
  -7  -3  -6 692.348 61.7788   1
   7   3   6 688.762 24.8382   6
   7   3   6 635.283 61.9779   1
   7   3   6 665.329 25.9213   5
   7   3   6 684.916 19.2554   4
   7   3   6 684.395 25.4342   2
   7   3   6 665.484 18.9510   3
  -8  -3  -6 92.4657 11.1996   5
  -8  -3  -6 101.815 8.48731   3
  -8  -3  -6 -45.045 43.8820   1
   8   3   6 91.8063 14.5468   2
   8   3   6 84.4043 10.6183   6
   8   3   6 80.1108 38.3359   1
   8   3   6 102.760 9.61521   3
  -9  -3  -6 415.818 16.6440   3
  -9  -3  -6 408.705 21.9130   5
   9   3   6 366.636 24.1497   6
   9   3   6 418.971 18.1781   3
   9   3   6 376.322 22.4686   2
 -10  -3  -6 2.97932 9.75353   5
 -10  -3  -6 20.1798 7.81032   3
  10   3   6 -1.4916 8.85109   6
  10   3   6 24.5545 11.4850   2
  10   3   6 10.3803 10.6991   3
 -11  -3  -6 60.4103 14.9457   5
 -11  -3  -6 51.0029 11.4061   3
  11   3   6 51.4178 15.4494   2
  11   3   6 39.2516 13.4838   6
 -12  -3  -6 49.0358 22.9877   3
  12   3   6 47.8703 18.3491   2
  12   3   6 37.6793 16.0418   6
   6  -4  -6 35.3879 17.5544   5
   6  -4  -6 44.4262 18.4735   2
  -6   4   6 18.4976 15.4587   4
  -6   4   6 24.3725 17.5704   3
   5  -4  -6 14.8837 13.3151   5
   5  -4  -6 -1.0887 13.6914   2
  -5   4   6 0.63563 12.0103   3
  -5   4   6 13.3537 12.6186   4
   4  -4  -6 47.4904 12.5885   2
   4  -4  -6 58.3917 12.9986   5
  -4   4   6 68.3469 11.6583   3
  -4   4   6 48.6924 11.5170   4
   3  -4  -6 12.7403 8.92038   5
  -3   4   6 3.39189 7.65495   3
   2  -4  -6 166.859 14.8067   2
   2  -4  -6 101.018 45.8169   1
   2  -4  -6 190.560 15.9782   3
   2  -4  -6 164.580 14.3969   5
  -2   4   6 177.484 14.1559   4
  -2   4   6 145.139 13.3658   3
  -2   4   6 197.710 67.6829   1
  -2   4   6 153.723 15.8772   2
   1  -4  -6 25.8696 7.92147   4
   1  -4  -6 28.4224 8.04650   5
   1  -4  -6 20.5995 34.6615   1
   1  -4  -6 23.5480 7.15459   2
   1  -4  -6 28.7996 8.06643   3
  -1   4   6 24.5256 5.97334   3
  -1   4   6 25.4957 9.36962   2
  -1   4   6 28.5719 4.47737   6
  -1   4   6 -15.216 39.6241   1
  -1   4   6 25.5095 3.56150   6
  -1   4   6 20.3871 6.86337   4
   0  -4  -6 359.859 17.3806   5
   0  -4  -6 351.643 16.8497   2
   0  -4  -6 419.133 55.7439   1
   0  -4  -6 390.132 15.4255   3
   0  -4  -6 348.065 17.9588   4
   0   4   6 438.939 61.9566   1
   0   4   6 375.155 17.9904   2
   0   4   6 350.001 16.9766   5
   0   4   6 359.179 14.3602   3
   0   4   6 356.268 12.4511   6
   0   4   6 342.276 12.8172   6
   0   4   6 358.237 17.0753   4
  -1  -4  -6 440.981 54.4686   1
  -1  -4  -6 517.272 19.4981   2
  -1  -4  -6 497.318 16.1577   3
  -1  -4  -6 496.059 19.6236   5
  -1  -4  -6 506.163 20.1769   4
   1   4   6 515.495 20.2198   2
   1   4   6 421.437 57.0869   1
   1   4   6 540.634 19.6924   5
   1   4   6 514.456 16.3522   6
   1   4   6 493.945 19.5727   4
  -2  -4  -6 94.0194 9.59896   4
  -2  -4  -6 111.247 10.4596   5
  -2  -4  -6 103.769 6.27454   3
  -2  -4  -6 130.480 10.0536   2
  -2  -4  -6 78.0495 32.4896   1
   2   4   6 97.9711 9.39635   4
   2   4   6 96.7265 9.93594   5
   2   4   6 107.653 8.39163   6
   2   4   6 109.574 10.9099   2
   2   4   6 106.679 32.0253   1
  -3  -4  -6 1668.71 44.1805   2
  -3  -4  -6 1642.41 37.3037   3
  -3  -4  -6 1662.71 37.1423   3
  -3  -4  -6 1647.54 43.6440   5
  -3  -4  -6 1738.55 44.2040   4
  -3  -4  -6 1627.06 81.0611   1
   3   4   6 1683.19 83.9395   1
   3   4   6 1736.14 44.0827   5
   3   4   6 1661.24 42.5841   6
   3   4   6 1710.24 43.8318   4
   3   4   6 1722.32 44.4250   2
  -4  -4  -6 106.951 27.8196   1
  -4  -4  -6 97.2731 9.45114   5
  -4  -4  -6 69.6209 8.11414   2
  -4  -4  -6 99.0087 9.29189   4
   4   4   6 76.5836 8.12845   6
   4   4   6 89.6530 10.6295   5
   4   4   6 91.0939 10.1077   2
   4   4   6 86.5316 29.3345   1
   4   4   6 92.8323 8.57170   4
  -5  -4  -6 2367.86 58.9660   5
  -5  -4  -6 2389.15 59.5774   2
  -5  -4  -6 2323.93 97.0793   1
  -5  -4  -6 2453.10 57.5102   4
   5   4   6 2383.95 59.6232   2
   5   4   6 2384.67 59.4274   5
   5   4   6 2380.12 58.9973   6
   5   4   6 2306.25 96.9781   1
   5   4   6 2358.55 57.1402   4
  -6  -4  -6 369.411 14.9469   4
  -6  -4  -6 375.512 16.7076   5
  -6  -4  -6 312.546 40.7696   1
   6   4   6 396.223 18.5667   2
   6   4   6 360.075 18.3746   5
   6   4   6 364.149 16.9161   6
   6   4   6 377.121 52.8302   1
   6   4   6 359.748 14.1690   4
  -7  -4  -6 248.444 14.9786   5
  -7  -4  -6 244.945 39.0275   1
  -7  -4  -6 268.371 12.2622   4
   7   4   6 218.078 16.7514   2
   7   4   6 257.446 17.5167   5
   7   4   6 236.174 14.9451   6
   7   4   6 253.303 11.6455   4
   7   4   6 253.180 40.8643   1
  -8  -4  -6 713.007 26.5275   5
  -8  -4  -6 693.089 18.3179   3
   8   4   6 686.745 19.6414   4
   8   4   6 691.075 26.2466   6
   8   4   6 656.817 18.4105   3
   8   4   6 543.973 66.6685   1
  -9  -4  -6 10.0125 5.11372   3
  -9  -4  -6 9.30685 8.33103   5
   9   4   6 9.95421 5.99896   3
   9   4   6 22.2042 9.31716   6
 -10  -4  -6 257.480 20.3346   5
  10   4   6 292.793 20.1621   6
  10   4   6 261.470 22.0759   2
 -11  -4  -6 70.0917 10.7080   3
 -11  -4  -6 87.9485 14.4385   5
  11   4   6 81.8220 14.9405   6
  11   4   6 84.0961 17.1978   2
  12   4   6 54.8687 19.5955   2
  12   4   6 54.0879 16.5762   6
   5  -5  -6 6.98980 16.4478   2
   5  -5  -6 -15.890 14.8023   5
  -5   5   6 13.6340 14.9356   4
  -5   5   6 0.96336 13.8304   3
   4  -5  -6 20.1200 13.0035   5
   4  -5  -6 25.9468 13.6383   2
  -4   5   6 24.0874 12.2374   4
  -4   5   6 19.6497 11.4814   3
   3  -5  -6 40.9824 12.5209   2
   3  -5  -6 72.7052 13.3842   5
  -3   5   6 61.7892 12.2033   4
  -3   5   6 64.2879 11.2422   3
   2  -5  -6 -2.1460 7.90452   2
   2  -5  -6 -6.4801 8.21145   5
  -2   5   6 6.96307 7.42319   3
  -2   5   6 3.19577 3.44562   6
  -2   5   6 7.96777 9.71937   4
   1  -5  -6 186.333 15.3589   5
   1  -5  -6 89.9335 44.0467   1
   1  -5  -6 159.311 14.6092   3
   1  -5  -6 150.278 14.3621   2
  -1   5   6 177.980 8.88525   6
  -1   5   6 186.524 10.2611   6
  -1   5   6 177.595 14.9507   4
  -1   5   6 146.114 12.5874   3
  -1   5   6 144.007 54.2674   1
   0  -5  -6 4.31303 7.13720   2
   0  -5  -6 3.66117 6.31436   3
   0  -5  -6 1.45314 6.84028   5
   0  -5  -6 -77.400 31.7262   1
   0   5   6 0.38928 4.86375   3
   0   5   6 3.41835 41.2404   1
   0   5   6 3.40150 6.50251   4
   0   5   6 2.64080 5.24399   6
   0   5   6 4.07448 9.52472   2
   0   5   6 -10.009 7.38901   5
   0   5   6 1.81669 3.77689   6
  -1  -5  -6 10.9212 8.48929   4
  -1  -5  -6 -2.6363 4.40767   3
  -1  -5  -6 -1.6848 5.91167   5
  -1  -5  -6 3.25041 5.79057   2
  -1  -5  -6 42.2523 32.1824   1
   1   5   6 8.02212 5.19644   6
   1   5   6 2.03677 6.29825   5
   1   5   6 0.62273 7.69044   2
   1   5   6 65.7192 67.3065   1
   1   5   6 -0.4142 5.08994   4
   1   5   6 -4.6419 3.87921   6
   1   5   6 -2.2270 3.64992   3
  -2  -5  -6 15.2419 3.91622   3
  -2  -5  -6 18.7756 27.8995   1
  -2  -5  -6 15.4235 5.99001   5
  -2  -5  -6 9.25108 5.61770   2
  -2  -5  -6 15.7856 7.37794   4
   2   5   6 17.1892 6.25250   4
   2   5   6 -1.0385 7.03425   2
   2   5   6 -17.383 29.8211   1
   2   5   6 11.7981 4.39017   6
   2   5   6 13.8927 6.76169   5
  -3  -5  -6 1.42095 5.17929   2
  -3  -5  -6 -0.9253 4.69654   5
  -3  -5  -6 4.85274 26.1422   1
  -3  -5  -6 -0.1220 1.91931   3
  -3  -5  -6 4.66966 6.76747   4
   3   5   6 13.1177 29.4103   1
   3   5   6 -4.6886 6.41917   2
   3   5   6 -1.5098 4.90436   4
   3   5   6 -0.4496 6.09343   5
   3   5   6 -0.8394 4.01202   6
  -4  -5  -6 101.971 10.2442   2
  -4  -5  -6 76.6377 8.27188   5
  -4  -5  -6 74.2901 8.69595   4
  -4  -5  -6 73.2415 28.9670   1
   4   5   6 83.8411 8.92862   4
   4   5   6 99.0355 11.9232   2
   4   5   6 80.7444 8.73238   6
   4   5   6 99.7055 10.9442   5
   4   5   6 57.6184 29.2312   1
  -5  -5  -6 34.5095 6.59707   5
  -5  -5  -6 36.9338 7.24154   2
  -5  -5  -6 31.1137 7.03273   4
  -5  -5  -6 27.7327 26.9606   1
   5   5   6 28.0590 8.17769   5
   5   5   6 52.6972 30.7209   1
   5   5   6 30.0274 6.27525   6
   5   5   6 32.0851 5.99995   4
   5   5   6 36.5253 8.15470   2
  -6  -5  -6 11.1595 6.57078   4
  -6  -5  -6 -0.7390 5.29645   5
  -6  -5  -6 -1.7969 26.8106   1
   6   5   6 -1.1566 7.79761   5
   6   5   6 8.96505 7.61114   2
   6   5   6 -1.2367 29.8203   1
   6   5   6 5.68110 5.01633   4
   6   5   6 6.84396 5.72400   6
  -7  -5  -6 392.181 59.0637   1
  -7  -5  -6 406.393 16.5022   4
  -7  -5  -6 401.499 18.4463   5
   7   5   6 435.738 19.3646   6
   7   5   6 323.500 43.5161   1
   7   5   6 410.414 15.9594   4
   7   5   6 400.565 20.8484   5
   7   5   6 382.628 20.8338   2
  -8  -5  -6 1.27053 6.88574   5
   8   5   6 1.35882 4.89830   4
   8   5   6 0.25016 5.80654   6
  -9  -5  -6 314.729 19.4912   5
   9   5   6 365.914 20.4832   6
   9   5   6 324.368 10.6859   3
   9   5   6 336.063 13.5959   4
 -10  -5  -6 61.7505 11.9752   5
  10   5   6 91.3235 12.8147   6
 -11  -5  -6 11.3653 11.8744   5
  11   5   6 21.8027 13.0433   6
  11   5   6 20.6791 13.3466   2
  12   5   6 95.7128 21.0961   2
  12   5   6 84.0253 17.4531   6
   4  -6  -6 95.1783 19.5329   2
   4  -6  -6 88.1644 18.4481   5
  -4   6   6 91.8198 16.9714   3
  -4   6   6 63.7074 15.8695   4
   3  -6  -6 37.8049 13.6035   5
   3  -6  -6 42.8563 13.9921   2
  -3   6   6 47.6007 12.8815   3
  -3   6   6 40.1193 13.2500   4
   2  -6  -6 236.235 18.8304   5
   2  -6  -6 271.422 21.7041   2
  -2   6   6 235.837 9.74517   6
  -2   6   6 234.809 19.1592   4
   1  -6  -6 26.0178 11.8714   3
   1  -6  -6 19.0038 9.62559   2
   1  -6  -6 17.0417 9.22840   5
   1  -6  -6 66.7253 60.7525   1
  -1   6   6 16.2881 5.20586   6
  -1   6   6 21.9486 7.30431   3
  -1   6   6 18.1059 9.17971   4
   0  -6  -6 222.934 51.7166   1
   0  -6  -6 143.555 14.1635   5
   0  -6  -6 171.033 14.7408   3
   0  -6  -6 166.561 16.4742   2
   0   6   6 181.321 57.8139   1
   0   6   6 162.724 10.7853   6
   0   6   6 170.608 12.3877   3
   0   6   6 166.801 17.4277   4
   0   6   6 166.852 13.1879   6
  -1  -6  -6 325.194 18.2005   2
  -1  -6  -6 233.580 49.0006   1
  -1  -6  -6 290.218 15.7582   5
   1   6   6 282.386 16.6370   5
   1   6   6 286.072 17.2072   4
   1   6   6 317.739 15.3411   6
   1   6   6 284.843 24.3737   2
   1   6   6 332.802 57.9232   1
   1   6   6 299.505 13.2754   3
   1   6   6 317.010 13.9642   6
  -2  -6  -6 30.1651 7.03510   5
  -2  -6  -6 35.6135 34.3970   1
  -2  -6  -6 38.0566 10.4637   4
  -2  -6  -6 25.2844 8.13701   2
  -2  -6  -6 35.1404 5.37070   3
   2   6   6 27.8355 5.78967   6
   2   6   6 35.6121 7.64941   6
   2   6   6 36.6157 7.81495   4
   2   6   6 60.5290 40.8228   1
   2   6   6 41.4577 8.31144   5
   2   6   6 48.0531 8.92736   2
  -3  -6  -6 380.416 19.4736   4
  -3  -6  -6 321.705 47.4010   1
  -3  -6  -6 379.213 10.4500   3
  -3  -6  -6 359.910 18.2513   2
  -3  -6  -6 357.683 15.8317   5
   3   6   6 369.311 16.6188   4
   3   6   6 346.423 50.4140   1
   3   6   6 346.128 19.8744   2
   3   6   6 362.097 15.8497   6
   3   6   6 366.421 16.7853   5
  -4  -6  -6 49.8501 7.52952   5
  -4  -6  -6 49.7355 30.5408   1
  -4  -6  -6 55.7793 9.11617   2
  -4  -6  -6 52.9628 8.70232   4
   4   6   6 52.5863 7.84746   4
   4   6   6 18.9745 32.2869   1
   4   6   6 45.5846 10.2626   2
   4   6   6 41.6623 7.09588   6
   4   6   6 50.5535 8.49619   5
  -5  -6  -6 52.7370 8.94700   4
  -5  -6  -6 51.8998 7.46223   5
  -5  -6  -6 50.3583 9.21078   2
  -5  -6  -6 51.9725 31.0373   1
   5   6   6 27.7645 9.97279   2
   5   6   6 45.8695 7.77244   6
   5   6   6 53.8290 7.74948   4
   5   6   6 53.6836 9.08078   5
   5   6   6 57.1711 33.0751   1
  -6  -6  -6 29.4773 6.85707   5
  -6  -6  -6 27.5226 8.21064   2
  -6  -6  -6 -31.232 30.0150   1
  -6  -6  -6 14.5472 8.23630   4
   6   6   6 61.8286 33.3828   1
   6   6   6 28.1486 9.66435   5
   6   6   6 29.0592 10.9631   2
   6   6   6 21.8546 6.50881   4
   6   6   6 28.6656 7.14741   6
  -7  -6  -6 -2.2785 7.14801   4
  -7  -6  -6 -12.297 5.69090   5
   7   6   6 -36.048 32.0380   1
   7   6   6 -4.5984 6.21098   6
   7   6   6 -0.5963 5.44368   4
   7   6   6 -0.3679 9.81983   5
  -8  -6  -6 7.07410 7.15156   5
   8   6   6 -6.9628 7.44546   6
   8   6   6 4.69821 5.76128   4
  -9  -6  -6 -0.4772 8.07256   5
   9   6   6 -3.6804 8.57231   6
   9   6   6 4.59561 6.05458   4
 -10  -6  -6 2.89633 9.90197   5
  10   6   6 4.48874 6.38986   4
  10   6   6 2.65401 10.7288   6
 -11  -6  -6 11.6922 11.4938   5
  11   6   6 9.45968 12.2487   6
  12   6   6 -22.955 16.6157   2
  12   6   6 -22.257 15.2114   6
   3  -7  -6 135.314 17.7596   5
   3  -7  -6 125.022 20.8979   2
  -3   7   6 147.183 18.6885   4
  -3   7   6 132.813 17.6052   3
   2  -7  -6 -0.6541 13.6163   2
  -2   7   6 15.7988 11.0364   3
  -2   7   6 6.21000 12.0541   4
   1  -7  -6 304.199 23.8337   2
   1  -7  -6 309.422 20.6820   5
  -1   7   6 310.061 19.8029   3
  -1   7   6 332.724 22.2829   4
  -1   7   6 329.944 15.3396   6
   0  -7  -6 285.943 17.7590   5
   0  -7  -6 252.541 20.3012   3
   0  -7  -6 290.727 68.1171   1
   0  -7  -6 274.636 21.1572   2
   0   7   6 290.480 18.2831   6
   0   7   6 297.129 14.9205   6
   0   7   6 247.725 92.9846   1
   0   7   6 268.652 16.1017   3
   0   7   6 273.257 19.5960   4
  -1  -7  -6 46.3807 8.69252   5
  -1  -7  -6 61.1421 9.50913   3
  -1  -7  -6 59.4149 11.9255   2
  -1  -7  -6 83.8509 49.8233   1
   1   7   6 53.1888 10.1443   6
   1   7   6 52.8549 10.1340   4
   1   7   6 56.8609 57.2160   1
   1   7   6 46.9337 7.79824   6
   1   7   6 58.8932 7.61569   3
  -2  -7  -6 730.825 81.1475   1
  -2  -7  -6 917.704 28.3783   5
  -2  -7  -6 891.633 25.2950   3
  -2  -7  -6 874.504 32.7749   2
   2   7   6 952.463 29.3232   5
   2   7   6 915.848 28.6538   6
   2   7   6 839.977 29.8800   6
   2   7   6 927.217 24.6993   3
   2   7   6 800.961 92.9406   1
  -3  -7  -6 51.5569 41.4419   1
  -3  -7  -6 50.8549 10.3094   2
  -3  -7  -6 58.6468 6.16729   3
  -3  -7  -6 49.4087 8.04239   5
   3   7   6 54.4706 9.99629   6
   3   7   6 49.0997 8.19585   6
   3   7   6 50.9181 8.42271   4
   3   7   6 57.8067 9.50794   5
   3   7   6 132.265 47.9542   1
  -4  -7  -6 631.417 77.3985   1
  -4  -7  -6 667.550 27.4195   2
  -4  -7  -6 720.698 23.2140   5
   4   7   6 699.494 25.9518   4
   4   7   6 664.369 26.1017   6
   4   7   6 713.556 25.0862   6
   4   7   6 593.778 78.6333   1
   4   7   6 672.930 24.6073   5
  -5  -7  -6 377.409 20.0811   2
  -5  -7  -6 377.826 17.0794   5
  -5  -7  -6 280.698 49.3940   1
  -5  -7  -6 300.190 19.9744   4
   5   7   6 362.231 18.9360   5
   5   7   6 389.580 18.6136   4
   5   7   6 382.419 18.4756   6
   5   7   6 331.824 53.3898   1
  -6  -7  -6 88.0129 10.0269   5
  -6  -7  -6 97.8044 11.5686   2
  -6  -7  -6 88.6465 12.2450   4
   6   7   6 96.5011 11.0808   6
   6   7   6 97.9471 10.7745   4
   6   7   6 109.516 42.4022   1
   6   7   6 92.7101 11.9620   5
  -7  -7  -6 486.163 20.4068   5
   7   7   6 500.703 24.4287   5
   7   7   6 423.709 24.5290   6
   7   7   6 465.638 20.0044   4
  -8  -7  -6 25.9612 8.94316   5
   8   7   6 18.1173 7.91817   4
   8   7   6 18.1446 8.95157   6
  -9  -7  -6 109.003 13.2352   5
   9   7   6 102.133 13.4658   6
   9   7   6 98.3278 10.4960   4
 -10  -7  -6 18.1870 11.3892   5
  10   7   6 27.9857 8.43299   4
  10   7   6 13.1888 11.8425   6
 -11  -7  -6 27.6308 12.9915   5
  11   7   6 14.4997 13.8949   6
  12   7   6 -11.026 18.4567   2
  12   7   6 -9.5360 17.0740   6
   2  -8  -6 24.8994 15.7430   5
   2  -8  -6 31.0181 18.8054   2
  -2   8   6 68.2155 15.3322   3
  -2   8   6 58.5487 16.9404   4
   1  -8  -6 64.0544 17.2896   2
   1  -8  -6 78.5181 13.4341   5
  -1   8   6 110.625 16.4108   4
  -1   8   6 100.713 13.3343   3
   0  -8  -6 25.1618 12.8860   2
   0  -8  -6 60.4617 11.5991   5
   0   8   6 56.7486 9.66951   6
   0   8   6 57.1376 10.1411   3
   0   8   6 57.7378 13.1093   4
  -1  -8  -6 412.369 19.6469   5
  -1  -8  -6 361.592 24.2048   2
   1   8   6 269.378 85.5086   1
   1   8   6 411.106 18.0175   3
   1   8   6 394.349 19.3017   6
   1   8   6 412.779 23.9423   4
   1   8   6 371.292 24.4657   6
  -2  -8  -6 7.13471 7.24260   5
  -2  -8  -6 -2.7142 8.02781   3
  -2  -8  -6 -3.3510 9.79631   2
   2   8   6 -1.5290 8.07963   4
   2   8   6 -2.5775 9.43479   5
   2   8   6 -5.1199 5.43743   3
   2   8   6 4.26382 7.40872   6
   2   8   6 7.03757 12.2292   6
   2   8   6 -49.840 62.2705   1
  -3  -8  -6 542.427 20.9144   5
  -3  -8  -6 558.379 16.9042   3
  -3  -8  -6 535.795 26.6414   2
   3   8   6 561.972 25.7114   4
   3   8   6 609.154 24.0308   6
   3   8   6 552.470 22.4495   5
   3   8   6 367.979 80.8366   1
  -4  -8  -6 198.927 13.6634   5
  -4  -8  -6 217.669 18.8895   2
   4   8   6 206.512 15.8285   6
   4   8   6 233.344 17.6277   4
   4   8   6 252.406 16.4347   5
  -5  -8  -6 149.967 12.5653   5
  -5  -8  -6 198.076 17.7430   2
   5   8   6 157.632 15.5731   5
  -6  -8  -6 755.895 25.3076   5
  -6  -8  -6 745.943 30.9550   2
   6   8   6 784.012 29.4289   6
   6   8   6 681.391 30.8152   4
   6   8   6 704.433 27.1549   5
  -7  -8  -6 -4.1382 7.46668   5
  -7  -8  -6 19.1454 10.2457   2
   7   8   6 -3.7498 7.69866   4
   7   8   6 27.6189 12.4241   5
   7   8   6 2.13224 8.54833   6
  -8  -8  -6 373.863 20.8534   5
   8   8   6 374.775 20.0925   4
   8   8   6 335.119 21.7239   6
  -9  -8  -6 144.790 15.1261   5
   9   8   6 150.548 16.0123   4
   9   8   6 162.043 19.0591   6
 -10  -8  -6 72.8723 13.9018   5
  10   8   6 85.3945 11.9814   4
  10   8   6 84.5290 15.3067   6
 -11  -8  -6 120.733 17.8813   5
  11   8   6 113.251 18.5040   6
  12   8   6 3.91617 27.8764   6
   1  -9  -6 -9.5276 18.2188   2
  -1   9   6 19.9703 14.3288   3
  -1   9   6 16.9561 16.7382   4
   0  -9  -6 28.0944 16.3982   2
   0   9   6 53.2310 16.3898   3
   0   9   6 42.7310 11.5457   6
   0   9   6 39.5307 14.7569   4
  -1  -9  -6 16.4724 9.40395   5
  -1  -9  -6 -15.870 12.3340   2
   1   9   6 17.4661 11.9832   6
   1   9   6 0.09308 9.12082   3
   1   9   6 9.63632 12.2701   4
  -2  -9  -6 139.997 17.6586   2
  -2  -9  -6 126.549 14.4082   5
   2   9   6 167.833 19.2901   4
   2   9   6 120.003 12.8724   3
   2   9   6 120.146 14.8634   6
  -3  -9  -6 60.9999 8.94497   5
  -3  -9  -6 54.5588 13.0760   2
   3   9   6 55.2671 12.5446   4
   3   9   6 48.7062 10.3396   6
  -4  -9  -6 109.545 12.6624   5
  -4  -9  -6 127.369 16.4388   2
   4   9   6 122.705 13.6540   6
   4   9   6 106.992 13.6662   5
   4   9   6 120.177 14.5961   4
  -5  -9  -6 295.609 16.5185   5
  -5  -9  -6 254.474 21.8835   2
   5   9   6 297.184 19.9151   5
   5   9   6 276.722 19.5192   6
   5   9   6 286.293 20.4084   4
  -6  -9  -6 27.2355 8.51677   5
  -6  -9  -6 26.0266 9.71954   2
   6   9   6 37.8669 10.6947   6
   6   9   6 42.5039 11.0459   4
   6   9   6 8.55131 11.5778   5
  -7  -9  -6 406.783 20.3223   5
  -7  -9  -6 344.259 24.7576   2
   7   9   6 385.532 22.2134   4
   7   9   6 334.220 24.8425   5
   7   9   6 354.072 22.1234   6
  -8  -9  -6 77.1677 11.8662   5
   8   9   6 84.3262 13.1893   4
   8   9   6 61.8482 13.5034   6
  -9  -9  -6 197.925 20.0957   5
   9   9   6 203.331 19.7367   4
   9   9   6 217.983 22.4187   6
 -10  -9  -6 156.175 16.7350   5
  10   9   6 162.114 16.3854   4
  10   9   6 156.043 19.0938   6
  11   9   6 13.1561 16.8338   6
   0  10   6 47.3522 23.0281   4
  -1 -10  -6 -22.598 16.0925   2
   1  10   6 2.08053 15.2068   4
   1  10   6 -2.3490 13.0871   6
  -2 -10  -6 -12.278 14.1861   2
   2  10   6 -2.1706 11.7861   6
   2  10   6 -3.7785 13.0190   4
  -3 -10  -6 8.50963 14.5759   2
   3  10   6 7.59647 11.1278   6
   3  10   6 -12.091 12.4395   4
  -4 -10  -6 -2.3995 13.0865   2
   4  10   6 24.4224 12.7685   4
   4  10   6 0.86349 10.7273   6
  -5 -10  -6 0.64371 7.85052   5
  -5 -10  -6 18.8693 14.0727   2
   5  10   6 -21.057 11.5143   4
   5  10   6 -13.774 10.0185   6
  -6 -10  -6 29.6037 9.29391   5
  -6 -10  -6 29.3766 14.2717   2
   6  10   6 33.1507 13.2035   4
   6  10   6 49.3519 12.8146   6
  -7 -10  -6 3.62275 9.17595   5
  -7 -10  -6 13.7835 13.3559   2
   7  10   6 -20.241 10.8460   4
   7  10   6 -20.804 10.8836   6
  -8 -10  -6 51.9876 11.8059   5
   8  10   6 39.8368 13.1232   4
   8  10   6 44.4891 13.8300   6
  -9 -10  -6 15.5055 12.3967   5
   9  10   6 -5.9143 14.3600   6
   9  10   6 48.6096 14.4271   4
 -10 -10  -6 -15.639 13.2990   5
  10  10   6 7.70261 15.1082   4
  10  10   6 -21.938 15.8793   6
   2  11   6 19.8365 15.7379   6
  -3 -11  -6 30.6429 18.3496   2
   3  11   6 26.6446 16.4246   4
   3  11   6 21.4606 15.1041   6
  -4 -11  -6 32.2029 17.8495   2
   4  11   6 35.4822 14.4469   6
   4  11   6 53.0811 16.8405   4
  -5 -11  -6 49.4364 18.4420   2
   5  11   6 43.8084 14.5346   6
   5  11   6 12.4286 14.2102   4
  -6 -11  -6 10.9129 17.0792   2
   6  11   6 -7.2655 14.0740   4
   6  11   6 8.79502 13.5506   6
  -7 -11  -6 -18.769 16.0057   2
   7  11   6 -0.9014 14.3684   6
   7  11   6 20.4408 15.3753   4
   8  11   6 34.6815 15.3564   4
   8  11   6 28.2377 15.8350   6
   9  11   6 -11.144 16.6167   4
   5  10  -7 5.94782 19.3566   3
   4  10  -7 34.0274 18.7275   3
   3  10  -7 53.8158 18.2112   3
  -3 -10   7 14.2352 15.3748   6
   2  10  -7 39.4520 16.5833   4
   2  10  -7 -5.8180 15.5187   3
  -2 -10   7 38.0451 16.3372   6
   1  10  -7 41.8626 16.7925   3
   1  10  -7 34.9129 16.5845   4
  -1 -10   7 54.6782 16.8865   6
   0  10  -7 12.5306 15.5327   4
   0  10  -7 -16.241 15.6828   3
   0 -10   7 9.24807 16.4658   6
  -1  10  -7 13.7616 16.4014   4
  -1  10  -7 21.1522 18.8611   3
   1 -10   7 30.0566 18.3572   6
  -2  10  -7 -14.543 17.8395   4
   6   9  -7 -2.7667 15.2957   5
   6   9  -7 -5.6021 18.1586   3
   5   9  -7 137.432 19.7939   3
   5   9  -7 155.995 15.9392   5
   4   9  -7 275.677 25.2297   3
  -4  -9   7 239.241 22.9196   6
   3   9  -7 103.586 12.3617   5
   3   9  -7 145.929 17.9670   3
  -3  -9   7 94.2752 15.3137   6
   2   9  -7 242.235 24.1119   3
  -2  -9   7 264.230 22.5994   6
   1   9  -7 32.4903 14.1973   3
  -1  -9   7 -13.597 11.3086   6
   0   9  -7 151.749 18.8101   3
   0   9  -7 150.576 17.4583   4
   0  -9   7 136.959 17.6822   6
  -1   9  -7 0.17045 12.3121   4
  -1   9  -7 9.95675 13.5039   3
   1  -9   7 7.16946 13.7591   6
  -2   9  -7 64.9491 17.2596   3
  -2   9  -7 70.7155 15.8897   4
   2  -9   7 82.1294 17.4780   6
  -3   9  -7 39.6225 18.6701   3
  -3   9  -7 32.0194 15.4989   4
   3  -9   7 51.9644 18.1031   6
  -4   9  -7 4.30557 20.6732   4
   7   8  -7 -12.642 15.7855   5
   7   8  -7 20.9209 19.5125   3
   6   8  -7 117.359 16.7796   5
   6   8  -7 88.9370 17.8380   3
   5   8  -7 74.3172 16.2543   3
   4   8  -7 74.3451 15.0528   3
   4   8  -7 90.0737 12.1292   5
  -4  -8   7 45.6432 12.0440   6
   3   8  -7 166.799 15.9417   5
   3   8  -7 214.844 21.0044   3
  -3  -8   7 192.318 18.7073   6
   2   8  -7 -4.2122 10.0291   3
   2   8  -7 -5.9625 7.31041   5
  -2  -8   7 9.20183 10.0218   6
   1   8  -7 213.551 13.2849   5
   1   8  -7 223.084 20.9421   3
  -1  -8   7 230.129 20.0060   6
   0   8  -7 168.831 11.1921   5
   0   8  -7 165.367 18.8994   3
   0  -8   7 135.697 15.9713   6
  -1   8  -7 118.937 15.6850   3
  -1   8  -7 108.827 9.74738   5
   1  -8   7 92.6718 14.5365   6
   1  -8   7 99.7210 10.1337   2
  -2   8  -7 162.928 18.6404   3
  -2   8  -7 183.380 12.9735   5
  -2   8  -7 212.541 20.6411   4
   2  -8   7 265.214 23.0502   6
  -3   8  -7 -3.5039 11.2917   4
  -3   8  -7 13.5446 13.1998   3
   3  -8   7 -5.1918 13.2128   6
   3  -8   7 -7.8305 9.54290   2
  -4   8  -7 134.898 17.1674   4
  -4   8  -7 150.618 20.4790   3
   4  -8   7 138.997 19.8388   6
  -5   8  -7 7.06848 17.6053   3
   5  -8   7 0.34181 18.0698   6
   7   7  -7 -10.770 13.9409   5
   7   7  -7 -25.156 15.9219   3
   6   7  -7 -3.9151 11.1765   5
   6   7  -7 -12.554 12.3202   3
   5   7  -7 27.6731 13.1325   3
   5   7  -7 8.91192 12.5462   5
   4   7  -7 29.1360 10.0447   5
   4   7  -7 10.3970 11.5470   3
  -4  -7   7 37.0594 10.6532   6
   3   7  -7 4.19762 9.07545   3
   3   7  -7 -4.7025 7.49084   5
  -3  -7   7 5.12196 10.1606   6
   2   7  -7 142.932 13.7390   5
   2   7  -7 137.844 16.4331   3
   1   7  -7 51.6747 10.0644   3
   1   7  -7 50.6767 8.09508   5
  -1  -7   7 60.1876 11.2312   6
   0   7  -7 50.4326 7.37150   5
   0   7  -7 62.7283 12.5391   3
   0  -7   7 56.9096 11.3722   6
  -1   7  -7 148.355 11.2847   5
  -1   7  -7 153.502 17.3494   3
   1  -7   7 182.647 17.1062   6
   1  -7   7 164.500 14.3199   5
  -2   7  -7 -4.5865 5.86489   5
  -2   7  -7 -4.3203 9.48896   3
   2  -7   7 1.61094 9.54982   6
   2  -7   7 0.24662 5.19031   2
   2  -7   7 15.9403 13.0815   5
  -3   7  -7 143.106 12.3459   5
  -3   7  -7 158.980 17.1909   3
  -3   7  -7 167.400 23.0569   4
   3  -7   7 181.619 14.0483   2
   3  -7   7 171.181 16.9157   6
  -4   7  -7 53.5287 13.0817   3
  -4   7  -7 76.5587 9.60800   5
  -4   7  -7 51.8620 12.1091   4
   4  -7   7 47.6848 14.0974   6
   4  -7   7 61.7679 10.8590   2
  -5   7  -7 43.1479 11.9591   4
  -5   7  -7 46.0051 15.2374   3
   5  -7   7 61.8355 16.4708   2
   5  -7   7 55.8494 15.8782   6
  -6   7  -7 52.7013 18.6693   3
   6  -7   7 66.6652 19.3520   6
   6  -7   7 41.4777 16.0231   2
   8   6  -7 95.2780 25.8232   3
   8   6  -7 90.5444 19.8271   5
   7   6  -7 -19.357 14.2680   3
   7   6  -7 -11.002 13.5513   5
   6   6  -7 64.8385 14.2184   3
   6   6  -7 74.1592 14.1534   5
   5   6  -7 64.3709 13.6807   3
   5   6  -7 70.9465 12.0213   5
   5   6  -7 78.1420 13.2109   6
   4   6  -7 27.9269 11.2373   3
   4   6  -7 37.6943 10.4205   5
   4   6  -7 22.9036 11.6947   6
  -4  -6   7 38.2917 8.94888   6
   3   6  -7 36.5170 9.04588   3
   3   6  -7 33.1331 11.1048   6
   3   6  -7 47.4052 9.07472   5
  -3  -6   7 34.1683 9.51320   6
   2   6  -7 0.52303 10.5978   6
   2   6  -7 -7.3557 6.33257   5
  -2  -6   7 0.48025 7.67921   6
   1   6  -7 20.5393 7.21242   5
   1   6  -7 11.3316 8.36012   3
  -1  -6   7 28.3348 8.49325   6
   0   6  -7 10.9950 8.88389   3
   0   6  -7 17.3782 6.55929   5
   0  -6   7 13.4438 7.95734   5
   0  -6   7 18.3567 8.24525   6
  -1   6  -7 18.9548 5.86481   5
   1  -6   7 9.57712 8.30551   6
   1  -6   7 3.53671 7.16724   5
  -2   6  -7 14.2974 8.32227   3
  -2   6  -7 2.65801 5.79149   5
  -2   6  -7 11.0957 10.9657   4
   2  -6   7 3.44751 7.54502   5
   2  -6   7 18.2957 8.91458   6
   2  -6   7 12.5882 4.18309   2
  -3   6  -7 69.9091 8.43029   5
  -3   6  -7 66.8048 11.7676   3
  -3   6  -7 60.9336 13.4479   4
   3  -6   7 91.8777 11.0434   5
   3  -6   7 69.9204 12.0094   6
   3  -6   7 65.6644 7.77964   2
  -4   6  -7 -18.489 9.40408   3
  -4   6  -7 -1.1045 12.8847   4
  -4   6  -7 4.64032 7.92851   4
  -4   6  -7 11.7822 7.63875   5
   4  -6   7 13.3850 11.0435   5
   4  -6   7 -1.3068 9.68284   6
   4  -6   7 -3.8380 7.68602   2
  -5   6  -7 40.8106 9.45122   4
  -5   6  -7 52.2568 11.1614   3
  -5   6  -7 44.9191 9.38986   5
   5  -6   7 30.0723 11.0363   2
   5  -6   7 27.5034 12.7772   6
  -6   6  -7 12.7064 10.5123   5
  -6   6  -7 -5.5042 12.9702   3
   6  -6   7 -8.1705 13.1091   6
   6  -6   7 6.03055 12.6153   2
  -7   6  -7 27.7768 16.7933   3
   7  -6   7 34.8959 16.0717   2
   7  -6   7 11.1091 16.3984   6
   8   5  -7 11.1007 17.2593   5
   7   5  -7 247.680 24.0050   5
   6   5  -7 161.624 18.9432   5
   6   5  -7 154.356 13.0603   2
   5   5  -7 220.924 18.8852   5
   5   5  -7 204.971 9.64540   2
   5   5  -7 167.962 18.5175   3
   5   5  -7 183.317 10.2414   2
   5   5  -7 200.695 16.9076   6
   4   5  -7 431.350 20.5843   6
   4   5  -7 422.589 21.6901   5
   4   5  -7 429.065 23.1483   3
   4   5  -7 430.564 55.4497   1
  -4  -5   7 420.079 18.1475   6
   3   5  -7 0.00119 7.44770   5
   3   5  -7 -0.0852 7.94050   3
   3   5  -7 7.21464 9.02769   6
   3   5  -7 -8.4111 28.0587   1
  -3  -5   7 33.1367 35.6122   1
  -3  -5   7 2.34778 6.49788   6
   2   5  -7 586.248 24.9592   3
   2   5  -7 583.112 22.2524   5
   2   5  -7 517.888 58.5287   1
   2   5  -7 578.337 23.1183   6
  -2  -5   7 563.175 63.2687   1
  -2  -5   7 618.909 22.4187   6
   1   5  -7 54.0336 10.2314   6
   1   5  -7 52.2460 8.43719   3
   1   5  -7 58.7861 31.1385   1
   1   5  -7 54.7327 11.0831   4
   1   5  -7 61.7938 8.39996   5
  -1  -5   7 55.4818 8.76401   6
  -1  -5   7 78.7886 10.1978   5
  -1  -5   7 42.2405 33.1909   1
   0   5  -7 167.365 14.8085   3
   0   5  -7 151.773 15.4291   4
   0   5  -7 153.242 12.2242   5
   0   5  -7 171.668 15.6740   6
   0   5  -7 135.484 35.4058   1
   0  -5   7 164.106 12.5347   5
   0  -5   7 167.019 13.2031   6
  -1   5  -7 107.641 37.8871   1
  -1   5  -7 163.941 15.0027   3
  -1   5  -7 162.486 11.6781   5
  -1   5  -7 159.784 15.3548   4
  -1   5  -7 134.597 14.0111   6
   1  -5   7 165.943 12.3736   6
   1  -5   7 144.518 42.8822   1
   1  -5   7 172.837 13.1140   5
  -2   5  -7 -2.7336 6.74972   3
  -2   5  -7 11.5832 5.77986   5
  -2   5  -7 -11.470 8.68262   4
  -2   5  -7 46.3490 37.7095   1
   2  -5   7 -25.487 40.1658   1
   2  -5   7 0.09374 7.49772   5
   2  -5   7 3.43550 7.50699   6
   2  -5   7 6.78473 4.37664   2
  -3   5  -7 111.343 12.5483   4
  -3   5  -7 109.659 12.1751   3
  -3   5  -7 151.551 47.2431   1
  -3   5  -7 120.445 10.9803   5
   3  -5   7 139.187 14.6003   6
   3  -5   7 133.210 9.49296   2
   3  -5   7 129.095 12.9602   5
  -4   5  -7 3.15765 9.34722   4
  -4   5  -7 25.5193 7.93464   3
  -4   5  -7 11.9242 6.58841   5
   4  -5   7 16.5586 6.92198   2
   4  -5   7 9.85599 9.37793   5
   4  -5   7 13.5846 9.05275   6
  -5   5  -7 62.9498 9.79521   5
  -5   5  -7 62.3819 12.0111   3
  -5   5  -7 50.0227 8.44141   4
  -5   5  -7 56.5663 11.1597   4
   5  -5   7 56.3233 10.0700   2
   5  -5   7 69.1449 12.1867   6
   5  -5   7 59.2901 12.2184   5
  -6   5  -7 5.13111 10.7157   3
  -6   5  -7 3.63851 6.99748   4
  -6   5  -7 -10.951 8.60782   5
   6  -5   7 9.17047 11.0992   6
   6  -5   7 -13.087 10.3643   2
  -7   5  -7 3.94290 11.0840   5
  -7   5  -7 55.2587 14.2304   3
   7  -5   7 2.50714 12.4077   6
   7  -5   7 42.4852 13.4609   2
  -8   5  -7 4.07863 14.8544   3
   8  -5   7 -0.0854 16.7241   6
   8  -5   7 -1.4561 15.5917   2
   8   4  -7 159.460 21.5552   5
   7   4  -7 56.2115 11.8987   2
   7   4  -7 60.0410 14.8942   5
   6   4  -7 270.955 16.2683   2
   6   4  -7 250.758 21.0432   5
   6   4  -7 260.757 12.1438   6
  -6  -4   7 297.271 22.7693   4
   5   4  -7 451.027 23.5098   5
  -5  -4   7 500.321 24.6628   4
   4   4  -7 38.1671 9.75844   5
   4   4  -7 39.2994 4.48356   2
   4   4  -7 23.2998 29.2225   1
   4   4  -7 33.9133 7.65108   6
   3   4  -7 1178.66 36.3314   5
   3   4  -7 1202.07 69.8129   1
   3   4  -7 1220.66 38.5684   3
   3   4  -7 1232.73 34.0567   6
  -3  -4   7 1194.06 33.3141   6
  -3  -4   7 1218.97 38.8286   4
  -3  -4   7 1206.59 72.9473   1
   2   4  -7 174.421 32.7927   1
   2   4  -7 277.347 15.1467   6
   2   4  -7 264.545 15.6184   5
   2   4  -7 289.189 16.9971   3
   2   4  -7 277.322 16.5103   4
  -2  -4   7 278.203 13.6259   6
  -2  -4   7 212.427 36.8673   1
  -2  -4   7 250.719 16.5508   4
   1   4  -7 695.414 24.2504   6
   1   4  -7 713.685 23.9623   5
   1   4  -7 560.831 56.4720   1
   1   4  -7 692.161 25.4443   3
   1   4  -7 640.398 25.9467   4
  -1  -4   7 580.338 59.7153   1
  -1  -4   7 672.341 25.3485   4
  -1  -4   7 682.622 23.6779   6
  -1  -4   7 693.515 24.2100   5
   0   4  -7 1113.09 32.0776   5
   0   4  -7 1099.59 34.2969   3
   0   4  -7 939.110 69.5035   1
   0   4  -7 1068.97 33.2788   6
   0   4  -7 1072.29 34.1990   4
   0  -4   7 999.134 71.9027   1
   0  -4   7 1090.43 32.7003   6
   0  -4   7 1097.66 33.7630   4
   0  -4   7 1171.80 32.8439   5
  -1   4  -7 103.826 11.2121   6
  -1   4  -7 111.552 11.7283   3
  -1   4  -7 89.0457 10.8850   4
  -1   4  -7 90.1593 9.68031   5
  -1   4  -7 43.4900 30.1325   1
   1  -4   7 96.1408 9.91862   5
   1  -4   7 72.6437 9.32092   6
   1  -4   7 81.6020 34.7120   1
  -2   4  -7 1114.91 31.9380   5
  -2   4  -7 1169.36 77.2228   1
  -2   4  -7 1086.40 34.8687   3
  -2   4  -7 1117.90 35.1939   6
  -2   4  -7 1133.97 33.7719   4
   2  -4   7 1063.53 34.5216   6
   2  -4   7 990.328 78.2019   1
   2  -4   7 1126.46 32.3247   5
   2  -4   7 1142.39 35.3095   3
   2  -4   7 1114.70 25.2831   2
   2  -4   7 1124.72 25.2837   2
  -3   4  -7 -15.225 9.32176   6
  -3   4  -7 2.12711 5.67367   5
  -3   4  -7 12.8403 34.6679   1
  -3   4  -7 -11.274 5.85860   3
  -3   4  -7 -12.650 7.38464   4
   3  -4   7 55.0672 40.7361   1
   3  -4   7 11.5431 4.19911   2
   3  -4   7 -5.2217 7.16112   5
   3  -4   7 -7.7022 9.09259   3
   3  -4   7 3.76828 7.08851   6
  -4   4  -7 303.664 17.0783   4
  -4   4  -7 232.871 51.2385   1
  -4   4  -7 323.869 18.4979   3
  -4   4  -7 332.453 15.4629   5
   4  -4   7 266.288 57.7670   1
   4  -4   7 306.953 14.5868   2
   4  -4   7 330.868 18.5835   5
   4  -4   7 330.264 19.4038   6
  -5   4  -7 134.561 12.1927   5
  -5   4  -7 127.192 14.9248   3
  -5   4  -7 138.167 13.4232   4
  -5   4  -7 119.245 53.8820   1
   5  -4   7 141.085 16.1480   6
   5  -4   7 119.323 59.1534   1
   5  -4   7 126.371 13.0114   2
   5  -4   7 140.920 16.3670   5
  -6   4  -7 67.2819 10.1403   5
  -6   4  -7 59.2946 9.78561   4
  -6   4  -7 49.1843 6.86266   4
  -6   4  -7 180.095 69.2884   1
  -6   4  -7 67.4494 11.9398   3
   6  -4   7 58.1468 16.3623   5
   6  -4   7 31.9445 11.2553   6
   6  -4   7 51.9867 10.4829   2
  -7   4  -7 87.6274 14.0155   3
  -7   4  -7 77.8027 12.2606   5
   7  -4   7 53.4326 22.5722   2
   7  -4   7 54.6702 13.3156   6
  -8   4  -7 26.3076 13.8421   3
  -8   4  -7 10.0156 12.2899   5
   8  -4   7 0.16281 13.5892   6
   8  -4   7 37.4713 14.7727   2
  -9   4  -7 43.2437 18.3663   3
   9  -4   7 71.9493 19.2748   6
   9  -4   7 39.6267 18.2818   2
   8   3  -7 6.44658 19.4317   2
   8   3  -7 -8.6831 17.7733   5
   7   3  -7 48.4200 14.7301   5
   7   3  -7 60.4240 12.6260   2
  -7  -3   7 59.1998 14.8417   4
   6   3  -7 108.125 11.4708   2
   6   3  -7 104.124 14.4409   5
  -6  -3   7 105.642 14.8057   4
   5   3  -7 47.9853 10.8428   5
   5   3  -7 40.9689 7.23415   2
   5   3  -7 43.8927 4.31603   6
  -5  -3   7 23.7851 9.42330   4
   4   3  -7 538.802 24.0283   5
   4   3  -7 551.797 17.1483   2
   4   3  -7 628.639 61.7021   1
   4   3  -7 549.610 17.4637   6
  -4  -3   7 552.053 24.7022   4
   3   3  -7 57.8577 29.8577   1
   3   3  -7 43.6914 7.66362   6
   3   3  -7 37.7231 3.70266   2
   3   3  -7 49.0206 9.24863   5
   3   3  -7 27.1488 12.6591   4
  -3  -3   7 19.5389 27.9468   1
  -3  -3   7 35.2899 5.57032   6
  -3  -3   7 44.4096 9.12427   4
   2   3  -7 787.432 59.3686   1
   2   3  -7 834.485 29.2714   4
   2   3  -7 862.330 25.0389   6
   2   3  -7 830.870 29.5785   3
   2   3  -7 798.205 27.7886   5
   2   3  -7 807.416 28.2286   3
  -2  -3   7 907.543 64.3050   1
  -2  -3   7 832.126 29.0619   4
  -2  -3   7 833.765 24.5964   6
  -2  -3   7 837.922 28.3924   5
   1   3  -7 733.701 26.1663   3
   1   3  -7 772.988 24.3741   6
   1   3  -7 750.342 27.1924   4
   1   3  -7 765.720 26.0171   5
   1   3  -7 833.186 58.6424   1
  -1  -3   7 783.311 24.0960   6
  -1  -3   7 771.660 61.0137   1
  -1  -3   7 743.106 25.9116   4
  -1  -3   7 747.182 25.7999   5
   0   3  -7 308.391 15.7969   5
   0   3  -7 273.091 39.7762   1
   0   3  -7 290.522 14.7679   6
   0   3  -7 314.319 16.6250   4
   0   3  -7 283.659 15.5680   3
   0  -3   7 271.019 14.7636   4
   0  -3   7 271.926 14.1971   6
   0  -3   7 299.150 15.8915   5
  -1   3  -7 1572.01 43.0334   4
  -1   3  -7 1602.56 42.9929   6
  -1   3  -7 1583.91 79.4989   1
  -1   3  -7 1536.65 43.3486   3
  -1   3  -7 1581.78 42.1963   5
   1  -3   7 1614.33 43.3488   4
   1  -3   7 1519.24 83.2913   1
   1  -3   7 1586.73 42.8508   6
   1  -3   7 1635.73 42.5239   5
  -2   3  -7 95.7260 10.5561   6
  -2   3  -7 104.663 10.8569   4
  -2   3  -7 75.0202 9.39521   3
  -2   3  -7 67.6727 8.22507   5
  -2   3  -7 60.6188 28.9633   1
   2  -3   7 90.0986 9.38946   4
   2  -3   7 134.391 36.6025   1
   2  -3   7 66.2061 3.11235   2
   2  -3   7 65.4404 8.77357   6
   2  -3   7 87.3486 9.44548   5
   2  -3   7 86.8538 3.38524   2
  -3   3  -7 845.448 26.1107   5
  -3   3  -7 828.083 27.6360   3
  -3   3  -7 761.193 66.5041   1
  -3   3  -7 848.172 26.7006   4
  -3   3  -7 836.457 28.8465   6
   3  -3   7 816.286 28.2512   6
   3  -3   7 797.705 21.4935   2
   3  -3   7 875.155 27.2309   5
   3  -3   7 823.001 21.8372   2
   3  -3   7 792.429 28.0263   3
   3  -3   7 752.008 70.8671   1
  -4   3  -7 345.133 50.9185   1
  -4   3  -7 426.794 17.5806   4
  -4   3  -7 425.237 18.8351   3
  -4   3  -7 413.750 20.9437   6
  -4   3  -7 393.443 17.3045   5
   4  -3   7 373.534 57.4951   1
   4  -3   7 381.131 19.9371   3
   4  -3   7 364.883 18.6241   5
   4  -3   7 400.543 15.3204   2
   4  -3   7 415.744 19.7271   6
  -5   3  -7 145.102 46.1950   1
  -5   3  -7 90.5556 10.9239   3
  -5   3  -7 99.8598 11.2099   4
  -5   3  -7 105.351 11.1911   5
   5  -3   7 86.0776 11.7271   6
   5  -3   7 -10.140 48.4817   1
   5  -3   7 102.266 11.8709   5
   5  -3   7 88.3202 9.37895   2
   5  -3   7 111.884 13.2134   3
  -6   3  -7 374.618 15.5583   4
  -6   3  -7 402.303 20.3228   3
  -6   3  -7 254.528 60.9725   1
  -6   3  -7 391.607 14.3343   4
  -6   3  -7 412.953 19.5286   5
   6  -3   7 365.455 23.2833   5
   6  -3   7 346.151 23.2011   6
   6  -3   7 254.131 65.7565   1
   6  -3   7 387.768 19.3930   2
  -7   3  -7 7.90266 9.33097   3
  -7   3  -7 -5.9828 5.40277   4
  -7   3  -7 -19.669 61.1002   1
   7  -3   7 88.9982 73.8721   1
   7  -3   7 -9.8465 9.50101   6
   7  -3   7 3.18956 9.43933   2
  -8   3  -7 165.884 17.5777   5
  -8   3  -7 132.159 16.1113   3
   8  -3   7 141.365 16.6720   6
   8  -3   7 132.529 17.0938   2
  -9   3  -7 25.3086 13.8552   3
  -9   3  -7 34.8838 13.4160   5
   9  -3   7 27.0027 16.3086   2
   9  -3   7 22.2716 15.5298   6
 -10   3  -7 23.4244 19.7072   3
  10  -3   7 19.0646 20.7666   2
  10  -3   7 25.2832 20.4478   6
   8   2  -7 -20.992 16.0673   2
  -8  -2   7 -4.1869 16.6642   4
   7   2  -7 8.21277 14.0736   5
   7   2  -7 5.77290 14.2784   2
  -7  -2   7 -5.7022 12.3076   4
   6   2  -7 -12.969 10.0590   5
   6   2  -7 -12.144 8.54788   2
  -6  -2   7 2.20074 10.7806   4
   5   2  -7 -8.6777 9.11759   5
   5   2  -7 -6.1036 6.66747   2
  -5  -2   7 -10.732 8.21672   4
   4   2  -7 -9.8147 5.54542   5
   4   2  -7 -0.7670 45.9506   1
   4   2  -7 3.38329 5.06206   2
   4   2  -7 2.77884 2.45464   6
  -4  -2   7 13.4423 7.63758   4
   3   2  -7 34.4691 10.6082   3
   3   2  -7 27.8564 28.4313   1
   3   2  -7 16.0532 9.73354   4
   3   2  -7 41.3371 8.75201   5
   3   2  -7 39.0042 5.02437   6
   3   2  -7 32.7807 4.61667   2
  -3  -2   7 36.2641 30.3517   1
  -3  -2   7 41.2026 4.67093   6
  -3  -2   7 44.0665 8.80294   4
   2   2  -7 282.270 17.9847   4
   2   2  -7 290.037 12.2193   6
   2   2  -7 318.708 45.4008   1
   2   2  -7 286.591 15.8649   3
   2   2  -7 294.191 16.5508   5
  -2  -2   7 356.841 51.2658   1
  -2  -2   7 327.194 17.9224   5
  -2  -2   7 297.559 12.0385   6
  -2  -2   7 289.607 16.2530   4
   1   2  -7 136.708 13.0688   4
   1   2  -7 173.540 13.4108   3
   1   2  -7 134.466 11.2843   3
   1   2  -7 137.695 12.2097   5
  -1  -2   7 137.696 9.20120   6
  -1  -2   7 146.296 11.9258   4
  -1  -2   7 132.651 12.6567   5
   0   2  -7 638.652 23.4210   4
   0   2  -7 695.826 54.8441   1
   0   2  -7 667.699 23.1202   5
   0   2  -7 646.870 20.9882   6
   0   2  -7 657.499 22.7933   3
   0  -2   7 658.203 23.1825   5
   0  -2   7 647.940 21.2722   6
   0  -2   7 660.821 23.2101   4
   0  -2   7 573.877 58.3072   1
  -1   2  -7 8.40182 5.57819   3
  -1   2  -7 8.11586 5.59247   5
  -1   2  -7 -4.5747 23.1514   1
  -1   2  -7 9.10599 6.34789   4
  -1   2  -7 9.37293 5.44396   6
   1  -2   7 7.16711 6.06277   5
   1  -2   7 41.8509 27.3244   1
   1  -2   7 2.53883 4.63957   6
   1  -2   7 19.5427 5.91164   4
  -2   2  -7 768.257 24.8015   3
  -2   2  -7 780.754 58.0377   1
  -2   2  -7 768.136 24.6383   5
  -2   2  -7 748.637 24.4220   4
  -2   2  -7 749.531 24.8692   6
   2  -2   7 728.099 63.1364   1
   2  -2   7 746.274 24.7331   5
   2  -2   7 741.226 17.3999   2
   2  -2   7 720.550 23.8953   4
   2  -2   7 747.233 24.6611   6
   2  -2   7 739.123 17.4247   2
  -3   2  -7 460.082 19.4692   6
  -3   2  -7 484.410 18.7762   3
  -3   2  -7 470.146 18.1012   5
  -3   2  -7 459.497 53.6643   1
  -3   2  -7 462.926 18.1720   4
   3  -2   7 463.092 18.6890   3
   3  -2   7 462.246 13.8834   2
   3  -2   7 495.209 17.8754   4
   3  -2   7 461.282 18.8639   5
   3  -2   7 454.928 19.0815   6
   3  -2   7 354.301 47.7582   1
   3  -2   7 443.712 13.7355   2
  -4   2  -7 118.855 13.5198   6
  -4   2  -7 145.948 11.4134   5
  -4   2  -7 160.946 11.7495   3
  -4   2  -7 153.376 11.2236   4
  -4   2  -7 143.347 37.6919   1
   4  -2   7 148.060 8.96208   2
   4  -2   7 155.564 12.9494   3
   4  -2   7 154.141 9.26200   2
   4  -2   7 145.693 41.2160   1
   4  -2   7 148.429 12.9666   5
   4  -2   7 138.693 12.8800   6
  -5   2  -7 1044.68 33.8642   6
  -5   2  -7 1102.94 29.7593   4
  -5   2  -7 1086.89 32.8385   3
  -5   2  -7 1122.49 32.9626   5
  -5   2  -7 939.072 79.0404   1
   5  -2   7 1071.26 30.6825   2
   5  -2   7 1103.09 33.8279   5
   5  -2   7 1048.89 34.3700   6
   5  -2   7 1068.90 33.4976   3
  -6   2  -7 1.18315 4.91524   4
  -6   2  -7 6.24163 41.0636   1
  -6   2  -7 6.67935 7.10187   5
  -6   2  -7 -3.4230 6.44137   3
   6  -2   7 -1.7906 48.4599   1
   6  -2   7 3.95110 7.71329   6
   6  -2   7 -0.3654 9.32388   3
   6  -2   7 12.1410 6.96136   2
   6  -2   7 -7.5069 9.80876   5
  -7   2  -7 357.272 19.6054   3
  -7   2  -7 340.336 63.6853   1
  -7   2  -7 342.536 9.99893   4
  -7   2  -7 372.705 19.8372   5
   7  -2   7 371.351 21.2667   6
   7  -2   7 322.972 19.6114   2
   7  -2   7 330.920 71.8946   1
  -8   2  -7 49.6992 11.4451   3
  -8   2  -7 44.4284 11.0456   5
   8  -2   7 47.7010 13.9672   2
   8  -2   7 47.8285 11.9238   6
  -9   2  -7 41.2740 12.6769   5
  -9   2  -7 40.7622 13.0920   3
   9  -2   7 42.9307 13.7112   2
   9  -2   7 34.2075 13.8979   6
 -10   2  -7 103.961 18.2026   3
  10  -2   7 88.1741 18.0764   6
  10  -2   7 83.1572 18.7032   2
   7   1  -7 50.7633 16.3506   5
   7   1  -7 55.4768 14.5980   2
  -7  -1   7 58.3403 15.8018   4
   6   1  -7 103.665 13.3074   2
   6   1  -7 107.213 14.0196   5
  -6  -1   7 73.5504 14.1622   4
   5   1  -7 9.70980 9.62358   5
   5   1  -7 1.85042 7.49683   2
  -5  -1   7 14.3126 9.69141   4
   4   1  -7 133.321 11.5905   2
  -4  -1   7 182.183 15.1406   4
   3   1  -7 47.4340 10.3351   4
   3   1  -7 51.4663 3.63979   6
   3   1  -7 63.3689 31.6739   1
   3   1  -7 32.0590 10.5050   3
   3   1  -7 53.4898 6.48134   2
   3   1  -7 57.5382 9.86031   5
  -3  -1   7 26.3702 30.8459   1
  -3  -1   7 52.8558 9.49200   4
   2   1  -7 1.40311 6.55194   5
   2   1  -7 -1.8186 7.77235   3
   2   1  -7 22.0892 8.58329   4
   2   1  -7 0.55391 3.29862   2
   2   1  -7 -36.505 25.0657   1
   2   1  -7 0.84767 3.33414   6
  -2  -1   7 0.44405 3.90470   2
  -2  -1   7 9.34364 6.12306   4
  -2  -1   7 4.77070 3.17377   6
  -2  -1   7 -0.0480 7.71893   5
  -2  -1   7 22.5857 27.7353   1
   1   1  -7 449.260 19.1261   3
   1   1  -7 456.610 12.8069   2
   1   1  -7 431.317 50.2003   1
   1   1  -7 458.378 19.5075   5
   1   1  -7 452.160 15.2356   6
   1   1  -7 463.992 19.6578   4
  -1  -1   7 444.337 19.7025   5
  -1  -1   7 460.517 19.3011   4
  -1  -1   7 445.755 15.0086   6
  -1  -1   7 443.128 12.9808   2
   0   1  -7 10.0050 1.84806   2
   0   1  -7 29.0685 22.9160   1
   0   1  -7 6.06492 5.37016   3
   0   1  -7 4.32905 6.33948   4
   0   1  -7 13.9399 6.83028   5
   0   1  -7 7.58171 5.40997   6
   0   1  -7 12.5125 5.08838   3
   0  -1   7 9.04610 4.23772   6
   0  -1   7 10.2334 6.58953   5
   0  -1   7 15.3788 5.81941   4
   0  -1   7 10.0353 2.18539   2
   0  -1   7 4.37812 25.0017   1
  -1   1  -7 39.7929 7.25886   4
  -1   1  -7 34.5739 6.19712   3
  -1   1  -7 38.4366 7.77385   5
  -1   1  -7 11.1875 22.5181   1
  -1   1  -7 37.3937 5.98041   6
   1  -1   7 60.5156 26.3610   1
   1  -1   7 44.5743 3.36773   2
   1  -1   7 38.3506 6.54238   4
   1  -1   7 37.0386 7.50000   5
   1  -1   7 43.7703 6.32068   6
  -2   1  -7 65.1614 8.37791   5
  -2   1  -7 76.2628 8.14056   6
  -2   1  -7 71.6091 7.68487   3
  -2   1  -7 84.0865 9.12291   4
  -2   1  -7 84.5514 26.9170   1
   2  -1   7 81.5164 9.10055   5
   2  -1   7 60.5652 7.42393   4
   2  -1   7 78.3264 4.84724   2
   2  -1   7 73.3236 8.40939   6
   2  -1   7 38.2065 28.1547   1
  -3   1  -7 0.29202 4.90400   4
  -3   1  -7 2.30400 4.52182   3
  -3   1  -7 -0.1285 3.75414   5
  -3   1  -7 7.01906 6.07421   6
  -3   1  -7 -33.381 23.7842   1
   3  -1   7 -8.0620 4.35393   6
   3  -1   7 5.26807 6.28959   5
   3  -1   7 -1.6073 2.95825   2
   3  -1   7 -1.6699 2.54105   2
   3  -1   7 -3.2445 4.02054   4
   3  -1   7 27.4803 27.1477   1
  -4   1  -7 106.372 9.34021   3
  -4   1  -7 113.382 31.5973   1
  -4   1  -7 88.0871 9.75613   5
  -4   1  -7 99.9425 10.4176   6
  -4   1  -7 108.457 11.1244   4
   4  -1   7 96.5073 10.8050   6
   4  -1   7 119.258 8.17824   2
   4  -1   7 95.3853 8.46506   4
   4  -1   7 100.663 7.60860   2
   4  -1   7 121.318 10.2566   3
   4  -1   7 94.1773 10.3996   5
   4  -1   7 116.452 35.3079   1
  -5   1  -7 -15.089 28.4181   1
  -5   1  -7 32.1107 7.22935   5
  -5   1  -7 27.6823 8.61930   6
  -5   1  -7 34.8736 5.80486   4
  -5   1  -7 27.7248 6.06460   3
   5  -1   7 21.7382 8.65706   5
   5  -1   7 29.7161 6.52659   2
   5  -1   7 24.9707 5.58401   2
   5  -1   7 32.3949 7.65335   3
   5  -1   7 20.5118 7.14456   6
   5  -1   7 27.4576 5.00736   4
  -6   1  -7 71.2032 9.49139   5
  -6   1  -7 92.1356 40.5059   1
  -6   1  -7 33.4974 10.9114   6
  -6   1  -7 84.5239 10.0519   3
  -6   1  -7 79.8404 7.59755   4
   6  -1   7 75.1233 9.50969   2
   6  -1   7 65.5840 10.2782   6
   6  -1   7 82.8163 10.3986   3
   6  -1   7 84.3549 9.88747   2
   6  -1   7 84.7648 45.2463   1
   6  -1   7 82.9454 11.7919   5
  -7   1  -7 124.645 12.7575   5
  -7   1  -7 153.110 13.8167   3
  -7   1  -7 116.354 5.40777   4
  -7   1  -7 154.302 51.9685   1
   7  -1   7 125.797 14.6091   6
   7  -1   7 127.679 13.8428   3
   7  -1   7 103.727 52.3695   1
   7  -1   7 145.071 14.1475   2
  -8   1  -7 -5.9402 7.85884   3
  -8   1  -7 23.5029 9.44690   5
   8  -1   7 -6.3416 8.36622   2
   8  -1   7 -5.6911 9.27090   6
  -9   1  -7 205.262 17.9948   3
  -9   1  -7 212.365 19.7071   5
   9  -1   7 192.203 20.5154   2
   9  -1   7 198.656 19.9238   6
 -10   1  -7 24.4733 13.6573   5
 -10   1  -7 14.4277 13.1153   3
  10  -1   7 -11.401 13.7886   2
  10  -1   7 34.5312 14.6096   6
 -11   1  -7 11.3812 17.5793   3
  11  -1   7 26.7992 20.3128   2
  11  -1   7 18.9752 19.0007   6
   7   0  -7 60.4816 16.4274   2
   7   0  -7 75.0294 18.3403   5
  -7   0   7 47.0302 16.7487   4
   6   0  -7 40.3679 14.0154   5
   6   0  -7 33.1752 12.5749   2
  -6   0   7 37.3384 13.0142   4
   5   0  -7 496.172 23.4352   2
   5   0  -7 511.775 26.3792   5
  -5   0   7 497.443 24.9906   4
   4   0  -7 82.8737 12.2786   5
   4   0  -7 67.1050 9.42954   2
  -4   0   7 47.0870 9.99371   2
  -4   0   7 79.2485 11.1963   4
   3   0  -7 597.694 20.4247   2
   3   0  -7 548.629 24.8255   3
   3   0  -7 476.485 66.6080   1
   3   0  -7 607.052 24.9788   5
   3   0  -7 560.439 25.8005   4
  -3   0   7 573.266 21.3725   2
  -3   0   7 612.019 24.6422   4
   2   0  -7 645.162 24.6040   5
   2   0  -7 624.844 19.5778   2
   2   0  -7 623.937 23.8924   3
   2   0  -7 608.939 60.3685   1
   2   0  -7 578.642 24.2584   4
  -2   0   7 632.844 20.3586   2
  -2   0   7 605.851 23.7788   4
   1   0  -7 202.867 13.9831   3
   1   0  -7 160.829 33.9804   1
   1   0  -7 223.839 9.69694   2
   1   0  -7 223.293 9.17873   6
   1   0  -7 222.997 14.9431   4
   1   0  -7 208.602 14.4932   5
  -1   0   7 226.100 10.4135   2
  -1   0   7 215.052 14.5389   5
  -1   0   7 211.593 13.7455   4
  -1   0   7 166.382 35.3994   1
  -1   0   7 202.936 9.20811   6
   0   0  -7 771.630 20.3608   2
   0   0  -7 796.724 21.9766   6
   0   0  -7 799.040 24.7078   3
   0   0  -7 762.067 26.0354   5
   0   0  -7 800.813 26.3842   4
   0   0  -7 742.749 57.4488   1
   0   0   7 785.171 25.8664   5
   0   0   7 739.969 25.4162   4
   0   0   7 764.745 57.9820   1
   0   0   7 775.231 20.7783   2
   0   0   7 799.162 22.2285   6
  -1   0  -7 118.549 8.84055   3
  -1   0  -7 118.250 11.3041   5
  -1   0  -7 125.420 10.9436   4
  -1   0  -7 76.9290 25.8821   1
  -1   0  -7 101.035 5.95118   2
   1   0   7 114.483 6.55537   2
   1   0   7 111.048 29.5855   1
   1   0   7 107.877 8.45531   6
   1   0   7 119.733 9.48298   5
   1   0   7 102.541 9.35369   4
  -2   0  -7 326.394 13.9555   6
  -2   0  -7 314.255 13.0967   3
  -2   0  -7 284.109 41.9414   1
  -2   0  -7 316.000 14.6030   4
  -2   0  -7 307.227 15.1195   5
   2   0   7 342.149 48.5602   1
   2   0   7 283.383 13.1780   6
   2   0   7 324.440 14.4194   5
   2   0   7 317.851 14.0156   4
   2   0   7 310.088 10.7152   2
  -3   0  -7 459.315 16.8380   3
  -3   0  -7 485.535 18.9397   5
  -3   0  -7 475.737 18.2303   6
  -3   0  -7 494.317 17.5918   4
  -3   0  -7 517.805 53.0546   1
   3   0   7 498.398 19.5731   5
   3   0   7 469.974 17.1495   4
   3   0   7 488.658 15.0750   2
   3   0   7 482.071 54.1057   1
   3   0   7 471.904 17.9311   6
  -4   0  -7 50.5663 7.54672   5
  -4   0  -7 42.7486 5.86939   3
  -4   0  -7 53.1656 28.7970   1
  -4   0  -7 55.3628 8.12495   4
  -4   0  -7 63.3895 7.96749   6
   4   0   7 45.2589 5.94313   2
   4   0   7 46.7874 5.91982   4
   4   0   7 59.0288 7.97769   5
   4   0   7 47.3391 7.44610   6
   4   0   7 46.0358 31.6475   1
  -5   0  -7 116.862 10.6616   5
  -5   0  -7 59.1637 31.5232   1
  -5   0  -7 111.862 8.70302   4
  -5   0  -7 108.210 8.92386   3
  -5   0  -7 103.636 10.6728   6
   5   0   7 114.969 9.31055   2
   5   0   7 124.215 10.4261   3
   5   0   7 118.911 8.44221   4
   5   0   7 115.286 10.1108   2
   5   0   7 106.477 10.8689   6
   5   0   7 92.5768 10.9248   5
  -6   0  -7 4.24317 4.03543   4
  -6   0  -7 7.90992 5.20590   3
  -6   0  -7 -10.002 31.8550   1
  -6   0  -7 9.60611 6.69834   6
  -6   0  -7 -9.1858 5.15075   5
   6   0   7 8.51100 6.41121   6
   6   0   7 9.46101 3.74012   4
   6   0   7 -2.0106 5.86609   3
   6   0   7 6.03505 5.60947   2
   6   0   7 13.9936 9.21945   5
   6   0   7 12.0452 7.52596   2
   6   0   7 -10.023 36.7373   1
  -7   0  -7 74.7957 10.5817   5
  -7   0  -7 102.201 11.1480   3
  -7   0  -7 78.7078 5.38935   4
  -7   0  -7 116.273 42.9455   1
   7   0   7 97.7240 10.4399   3
   7   0   7 103.111 11.6810   2
   7   0   7 64.3568 47.0327   1
   7   0   7 85.9652 12.0372   2
   7   0   7 74.8024 10.6131   6
  -8   0  -7 27.3647 8.71978   5
  -8   0  -7 5.52399 7.08381   3
   8   0   7 -53.648 54.5753   1
   8   0   7 6.50742 8.73116   6
   8   0   7 12.7240 9.84190   3
   8   0   7 10.0791 8.69943   2
  -9   0  -7 30.5225 9.72646   3
  -9   0  -7 25.2986 11.1823   5
   9   0   7 36.3192 11.7601   2
   9   0   7 20.1749 10.3746   6
 -10   0  -7 8.85514 11.1890   3
 -10   0  -7 -8.2900 11.6658   5
  10   0   7 4.88667 12.8220   6
  10   0   7 7.55343 12.4491   2
 -11   0  -7 38.1069 15.5275   3
 -11   0  -7 58.3905 17.2244   5
  11   0   7 59.3080 17.4400   6
  11   0   7 -9.6103 17.0491   2
   7  -1  -7 -31.222 17.1825   5
   7  -1  -7 3.23528 17.3843   2
  -7   1   7 2.46297 16.5047   4
   6  -1  -7 201.401 23.4213   5
   6  -1  -7 226.613 23.5511   2
  -6   1   7 207.880 22.2500   4
   5  -1  -7 31.7085 12.3877   5
  -5   1   7 13.8534 10.6870   4
   4  -1  -7 582.563 27.0092   5
   4  -1  -7 576.475 24.1951   2
  -4   1   7 587.776 26.4416   2
   3  -1  -7 478.600 19.9546   2
   3  -1  -7 468.599 23.0595   5
  -3   1   7 469.174 21.6844   2
  -3   1   7 475.258 22.0945   4
   2  -1  -7 366.630 20.3522   4
   2  -1  -7 381.973 20.0109   3
   2  -1  -7 415.236 20.0856   5
   2  -1  -7 440.905 17.0732   2
   2  -1  -7 262.481 42.5767   1
  -2   1   7 405.505 17.6792   2
  -2   1   7 392.891 19.2019   4
   1  -1  -7 1994.35 94.2285   1
   1  -1  -7 1987.87 50.5448   3
   1  -1  -7 1926.77 51.9383   5
   1  -1  -7 2002.58 48.1974   2
   1  -1  -7 1963.80 52.1932   4
  -1   1   7 1931.94 44.9252   6
  -1   1   7 1917.05 93.8479   1
  -1   1   7 1985.36 52.2974   4
  -1   1   7 1953.85 52.4058   5
   0  -1  -7 36.0170 8.36528   5
   0  -1  -7 32.8738 4.99949   2
   0  -1  -7 47.7762 8.15360   4
   0  -1  -7 82.2819 26.8643   1
   0  -1  -7 31.8788 4.63389   6
   0  -1  -7 37.7901 6.48998   3
   0   1   7 30.2405 5.62668   2
   0   1   7 61.3088 29.6001   1
   0   1   7 29.6384 6.55920   5
   0   1   7 37.6203 6.96564   4
   0   1   7 32.1548 4.64567   6
  -1  -1  -7 1881.44 49.8083   3
  -1  -1  -7 1871.36 44.9445   2
  -1  -1  -7 1909.91 49.8799   5
  -1  -1  -7 1859.13 48.9422   4
  -1  -1  -7 1897.47 45.8496   6
  -1  -1  -7 1941.03 88.3046   1
   1   1   7 1881.65 48.9076   5
   1   1   7 1930.20 46.1053   6
   1   1   7 1896.90 89.7547   1
   1   1   7 1892.99 49.0304   4
   1   1   7 1875.45 45.2222   2
  -2  -1  -7 913.418 26.2957   6
  -2  -1  -7 893.814 28.5797   5
  -2  -1  -7 968.172 61.5436   1
  -2  -1  -7 904.888 25.2345   3
  -2  -1  -7 919.398 24.5249   2
  -2  -1  -7 962.884 27.9717   4
  -2  -1  -7 921.641 25.4299   3
   2   1   7 923.767 63.3295   1
   2   1   7 911.392 27.5132   4
   2   1   7 904.262 26.3890   6
   2   1   7 928.792 24.7868   2
   2   1   7 899.201 27.7962   5
  -3  -1  -7 577.225 21.1238   5
  -3  -1  -7 554.606 17.8818   3
  -3  -1  -7 611.337 53.5271   1
  -3  -1  -7 602.333 20.2281   6
  -3  -1  -7 616.277 20.5782   4
   3   1   7 597.394 18.2466   2
   3   1   7 577.066 19.9530   6
   3   1   7 588.256 20.7627   5
   3   1   7 572.623 19.5568   4
   3   1   7 560.411 56.4983   1
  -4  -1  -7 1464.50 40.2697   6
  -4  -1  -7 1491.19 37.0916   3
  -4  -1  -7 1553.30 41.3075   5
  -4  -1  -7 1494.60 38.6797   4
  -4  -1  -7 1241.90 120.781   1
   4   1   7 1455.65 40.3416   6
   4   1   7 1580.52 84.4476   1
   4   1   7 1556.42 38.9512   4
   4   1   7 1532.73 38.4836   2
   4   1   7 1489.13 41.2640   5
  -5  -1  -7 -2.0014 26.7286   1
  -5  -1  -7 -2.4584 4.91644   5
  -5  -1  -7 2.82356 4.53742   4
  -5  -1  -7 3.49579 3.56303   3
  -5  -1  -7 5.81389 6.68851   6
   5   1   7 -1.2003 3.67302   4
   5   1   7 1.82562 5.33543   2
   5   1   7 9.36125 30.3132   1
   5   1   7 9.04984 7.32811   5
   5   1   7 6.61777 4.36555   3
   5   1   7 9.22760 5.98612   6
  -6  -1  -7 618.270 18.5780   4
  -6  -1  -7 659.896 24.5635   6
  -6  -1  -7 635.522 23.8149   5
  -6  -1  -7 638.946 19.7374   3
  -6  -1  -7 670.551 62.2645   1
   6   1   7 609.712 22.3445   2
   6   1   7 656.620 25.3182   5
   6   1   7 623.195 23.5737   6
   6   1   7 721.669 73.7248   1
   6   1   7 565.345 26.2851   3
   6   1   7 623.496 18.7717   4
  -7  -1  -7 129.598 7.18777   4
  -7  -1  -7 180.801 13.4637   5
  -7  -1  -7 76.6594 37.9763   1
  -7  -1  -7 132.783 10.1976   3
   7   1   7 119.955 14.3297   2
   7   1   7 138.163 11.9191   6
   7   1   7 132.853 12.3641   3
   7   1   7 153.808 13.0806   2
   7   1   7 93.8375 44.9822   1
   7   1   7 130.362 7.14243   4
  -8  -1  -7 99.8419 11.2264   3
   8   1   7 101.982 11.5851   3
   8   1   7 48.4847 51.9162   1
   8   1   7 138.773 14.2986   2
  -9  -1  -7 84.7295 10.4761   3
  -9  -1  -7 93.9211 13.3172   5
   9   1   7 78.1341 13.0150   3
   9   1   7 96.4306 13.3327   2
   9   1   7 74.4570 12.6211   6
 -10  -1  -7 22.0658 10.8922   3
 -10  -1  -7 15.3133 12.1938   5
  10   1   7 18.5860 13.3585   2
  10   1   7 13.2451 11.6357   6
 -11  -1  -7 48.8966 16.3152   5
 -11  -1  -7 38.7369 13.8586   3
  11   1   7 31.5045 15.5760   6
  11   1   7 21.2310 16.2680   2
   6  -2  -7 -9.2790 13.7826   2
   6  -2  -7 -1.8126 15.6294   5
  -6   2   7 21.6666 15.1358   4
   5  -2  -7 126.331 15.5074   2
   5  -2  -7 148.223 17.9514   5
  -5   2   7 156.093 16.7601   4
   4  -2  -7 122.628 13.3897   2
   4  -2  -7 99.1586 14.0203   5
  -4   2   7 103.885 13.2698   4
   3  -2  -7 188.176 15.5159   2
  -3   2   7 179.024 19.5135   2
  -3   2   7 211.001 16.2940   4
   2  -2  -7 565.529 23.6447   5
   2  -2  -7 678.859 72.0204   1
   2  -2  -7 520.670 20.5936   2
   2  -2  -7 540.790 28.8127   4
   2  -2  -7 526.395 22.8764   3
  -2   2   7 358.038 54.6917   1
  -2   2   7 538.108 23.0086   4
  -2   2   7 557.642 23.0319   2
   1  -2  -7 9.93839 5.35024   2
   1  -2  -7 -8.9252 6.60086   3
   1  -2  -7 6.26125 7.12651   5
   1  -2  -7 -22.699 30.5791   1
   1  -2  -7 -1.8106 8.23983   4
  -1   2   7 -15.980 32.8581   1
  -1   2   7 -2.1002 6.20716   5
  -1   2   7 7.88802 2.88104   6
  -1   2   7 4.30145 6.18770   4
  -1   2   7 12.3318 6.57479   2
   0  -2  -7 1747.74 43.5187   2
   0  -2  -7 1631.58 45.9138   4
   0  -2  -7 1702.22 46.6023   5
   0  -2  -7 1716.67 43.6215   3
   0  -2  -7 1678.68 85.9395   1
   0   2   7 1723.62 43.7997   2
   0   2   7 1737.05 46.4384   5
   0   2   7 1625.84 45.7703   4
   0   2   7 1758.05 89.9597   1
   0   2   7 1671.15 40.5255   6
  -1  -2  -7 321.489 45.9185   1
  -1  -2  -7 412.032 18.5610   5
  -1  -2  -7 387.043 14.7578   2
  -1  -2  -7 351.104 16.1825   3
  -1  -2  -7 405.846 16.7301   4
   1   2   7 399.244 14.1723   6
   1   2   7 354.880 46.8321   1
   1   2   7 389.703 17.9574   5
   1   2   7 394.338 17.0267   4
  -2  -2  -7 1031.11 27.3320   3
  -2  -2  -7 1024.75 28.3247   2
  -2  -2  -7 1036.43 31.6845   5
  -2  -2  -7 1042.42 30.7544   4
  -2  -2  -7 1074.73 27.4422   3
  -2  -2  -7 1002.61 66.5868   1
  -2  -2  -7 1023.81 28.3878   6
   2   2   7 1077.74 68.8945   1
   2   2   7 1045.15 28.9734   2
   2   2   7 1058.13 31.6005   5
   2   2   7 1002.13 30.2413   4
   2   2   7 1020.94 28.4945   6
  -3  -2  -7 2130.61 51.7284   6
  -3  -2  -7 2085.58 48.3767   3
  -3  -2  -7 2029.52 53.2911   5
  -3  -2  -7 2103.60 48.6717   3
  -3  -2  -7 2062.45 92.8672   1
  -3  -2  -7 2031.26 50.3737   2
  -3  -2  -7 2141.34 52.3236   4
   3   2   7 2040.25 51.4796   6
   3   2   7 2077.15 52.0642   4
   3   2   7 2093.97 53.5000   5
   3   2   7 2181.18 97.5533   1
  -4  -2  -7 27.0452 26.0882   1
  -4  -2  -7 42.4395 7.50018   6
  -4  -2  -7 44.5353 5.32817   3
  -4  -2  -7 45.1129 6.51491   4
  -4  -2  -7 37.5670 7.35080   5
   4   2   7 -6.8814 27.7456   1
   4   2   7 42.0879 6.37269   2
   4   2   7 38.2652 6.16064   4
   4   2   7 40.3769 8.36805   5
   4   2   7 38.0302 6.46186   6
  -5  -2  -7 1500.40 41.1819   6
  -5  -2  -7 1450.95 80.6128   1
  -5  -2  -7 1475.98 35.3193   3
  -5  -2  -7 1492.95 41.2215   5
  -5  -2  -7 1466.32 37.9332   4
   5   2   7 1481.70 38.1285   4
   5   2   7 1456.40 85.5885   1
   5   2   7 1461.78 39.3922   2
   5   2   7 1492.09 41.8595   5
   5   2   7 1481.99 40.8598   6
  -6  -2  -7 243.052 41.0631   1
  -6  -2  -7 280.394 10.9070   3
  -6  -2  -7 272.801 16.7086   6
  -6  -2  -7 287.014 12.2662   4
  -6  -2  -7 258.543 15.2958   5
   6   2   7 265.821 46.8011   1
   6   2   7 249.725 17.5151   5
   6   2   7 298.574 11.6632   3
   6   2   7 291.397 15.4540   2
   6   2   7 262.901 11.6868   4
   6   2   7 266.464 15.3389   6
  -7  -2  -7 519.952 22.4898   5
  -7  -2  -7 519.202 24.7098   6
  -7  -2  -7 565.620 17.7701   3
  -7  -2  -7 555.867 69.8191   1
   7   2   7 482.875 70.3557   1
   7   2   7 571.887 18.5914   3
   7   2   7 571.992 16.8834   4
   7   2   7 557.087 23.5182   2
   7   2   7 552.633 23.4926   5
   7   2   7 560.132 22.9100   6
  -8  -2  -7 335.628 14.7478   3
   8   2   7 338.217 15.9774   3
   8   2   7 371.658 19.8951   2
   8   2   7 341.987 19.8268   6
   8   2   7 321.221 59.4003   1
  -9  -2  -7 7.85404 6.54616   3
  -9  -2  -7 18.7118 9.16633   5
   9   2   7 24.2322 10.2777   2
   9   2   7 5.98146 9.50860   3
   9   2   7 15.7455 9.81333   6
 -10  -2  -7 126.227 16.0802   5
 -10  -2  -7 106.836 11.8741   3
  10   2   7 110.138 15.6197   2
  10   2   7 150.867 16.4436   6
 -11  -2  -7 31.6317 14.7811   5
  11   2   7 24.2662 15.6693   2
  11   2   7 40.7572 15.6438   6
  12   2   7 29.3897 23.5620   2
  12   2   7 70.1539 20.0534   6
   6  -3  -7 -11.104 18.0947   5
   6  -3  -7 1.53214 17.9279   2
  -6   3   7 -23.195 15.5219   4
   5  -3  -7 10.1219 13.9581   5
   5  -3  -7 1.90592 14.1212   2
  -5   3   7 15.5466 12.9472   4
   4  -3  -7 3.80289 10.2895   5
   4  -3  -7 8.42530 10.4510   2
  -4   3   7 5.41562 10.0839   4
   3  -3  -7 11.0794 9.11737   2
   3  -3  -7 2.67641 8.55687   5
  -3   3   7 7.55852 8.53141   4
   2  -3  -7 7.54458 7.75126   2
   2  -3  -7 24.3549 9.39132   5
   2  -3  -7 20.8386 10.7614   3
  -2   3   7 1.88336 7.49624   4
  -2   3   7 5.14763 10.3644   2
   1  -3  -7 192.360 15.2644   3
   1  -3  -7 205.703 13.9373   5
   1  -3  -7 172.097 17.3484   4
   1  -3  -7 246.515 14.1347   2
   1  -3  -7 229.523 45.8297   1
  -1   3   7 225.530 8.32411   6
  -1   3   7 240.868 16.1020   2
  -1   3   7 219.420 17.0602   5
  -1   3   7 219.581 47.7241   1
  -1   3   7 216.136 8.50839   6
  -1   3   7 191.583 14.7380   4
   0  -3  -7 59.1095 33.2932   1
   0  -3  -7 63.5801 9.79649   4
   0  -3  -7 44.0196 7.54692   3
   0  -3  -7 38.0025 8.28129   5
   0  -3  -7 52.9353 7.56775   2
   0   3   7 67.3644 9.31184   2
   0   3   7 26.2879 34.1677   1
   0   3   7 51.5329 9.48636   5
   0   3   7 52.3210 5.33110   6
   0   3   7 44.4122 8.09635   4
  -1  -3  -7 137.109 10.0976   2
  -1  -3  -7 136.795 10.9913   3
  -1  -3  -7 149.207 13.2944   5
  -1  -3  -7 130.873 35.1308   1
  -1  -3  -7 138.761 12.8904   4
   1   3   7 87.2800 35.2366   1
   1   3   7 121.699 11.1434   4
   1   3   7 127.552 8.54925   6
   1   3   7 141.012 11.0664   5
   1   3   7 159.131 12.5295   2
  -2  -3  -7 775.015 24.0960   2
  -2  -3  -7 792.609 21.5305   3
  -2  -3  -7 784.873 26.1688   4
  -2  -3  -7 772.793 26.3995   5
  -2  -3  -7 789.575 62.8309   1
   2   3   7 797.104 25.1298   2
   2   3   7 783.320 23.2924   6
   2   3   7 644.297 65.6167   1
   2   3   7 779.752 25.6146   4
   2   3   7 789.436 26.2187   5
  -3  -3  -7 127.769 11.2931   5
  -3  -3  -7 97.1621 6.43420   3
  -3  -3  -7 104.351 8.71599   2
  -3  -3  -7 102.028 30.5331   1
  -3  -3  -7 90.5712 10.2062   4
  -3  -3  -7 110.170 6.36041   3
   3   3   7 121.982 11.9162   5
   3   3   7 104.108 9.85744   2
   3   3   7 94.1882 34.2494   1
   3   3   7 91.8785 8.44773   6
   3   3   7 100.425 9.49952   4
  -4  -3  -7 1374.73 37.6645   6
  -4  -3  -7 1367.73 37.0948   4
  -4  -3  -7 1362.14 38.0917   5
  -4  -3  -7 1357.89 31.4629   3
  -4  -3  -7 1456.59 79.7057   1
  -4  -3  -7 1372.22 36.9954   2
   4   3   7 1364.74 37.3224   6
   4   3   7 1339.81 36.7933   4
   4   3   7 1375.89 38.8674   5
   4   3   7 1426.20 37.6214   2
   4   3   7 1261.96 77.1628   1
  -5  -3  -7 89.2117 31.6482   1
  -5  -3  -7 82.7715 8.52862   4
  -5  -3  -7 77.5572 9.23792   5
  -5  -3  -7 84.1367 9.60604   6
   5   3   7 84.9441 9.26863   2
   5   3   7 80.5423 8.32014   6
   5   3   7 75.6023 8.12000   4
   5   3   7 81.4906 9.57363   5
   5   3   7 111.851 34.2612   1
  -6  -3  -7 595.931 18.1997   3
  -6  -3  -7 629.911 23.8264   6
  -6  -3  -7 577.086 22.0672   5
  -6  -3  -7 679.968 64.8718   1
  -6  -3  -7 616.202 19.9309   4
   6   3   7 653.817 68.3806   1
   6   3   7 571.398 24.2447   5
   6   3   7 590.767 19.5403   4
   6   3   7 584.417 22.5124   6
   6   3   7 603.868 22.7419   2
  -7  -3  -7 644.366 19.6465   4
  -7  -3  -7 601.172 69.5525   1
  -7  -3  -7 601.607 24.0906   5
  -7  -3  -7 631.460 29.5370   6
  -7  -3  -7 616.300 17.0716   3
   7   3   7 616.507 17.5629   3
   7   3   7 621.191 77.3539   1
   7   3   7 593.658 26.5599   5
   7   3   7 647.668 19.5616   4
   7   3   7 645.492 23.8338   6
   7   3   7 625.097 25.1763   2
  -8  -3  -7 23.7376 4.76679   3
  -8  -3  -7 22.2674 9.43798   5
   8   3   7 20.5092 4.36125   4
   8   3   7 19.8925 9.78709   6
   8   3   7 -27.593 43.4804   1
   8   3   7 16.6346 5.75314   3
  -9  -3  -7 516.998 24.8317   5
  -9  -3  -7 485.169 17.8599   3
   9   3   7 499.880 23.8090   6
   9   3   7 489.467 24.6668   2
 -10  -3  -7 28.0094 8.32107   3
 -10  -3  -7 41.0023 12.3193   5
  10   3   7 42.2345 12.0790   6
  10   3   7 8.70759 11.7306   2
 -11  -3  -7 222.183 18.7338   3
 -11  -3  -7 204.274 24.0788   5
  11   3   7 228.886 24.8626   2
  11   3   7 217.211 23.0817   6
 -12  -3  -7 30.3522 19.3786   5
  12   3   7 41.9049 18.7265   6
  12   3   7 51.4520 20.6090   2
   5  -4  -7 -3.2264 15.5787   2
   5  -4  -7 52.2537 17.2563   5
  -5   4   7 80.7562 17.4345   4
  -5   4   7 28.9022 15.5948   3
   4  -4  -7 23.7266 13.2129   5
   4  -4  -7 30.1330 13.1696   2
  -4   4   7 6.63248 11.3630   3
  -4   4   7 38.8132 13.5582   4
   3  -4  -7 55.1030 12.8422   5
   3  -4  -7 57.7609 12.3370   2
  -3   4   7 71.2548 12.5580   4
  -3   4   7 58.1371 11.7422   3
   2  -4  -7 133.928 15.2507   2
   2  -4  -7 110.474 13.5970   5
  -2   4   7 98.1283 13.0218   4
  -2   4   7 109.594 11.7736   3
   1  -4  -7 7.38151 8.48792   5
   1  -4  -7 34.1283 43.6206   1
   1  -4  -7 6.40942 8.99744   3
   1  -4  -7 1.75530 7.35551   2
  -1   4   7 -2.5477 7.63004   4
  -1   4   7 -2.2829 52.2685   1
  -1   4   7 29.1505 10.9516   2
  -1   4   7 -1.2817 3.18857   6
  -1   4   7 2.91710 3.95305   6
   0  -4  -7 86.5228 10.7944   5
   0  -4  -7 89.1937 38.5945   1
   0  -4  -7 50.1589 11.3202   4
   0  -4  -7 93.5854 10.3658   2
   0  -4  -7 82.6349 9.38690   3
   0   4   7 67.6975 9.58260   4
   0   4   7 85.1957 8.20283   6
   0   4   7 54.6454 10.8783   2
   0   4   7 103.600 11.8118   5
   0   4   7 79.9301 42.7117   1
   0   4   7 73.2195 7.16167   6
  -1  -4  -7 13.5205 6.44983   3
  -1  -4  -7 3.37863 6.84731   4
  -1  -4  -7 10.2922 6.02690   2
  -1  -4  -7 10.3041 7.21388   5
  -1  -4  -7 42.3490 39.1468   1
   1   4   7 5.58742 7.82375   2
   1   4   7 19.6043 37.4544   1
   1   4   7 -1.9943 7.55226   5
   1   4   7 11.7262 6.43987   4
   1   4   7 12.9307 4.45574   6
  -2  -4  -7 12.2645 4.10039   3
  -2  -4  -7 8.26810 6.46993   5
  -2  -4  -7 6.95112 5.15117   2
  -2  -4  -7 1.32523 7.47426   4
  -2  -4  -7 -3.4129 28.3929   1
   2   4   7 12.2624 6.74912   5
   2   4   7 -1.0309 6.97967   2
   2   4   7 6.93020 4.35300   6
   2   4   7 23.9384 32.3472   1
   2   4   7 4.25404 5.38187   4
  -3  -4  -7 -9.0027 6.48295   4
  -3  -4  -7 -0.0887 5.97347   5
  -3  -4  -7 1.02988 2.53552   3
  -3  -4  -7 0.71922 4.74410   2
  -3  -4  -7 0.81623 2.59529   3
  -3  -4  -7 -22.859 27.2829   1
   3   4   7 2.90084 32.0898   1
   3   4   7 4.69872 5.10384   4
   3   4   7 7.70029 7.24023   5
   3   4   7 15.6735 6.64856   2
   3   4   7 2.89426 4.69082   6
  -4  -4  -7 8.56978 28.0567   1
  -4  -4  -7 6.40573 4.56066   5
  -4  -4  -7 7.65323 5.30717   2
  -4  -4  -7 -1.6116 6.47574   4
   4   4   7 1.53298 5.10344   4
   4   4   7 6.08950 6.20723   2
   4   4   7 5.38190 31.4668   1
   4   4   7 3.34944 5.45441   5
   4   4   7 6.81351 5.03492   6
  -5  -4  -7 -3.8987 5.96764   4
  -5  -4  -7 -7.5449 4.89269   2
  -5  -4  -7 15.0639 6.34621   5
  -5  -4  -7 10.7258 29.9078   1
   5   4   7 2.70077 5.10251   6
   5   4   7 5.03116 4.82731   4
   5   4   7 9.97701 8.11614   5
   5   4   7 21.6435 31.8494   1
   5   4   7 9.39657 7.25073   2
  -6  -4  -7 161.971 11.8862   4
  -6  -4  -7 140.905 36.9342   1
  -6  -4  -7 155.815 12.5832   5
   6   4   7 164.802 14.6449   2
   6   4   7 162.945 12.8311   6
   6   4   7 130.661 14.4981   5
   6   4   7 159.961 10.2941   4
   6   4   7 170.870 40.3869   1
  -7  -4  -7 40.8746 6.99382   4
  -7  -4  -7 -32.536 35.0347   1
  -7  -4  -7 44.3585 8.91008   5
   7   4   7 41.3052 10.7356   2
   7   4   7 23.8040 11.9613   5
   7   4   7 36.8228 6.16810   4
   7   4   7 44.1711 7.75133   6
   7   4   7 64.7717 39.7544   1
  -8  -4  -7 167.722 17.9554   5
   8   4   7 196.523 11.1006   4
  -9  -4  -7 18.1468 4.56458   3
  -9  -4  -7 10.8901 8.75228   5
   9   4   7 3.37518 4.36957   4
   9   4   7 9.95925 8.20224   6
   9   4   7 14.8093 5.70767   3
 -10  -4  -7 50.3098 12.0032   5
 -10  -4  -7 54.8027 7.55454   3
  10   4   7 67.2974 13.1697   2
  10   4   7 67.6795 13.0987   6
 -11  -4  -7 70.2938 14.3835   5
  11   4   7 47.8840 14.9530   2
  11   4   7 45.4440 13.6879   6
 -12  -4  -7 -21.853 16.0097   5
  12   4   7 8.56383 18.5536   2
  12   4   7 3.61431 17.4338   6
   4  -5  -7 86.8114 18.5505   5
   4  -5  -7 126.396 19.6176   2
  -4   5   7 84.0245 16.6330   4
  -4   5   7 99.3828 16.3712   3
   3  -5  -7 237.495 23.6600   5
   3  -5  -7 203.859 22.3174   2
  -3   5   7 267.344 21.5067   4
  -3   5   7 206.493 20.9085   3
   2  -5  -7 -0.7324 10.2051   5
   2  -5  -7 1.87446 10.2870   2
  -2   5   7 -4.0894 8.70157   4
   1  -5  -7 393.408 21.6862   5
   1  -5  -7 377.978 21.4506   3
  -1   5   7 418.293 13.5462   6
  -1   5   7 403.759 19.4137   3
  -1   5   7 439.581 22.4131   4
  -1   5   7 402.462 14.3865   6
   0  -5  -7 141.068 14.5441   2
   0  -5  -7 165.368 16.1714   5
   0  -5  -7 161.913 14.7822   3
   0  -5  -7 147.214 49.6720   1
   0   5   7 82.8524 54.5245   1
   0   5   7 154.642 9.75699   6
   0   5   7 143.951 16.0011   5
   0   5   7 167.948 17.7917   4
  -1  -5  -7 294.565 17.0229   2
  -1  -5  -7 296.725 16.9744   5
  -1  -5  -7 270.973 14.1172   3
  -1  -5  -7 252.748 47.0157   1
   1   5   7 270.507 19.5953   2
   1   5   7 292.901 13.1491   6
   1   5   7 290.887 16.1115   4
   1   5   7 255.241 17.3709   5
   1   5   7 307.185 14.1954   6
   1   5   7 240.260 54.8457   1
  -2  -5  -7 592.287 24.4119   4
  -2  -5  -7 565.064 23.0849   5
  -2  -5  -7 566.898 17.7697   3
  -2  -5  -7 599.483 23.2534   2
  -2  -5  -7 644.568 71.0623   1
   2   5   7 594.361 20.1844   6
   2   5   7 606.077 24.3303   2
   2   5   7 629.073 73.8843   1
   2   5   7 571.136 23.1924   4
   2   5   7 585.881 23.0404   5
  -3  -5  -7 3.38590 5.97329   5
  -3  -5  -7 11.1746 6.14510   2
  -3  -5  -7 -35.477 31.7508   1
  -3  -5  -7 -1.8149 8.02112   4
  -3  -5  -7 -0.4187 2.58210   3
   3   5   7 6.93074 8.25026   2
   3   5   7 -6.8072 7.27770   5
   3   5   7 -0.2076 5.38105   4
   3   5   7 6.12516 5.38852   6
   3   5   7 -1.6764 34.7201   1
  -4  -5  -7 347.413 16.8822   5
  -4  -5  -7 307.623 47.5554   1
  -4  -5  -7 382.019 18.4357   4
  -4  -5  -7 362.980 17.5289   2
   4   5   7 353.537 16.9282   4
   4   5   7 320.138 49.2720   1
   4   5   7 368.154 16.2806   6
   4   5   7 380.473 19.3879   2
   4   5   7 368.729 18.4583   5
  -5  -5  -7 22.8646 32.4149   1
  -5  -5  -7 64.3913 8.84611   5
  -5  -5  -7 64.8016 9.32510   2
  -5  -5  -7 78.2279 9.89059   4
   5   5   7 82.0529 10.8664   5
   5   5   7 60.0876 8.29682   4
   5   5   7 75.2846 10.8925   2
   5   5   7 61.5340 8.25901   6
   5   5   7 35.1758 37.1291   1
  -6  -5  -7 96.1661 38.6089   1
  -6  -5  -7 40.7179 8.73092   4
  -6  -5  -7 39.2317 7.85650   5
   6   5   7 59.9049 10.3495   5
   6   5   7 40.5633 7.78844   6
   6   5   7 3.81786 35.5079   1
   6   5   7 52.1062 11.0062   2
   6   5   7 43.2032 7.31817   4
  -7  -5  -7 47.9851 8.93075   4
  -7  -5  -7 34.9547 8.61984   5
   7   5   7 29.7562 13.3523   5
   7   5   7 33.5757 8.39936   6
   7   5   7 56.3316 38.6445   1
   7   5   7 29.7520 6.88787   4
  -8  -5  -7 10.3562 7.40072   4
   8   5   7 13.6789 6.07246   4
   8   5   7 3.68179 8.02124   6
  -9  -5  -7 11.6724 8.95347   5
   9   5   7 2.11372 5.75785   4
   9   5   7 -4.1361 8.56979   6
 -10  -5  -7 8.60536 10.1968   5
  10   5   7 3.15431 5.03184   4
  10   5   7 12.8614 10.4821   6
 -11  -5  -7 -18.127 12.4784   5
  11   5   7 -23.667 11.6435   6
  11   5   7 -2.5258 14.1379   2
 -12  -5  -7 2.08843 16.4838   5
  12   5   7 8.36862 19.0482   2
  12   5   7 5.00162 17.3047   6
   4  -6  -7 64.8775 21.5458   5
   4  -6  -7 93.0662 22.1533   2
  -4   6   7 101.486 20.1070   3
  -4   6   7 51.0004 19.8997   4
   3  -6  -7 -12.647 14.5092   2
   3  -6  -7 36.1708 16.0146   5
  -3   6   7 -17.125 13.4916   4
  -3   6   7 16.2076 12.7291   3
   2  -6  -7 272.805 24.9011   2
   2  -6  -7 248.012 22.9469   5
  -2   6   7 253.783 19.3615   3
  -2   6   7 266.939 21.8902   4
   1  -6  -7 50.0555 13.4299   2
   1  -6  -7 82.1131 15.5060   5
  -1   6   7 48.2515 6.12288   6
  -1   6   7 72.9921 12.3821   4
  -1   6   7 63.2661 10.1120   3
   0  -6  -7 155.491 59.7552   1
   0  -6  -7 225.117 17.9352   3
   0  -6  -7 229.472 18.9974   2
   0  -6  -7 239.582 17.6480   5
   0   6   7 214.093 15.3050   6
   0   6   7 226.591 14.5490   3
   0   6   7 251.848 18.5775   4
   0   6   7 222.363 12.5820   6
  -1  -6  -7 677.575 89.8092   1
  -1  -6  -7 779.936 30.5120   2
  -1  -6  -7 810.955 25.9049   3
  -1  -6  -7 809.162 28.4118   5
   1   6   7 794.711 24.7543   6
   1   6   7 786.373 106.164   1
   1   6   7 806.086 30.3650   4
   1   6   7 815.741 30.0365   5
  -2  -6  -7 34.4972 42.4131   1
  -2  -6  -7 38.0048 8.54600   5
  -2  -6  -7 34.6901 6.18710   3
  -2  -6  -7 22.6031 9.18978   2
   2   6   7 33.4565 8.94387   4
   2   6   7 33.4538 6.82146   6
   2   6   7 4.87360 9.49259   5
   2   6   7 43.8499 8.50167   6
   2   6   7 2.20116 48.9293   1
  -3  -6  -7 1007.09 31.5276   5
  -3  -6  -7 1007.77 34.0816   2
  -3  -6  -7 991.677 24.1371   3
  -3  -6  -7 1182.35 87.6537   1
   3   6   7 1014.57 33.2480   4
   3   6   7 949.267 85.5681   1
   3   6   7 1026.87 32.9099   5
   3   6   7 955.303 35.7499   2
   3   6   7 1044.28 30.7257   6
  -4  -6  -7 174.258 14.7979   2
  -4  -6  -7 167.660 12.8981   5
  -4  -6  -7 162.720 44.0163   1
  -4  -6  -7 176.254 16.6898   4
   4   6   7 144.506 17.2977   2
   4   6   7 145.390 15.8337   5
   4   6   7 101.841 44.7583   1
   4   6   7 167.593 13.6358   4
   4   6   7 157.260 13.1145   6
  -5  -6  -7 515.025 20.8380   5
  -5  -6  -7 512.474 22.7566   2
  -5  -6  -7 385.790 54.5476   1
  -5  -6  -7 505.234 23.3953   4
   5   6   7 507.726 21.0226   6
   5   6   7 477.049 28.3410   2
   5   6   7 488.639 20.7747   4
   5   6   7 494.476 22.6302   5
   5   6   7 520.497 75.7799   1
  -6  -6  -7 564.019 22.6465   5
  -6  -6  -7 547.301 24.4352   2
  -6  -6  -7 583.307 24.0466   4
   6   6   7 576.370 23.5412   6
   6   6   7 590.857 22.2342   4
   6   6   7 474.140 60.2033   1
   6   6   7 562.386 24.9544   5
  -7  -6  -7 -9.3783 6.68250   5
  -7  -6  -7 10.5068 8.70353   4
   7   6   7 2.43648 6.53921   4
   8   6   7 531.907 24.5839   6
   8   6   7 505.547 20.2654   4
  -9  -6  -7 22.0241 9.68838   5
   9   6   7 20.7870 9.80313   6
   9   6   7 12.0054 7.31008   4
 -10  -6  -7 158.970 18.0495   5
  10   6   7 126.370 12.8957   4
  10   6   7 95.7916 15.0160   6
 -11  -6  -7 5.04792 12.8698   5
  11   6   7 8.15010 13.1733   6
 -12  -6  -7 27.9388 17.9665   5
  12   6   7 13.8780 17.6411   6
  12   6   7 20.7572 19.0994   2
   3  -7  -7 46.8205 19.5511   5
   3  -7  -7 45.5630 21.7835   2
  -3   7   7 51.4172 20.1080   4
  -3   7   7 46.9623 17.5978   3
   2  -7  -7 21.1928 16.2659   2
   2  -7  -7 44.4394 14.6140   5
  -2   7   7 19.6645 12.9907   3
  -2   7   7 29.7824 15.1135   4
   1  -7  -7 123.437 17.9344   2
   1  -7  -7 142.748 16.7203   5
  -1   7   7 133.822 16.7741   4
  -1   7   7 138.906 17.3432   3
   0  -7  -7 220.387 19.5905   5
   0  -7  -7 230.217 21.7383   2
   0   7   7 246.653 21.0676   4
   0   7   7 244.722 14.3676   6
   0   7   7 238.970 16.9377   3
  -1  -7  -7 224.960 17.2949   5
  -1  -7  -7 216.635 19.9844   2
  -1  -7  -7 218.413 69.5460   1
  -1  -7  -7 206.234 17.5223   3
   1   7   7 127.689 74.7349   1
   1   7   7 206.538 18.7833   6
   1   7   7 213.016 18.2269   4
   1   7   7 220.304 13.6899   3
   1   7   7 207.200 14.2173   6
  -2  -7  -7 377.365 21.2422   3
  -2  -7  -7 301.700 65.1471   1
  -2  -7  -7 374.098 19.7488   5
  -2  -7  -7 346.511 21.9850   2
   2   7   7 397.981 20.8747   5
   2   7   7 390.918 21.3711   6
   2   7   7 376.689 17.9076   6
   2   7   7 369.117 21.3470   4
   2   7   7 316.833 72.7469   1
  -3  -7  -7 30.1203 4.43615   3
  -3  -7  -7 31.5704 12.2904   2
  -3  -7  -7 56.8531 51.9629   1
  -3  -7  -7 35.9015 8.70066   5
   3   7   7 -24.215 51.4952   1
   3   7   7 39.9444 10.9056   5
   3   7   7 47.2569 11.3739   6
   3   7   7 43.1796 9.81355   4
   3   7   7 27.3321 13.2209   6
  -4  -7  -7 567.921 22.0325   5
  -4  -7  -7 440.840 101.105   1
   4   7   7 498.335 23.8153   5
   4   7   7 534.631 22.5496   6
   4   7   7 422.026 63.9622   1
  -5  -7  -7 504.672 21.3714   5
   5   7   7 571.653 23.1566   6
   5   7   7 347.734 63.5521   1
   5   7   7 529.130 23.1356   4
   5   7   7 543.292 23.4786   5
  -6  -7  -7 154.468 14.1447   5
  -6  -7  -7 135.645 15.2227   2
   6   7   7 117.127 14.7630   5
   6   7   7 136.204 14.1054   4
  -7  -7  -7 691.682 27.0042   5
   7   7   7 689.335 26.4628   4
   7   7   7 650.185 27.2414   6
  -8  -7  -7 9.71979 10.0535   5
   8   7   7 -0.6343 7.83985   4
   8   7   7 5.35844 8.85132   6
  -9  -7  -7 280.555 20.3890   5
   9   7   7 275.934 20.4642   6
   9   7   7 277.027 17.6881   4
 -10  -7  -7 147.644 16.5683   5
  10   7   7 128.755 12.7009   4
  10   7   7 130.094 16.8650   6
 -11  -7  -7 13.7701 13.0689   5
  11   7   7 2.41288 14.3629   6
 -12  -7  -7 122.068 21.2962   5
  12   7   7 92.1010 20.6987   6
  -2   8   7 2.49863 17.3273   4
  -2   8   7 -3.7111 16.0196   3
   1  -8  -7 -8.3733 14.6799   5
   1  -8  -7 -21.536 16.3290   2
  -1   8   7 14.4102 15.4380   4
  -1   8   7 17.0304 12.4217   3
   0  -8  -7 6.16955 14.1192   2
   0  -8  -7 -16.261 11.7501   5
   0   8   7 9.01605 8.85952   6
   0   8   7 -6.4225 10.1265   3
   0   8   7 -16.779 10.7833   4
  -1  -8  -7 27.9387 11.2743   5
  -1  -8  -7 58.3285 14.2194   2
   1   8   7 60.6268 9.64371   3
   1   8   7 45.6672 9.66781   6
   1   8   7 61.2660 13.5965   4
  -2  -8  -7 44.1914 13.3066   2
  -2  -8  -7 32.9915 9.86242   5
   2   8   7 34.3031 9.55172   6
   2   8   7 32.6033 10.9702   4
   2   8   7 58.8357 13.5820   5
  -3  -8  -7 213.039 19.8736   2
  -3  -8  -7 213.947 16.3139   5
   3   8   7 191.229 17.9229   4
   3   8   7 261.274 20.4631   5
   3   8   7 184.883 15.5829   6
  -4  -8  -7 108.880 14.4459   2
  -4  -8  -7 103.911 11.3121   5
   4   8   7 141.520 15.9079   4
   4   8   7 119.516 14.0563   5
  -5  -8  -7 144.208 13.6400   5
  -5  -8  -7 138.054 16.1203   2
   5   8   7 152.029 15.6193   5
   5   8   7 161.087 17.0354   4
   5   8   7 172.328 15.8661   6
  -6  -8  -7 307.261 21.6312   2
  -6  -8  -7 298.542 18.3723   5
   6   8   7 308.191 19.4755   4
   6   8   7 271.971 19.3395   6
   6   8   7 275.807 23.2736   5
  -7  -8  -7 10.7743 10.5600   2
  -7  -8  -7 -3.5763 8.25609   5
   7   8   7 -13.811 8.83498   6
   7   8   7 -3.7380 8.46781   4
  -8  -8  -7 373.068 20.8298   5
   8   8   7 281.290 30.3242   4
   8   8   7 348.748 22.4298   6
  -9  -8  -7 98.4723 13.5853   5
   9   8   7 74.2156 14.3589   6
 -10  -8  -7 77.5308 14.3364   5
  10   8   7 42.8029 14.0301   6
  10   8   7 73.0161 12.4217   4
 -11  -8  -7 120.258 18.7261   5
  11   8   7 183.571 22.1408   6
   0  -9  -7 -27.489 18.7977   2
   0   9   7 -3.1715 16.9336   4
  -1  -9  -7 -5.1261 14.3678   2
   1   9   7 20.8052 14.3425   4
   1   9   7 -0.7617 12.9135   3
   1   9   7 -26.530 19.8659   6
  -2  -9  -7 15.1564 13.2698   2
  -2  -9  -7 23.4313 10.6609   5
   2   9   7 7.94902 10.5279   6
   2   9   7 -3.0575 12.3396   4
  -3  -9  -7 0.08598 8.75672   5
  -3  -9  -7 -3.7957 12.5512   2
   3   9   7 8.49986 11.2035   4
   3   9   7 16.5347 10.7466   6
  -4  -9  -7 4.74432 8.74516   5
  -4  -9  -7 16.2463 11.9740   2
   4   9   7 -17.523 9.30443   6
   4   9   7 10.5312 10.9781   4
  -5  -9  -7 22.5891 10.1214   2
  -5  -9  -7 2.23873 8.18415   5
   5   9   7 7.39869 10.5524   4
   5   9   7 -0.5296 9.67479   6
  -6  -9  -7 2.83667 9.18972   5
  -6  -9  -7 11.6667 10.9427   2
   6   9   7 15.0224 9.82412   6
   6   9   7 1.87164 10.2540   4
  -7  -9  -7 31.6914 10.6808   5
  -7  -9  -7 0.19941 12.1633   2
   7   9   7 24.4133 11.6727   4
   7   9   7 29.3880 11.8037   6
  -8  -9  -7 -1.1676 11.0677   5
   8   9   7 -0.7625 10.7918   4
   8   9   7 -15.001 11.3517   6
  -9  -9  -7 44.6134 12.8929   5
   9   9   7 20.9206 12.2484   6
   9   9   7 46.0726 13.3003   4
 -10  -9  -7 31.2146 14.2780   5
  10   9   7 59.1371 14.2922   4
  10   9   7 39.4749 15.8611   6
 -11  -9  -7 -12.454 16.1684   5
  -2 -10  -7 7.51473 18.6809   2
   2  10   7 -22.533 16.1830   4
   2  10   7 -8.9095 13.3973   6
  -3 -10  -7 110.560 19.2052   2
   3  10   7 72.8912 14.5893   6
   3  10   7 97.6653 18.0557   4
  -4 -10  -7 28.6708 16.0825   2
   4  10   7 59.1277 13.4892   6
   4  10   7 52.2438 15.3762   4
  -5 -10  -7 0.16158 10.2959   5
  -5 -10  -7 14.4974 14.3402   2
   5  10   7 12.3440 12.5685   6
   5  10   7 10.6612 13.3493   4
  -6 -10  -7 55.0958 11.5968   5
  -6 -10  -7 50.4466 16.9592   2
   6  10   7 70.1037 14.3879   6
   6  10   7 60.2206 14.4285   4
  -7 -10  -7 13.7981 11.2921   5
  -7 -10  -7 -18.375 15.2196   2
   7  10   7 1.50568 12.9972   4
   7  10   7 -11.750 12.4663   6
  -8 -10  -7 -1.9105 12.1743   5
   8  10   7 8.35447 13.0211   4
   8  10   7 7.25857 13.8567   6
  -9 -10  -7 -9.0019 12.6688   5
   9  10   7 23.4592 15.7365   6
   9  10   7 -1.9105 14.3226   4
 -10 -10  -7 9.79650 16.2967   5
  10  10   7 -15.077 16.0630   4
   4  11   7 2.99111 16.0566   6
  -5 -11  -7 128.383 24.5191   2
   5  11   7 174.476 20.3880   6
   5  11   7 191.301 22.8924   4
  -6 -11  -7 -19.354 19.4076   2
   6  11   7 -11.590 14.9979   6
   6  11   7 -15.121 16.3201   4
  -7 -11  -7 116.738 23.5122   2
   7  11   7 144.479 20.9195   4
   7  11   7 123.908 20.5617   6
   8  11   7 77.9307 19.2532   4
   3  10  -8 48.7856 25.1098   3
  -3 -10   8 84.3977 20.0625   6
   2  10  -8 15.0149 17.6617   3
  -2 -10   8 -4.0395 18.0548   6
   1  10  -8 85.4101 20.7120   4
   1  10  -8 76.0110 23.0657   3
  -1 -10   8 64.4840 19.5350   6
   0  10  -8 -3.6403 18.4302   4
   5   9  -8 65.1417 20.4382   3
   4   9  -8 -7.4281 17.2013   3
  -4  -9   8 15.1946 14.9603   6
   3   9  -8 1.91668 15.2195   3
  -3  -9   8 30.9132 14.7504   6
   2   9  -8 85.9773 18.2852   3
  -2  -9   8 82.6442 16.4702   6
   1   9  -8 5.13471 13.6475   3
  -1  -9   8 38.6640 14.1166   6
   0   9  -8 66.6915 17.8644   3
   0  -9   8 73.8053 17.5705   6
  -1   9  -8 35.5906 15.8075   4
  -1   9  -8 40.8680 17.9588   3
   1  -9   8 58.9482 17.3867   6
  -2   9  -8 11.1381 17.2684   3
  -2   9  -8 -10.430 14.9388   4
   2  -9   8 17.6165 17.3402   6
  -3   9  -8 40.9752 17.3002   4
   6   8  -8 19.4653 20.7089   3
   6   8  -8 -14.224 16.3416   5
   5   8  -8 30.4266 17.4212   3
   5   8  -8 -2.5630 13.0111   5
   4   8  -8 9.02958 14.1264   3
   4   8  -8 -13.501 13.4471   5
  -4  -8   8 -2.1144 12.3140   6
   3   8  -8 20.5975 11.2493   5
   3   8  -8 25.6298 13.3692   3
  -3  -8   8 29.8322 12.4864   6
   2   8  -8 5.01691 12.9966   3
   2   8  -8 15.5638 9.72901   5
  -2  -8   8 18.0291 11.8200   6
   1   8  -8 38.2985 13.9864   3
   1   8  -8 31.7816 9.03395   5
  -1  -8   8 61.6144 13.9635   6
   0   8  -8 43.9622 8.80752   5
   0   8  -8 39.7976 13.4574   3
   0  -8   8 50.1127 13.9871   6
  -1   8  -8 12.2587 7.85326   5
  -1   8  -8 -2.6065 12.3128   3
   1  -8   8 -7.0596 11.1357   6
  -2   8  -8 76.2831 14.6184   4
  -2   8  -8 61.2750 15.5435   3
   2  -8   8 75.9712 15.9858   6
  -3   8  -8 -16.355 14.8268   3
  -3   8  -8 -5.7716 12.5493   4
   3  -8   8 -12.309 14.0586   6
  -4   8  -8 42.4990 15.8444   4
  -4   8  -8 18.7826 18.1950   3
   4  -8   8 48.7841 17.9508   6
   6   7  -8 24.9930 16.0403   5
   6   7  -8 23.7610 17.6337   3
   5   7  -8 41.8612 15.7541   3
   5   7  -8 74.6471 15.3510   5
   4   7  -8 40.8098 11.7205   5
   4   7  -8 56.6543 13.8563   3
  -4  -7   8 49.9062 12.1820   6
   3   7  -8 18.1894 10.7561   5
   3   7  -8 -3.9115 11.4007   3
  -3  -7   8 3.36033 9.62333   6
   2   7  -8 33.8923 10.2094   5
   2   7  -8 17.2307 11.4887   3
  -2  -7   8 28.6250 10.3165   6
   1   7  -8 6.79563 10.9406   3
   1   7  -8 -4.1821 8.25731   5
  -1  -7   8 -11.751 9.02788   6
   0   7  -8 17.6443 11.4077   3
   0   7  -8 19.8284 7.75641   5
   0  -7   8 13.2929 10.5447   6
  -1   7  -8 6.02822 9.77792   3
  -1   7  -8 1.53060 7.40682   5
   1  -7   8 5.51774 9.75138   6
  -2   7  -8 91.0152 14.7300   3
  -2   7  -8 74.6143 9.34267   5
   2  -7   8 68.7941 13.5873   6
  -3   7  -8 0.39308 7.80214   5
  -3   7  -8 1.82747 11.9618   3
   3  -7   8 -0.9586 12.1151   6
  -4   7  -8 12.7603 11.1510   4
  -4   7  -8 37.5574 13.7089   3
  -4   7  -8 16.1487 9.34400   5
   4  -7   8 40.2184 14.4943   6
  -5   7  -8 7.25113 14.7402   3
  -5   7  -8 2.07271 12.9909   4
   5  -7   8 12.5681 15.3058   6
   6  -7   8 23.9478 22.2979   6
   7   6  -8 10.5261 17.4823   5
   7   6  -8 -7.7850 27.2516   3
   6   6  -8 205.834 21.8041   3
   6   6  -8 245.908 23.9933   5
   5   6  -8 90.8049 16.8615   3
   5   6  -8 109.776 15.8448   5
   4   6  -8 16.7407 18.6205   6
   4   6  -8 50.8428 13.5955   3
   4   6  -8 33.2765 11.7067   5
  -4  -6   8 30.6843 9.85455   6
   3   6  -8 355.203 21.4408   5
   3   6  -8 386.849 23.7271   3
  -3  -6   8 370.026 20.5517   6
   2   6  -8 -1.6248 8.53337   5
   2   6  -8 10.7339 8.03769   3
  -2  -6   8 -6.4786 8.21305   6
   1   6  -8 268.647 19.4599   3
   1   6  -8 276.220 17.2692   5
  -1  -6   8 261.406 18.9450   6
   0   6  -8 119.494 13.8537   3
   0   6  -8 118.791 12.9741   5
   0  -6   8 119.962 12.3453   5
   0  -6   8 93.3754 14.6472   6
  -1   6  -8 113.386 12.0454   5
  -1   6  -8 94.2377 13.4772   3
   1  -6   8 94.3301 11.8907   5
   1  -6   8 80.3803 12.3297   6
  -2   6  -8 71.3893 12.3534   3
  -2   6  -8 72.6368 9.25476   5
   2  -6   8 72.6692 12.0919   6
   2  -6   8 52.9354 11.3948   5
  -3   6  -8 -7.5083 10.0354   3
  -3   6  -8 7.58874 7.72660   5
   3  -6   8 7.24559 9.80217   6
   3  -6   8 -6.5505 10.7089   5
   3  -6   8 8.40157 4.98958   2
  -4   6  -8 59.8298 10.1849   5
  -4   6  -8 85.2426 14.0071   3
   4  -6   8 54.4947 14.0018   6
   4  -6   8 50.4043 8.59873   2
  -5   6  -8 13.7313 12.6008   3
  -5   6  -8 1.70564 9.70639   4
  -5   6  -8 14.9549 9.59523   5
   5  -6   8 6.72900 10.0093   2
   5  -6   8 -10.390 11.9760   6
  -6   6  -8 34.4237 14.6811   5
  -6   6  -8 45.2545 14.9624   3
   6  -6   8 24.6892 15.8340   6
  -7   6  -8 -11.357 18.1610   3
   7  -6   8 -8.0187 18.0893   6
   7   5  -8 150.035 21.3187   5
   6   5  -8 81.9797 15.5405   5
   6   5  -8 124.998 18.9124   3
   5   5  -8 103.759 15.1847   5
   5   5  -8 113.840 16.2725   3
   4   5  -8 576.237 25.2242   6
   4   5  -8 620.330 27.3821   5
   4   5  -8 630.730 29.2229   3
  -4  -5   8 597.729 23.1328   6
   3   5  -8 -0.8102 8.53305   5
   3   5  -8 -12.053 9.40256   3
   3   5  -8 13.8816 10.9638   6
  -3  -5   8 6.75857 7.50520   6
   2   5  -8 740.933 29.8163   3
   2   5  -8 775.220 28.3657   5
   2   5  -8 734.865 28.9423   6
  -2  -5   8 756.038 27.2148   6
   1   5  -8 333.264 18.6933   5
   1   5  -8 321.901 21.2632   6
  -1  -5   8 321.139 17.8793   6
  -1  -5   8 330.347 19.8008   5
   0   5  -8 366.533 21.3579   3
   0   5  -8 357.878 17.5780   5
   0  -5   8 355.220 19.3944   6
   0  -5   8 323.866 18.9493   5
  -1   5  -8 480.553 23.9552   3
  -1   5  -8 488.044 20.6620   5
   1  -5   8 526.485 23.5155   6
   1  -5   8 494.138 21.5175   5
  -2   5  -8 -22.679 10.7313   4
  -2   5  -8 18.1136 7.34553   5
   2  -5   8 24.1181 9.70124   5
  -3   5  -8 395.778 21.9519   3
  -3   5  -8 375.937 23.8065   4
  -3   5  -8 366.398 17.9972   5
   3  -5   8 390.780 22.3856   6
   3  -5   8 370.148 12.4871   2
   3  -5   8 395.599 21.3944   5
  -4   5  -8 44.6020 11.4506   3
  -4   5  -8 36.2301 8.71151   5
  -4   5  -8 52.1065 13.4475   4
   4  -5   8 41.7924 11.0629   6
   4  -5   8 48.2373 7.71603   2
   4  -5   8 61.1836 13.1349   5
  -5   5  -8 97.0024 11.9028   5
  -5   5  -8 112.899 15.1262   3
   5  -5   8 134.454 15.6158   6
   5  -5   8 83.1686 18.9774   5
   5  -5   8 96.5854 10.9592   2
  -6   5  -8 45.1152 9.60632   4
  -6   5  -8 43.4809 13.1968   3
   6  -5   8 45.5064 14.0076   6
   6  -5   8 63.5429 12.2293   2
  -7   5  -8 24.8835 12.4016   5
  -7   5  -8 20.0900 14.9850   3
   7  -5   8 1.61472 13.3628   2
   7  -5   8 26.6086 14.8263   6
  -8   5  -8 32.6523 18.3338   3
   8  -5   8 45.9870 18.5807   2
   8  -5   8 43.9303 19.6658   6
   7   4  -8 -5.4270 17.4615   5
   6   4  -8 41.4932 14.6089   5
  -6  -4   8 56.1822 15.5436   4
   5   4  -8 118.322 9.25403   2
   5   4  -8 104.284 15.0899   5
  -5  -4   8 118.897 16.0880   4
   4   4  -8 1.89565 8.42479   6
   4   4  -8 13.6425 10.4894   3
   4   4  -8 13.8693 9.30425   5
  -4  -4   8 3.89080 9.92195   4
   3   4  -8 394.804 19.3145   6
   3   4  -8 388.498 20.9465   5
   3   4  -8 398.668 22.4938   3
  -3  -4   8 423.499 17.7738   6
  -3  -4   8 457.972 23.2329   4
   2   4  -8 77.6564 11.0963   5
   2   4  -8 101.442 14.2183   3
   2   4  -8 70.1008 9.79078   6
  -2  -4   8 77.5852 8.97213   6
   1   4  -8 374.432 19.2550   5
   1   4  -8 299.646 48.4021   1
   1   4  -8 430.748 19.3956   6
   1   4  -8 396.477 20.8073   3
  -1  -4   8 403.421 18.0845   6
  -1  -4   8 384.608 20.7741   5
  -1  -4   8 384.191 20.5253   4
   0   4  -8 768.852 26.9874   5
   0   4  -8 750.344 33.5404   4
   0   4  -8 668.488 72.1437   1
   0   4  -8 774.033 27.4558   6
   0   4  -8 753.667 28.2394   3
   0  -4   8 725.012 27.5827   4
   0  -4   8 716.878 26.2496   6
   0  -4   8 460.193 81.2005   1
   0  -4   8 733.878 27.2874   5
  -1   4  -8 18.4005 8.81038   3
  -1   4  -8 32.7178 10.5671   6
  -1   4  -8 43.0547 10.8307   4
  -1   4  -8 27.1543 7.64149   5
  -1   4  -8 34.9407 36.6812   1
   1  -4   8 46.4336 41.5199   1
   1  -4   8 42.6539 9.92025   5
   1  -4   8 30.1542 8.36863   6
  -2   4  -8 892.479 28.5649   5
  -2   4  -8 836.533 29.9383   4
  -2   4  -8 834.248 80.4612   1
  -2   4  -8 866.755 36.4973   6
  -2   4  -8 848.152 30.6065   3
   2  -4   8 855.032 30.3876   6
   2  -4   8 818.861 28.5162   5
   2  -4   8 758.478 82.5163   1
  -3   4  -8 85.3743 10.1261   5
  -3   4  -8 84.8525 11.1570   3
  -3   4  -8 78.0527 11.3839   4
  -3   4  -8 92.5691 43.6878   1
   3  -4   8 89.1666 9.85314   2
   3  -4   8 95.6467 6.35892   2
   3  -4   8 94.3400 11.7009   5
   3  -4   8 73.6169 11.2098   6
  -4   4  -8 288.235 16.6524   5
  -4   4  -8 268.337 17.8227   3
  -4   4  -8 282.818 66.3482   1
  -4   4  -8 261.184 18.7132   4
   4  -4   8 258.774 12.4870   2
   4  -4   8 257.379 20.5125   5
   4  -4   8 212.947 18.0397   6
  -5   4  -8 232.793 16.7849   5
  -5   4  -8 224.255 17.5903   4
  -5   4  -8 201.108 17.7219   3
   5  -4   8 183.751 17.7555   5
   5  -4   8 237.240 19.5232   6
   5  -4   8 194.863 14.5820   2
  -6   4  -8 29.5751 10.5589   5
  -6   4  -8 26.6274 10.3354   3
  -6   4  -8 27.0794 7.50167   4
   6  -4   8 27.4954 9.72221   2
   6  -4   8 37.0095 11.7856   6
  -7   4  -8 144.339 15.4245   5
  -7   4  -8 143.634 17.2059   3
   7  -4   8 170.644 19.7378   2
   7  -4   8 198.117 22.1416   6
  -8   4  -8 2.64512 12.5239   5
  -8   4  -8 -0.6436 13.3694   3
   8  -4   8 6.74686 15.1164   6
   8  -4   8 -2.7753 14.6027   2
  -9   4  -8 67.5295 19.9667   3
   9  -4   8 22.8628 19.9543   6
   9  -4   8 45.8480 19.9225   2
   7   3  -8 15.2351 16.8612   5
  -7  -3   8 2.67663 16.6060   4
   6   3  -8 18.3416 13.8711   5
   6   3  -8 20.0394 10.3651   2
  -6  -3   8 13.8832 13.1892   4
   5   3  -8 13.3855 11.4180   5
   5   3  -8 9.11294 6.64061   2
  -5  -3   8 -4.2490 10.4714   4
   4   3  -8 -3.3963 4.15765   2
   4   3  -8 0.02351 5.23325   2
   4   3  -8 11.4592 5.78039   6
   4   3  -8 1.59340 8.49316   5
  -4  -3   8 -0.3876 9.42653   4
   3   3  -8 -6.3274 6.00864   6
   3   3  -8 14.0490 8.92048   5
  -3  -3   8 -4.6308 4.99574   6
  -3  -3   8 -2.3694 8.18314   4
   2   3  -8 42.9551 7.62399   6
   2   3  -8 29.3411 9.42358   5
   2   3  -8 29.2684 35.1481   1
   2   3  -8 65.1671 10.3439   3
  -2  -3   8 39.6427 6.74483   6
  -2  -3   8 52.2286 10.2108   4
   1   3  -8 79.7714 9.11371   6
   1   3  -8 67.6225 10.4108   5
   1   3  -8 131.318 34.5403   1
   1   3  -8 81.7998 10.6837   3
  -1  -3   8 58.1443 36.6438   1
  -1  -3   8 67.5923 10.0076   4
  -1  -3   8 87.2226 11.6817   5
  -1  -3   8 67.3754 8.08864   6
   0   3  -8 5.25162 9.18109   4
   0   3  -8 -1.3858 7.11478   5
   0   3  -8 2.29498 6.51402   3
   0   3  -8 4.58917 6.94588   6
   0   3  -8 -0.7153 32.6333   1
   0  -3   8 16.9216 8.21555   5
   0  -3   8 8.45211 5.78537   6
   0  -3   8 12.5656 6.90963   4
  -1   3  -8 208.873 16.2340   4
  -1   3  -8 211.983 14.2881   5
  -1   3  -8 232.272 40.2965   1
  -1   3  -8 204.958 15.7617   6
  -1   3  -8 210.840 14.6007   3
   1  -3   8 205.046 13.7154   6
   1  -3   8 225.255 14.5716   4
   1  -3   8 201.194 15.8132   5
   1  -3   8 161.887 42.3873   1
  -2   3  -8 83.9193 9.86131   5
  -2   3  -8 90.9266 10.9358   3
  -2   3  -8 57.2085 35.3101   1
  -2   3  -8 92.1458 11.2445   4
  -2   3  -8 100.417 11.5233   6
   2  -3   8 93.8009 10.4690   6
   2  -3   8 51.8251 39.7401   1
   2  -3   8 100.793 11.3412   5
   2  -3   8 80.9042 9.65615   4
  -3   3  -8 134.160 41.8333   1
  -3   3  -8 138.580 14.0509   3
  -3   3  -8 154.118 15.1768   4
  -3   3  -8 145.771 15.9085   6
  -3   3  -8 131.702 11.9817   5
   3  -3   8 154.245 14.2799   6
   3  -3   8 67.9834 43.1173   1
   3  -3   8 149.947 15.0071   5
   3  -3   8 157.907 6.94873   2
  -4   3  -8 674.914 81.6717   1
  -4   3  -8 739.097 25.8753   4
  -4   3  -8 671.085 26.2580   3
  -4   3  -8 763.393 25.6200   5
   4  -3   8 678.601 27.6495   5
   4  -3   8 722.765 27.9786   6
   4  -3   8 693.531 27.9952   3
   4  -3   8 680.259 20.7401   2
   4  -3   8 707.404 20.8458   2
   4  -3   8 584.523 73.1545   1
  -5   3  -8 26.7432 8.47584   3
  -5   3  -8 50.2640 9.62687   4
  -5   3  -8 42.0957 8.96988   5
  -5   3  -8 48.9661 49.1115   1
   5  -3   8 48.8115 8.47886   2
   5  -3   8 -21.662 55.2115   1
   5  -3   8 59.8666 11.9617   5
   5  -3   8 50.1196 7.79759   2
   5  -3   8 44.7829 10.2253   6
  -6   3  -8 317.998 18.7142   5
  -6   3  -8 308.259 67.3201   1
   6  -3   8 308.881 17.6745   2
   6  -3   8 273.684 20.5432   6
  -7   3  -8 17.7508 5.29500   4
  -7   3  -8 13.0952 10.0883   5
  -7   3  -8 10.4647 10.1142   3
   7  -3   8 33.8142 10.3455   2
   7  -3   8 18.7653 11.7271   6
  -8   3  -8 69.1951 13.5192   5
  -8   3  -8 75.4866 14.7343   3
   8  -3   8 68.2732 14.9782   6
   8  -3   8 49.6680 13.9442   2
  -9   3  -8 33.5256 14.9987   5
  -9   3  -8 42.0224 15.8501   3
   9  -3   8 19.6630 16.3061   6
   9  -3   8 76.7801 18.0640   2
   7   2  -8 51.2882 17.6372   5
  -7  -2   8 52.0412 18.6279   4
   6   2  -8 52.3636 15.8135   5
   6   2  -8 47.7467 11.9317   2
  -6  -2   8 47.7038 15.3958   4
   5   2  -8 83.9384 14.9421   5
   5   2  -8 114.833 13.3911   2
  -5  -2   8 114.767 15.1665   4
   4   2  -8 12.1051 9.78968   5
   4   2  -8 1.45089 5.77443   2
  -4  -2   8 12.7810 10.0474   4
   3   2  -8 156.788 8.46346   2
   3   2  -8 157.344 9.50374   6
  -3  -2   8 134.370 8.31962   6
   2   2  -8 151.904 38.5921   1
   2   2  -8 217.000 6.63185   2
   2   2  -8 220.907 16.5858   5
  -2  -2   8 248.433 11.6315   6
  -2  -2   8 242.919 16.5489   4
   1   2  -8 60.2879 10.2523   5
   1   2  -8 64.6481 7.83756   6
   1   2  -8 69.8191 11.0783   3
   1   2  -8 41.3760 11.1499   4
   1   2  -8 64.1942 9.55423   3
  -1  -2   8 64.2595 10.3753   5
  -1  -2   8 65.1641 9.53501   4
  -1  -2   8 35.9326 33.4233   1
  -1  -2   8 85.5360 8.63940   6
   0   2  -8 52.3983 7.78221   6
   0   2  -8 39.4526 7.99108   3
   0   2  -8 50.0372 10.1625   4
   0   2  -8 61.2841 9.39342   5
   0   2  -8 60.0469 30.6100   1
   0  -2   8 50.8570 7.42689   6
   0  -2   8 49.0944 8.74853   4
   0  -2   8 28.6808 33.2575   1
   0  -2   8 55.9239 9.58947   5
  -1   2  -8 -33.821 27.4503   1
  -1   2  -8 -4.7180 6.56225   4
  -1   2  -8 -6.0498 6.56191   5
  -1   2  -8 1.49685 6.38509   6
  -1   2  -8 3.97231 5.81888   3
   1  -2   8 71.4742 34.7811   1
   1  -2   8 7.21557 7.55746   5
   1  -2   8 -4.3184 5.49303   4
   1  -2   8 0.31619 5.06897   6
  -2   2  -8 3.53158 7.55588   4
  -2   2  -8 11.6367 6.01960   3
  -2   2  -8 42.4520 30.8983   1
  -2   2  -8 1.15691 5.94263   5
  -2   2  -8 3.04085 6.96930   6
   2  -2   8 5.26321 6.13665   6
   2  -2   8 -20.062 33.5266   1
   2  -2   8 -1.2333 7.31193   5
   2  -2   8 0.51349 5.19345   4
  -3   2  -8 10.8069 6.62730   3
  -3   2  -8 28.7765 32.8453   1
  -3   2  -8 11.6950 7.31129   4
  -3   2  -8 9.70156 6.05072   5
  -3   2  -8 0.86572 7.97396   6
   3  -2   8 -1.2168 7.05827   5
   3  -2   8 3.95640 5.88901   6
   3  -2   8 10.6784 3.04029   2
   3  -2   8 -16.884 36.8259   1
   3  -2   8 8.94807 5.78390   4
   3  -2   8 12.0702 3.33871   2
  -4   2  -8 -9.5751 5.59814   3
  -4   2  -8 22.2315 9.64333   6
  -4   2  -8 -8.8813 5.56280   5
  -4   2  -8 0.88512 6.54006   4
  -4   2  -8 37.6336 36.9798   1
   4  -2   8 -2.2557 3.92753   2
   4  -2   8 -3.1227 7.78240   3
   4  -2   8 1.84159 5.30740   4
   4  -2   8 14.9955 6.85859   6
   4  -2   8 -1.2464 4.49534   2
   4  -2   8 -13.544 41.1527   1
   4  -2   8 -1.4665 8.68526   5
  -5   2  -8 -10.329 6.65379   4
  -5   2  -8 -1.1069 6.40004   5
  -5   2  -8 -10.496 5.71386   3
  -5   2  -8 35.5718 41.2024   1
   5  -2   8 8.03726 6.48572   2
   5  -2   8 3.23227 5.15091   2
   5  -2   8 -8.2005 9.26022   5
   5  -2   8 0.98964 7.45845   6
   5  -2   8 -17.955 47.6519   1
   5  -2   8 11.9609 9.63384   3
  -6   2  -8 109.257 13.0528   3
  -6   2  -8 75.8716 50.0840   1
  -6   2  -8 114.790 13.1985   5
   6  -2   8 106.375 12.1490   2
   6  -2   8 106.232 11.3827   2
   6  -2   8 85.9842 13.8386   3
   6  -2   8 157.716 61.8263   1
   6  -2   8 107.489 13.4224   6
  -7   2  -8 8.95041 10.1276   3
  -7   2  -8 -56.576 59.7401   1
  -7   2  -8 16.6668 9.11591   5
  -7   2  -8 22.2410 5.94568   4
   7  -2   8 29.8345 10.0513   6
   7  -2   8 -6.9940 69.2057   1
   7  -2   8 2.41677 8.81045   2
  -8   2  -8 141.114 15.2588   3
  -8   2  -8 132.033 15.0472   5
   8  -2   8 182.190 21.2625   2
   8  -2   8 171.474 19.2877   6
  -9   2  -8 0.35526 11.9031   3
  -9   2  -8 -6.4807 12.8277   5
   9  -2   8 9.68001 13.0703   2
   9  -2   8 8.52483 14.0821   6
 -10   2  -8 38.1894 17.1478   5
 -10   2  -8 50.5252 17.8765   3
  10  -2   8 23.7245 17.6003   2
  10  -2   8 25.3214 17.4293   6
   7   1  -8 119.310 22.4715   2
  -7  -1   8 107.677 20.7692   4
   6   1  -8 303.334 26.7029   5
   6   1  -8 180.361 29.3945   2
  -6  -1   8 256.982 25.8476   4
   5   1  -8 10.1928 8.78048   2
   5   1  -8 -22.314 10.4566   5
  -5  -1   8 11.6232 10.8202   4
   4   1  -8 728.673 24.3014   2
   4   1  -8 708.374 30.2046   5
  -4  -1   8 710.594 30.0386   4
   3   1  -8 167.103 16.4341   5
   3   1  -8 168.140 10.8972   2
   2   1  -8 544.805 25.6222   3
   2   1  -8 629.328 25.6553   5
   2   1  -8 606.609 17.5698   6
   2   1  -8 583.682 17.3638   2
   2   1  -8 435.865 63.6492   1
  -2  -1   8 614.575 25.2366   4
  -2  -1   8 606.693 17.5805   6
   1   1  -8 545.242 23.1054   3
   1   1  -8 579.183 24.0309   5
   1   1  -8 570.261 15.2981   2
   1   1  -8 524.278 23.8778   4
   1   1  -8 479.646 58.9633   1
   1   1  -8 552.005 18.8588   6
  -1  -1   8 597.735 23.7569   4
  -1  -1   8 562.805 15.4405   2
  -1  -1   8 566.863 18.3139   6
  -1  -1   8 566.242 24.2338   5
   0   1  -8 14.7005 6.34624   3
   0   1  -8 -6.4031 27.3656   1
   0   1  -8 15.4590 8.00202   3
   0   1  -8 20.7101 7.94336   4
   0   1  -8 19.9844 5.62881   6
   0   1  -8 14.7862 7.76926   5
   0  -1   8 46.8160 34.5752   1
   0  -1   8 23.8806 7.30771   4
   0  -1   8 18.7555 2.47908   2
   0  -1   8 15.7920 6.87162   5
   0  -1   8 25.2994 5.64454   6
  -1   1  -8 917.908 28.6805   3
  -1   1  -8 953.659 68.4858   1
  -1   1  -8 922.857 30.3886   5
  -1   1  -8 908.194 30.0548   4
  -1   1  -8 926.583 27.5711   6
   1  -1   8 914.487 29.0551   4
   1  -1   8 922.137 27.6670   6
   1  -1   8 892.644 70.3115   1
   1  -1   8 913.220 20.7820   2
   1  -1   8 909.727 30.1922   5
  -2   1  -8 156.038 35.7685   1
  -2   1  -8 155.195 13.1228   5
  -2   1  -8 147.534 11.3893   3
  -2   1  -8 125.114 12.6853   4
  -2   1  -8 134.640 12.3103   6
   2  -1   8 137.699 11.8156   6
   2  -1   8 148.942 39.0256   1
   2  -1   8 148.173 12.1244   4
   2  -1   8 150.867 6.26961   2
   2  -1   8 149.060 13.4576   5
  -3   1  -8 300.951 14.9033   5
  -3   1  -8 416.660 54.7324   1
  -3   1  -8 272.160 15.0993   3
  -3   1  -8 289.785 16.1919   6
  -3   1  -8 283.995 15.3270   4
   3  -1   8 297.795 16.9470   5
   3  -1   8 327.100 16.0064   6
   3  -1   8 293.915 10.4294   2
   3  -1   8 303.702 14.6319   4
   3  -1   8 309.765 10.8323   2
   3  -1   8 224.756 45.4878   1
  -4   1  -8 134.709 11.8691   3
  -4   1  -8 154.596 11.9536   4
  -4   1  -8 144.994 14.8369   6
  -4   1  -8 131.139 12.4306   5
  -4   1  -8 189.319 42.2504   1
   4  -1   8 157.885 8.88281   2
   4  -1   8 174.969 14.7570   5
   4  -1   8 167.141 10.9495   4
   4  -1   8 158.701 9.63072   2
   4  -1   8 147.984 12.9692   6
   4  -1   8 70.2112 41.3040   1
  -5   1  -8 66.0607 9.49090   5
  -5   1  -8 62.2857 8.10193   4
  -5   1  -8 77.1176 37.7091   1
  -5   1  -8 42.0531 11.0976   6
  -5   1  -8 61.2749 8.11391   3
   5  -1   8 64.8814 11.6079   5
   5  -1   8 74.7717 10.2785   3
   5  -1   8 84.8824 8.76283   2
   5  -1   8 51.4748 46.0095   1
   5  -1   8 72.2385 10.1614   6
   5  -1   8 91.3138 10.1892   2
   5  -1   8 64.5362 7.43514   4
  -6   1  -8 23.7104 43.4543   1
  -6   1  -8 53.0367 8.33538   3
  -6   1  -8 64.3185 9.87466   5
   6  -1   8 51.4020 7.78648   2
   6  -1   8 84.2608 54.0462   1
   6  -1   8 50.0708 10.1143   6
   6  -1   8 55.7558 9.47970   2
   6  -1   8 67.6938 11.2628   3
  -7   1  -8 5.73654 7.46142   3
  -7   1  -8 64.0689 52.5643   1
  -7   1  -8 8.86025 4.90141   4
   7  -1   8 5.73148 10.9285   2
   7  -1   8 22.3268 11.6521   3
   7  -1   8 18.6690 59.1804   1
   7  -1   8 14.4336 8.16954   2
   7  -1   8 -7.3865 7.91970   6
  -8   1  -8 35.0682 9.75517   3
  -8   1  -8 21.2797 10.3102   5
   8  -1   8 35.6064 10.9443   2
   8  -1   8 32.2815 11.6039   6
  -9   1  -8 -1.1333 10.9729   5
  -9   1  -8 -13.054 10.3601   3
   9  -1   8 4.65513 11.3035   2
   9  -1   8 17.7156 12.4842   6
 -10   1  -8 6.83984 14.8589   5
 -10   1  -8 16.9330 13.9565   3
  10  -1   8 7.93963 15.2049   6
  10  -1   8 26.9817 16.4174   2
   6   0  -8 1.06096 15.8219   5
   6   0  -8 7.06143 13.2876   2
  -6   0   8 -2.7999 14.0974   4
   5   0  -8 289.834 21.0854   2
   5   0  -8 281.396 24.5573   5
  -5   0   8 342.216 23.5586   4
   4   0  -8 9.99069 10.8395   5
   4   0  -8 40.0597 9.40482   2
  -4   0   8 30.1048 12.6364   2
  -4   0   8 31.0468 10.4908   4
   3   0  -8 515.124 25.4451   5
   3   0  -8 528.049 20.1649   2
  -3   0   8 560.252 25.6154   4
  -3   0   8 522.634 21.7718   2
   2   0  -8 772.898 29.6718   5
   2   0  -8 811.561 23.4049   2
   2   0  -8 700.678 29.4063   3
  -2   0   8 773.634 29.1701   4
  -2   0   8 755.947 24.1659   2
   1   0  -8 123.310 13.5116   3
   1   0  -8 131.930 36.5273   1
   1   0  -8 124.992 8.85851   6
   1   0  -8 129.468 12.1181   5
   1   0  -8 131.781 8.52702   2
   1   0  -8 117.872 13.4368   4
  -1   0   8 101.744 39.6864   1
  -1   0   8 118.870 9.49297   2
  -1   0   8 111.221 13.4956   5
  -1   0   8 155.976 13.2934   4
  -1   0   8 139.752 8.51830   6
   0   0  -8 1580.74 37.0627   2
   0   0  -8 1494.31 87.0785   1
   0   0  -8 1538.84 43.7775   5
   0   0  -8 1527.96 42.3682   3
   0   0  -8 1570.73 44.5095   4
   0   0   8 1626.92 44.7702   5
   0   0   8 1500.59 89.0629   1
   0   0   8 1544.47 37.4120   2
   0   0   8 1506.97 43.8739   4
   0   0   8 1575.81 39.3967   6
  -1   0  -8 239.467 40.1727   1
  -1   0  -8 235.800 14.0914   3
  -1   0  -8 198.408 12.3358   6
  -1   0  -8 202.205 8.50288   2
  -1   0  -8 210.594 15.3248   5
  -1   0  -8 193.956 14.8929   4
  -1   0  -8 210.209 12.8547   3
   1   0   8 214.913 41.0412   1
   1   0   8 205.026 11.9393   6
   1   0   8 185.972 13.2447   4
   1   0   8 223.833 13.8158   5
   1   0   8 201.507 9.36013   2
  -2   0  -8 1188.62 33.0614   3
  -2   0  -8 1197.78 76.1414   1
  -2   0  -8 1199.70 35.2830   5
  -2   0  -8 1168.30 34.8647   4
  -2   0  -8 1176.55 33.4411   6
   2   0   8 1182.09 33.4058   6
   2   0   8 1176.03 35.6862   5
   2   0   8 1111.51 78.0959   1
   2   0   8 1192.16 34.6982   4
   2   0   8 1162.08 29.1708   2
  -3   0  -8 1071.14 31.1498   4
  -3   0  -8 1018.48 29.6481   3
  -3   0  -8 999.788 30.8713   6
  -3   0  -8 996.426 32.0660   5
  -3   0  -8 1094.13 73.3755   1
   3   0   8 999.590 77.1816   1
   3   0   8 1035.95 30.6018   4
   3   0   8 1030.57 26.6552   2
   3   0   8 966.900 32.0904   5
   3   0   8 1011.29 30.8440   6
  -4   0  -8 204.696 14.6668   6
  -4   0  -8 226.181 11.9813   3
  -4   0  -8 204.727 12.9064   4
  -4   0  -8 232.964 14.5504   5
   4   0   8 207.683 46.0246   1
   4   0   8 218.601 12.2432   4
   4   0   8 233.466 13.1108   6
   4   0   8 206.772 11.1216   2
   4   0   8 220.027 16.2713   5
  -5   0  -8 946.207 27.8469   4
  -5   0  -8 938.105 77.2897   1
  -5   0  -8 942.591 30.8164   5
  -5   0  -8 889.786 31.6782   6
  -5   0  -8 965.196 28.0687   3
   5   0   8 907.875 81.9430   1
   5   0   8 931.005 27.3989   2
   5   0   8 895.820 31.7499   5
   5   0   8 942.065 31.1311   6
   5   0   8 930.199 27.4431   4
   5   0   8 958.707 27.7444   2
  -6   0  -8 13.5109 6.18629   3
  -6   0  -8 19.5172 7.70089   5
  -6   0  -8 49.1437 40.4070   1
   6   0   8 27.9303 5.62606   4
   6   0   8 13.6838 8.18408   2
   6   0   8 16.7303 7.58124   6
   6   0   8 19.1809 6.36801   2
   6   0   8 14.8970 46.3294   1
   6   0   8 26.0715 8.01619   3
  -7   0  -8 242.978 14.8689   3
  -7   0  -8 178.259 52.4462   1
  -7   0  -8 254.907 11.3051   4
   7   0   8 259.728 18.0963   2
   7   0   8 250.033 16.5865   3
   7   0   8 212.169 62.4667   1
   7   0   8 242.261 21.2129   6
   7   0   8 268.613 16.3928   2
  -8   0  -8 59.3454 9.71043   3
  -8   0  -8 80.8808 11.0547   5
   8   0   8 54.6561 13.6049   3
   8   0   8 57.8347 10.7830   2
   8   0   8 67.5422 12.5046   6
  -9   0  -8 60.6695 12.9314   5
  -9   0  -8 72.2638 11.9994   3
   9   0   8 58.8657 12.8808   2
   9   0   8 33.5883 12.3973   6
 -10   0  -8 78.2856 15.4686   5
 -10   0  -8 63.6942 13.1965   3
  10   0   8 66.4218 15.3583   2
  10   0   8 66.5698 15.7069   6
 -11   0  -8 19.4310 17.0413   5
 -11   0  -8 9.64516 15.8399   3
  11   0   8 -13.642 17.5950   2
  11   0   8 17.1290 18.0727   6
   6  -1  -8 44.9356 20.0455   5
   6  -1  -8 88.6692 18.0231   2
  -6   1   8 50.8407 18.3711   4
   5  -1  -8 22.2703 12.1716   2
   5  -1  -8 -7.5765 13.1377   5
  -5   1   8 2.99839 12.2180   4
   4  -1  -8 147.941 16.2066   2
   4  -1  -8 108.598 16.0891   5
  -4   1   8 140.275 15.6743   4
   3  -1  -8 107.272 14.2287   5
   3  -1  -8 106.039 12.6758   2
  -3   1   8 104.770 13.5197   4
  -3   1   8 124.495 13.8894   2
   2  -1  -8 104.140 15.9069   3
   2  -1  -8 153.148 11.5903   2
  -2   1   8 122.533 14.0082   4
  -2   1   8 140.462 14.6356   2
   1  -1  -8 692.626 27.2294   5
   1  -1  -8 549.788 67.9034   1
   1  -1  -8 704.833 26.0044   3
   1  -1  -8 716.570 22.1611   2
  -1   1   8 680.298 25.4742   4
  -1   1   8 709.286 23.1057   2
  -1   1   8 627.361 74.2634   1
  -1   1   8 668.541 18.8614   6
   0  -1  -8 7.31658 4.52348   6
   0  -1  -8 4.94650 7.36956   3
   0  -1  -8 14.6225 8.49821   5
   0  -1  -8 12.9087 4.68992   2
   0  -1  -8 42.6595 33.4536   1
   0  -1  -8 3.49864 8.58898   4
   0   1   8 3.06664 36.8309   1
   0   1   8 9.70015 4.41381   6
   0   1   8 15.7858 6.00242   2
   0   1   8 -5.5728 8.50036   5
   0   1   8 15.7249 7.20532   4
  -1  -1  -8 1443.30 83.6508   1
  -1  -1  -8 1555.63 38.4041   2
  -1  -1  -8 1577.42 40.9586   3
  -1  -1  -8 1590.50 44.6165   5
  -1  -1  -8 1563.73 41.0315   3
  -1  -1  -8 1564.79 39.6923   6
  -1  -1  -8 1521.17 43.7117   4
   1   1   8 1584.37 43.2853   4
   1   1   8 1527.31 38.7735   2
   1   1   8 1554.58 44.3026   5
   1   1   8 1459.76 88.9292   1
   1   1   8 1602.48 40.0473   6
  -2  -1  -8 644.700 21.0426   3
  -2  -1  -8 657.715 23.8118   4
  -2  -1  -8 688.798 60.5126   1
  -2  -1  -8 595.016 20.8181   6
  -2  -1  -8 618.027 20.5084   3
  -2  -1  -8 624.004 18.7739   2
  -2  -1  -8 646.794 24.4452   5
   2   1   8 616.548 20.8560   6
   2   1   8 566.612 66.8348   1
   2   1   8 619.368 22.6185   4
   2   1   8 597.643 19.1571   2
   2   1   8 628.773 24.2001   5
  -3  -1  -8 534.883 20.3006   6
  -3  -1  -8 451.704 58.7745   1
  -3  -1  -8 527.663 21.8878   5
  -3  -1  -8 571.232 18.6675   3
  -3  -1  -8 536.111 21.0186   4
   3   1   8 656.146 66.9671   1
   3   1   8 534.822 20.1678   4
   3   1   8 539.664 20.3640   6
   3   1   8 558.222 22.4264   5
   3   1   8 542.417 17.8441   2
  -4  -1  -8 1029.72 76.0645   1
  -4  -1  -8 1011.91 28.0299   3
  -4  -1  -8 1004.49 31.5392   5
  -4  -1  -8 1021.17 30.1423   4
  -4  -1  -8 1032.27 31.4514   6
   4   1   8 885.205 30.2895   2
   4   1   8 1053.00 80.5425   1
   4   1   8 1027.57 31.2009   6
   4   1   8 1051.46 33.0957   5
   4   1   8 1030.39 30.1187   4
  -5  -1  -8 39.2092 34.6186   1
  -5  -1  -8 14.1151 7.01349   5
  -5  -1  -8 18.8628 6.92605   4
  -5  -1  -8 20.6573 5.15118   3
  -5  -1  -8 23.9475 7.07544   6
   5   1   8 12.2040 5.15442   4
   5   1   8 26.9611 40.0718   1
   5   1   8 14.4288 6.64765   6
   5   1   8 5.14359 9.11725   5
   5   1   8 10.8519 6.43937   2
  -6  -1  -8 943.049 36.2580   6
  -6  -1  -8 877.991 25.6370   4
  -6  -1  -8 865.424 78.6761   1
  -6  -1  -8 913.414 30.4919   5
  -6  -1  -8 856.888 25.5119   3
   6   1   8 919.288 30.6795   6
   6   1   8 757.743 34.2776   5
   6   1   8 864.654 25.3889   4
   6   1   8 939.341 90.8599   1
   6   1   8 853.863 26.0939   3
   6   1   8 849.131 27.9181   2
  -7  -1  -8 175.360 14.7651   5
  -7  -1  -8 177.268 10.3799   4
  -7  -1  -8 182.697 11.8405   3
  -7  -1  -8 205.044 49.7728   1
   7   1   8 166.090 56.5402   1
   7   1   8 144.426 17.1366   6
   7   1   8 159.285 13.5335   3
   7   1   8 184.028 16.7566   2
   7   1   8 179.102 10.2081   4
   7   1   8 170.894 13.8081   2
  -8  -1  -8 120.638 6.29373   4
  -8  -1  -8 97.2967 11.7275   3
  -8  -1  -8 109.825 13.5290   5
   8   1   8 137.874 16.0029   3
   8   1   8 126.132 14.6155   2
   8   1   8 111.127 13.3681   6
  -9  -1  -8 238.821 17.0389   3
  -9  -1  -8 200.158 19.6181   5
   9   1   8 256.408 22.5682   3
   9   1   8 252.865 21.1566   6
   9   1   8 261.829 19.9245   2
 -10  -1  -8 -2.7856 9.83856   3
 -10  -1  -8 -12.490 12.8139   5
  10   1   8 -15.489 12.0262   6
  10   1   8 -13.838 12.3416   2
 -11  -1  -8 48.2832 14.1074   3
 -11  -1  -8 60.8728 18.6350   5
  11   1   8 50.2680 17.9942   6
  11   1   8 60.9442 18.4163   2
   6  -2  -8 -8.9049 19.2401   2
  -6   2   8 -20.104 17.7526   4
   5  -2  -8 65.9399 17.2533   5
   5  -2  -8 57.1840 14.8867   2
  -5   2   8 52.9127 15.9438   4
   4  -2  -8 -1.2275 11.8149   5
   4  -2  -8 8.02740 10.2551   2
  -4   2   8 25.4220 11.7405   4
   3  -2  -8 21.4236 10.9740   5
   3  -2  -8 21.7629 9.63485   2
  -3   2   8 10.7641 9.20818   4
   2  -2  -8 39.5302 10.0877   5
   2  -2  -8 32.9870 8.20354   2
  -2   2   8 28.5562 9.99382   4
  -2   2   8 16.7062 10.3507   2
   1  -2  -8 13.4815 9.25549   3
   1  -2  -8 11.2081 6.18857   2
   1  -2  -8 6.16209 7.88604   5
   1  -2  -8 16.5999 39.1551   1
  -1   2   8 -4.4334 7.90340   2
  -1   2   8 0.66571 3.14928   6
  -1   2   8 -4.5553 6.81994   4
   0  -2  -8 107.635 39.0521   1
   0  -2  -8 97.0298 9.43466   2
   0  -2  -8 91.8603 11.6415   5
   0  -2  -8 73.2882 11.8274   4
   0  -2  -8 91.8559 9.87981   3
   0   2   8 84.4267 7.90545   6
   0   2   8 103.299 12.0711   4
   0   2   8 107.133 11.8972   2
   0   2   8 70.5955 11.6381   5
   0   2   8 124.282 45.0941   1
  -1  -2  -8 92.6755 37.4277   1
  -1  -2  -8 101.117 10.5635   3
  -1  -2  -8 110.335 9.04892   2
  -1  -2  -8 105.130 11.8775   4
  -1  -2  -8 100.927 11.2014   5
   1   2   8 112.151 10.8049   2
   1   2   8 95.7635 11.3707   4
   1   2   8 91.4446 40.3845   1
   1   2   8 89.9944 8.58431   6
   1   2   8 95.9073 11.4363   5
  -2  -2  -8 140.881 13.5499   5
  -2  -2  -8 153.982 13.7370   4
  -2  -2  -8 161.464 11.4539   6
  -2  -2  -8 137.648 36.3837   1
  -2  -2  -8 140.895 9.56074   3
  -2  -2  -8 153.345 9.83317   2
   2   2   8 154.428 11.1455   2
   2   2   8 98.8981 39.0035   1
   2   2   8 146.240 11.9407   4
   2   2   8 150.428 10.0069   6
   2   2   8 155.356 14.3775   5
  -3  -2  -8 427.940 17.7419   6
  -3  -2  -8 220.364 78.0569   1
  -3  -2  -8 444.370 19.1726   4
  -3  -2  -8 435.379 18.8651   5
  -3  -2  -8 452.453 15.4782   3
  -3  -2  -8 426.701 16.1480   2
  -3  -2  -8 448.141 15.4382   3
   3   2   8 415.987 18.9030   5
   3   2   8 474.765 17.4452   2
   3   2   8 427.300 17.3908   6
   3   2   8 448.042 18.4708   4
   3   2   8 418.623 54.2569   1
  -4  -2  -8 2.38317 3.76574   3
  -4  -2  -8 -10.191 6.43346   6
  -4  -2  -8 -1.2242 6.21443   5
  -4  -2  -8 -11.798 29.8742   1
  -4  -2  -8 10.2177 6.63665   4
   4   2   8 -4.3227 5.26771   2
   4   2   8 5.95684 8.26266   5
   4   2   8 -71.110 35.4031   1
   4   2   8 -4.7449 4.92284   6
   4   2   8 -3.7991 4.80903   4
  -5  -2  -8 1033.86 79.0650   1
  -5  -2  -8 920.088 30.5358   5
  -5  -2  -8 909.028 24.4019   3
  -5  -2  -8 869.449 27.8567   4
  -5  -2  -8 920.049 30.6472   6
   5   2   8 934.234 28.7847   2
   5   2   8 958.477 79.5380   1
   5   2   8 934.583 27.8239   4
   5   2   8 892.270 30.1837   5
   5   2   8 903.350 29.6912   6
  -6  -2  -8 196.802 12.1385   4
  -6  -2  -8 81.6067 40.8440   1
  -6  -2  -8 151.184 16.3124   6
  -6  -2  -8 213.114 9.90023   3
  -6  -2  -8 172.539 12.7844   5
   6   2   8 183.850 14.2638   6
   6   2   8 237.300 50.5242   1
   6   2   8 194.550 15.8311   5
   6   2   8 197.578 15.5064   2
   6   2   8 197.535 11.6045   4
  -7  -2  -8 130.023 13.7307   5
  -7  -2  -8 138.409 9.45541   3
  -7  -2  -8 232.557 49.4885   1
   7   2   8 136.299 9.97373   4
   7   2   8 136.881 14.4108   6
   7   2   8 147.601 12.0262   3
   7   2   8 141.630 15.9427   2
   7   2   8 125.926 52.0585   1
  -8  -2  -8 447.957 15.1114   4
  -8  -2  -8 485.742 17.8324   3
  -8  -2  -8 455.236 23.8362   5
   8   2   8 494.810 23.8045   6
   8   2   8 458.206 19.2569   3
   8   2   8 480.761 22.5593   2
   8   2   8 485.973 15.2411   4
  -9  -2  -8 9.70971 6.98952   3
  -9  -2  -8 9.72529 9.60313   5
   9   2   8 3.68606 10.2544   3
   9   2   8 3.07120 9.44034   2
   9   2   8 3.47393 9.44141   6
 -10  -2  -8 197.451 16.9834   3
 -10  -2  -8 205.777 22.2899   5
  10   2   8 188.786 21.3206   2
  10   2   8 206.810 22.0411   6
 -11  -2  -8 43.3350 16.4719   5
  11   2   8 30.8091 15.9718   6
  11   2   8 21.9323 15.8609   2
   5  -3  -8 18.5844 18.3945   5
   5  -3  -8 -11.819 15.8017   2
  -5   3   8 -25.880 15.4645   4
   4  -3  -8 51.9442 15.0016   5
   4  -3  -8 72.2610 14.6342   2
  -4   3   8 73.1545 14.6975   4
   3  -3  -8 89.8311 14.5766   5
   3  -3  -8 99.8915 13.4240   2
  -3   3   8 96.0626 13.9955   4
   2  -3  -8 7.53713 8.35923   2
   2  -3  -8 -1.9193 9.73417   5
  -2   3   8 15.0194 9.51964   4
   1  -3  -8 278.900 16.9307   2
   1  -3  -8 296.955 19.5807   3
   1  -3  -8 287.310 19.4290   5
  -1   3   8 212.394 24.3400   4
  -1   3   8 255.320 19.7789   2
  -1   3   8 243.198 9.28794   6
   0  -3  -8 38.2938 8.71999   3
   0  -3  -8 27.6594 6.92586   2
   0  -3  -8 -41.528 40.0284   1
   0  -3  -8 21.1156 9.07558   5
   0   3   8 21.4282 8.87629   2
   0   3   8 7.31026 45.5897   1
   0   3   8 24.9794 4.98783   6
   0   3   8 34.3973 8.77685   4
  -1  -3  -8 45.5825 7.16497   2
  -1  -3  -8 41.7290 7.39528   3
  -1  -3  -8 40.5737 37.8241   1
  -1  -3  -8 31.6165 8.55573   4
  -1  -3  -8 51.6153 10.1714   5
   1   3   8 49.8525 8.76131   4
   1   3   8 30.7601 38.9436   1
   1   3   8 45.4098 10.8403   5
   1   3   8 40.3200 6.04532   6
   1   3   8 32.7936 8.30167   2
  -2  -3  -8 58.6908 9.70299   5
  -2  -3  -8 60.6682 42.1859   1
  -2  -3  -8 46.0193 6.35699   3
  -2  -3  -8 62.2191 7.89214   2
  -2  -3  -8 58.7204 10.5816   4
   2   3   8 55.0576 8.47713   4
   2   3   8 67.8119 8.84351   2
   2   3   8 31.0379 40.0428   1
   2   3   8 62.3821 7.34924   6
   2   3   8 75.2878 10.7251   5
  -3  -3  -8 23.8334 5.96998   2
  -3  -3  -8 34.7641 33.3019   1
  -3  -3  -8 14.5931 4.33075   3
  -3  -3  -8 10.0359 7.18305   4
  -3  -3  -8 0.07649 6.79142   5
  -3  -3  -8 20.6302 4.37807   3
   3   3   8 18.5786 8.78090   5
   3   3   8 21.4905 5.72528   6
   3   3   8 15.8671 7.35145   2
   3   3   8 13.6927 5.61045   4
  -4  -3  -8 -48.393 31.5568   1
  -4  -3  -8 5.28652 5.03459   2
  -4  -3  -8 3.46051 6.85554   6
  -4  -3  -8 -0.4450 2.97012   3
  -4  -3  -8 -0.9157 3.23032   3
  -4  -3  -8 7.09257 7.25006   4
  -4  -3  -8 1.06944 4.72526   5
   4   3   8 2.73301 5.31347   6
   4   3   8 3.59559 5.14124   4
   4   3   8 4.48754 6.60319   2
   4   3   8 -32.439 34.2852   1
   4   3   8 11.6401 8.36795   5
  -5  -3  -8 -15.122 33.4787   1
  -5  -3  -8 11.3431 2.92893   3
  -5  -3  -8 20.4503 7.07857   4
  -5  -3  -8 15.8748 8.06639   6
  -5  -3  -8 7.03585 3.22523   3
  -5  -3  -8 9.63428 6.58241   5
   5   3   8 -24.182 38.3388   1
   5   3   8 3.86278 5.58636   4
   5   3   8 2.39663 9.38605   5
   5   3   8 -4.7836 5.61109   6
   5   3   8 12.2523 7.23429   2
  -6  -3  -8 8.59793 7.21966   5
  -6  -3  -8 3.57495 9.64460   6
  -6  -3  -8 -2.6417 36.7229   1
  -6  -3  -8 8.44106 6.58440   4
  -6  -3  -8 16.2721 3.09562   3
   6   3   8 27.1736 41.1668   1
   6   3   8 9.01565 5.67853   4
   6   3   8 6.57360 8.71713   2
   6   3   8 19.2184 9.97284   5
   6   3   8 6.29485 6.53860   6
  -7  -3  -8 67.7775 8.34378   4
  -7  -3  -8 38.7331 42.4810   1
  -7  -3  -8 46.9234 5.60145   3
  -7  -3  -8 66.2647 10.4454   5
   7   3   8 67.9931 7.67896   4
   7   3   8 70.2690 11.6669   2
   7   3   8 73.9086 47.5012   1
   7   3   8 56.0980 10.0646   6
  -8  -3  -8 7.40599 4.40156   3
  -8  -3  -8 0.23299 6.35927   5
  -8  -3  -8 -3.2705 6.24418   4
   8   3   8 -2.1723 5.04625   4
   8   3   8 -5.5083 7.75444   6
  -9  -3  -8 52.0172 11.7065   5
  -9  -3  -8 64.9570 7.27242   3
   9   3   8 45.1038 11.6294   2
   9   3   8 64.0828 11.8800   6
 -10  -3  -8 30.5113 8.46019   3
 -10  -3  -8 22.4790 12.3714   5
  10   3   8 14.3960 12.5002   2
  10   3   8 27.3794 12.3235   6
 -11  -3  -8 26.9519 14.7884   5
  11   3   8 11.9407 15.2607   6
  11   3   8 -22.917 13.8211   2
  12   3   8 75.8965 21.7362   2
  12   3   8 17.2180 19.7836   6
   4  -4  -8 103.483 18.3576   2
   4  -4  -8 116.764 19.5664   5
  -4   4   8 88.6457 17.4221   4
   3  -4  -8 72.3802 15.3858   5
   3  -4  -8 54.7597 13.7614   2
  -3   4   8 72.0893 14.7529   4
   2  -4  -8 406.319 24.0881   2
   2  -4  -8 378.530 24.3476   5
  -2   4   8 382.373 23.6605   4
   1  -4  -8 10.2045 10.4628   5
   1  -4  -8 8.53708 11.4863   3
   1  -4  -8 14.6239 8.85156   2
  -1   4   8 8.99233 8.40489   4
  -1   4   8 5.94620 4.12484   6
   0  -4  -8 560.872 22.7841   3
   0  -4  -8 549.261 24.6128   5
   0  -4  -8 615.214 88.3258   1
   0  -4  -8 574.651 24.0610   2
   0   4   8 555.604 25.6194   2
   0   4   8 550.816 17.7601   6
   0   4   8 559.028 18.1050   6
   0   4   8 469.076 26.9301   4
  -1  -4  -8 354.443 56.3330   1
  -1  -4  -8 393.784 16.9578   3
  -1  -4  -8 380.312 18.3036   2
  -1  -4  -8 388.267 20.5824   5
   1   4   8 383.216 20.0027   4
   1   4   8 394.155 21.3277   5
   1   4   8 367.123 15.1941   6
   1   4   8 392.525 63.7325   1
   1   4   8 371.864 20.4755   2
  -2  -4  -8 123.428 14.0977   5
  -2  -4  -8 109.954 41.0628   1
  -2  -4  -8 129.406 16.0681   4
  -2  -4  -8 111.328 11.6632   2
  -2  -4  -8 150.273 9.98463   3
   2   4   8 119.157 9.62432   6
   2   4   8 129.197 13.5393   5
   2   4   8 126.869 12.4944   2
   2   4   8 135.432 12.9970   4
   2   4   8 154.338 48.0972   1
  -3  -4  -8 744.525 28.3312   4
  -3  -4  -8 778.907 27.6944   5
  -3  -4  -8 782.361 21.1395   3
  -3  -4  -8 724.722 74.8448   1
  -3  -4  -8 791.193 26.4018   2
  -3  -4  -8 792.685 20.9445   3
   3   4   8 785.658 25.1213   6
   3   4   8 822.719 27.6482   4
   3   4   8 713.061 78.3643   1
   3   4   8 788.201 28.5640   5
   3   4   8 810.997 27.8261   2
  -4  -4  -8 60.4935 36.8335   1
  -4  -4  -8 35.8619 9.06863   4
  -4  -4  -8 18.9046 6.92536   2
  -4  -4  -8 26.3389 7.48068   5
  -4  -4  -8 23.4542 2.83487   3
   4   4   8 18.9889 8.38136   2
   4   4   8 24.7409 6.59598   6
   4   4   8 14.6387 6.44183   4
   4   4   8 34.3151 10.0683   5
   4   4   8 -7.9470 40.0153   1
  -5  -4  -8 315.409 16.3881   2
  -5  -4  -8 288.137 46.5034   1
  -5  -4  -8 330.887 17.6342   5
  -5  -4  -8 329.045 17.3549   4
   5   4   8 326.806 54.1552   1
   5   4   8 324.721 16.6324   6
   5   4   8 308.739 15.8668   4
   5   4   8 311.243 18.0861   2
   5   4   8 359.898 20.5870   5
  -6  -4  -8 34.2161 41.3268   1
  -6  -4  -8 89.0387 10.1144   4
  -6  -4  -8 71.5376 9.99720   5
   6   4   8 67.3509 11.4690   2
   6   4   8 72.7178 9.60787   6
   6   4   8 67.2735 8.53876   4
   6   4   8 84.8533 43.5088   1
  -7  -4  -8 62.7143 9.99072   5
  -7  -4  -8 69.6935 9.36846   4
   7   4   8 88.5912 46.9843   1
   7   4   8 54.7513 13.9789   2
   7   4   8 74.5307 8.52514   4
   7   4   8 63.3675 11.8878   6
  -8  -4  -8 34.0242 8.09131   4
  -8  -4  -8 31.0196 10.4363   5
   8   4   8 38.3121 9.47181   6
   8   4   8 52.3117 7.64490   4
  -9  -4  -8 13.8217 7.92096   5
   9   4   8 8.64519 5.82684   4
   9   4   8 10.5640 9.90157   6
 -10  -4  -8 19.1146 11.3952   5
  10   4   8 6.98180 12.1640   2
  10   4   8 14.5741 11.0317   6
 -11  -4  -8 2.72575 13.5940   5
  11   4   8 3.17492 14.9783   2
  11   4   8 -6.4275 12.9129   6
  12   4   8 12.0999 18.2010   6
  12   4   8 44.4137 20.9356   2
   4  -5  -8 0.61118 20.7418   5
   4  -5  -8 51.2778 20.2392   2
  -4   5   8 67.4170 19.8862   4
   3  -5  -8 87.9739 17.2121   2
   3  -5  -8 133.505 19.2057   5
  -3   5   8 152.628 19.1888   4
   2  -5  -8 5.42081 12.5571   2
   2  -5  -8 -3.7752 12.6664   5
  -2   5   8 -1.3174 11.7976   4
   1  -5  -8 479.036 25.3761   2
   1  -5  -8 476.470 25.5209   5
  -1   5   8 494.862 26.2037   4
   0  -5  -8 225.862 18.5329   3
   0  -5  -8 200.295 24.0650   2
   0  -5  -8 192.780 21.0148   5
   0   5   8 240.697 18.2484   4
   0   5   8 224.090 12.0534   6
  -1  -5  -8 286.709 18.0866   2
  -1  -5  -8 259.412 18.5026   5
  -1  -5  -8 246.820 57.6485   1
  -1  -5  -8 242.948 16.0422   3
   1   5   8 292.151 15.6094   6
   1   5   8 275.330 18.6707   4
   1   5   8 270.043 13.7595   6
   1   5   8 103.857 58.3661   1
  -2  -5  -8 587.712 86.9054   1
  -2  -5  -8 883.381 30.7114   5
  -2  -5  -8 908.011 25.1733   3
  -2  -5  -8 890.010 30.2032   2
   2   5   8 858.143 31.6226   4
   2   5   8 900.063 95.0860   1
   2   5   8 868.682 26.4668   6
   2   5   8 853.189 32.8849   2
   2   5   8 832.940 31.3588   5
  -3  -5  -8 -5.4256 39.6056   1
  -3  -5  -8 3.49145 3.91066   3
  -3  -5  -8 4.47961 7.76260   5
  -3  -5  -8 2.10773 3.49440   3
  -3  -5  -8 9.30124 7.34956   2
   3   5   8 4.09771 6.70319   4
   3   5   8 -0.7332 10.4724   2
   3   5   8 0.84143 10.0018   5
   3   5   8 1.76404 5.85810   6
   3   5   8 -33.583 46.5623   1
  -4  -5  -8 885.391 79.1962   1
  -4  -5  -8 781.014 28.8678   5
  -4  -5  -8 852.448 29.0029   2
  -4  -5  -8 771.232 29.6389   4
   4   5   8 856.181 30.5524   5
   4   5   8 841.467 30.3436   2
   4   5   8 974.312 90.3720   1
   4   5   8 836.744 29.1320   4
   4   5   8 814.448 27.5423   6
  -5  -5  -8 453.587 60.9829   1
  -5  -5  -8 323.428 17.7362   2
  -5  -5  -8 331.475 18.3162   5
  -5  -5  -8 301.358 19.3010   4
   5   5   8 323.966 21.1087   5
   5   5   8 338.682 20.5857   2
   5   5   8 385.717 60.0934   1
   5   5   8 320.361 17.2128   4
   5   5   8 318.524 17.4892   6
  -6  -5  -8 89.1494 48.2536   1
  -6  -5  -8 150.634 14.5121   5
  -6  -5  -8 149.858 16.4705   4
   6   5   8 136.534 14.0486   6
   6   5   8 135.444 49.6707   1
   6   5   8 133.971 13.2059   4
  -7  -5  -8 840.379 28.4740   4
  -7  -5  -8 770.675 30.4848   5
   7   5   8 841.669 31.2748   6
   7   5   8 842.017 27.3955   4
  -8  -5  -8 11.8762 9.33498   5
  -8  -5  -8 3.94708 9.17446   4
   8   5   8 11.1533 9.42294   6
   8   5   8 -4.4335 6.57226   4
  -9  -5  -8 237.873 19.4684   5
   9   5   8 222.625 19.2806   6
 -10  -5  -8 13.6276 11.0460   5
  10   5   8 26.7520 12.5578   6
 -11  -5  -8 35.0148 14.0681   5
  11   5   8 24.5081 14.5988   6
  11   5   8 40.5699 16.5284   2
  12   5   8 45.2900 20.3391   2
  12   5   8 -7.7963 18.2039   6
   3  -6  -8 -0.4851 17.8107   5
   3  -6  -8 47.0300 19.1989   2
  -3   6   8 -16.666 17.4459   4
   2  -6  -8 125.327 18.4852   5
   2  -6  -8 87.8694 17.6268   2
  -2   6   8 124.041 18.6374   4
   1  -6  -8 35.9388 13.4427   2
   1  -6  -8 26.9466 12.7535   5
  -1   6   8 52.1365 13.7591   4
   0  -6  -8 191.814 19.3846   2
   0  -6  -8 239.146 19.9148   5
   0   6   8 173.103 12.8759   6
   0   6   8 213.917 19.4920   4
  -1  -6  -8 196.770 18.2322   2
  -1  -6  -8 202.573 17.8306   5
  -1  -6  -8 79.1831 90.1575   1
  -1  -6  -8 195.878 17.1068   3
   1   6   8 215.700 13.8115   6
   1   6   8 196.888 18.4523   4
   1   6   8 198.747 17.0270   6
  -2  -6  -8 17.5105 52.1232   1
  -2  -6  -8 5.03115 8.58068   5
   2   6   8 37.9164 59.2060   1
   2   6   8 17.2845 6.91974   6
   2   6   8 28.3804 9.71535   6
   2   6   8 18.8017 9.47280   4
  -3  -6  -8 751.890 87.5540   1
  -3  -6  -8 809.044 30.1221   2
  -3  -6  -8 758.893 19.9718   3
  -3  -6  -8 775.264 28.4689   5
   3   6   8 719.511 30.0306   5
   3   6   8 806.405 30.0583   4
   3   6   8 644.718 77.9468   1
   3   6   8 760.310 26.0589   6
  -4  -6  -8 152.672 53.2395   1
  -4  -6  -8 126.253 13.0443   5
  -4  -6  -8 142.764 15.3450   2
   4   6   8 154.724 13.3911   6
   4   6   8 140.382 15.3734   5
   4   6   8 165.386 55.1418   1
   4   6   8 146.385 17.3853   4
  -5  -6  -8 583.228 25.1752   2
  -5  -6  -8 567.578 24.4204   5
   5   6   8 631.622 93.7538   1
   5   6   8 611.711 24.2852   6
   5   6   8 569.951 24.3366   4
  -6  -6  -8 566.336 24.1209   5
   6   6   8 573.382 23.6252   4
  -7  -6  -8 143.167 15.0759   4
   7   6   8 200.036 16.4593   6
   7   6   8 166.508 14.2527   4
  -8  -6  -8 317.570 20.5502   5
  -8  -6  -8 321.187 21.8271   4
   8   6   8 323.093 21.4495   6
   8   6   8 350.818 18.5620   4
  -9  -6  -8 40.9541 10.8260   5
   9   6   8 45.5217 12.5462   6
   9   6   8 56.5972 9.98749   4
 -10  -6  -8 143.136 17.1561   5
  10   6   8 140.101 15.1731   4
  10   6   8 95.5993 15.8344   6
 -11  -6  -8 124.879 18.1085   5
  11   6   8 128.882 19.2188   6
   2  -7  -8 0.93321 19.3761   2
   2  -7  -8 -19.725 18.0516   5
  -2   7   8 -6.1821 17.1934   4
   1  -7  -8 21.7357 15.8086   2
   1  -7  -8 19.1750 14.4878   5
  -1   7   8 -2.2369 13.9307   4
   0  -7  -8 -10.925 12.1644   2
   0  -7  -8 15.1037 12.2365   5
   0   7   8 15.2116 12.7128   4
  -1  -7  -8 13.4025 19.9702   5
  -1  -7  -8 0.95190 11.3036   2
   1   7   8 3.36757 7.53301   6
   1   7   8 15.2049 11.8365   4
  -2  -7  -8 100.618 14.7160   2
  -2  -7  -8 136.971 14.5087   5
   2   7   8 101.765 16.1568   6
   2   7   8 115.373 13.4645   6
   2   7   8 113.132 14.6177   4
  -3  -7  -8 0.79295 9.43238   2
  -3  -7  -8 0.57354 9.05888   5
  -3  -7  -8 0.44944 6.97881   3
   3   7   8 -2.5600 9.13071   4
   3   7   8 -87.042 64.6083   1
   3   7   8 9.95702 7.72835   6
  -4  -7  -8 138.158 14.6953   5
  -4  -7  -8 142.051 17.0116   2
   4   7   8 178.991 16.6382   4
   4   7   8 113.511 12.1197   6
  -5  -7  -8 116.194 12.9631   5
  -5  -7  -8 117.318 14.3657   2
   5   7   8 89.2796 13.4617   6
   5   7   8 128.315 13.9469   4
  -6  -7  -8 41.6903 9.90030   5
  -6  -7  -8 58.4910 11.8548   2
   6   7   8 43.8995 10.0188   6
   6   7   8 43.4910 10.9923   4
  -7  -7  -8 300.228 22.0356   5
   7   7   8 294.988 29.9893   4
   7   7   8 308.724 20.3660   6
  -8  -7  -8 47.2371 11.1879   5
   8   7   8 34.6303 11.2718   6
   8   7   8 41.5980 10.4864   4
  -9  -7  -8 200.458 20.2797   5
   9   7   8 194.839 17.7598   4
   9   7   8 258.798 22.1431   6
 -10  -7  -8 130.534 17.2772   5
  10   7   8 101.765 17.1058   6
  10   7   8 101.412 12.8533   4
 -11  -7  -8 48.9396 16.4337   5
  11   7   8 43.7517 17.2846   6
   1  -8  -8 -0.1842 22.3765   2
   0  -8  -8 15.9653 15.6580   5
   0  -8  -8 26.8590 17.4612   2
   0   8   8 64.2542 17.7845   4
  -1  -8  -8 40.7644 13.8098   5
  -1  -8  -8 52.6721 15.8938   2
   1   8   8 46.3905 13.4594   4
   1   8   8 10.3769 9.90884   6
  -2  -8  -8 10.2043 12.9395   2
   2   8   8 -1.6288 9.27428   6
   2   8   8 -2.5523 11.9366   4
  -3  -8  -8 16.1310 11.6566   2
  -3  -8  -8 6.07890 10.7085   5
   3   8   8 -11.814 10.5150   4
  -4  -8  -8 1.67495 9.16211   5
  -4  -8  -8 16.5432 11.1891   2
   4   8   8 13.8025 9.21954   6
   4   8   8 9.00178 10.7913   4
  -5  -8  -8 10.2649 10.6033   2
  -5  -8  -8 -6.0026 9.08527   5
   5   8   8 9.56977 9.74128   4
   5   8   8 4.60097 8.70886   6
  -6  -8  -8 9.07796 10.5112   2
   6   8   8 -1.2970 9.65112   6
   6   8   8 -6.8322 9.27891   4
  -7  -8  -8 -0.1131 9.22765   5
  -7  -8  -8 -10.828 11.4873   2
   7   8   8 1.52044 9.87038   4
   7   8   8 0.11926 9.58818   6
  -8  -8  -8 10.8670 10.7790   5
   8   8   8 20.1956 10.3050   4
   8   8   8 25.3814 11.5143   6
  -9  -8  -8 18.9616 12.0017   5
   9   8   8 0.30003 12.1778   6
   9   8   8 7.84510 11.1717   4
 -10  -8  -8 -16.616 12.8562   5
  10   8   8 21.1410 15.0375   6
  10   8   8 2.28058 12.4701   4
 -11  -8  -8 22.2203 17.2058   5
  11   8   8 34.7894 21.1615   6
  -1  -9  -8 12.4493 19.0830   2
   1   9   8 14.6222 18.1528   4
  -2  -9  -8 120.070 16.2464   5
  -2  -9  -8 157.498 21.1211   2
   2   9   8 133.740 14.9862   6
   2   9   8 132.940 19.5533   4
  -3  -9  -8 32.5775 16.1940   2
   3   9   8 37.8681 12.1394   6
   3   9   8 71.4467 15.6243   4
  -4  -9  -8 131.397 19.0189   2
  -4  -9  -8 166.984 18.7909   5
   4   9   8 160.139 18.3921   4
   4   9   8 136.514 15.2289   6
  -5  -9  -8 115.006 17.2248   5
  -5  -9  -8 93.5387 17.3139   2
   5   9   8 103.305 14.2733   6
   5   9   8 105.465 15.9343   4
  -6  -9  -8 -19.713 12.7481   2
  -6  -9  -8 2.74720 12.7147   5
   6   9   8 18.4197 11.7395   6
   6   9   8 20.0390 12.5207   4
  -7  -9  -8 68.4704 16.4125   2
  -7  -9  -8 25.8352 12.3622   5
   7   9   8 71.2514 13.9655   6
   7   9   8 45.2307 13.4560   4
  -8  -9  -8 22.0815 12.7180   5
   8   9   8 12.7066 13.2371   6
   8   9   8 27.0087 12.3528   4
  -9  -9  -8 37.5303 13.9443   5
   9   9   8 6.86421 13.7988   4
   9   9   8 20.9389 13.8787   6
 -10  -9  -8 12.4334 14.7177   5
  10   9   8 -2.2806 16.8776   6
  10   9   8 -0.2485 14.6068   4
  -3 -10  -8 59.9701 22.5648   2
   3  10   8 98.9979 25.8232   4
   3  10   8 70.1376 15.8533   6
  -4 -10  -8 112.409 20.9517   2
   4  10   8 88.8450 18.9597   4
   4  10   8 90.1752 16.6874   6
  -5 -10  -8 64.1141 19.3776   2
   5  10   8 16.3154 14.0592   6
   5  10   8 9.42978 15.4092   4
  -6 -10  -8 185.436 23.3101   2
  -6 -10  -8 197.672 27.0878   5
   6  10   8 161.811 18.8787   6
   6  10   8 188.072 21.3908   4
  -7 -10  -8 19.9913 13.5758   5
  -7 -10  -8 26.4665 18.2879   2
   7  10   8 27.1842 15.8083   4
   7  10   8 -3.1595 14.0262   6
  -8 -10  -8 106.040 17.2759   5
   8  10   8 107.028 18.5579   4
   8  10   8 137.585 19.5448   6
  -9 -10  -8 62.0948 16.4714   5
   9  10   8 90.4115 21.8446   6
   9  10   8 98.6854 19.4541   4
   3   9  -9 -4.1479 21.7256   3
  -3  -9   9 -11.693 17.6968   6
   2   9  -9 -11.662 17.7855   3
  -2  -9   9 -4.1382 16.3412   6
   1   9  -9 24.0288 18.8618   3
  -1  -9   9 42.5987 17.5571   6
   0   9  -9 -2.5754 17.6388   3
   0  -9   9 18.8987 18.0743   6
  -1   9  -9 26.9240 22.3249   3
   1  -9   9 66.9610 22.5306   6
   5   8  -9 -9.5738 16.5517   5
   4   8  -9 3.46517 17.8569   3
   4   8  -9 25.7026 16.0065   5
  -4  -8   9 30.8270 15.8605   6
   3   8  -9 14.7835 16.5048   3
   3   8  -9 40.0827 13.7606   5
  -3  -8   9 21.0543 14.7516   6
   2   8  -9 29.3549 12.7229   5
   2   8  -9 -10.234 14.8516   3
  -2  -8   9 17.3183 14.3430   6
   1   8  -9 38.5521 11.9135   5
   1   8  -9 32.4547 14.6098   3
  -1  -8   9 50.3480 15.0580   6
   0   8  -9 5.70426 15.0200   3
   0   8  -9 5.78040 11.0493   5
   0  -8   9 3.81410 14.1010   6
  -1   8  -9 19.7789 15.8504   3
   1  -8   9 43.9630 15.1179   6
  -2   8  -9 16.2719 16.7194   3
   2  -8   9 6.67418 15.9876   6
  -3   8  -9 -0.0516 17.4147   3
  -3   8  -9 13.1834 15.6700   4
   3  -8   9 16.7819 17.1264   6
  -4   8  -9 -20.333 17.1162   4
   5   7  -9 91.4414 18.4729   5
   5   7  -9 84.0528 20.0563   3
   4   7  -9 173.160 21.4379   3
   4   7  -9 164.251 17.1555   5
  -4  -7   9 149.888 16.9382   6
   3   7  -9 16.7604 12.4658   5
   3   7  -9 41.5331 15.5648   3
  -3  -7   9 23.9038 13.2647   6
   2   7  -9 322.907 25.2296   3
  -2  -7   9 354.592 23.2495   6
   1   7  -9 13.1899 10.6582   5
   1   7  -9 3.49626 12.5450   3
  -1  -7   9 6.69253 11.4622   6
   0   7  -9 189.483 21.8085   3
   0   7  -9 172.304 17.1497   5
   0  -7   9 173.884 20.0000   6
  -1   7  -9 31.1869 10.1988   5
  -1   7  -9 22.9675 13.2045   3
   1  -7   9 26.3034 12.5951   6
  -2   7  -9 -7.9920 12.9827   3
  -2   7  -9 13.7664 9.43882   5
   2  -7   9 33.1033 13.8849   6
  -3   7  -9 43.4038 15.1607   3
  -3   7  -9 34.9358 10.7493   5
   3  -7   9 63.9290 15.3896   6
  -4   7  -9 -4.7933 14.0051   3
  -4   7  -9 6.91560 13.2630   4
   4  -7   9 10.8720 15.2049   6
  -5   7  -9 5.90982 17.9471   3
   5  -7   9 14.0265 18.3638   6
   6   6  -9 98.1174 20.6263   5
   5   6  -9 121.560 18.4230   5
   5   6  -9 108.828 20.7951   3
   4   6  -9 45.4591 13.9119   3
   4   6  -9 47.2742 14.2190   5
  -4  -6   9 44.9002 12.1178   6
   3   6  -9 395.212 25.9596   3
   3   6  -9 384.783 23.3939   5
   2   6  -9 12.5098 11.9783   3
  -2  -6   9 16.1649 10.1934   6
   1   6  -9 301.135 20.4042   5
   1   6  -9 327.009 22.8906   3
  -1  -6   9 342.948 20.9083   6
   0   6  -9 229.578 18.1193   5
   0   6  -9 181.511 19.3768   3
   0  -6   9 148.166 17.1599   5
   0  -6   9 211.789 19.1890   6
  -1   6  -9 99.2577 14.1666   3
  -1   6  -9 54.1486 10.6616   5
   1  -6   9 84.6000 13.2401   6
   1  -6   9 65.7600 15.0382   5
  -2   6  -9 352.974 23.9019   3
  -2   6  -9 354.061 20.1428   5
   2  -6   9 354.482 23.8206   6
  -3   6  -9 0.45488 11.0536   3
  -3   6  -9 -2.1114 9.01838   5
   3  -6   9 14.3470 11.5471   6
  -4   6  -9 154.497 17.1522   5
  -4   6  -9 165.627 18.5200   3
   4  -6   9 122.853 17.4956   6
  -5   6  -9 8.72902 14.1817   5
  -5   6  -9 31.9585 15.2975   3
   5  -6   9 25.5574 15.3103   6
  -6   6  -9 19.4100 14.0187   5
  -6   6  -9 65.9037 18.4111   3
   6  -6   9 22.7041 17.5920   6
   6   5  -9 34.5157 18.2236   5
   6   5  -9 15.6169 18.5677   3
   5   5  -9 2.37951 14.0413   5
   5   5  -9 24.5690 14.9443   3
   4   5  -9 71.3997 14.5923   5
   4   5  -9 102.306 17.1321   3
   3   5  -9 3.03386 11.4253   3
   3   5  -9 -14.240 10.0151   5
  -3  -5   9 -5.1417 8.60107   6
   2   5  -9 182.516 20.8864   5
   2   5  -9 195.341 20.0342   3
  -2  -5   9 229.671 17.2314   6
   1   5  -9 147.705 17.6666   3
   1   5  -9 102.798 13.3374   5
  -1  -5   9 142.661 14.8107   6
   0   5  -9 132.471 13.7152   5
   0   5  -9 99.8484 14.5137   3
   0  -5   9 136.511 16.1866   6
   0  -5   9 96.3707 17.2868   5
  -1   5  -9 352.305 22.5871   3
  -1   5  -9 405.705 19.7757   5
   1  -5   9 358.637 24.5368   5
   1  -5   9 366.860 21.3313   6
  -2   5  -9 16.0678 8.49988   5
  -2   5  -9 8.09725 10.2233   3
   2  -5   9 5.12807 9.24848   6
   2  -5   9 4.32780 12.3403   5
  -3   5  -9 269.667 20.1056   3
  -3   5  -9 279.990 18.7330   5
   3  -5   9 270.564 23.5470   5
   3  -5   9 302.648 21.7380   6
  -4   5  -9 61.7640 13.1252   3
  -4   5  -9 52.9957 10.8189   5
   4  -5   9 103.289 14.3820   6
   4  -5   9 51.9734 6.42611   2
  -5   5  -9 54.4891 13.6541   3
   5  -5   9 63.6980 14.6235   6
   5  -5   9 62.3182 9.36393   2
  -6   5  -9 141.174 18.1632   3
  -6   5  -9 148.929 15.5260   5
  -6   5  -9 101.600 13.8038   4
   6  -5   9 107.185 16.6407   2
   6  -5   9 133.994 18.2991   6
  -7   5  -9 37.4545 16.7271   3
  -7   5  -9 3.95260 14.1861   5
   7  -5   9 11.1636 17.2415   6
   6   4  -9 24.1591 18.0713   5
  -6  -4   9 12.7891 16.4126   4
   5   4  -9 2.17214 14.3231   3
   5   4  -9 3.53578 13.7270   5
  -5  -4   9 12.4135 13.6829   4
   4   4  -9 8.15738 11.5937   3
   4   4  -9 11.2632 11.4483   5
  -4  -4   9 -0.4988 12.1860   4
   3   4  -9 7.64897 10.5763   3
   3   4  -9 4.80508 9.90916   5
   3   4  -9 0.20864 11.8764   6
  -3  -4   9 11.4220 7.49261   6
  -3  -4   9 -22.874 9.32741   4
   2   4  -9 3.24841 10.4239   6
   2   4  -9 15.3049 10.3586   5
   2   4  -9 3.55565 8.85678   3
  -2  -4   9 23.1342 10.2518   4
  -2  -4   9 16.1084 7.56169   6
   1   4  -9 26.2401 9.72364   5
   1   4  -9 0.11433 10.0171   6
   1   4  -9 10.3928 9.55327   3
  -1  -4   9 -2.8281 7.66796   6
  -1  -4   9 1.91194 9.25762   4
   0   4  -9 36.2431 9.85046   5
   0   4  -9 13.7127 10.8853   6
   0  -4   9 15.1300 9.51339   4
   0  -4   9 25.1117 8.15065   6
  -1   4  -9 17.0470 8.42650   5
   1  -4   9 -7.1953 11.1354   5
   1  -4   9 2.02673 7.62945   6
   1  -4   9 27.2405 9.25986   4
  -2   4  -9 130.914 13.8584   5
   2  -4   9 106.341 14.5647   6
   2  -4   9 139.979 15.0015   5
  -3   4  -9 107.570 15.3845   3
  -3   4  -9 88.2372 17.1550   4
  -3   4  -9 117.647 12.4467   5
   3  -4   9 95.6870 12.6415   6
   3  -4   9 104.211 14.4164   5
  -4   4  -9 45.6304 11.1635   3
  -4   4  -9 40.7023 9.75227   5
  -4   4  -9 35.8024 13.8609   4
   4  -4   9 45.9928 5.62223   2
   4  -4   9 31.0363 5.97446   2
   4  -4   9 43.1861 10.8246   6
  -5   4  -9 156.551 17.1787   3
  -5   4  -9 198.893 19.2803   5
  -5   4  -9 161.184 22.2229   4
   5  -4   9 143.923 13.3295   2
   5  -4   9 132.366 15.8848   6
  -6   4  -9 7.46883 10.9388   3
  -6   4  -9 -0.9958 10.5251   5
   6  -4   9 16.5165 12.5892   6
   6  -4   9 -0.9963 9.05357   2
  -7   4  -9 44.0195 14.3665   3
  -7   4  -9 56.3435 14.3811   5
   7  -4   9 44.3342 15.4962   6
   7  -4   9 56.8819 13.7707   2
  -8   4  -9 50.0682 17.8000   3
  -8   4  -9 65.8115 16.2041   5
   8  -4   9 44.4472 16.7701   2
   8  -4   9 45.6955 18.6280   6
   6   3  -9 78.4205 18.3288   5
  -6  -3   9 69.9540 19.2676   4
   5   3  -9 7.33989 13.1275   5
  -5  -3   9 26.8652 14.3907   4
   4   3  -9 293.206 22.6655   5
  -4  -3   9 265.095 22.4455   4
   3   3  -9 15.4716 8.36744   6
   3   3  -9 5.66742 8.99983   5
   3   3  -9 8.90510 9.67850   3
  -3  -3   9 4.73757 10.1346   4
  -3  -3   9 16.9638 6.40621   6
   2   3  -9 104.676 11.1125   6
   2   3  -9 100.925 13.4550   5
   2   3  -9 145.365 16.5352   3
  -2  -3   9 109.392 12.0863   6
  -2  -3   9 154.220 16.1542   4
   1   3  -9 117.314 12.0323   6
   1   3  -9 131.942 15.6753   5
  -1  -3   9 139.007 14.6443   4
  -1  -3   9 110.752 11.4095   6
   0   3  -9 15.4149 8.88355   6
   0   3  -9 35.1269 9.38731   3
   0   3  -9 22.6232 9.59933   5
   0  -3   9 25.3182 7.44090   6
   0  -3   9 25.4033 9.11343   4
  -1   3  -9 9.63406 8.39177   5
  -1   3  -9 12.9820 9.98141   6
  -1   3  -9 24.6792 8.74724   3
   1  -3   9 25.5767 7.95229   6
   1  -3   9 24.0687 8.81911   4
   1  -3   9 26.5906 10.9591   5
  -2   3  -9 -4.7762 16.7044   6
  -2   3  -9 5.54000 7.21482   3
  -2   3  -9 38.9455 42.0845   1
  -2   3  -9 0.98804 7.41960   5
  -2   3  -9 28.3521 11.1729   4
   2  -3   9 0.77453 9.72908   5
   2  -3   9 -0.5028 7.06030   4
   2  -3   9 1.36559 7.44369   6
  -3   3  -9 8.84384 10.7289   4
  -3   3  -9 13.3868 8.55468   3
  -3   3  -9 59.7699 50.9491   1
  -3   3  -9 5.69178 7.30245   5
   3  -3   9 24.0987 8.47333   6
   3  -3   9 24.0308 7.87133   4
   3  -3   9 3.08672 11.0656   5
  -4   3  -9 -9.3655 9.83325   4
  -4   3  -9 6.28305 8.25152   3
  -4   3  -9 -2.2920 7.44747   5
   4  -3   9 2.08457 4.30814   2
   4  -3   9 -4.9323 7.44471   6
   4  -3   9 7.85856 4.70962   2
  -5   3  -9 65.6823 11.0326   5
  -5   3  -9 71.7226 11.9900   4
   5  -3   9 48.5611 7.63975   2
   5  -3   9 43.2632 8.33944   2
   5  -3   9 69.9914 12.1845   6
  -6   3  -9 11.2176 10.1539   3
  -6   3  -9 19.7958 10.0655   5
   6  -3   9 5.59581 10.7766   6
   6  -3   9 25.3708 8.75048   2
  -7   3  -9 24.2948 11.1710   5
  -7   3  -9 26.8575 11.8819   3
   7  -3   9 43.8794 11.1222   2
   7  -3   9 37.3192 13.1780   6
  -8   3  -9 24.3929 13.7285   3
  -8   3  -9 2.34367 13.3171   5
   8  -3   9 14.1098 14.6704   6
   8  -3   9 -5.6652 12.7933   2
  -9   3  -9 49.9078 16.7224   5
  -9   3  -9 51.2690 18.3549   3
   9  -3   9 10.0354 18.1021   6
   9  -3   9 38.6687 16.4328   2
   6   2  -9 35.6994 19.0925   5
  -6  -2   9 69.8135 18.6729   4
   5   2  -9 384.832 28.5209   5
  -5  -2   9 429.510 28.0296   4
   4   2  -9 11.0028 6.28905   2
   4   2  -9 -5.5955 11.9848   5
  -4  -2   9 -2.9819 11.2016   4
   3   2  -9 538.757 26.5365   5
   3   2  -9 511.856 16.4770   6
   3   2  -9 518.539 19.1978   2
  -3  -2   9 470.426 15.5906   6
  -3  -2   9 480.589 26.0153   4
   2   2  -9 240.456 19.4391   5
   2   2  -9 243.365 18.0989   3
   2   2  -9 253.905 14.1887   6
  -2  -2   9 285.630 19.4193   4
  -2  -2   9 268.383 13.3087   6
   1   2  -9 236.730 17.6880   5
   1   2  -9 236.930 17.2082   3
   1   2  -9 243.762 15.2439   6
  -1  -2   9 228.575 13.4698   6
   0   2  -9 812.615 87.5915   1
   0   2  -9 803.740 27.3151   6
   0   2  -9 803.405 29.4588   3
   0   2  -9 858.487 30.4004   5
   0   2  -9 819.900 30.9503   3
   0  -2   9 847.930 30.3576   4
   0  -2   9 791.065 26.5232   6
  -1   2  -9 7.57800 7.27217   3
  -1   2  -9 -9.0365 38.2393   1
  -1   2  -9 1.91184 8.81498   6
  -1   2  -9 3.59603 8.13463   5
   1  -2   9 4.81820 7.37737   4
   1  -2   9 -27.882 9.55832   5
   1  -2   9 -19.308 54.9459   1
   1  -2   9 -5.8468 6.27991   6
  -2   2  -9 592.822 23.7356   3
  -2   2  -9 607.432 24.6368   6
  -2   2  -9 509.299 72.0300   1
  -2   2  -9 609.698 24.4926   5
  -2   2  -9 577.442 24.9674   4
   2  -2   9 495.263 66.5786   1
   2  -2   9 611.371 23.9542   4
   2  -2   9 543.304 25.2474   5
   2  -2   9 572.128 23.2104   6
  -3   2  -9 105.162 12.1870   4
  -3   2  -9 123.932 43.2182   1
  -3   2  -9 110.223 11.5786   3
  -3   2  -9 87.0854 13.1010   6
  -3   2  -9 109.311 12.8389   5
   3  -2   9 56.9391 49.8557   1
   3  -2   9 116.121 12.0674   4
   3  -2   9 89.7597 10.9257   6
   3  -2   9 104.237 4.85935   2
   3  -2   9 92.4732 12.9250   5
   3  -2   9 102.788 4.51781   2
  -4   2  -9 173.176 15.7818   4
  -4   2  -9 185.800 15.1023   5
  -4   2  -9 188.840 15.6589   3
   4  -2   9 170.545 15.3310   6
   4  -2   9 112.883 56.8879   1
   4  -2   9 200.775 14.3939   4
   4  -2   9 201.336 9.63990   2
   4  -2   9 205.362 10.0604   2
  -5   2  -9 3.54731 50.3112   1
  -5   2  -9 72.4977 11.1626   4
  -5   2  -9 86.1468 10.7453   3
  -5   2  -9 75.9478 10.9865   5
   5  -2   9 76.6037 11.8556   6
   5  -2   9 63.1642 12.7375   3
   5  -2   9 93.3576 10.0523   2
   5  -2   9 68.0957 8.58970   2
   5  -2   9 25.2567 60.7303   1
  -6   2  -9 88.9966 59.9186   1
  -6   2  -9 32.0725 9.47295   3
  -6   2  -9 42.1973 9.85158   4
  -6   2  -9 42.7438 10.2239   5
   6  -2   9 24.7800 10.4570   6
   6  -2   9 26.8491 8.16676   2
   6  -2   9 39.3764 9.90483   2
  -7   2  -9 62.2241 11.8778   5
  -7   2  -9 83.8848 12.4691   3
   7  -2   9 78.5449 13.5204   6
   7  -2   9 71.3849 11.0748   2
  -8   2  -9 7.03826 11.3808   5
  -8   2  -9 -0.9915 10.8507   3
   8  -2   9 24.1018 13.0800   6
   8  -2   9 16.7034 12.6688   2
  -9   2  -9 40.4405 14.9802   5
  -9   2  -9 34.0531 14.4776   3
   9  -2   9 31.9175 14.8173   2
   9  -2   9 17.1176 15.2828   6
   6   1  -9 51.7389 21.4688   5
  -6  -1   9 53.5269 18.9574   4
   5   1  -9 -0.2047 14.6745   5
   5   1  -9 7.70781 10.7827   2
  -5  -1   9 -6.6042 13.7140   4
   4   1  -9 406.465 26.5961   5
  -4  -1   9 404.424 25.7387   4
   3   1  -9 104.920 14.7247   5
   3   1  -9 91.8819 10.2891   2
  -3  -1   9 104.412 14.5213   4
   2   1  -9 392.791 23.3795   5
   2   1  -9 419.136 15.0820   6
   2   1  -9 413.276 13.8235   2
  -2  -1   9 440.641 14.6562   6
  -2  -1   9 431.332 23.3593   4
   1   1  -9 669.440 26.2488   3
   1   1  -9 664.213 21.5808   6
  -1  -1   9 646.448 21.1848   6
   0   1  -9 2.85694 6.56199   6
   0   1  -9 9.92944 7.16493   3
   0   1  -9 14.8011 10.3320   3
   0   1  -9 1.46717 6.60026   5
   0   1  -9 19.6854 36.6103   1
   0  -1   9 8.60336 5.91065   6
   0  -1   9 -5.8413 7.11723   4
  -1   1  -9 1173.74 37.0168   5
  -1   1  -9 1286.91 87.0062   1
  -1   1  -9 1105.72 33.4663   6
  -1   1  -9 1118.02 34.3531   3
  -1   1  -9 1023.38 36.8539   4
   1  -1   9 1090.41 40.6356   5
   1  -1   9 1128.31 33.2937   6
   1  -1   9 1033.19 90.1003   1
   1  -1   9 1146.30 35.9535   4
  -2   1  -9 214.298 16.3109   5
  -2   1  -9 187.730 15.1920   6
  -2   1  -9 126.908 43.8870   1
  -2   1  -9 193.245 16.8569   4
  -2   1  -9 222.651 14.2509   3
   2  -1   9 202.055 13.9587   6
   2  -1   9 199.947 6.29275   2
   2  -1   9 204.765 51.5099   1
   2  -1   9 206.133 18.0090   5
   2  -1   9 213.524 6.71748   2
   2  -1   9 185.730 14.5810   4
  -3   1  -9 530.753 23.2359   5
  -3   1  -9 568.605 21.7853   3
  -3   1  -9 486.690 23.2746   6
  -3   1  -9 523.424 23.2349   4
  -3   1  -9 490.753 61.9015   1
   3  -1   9 571.346 22.4797   6
   3  -1   9 552.980 15.4172   2
   3  -1   9 530.849 22.0904   4
   3  -1   9 534.216 15.1127   2
   3  -1   9 542.655 25.0580   5
   3  -1   9 499.508 65.7373   1
  -4   1  -9 606.705 31.1585   6
  -4   1  -9 653.298 80.9351   1
  -4   1  -9 626.859 23.4862   3
  -4   1  -9 638.753 25.1517   4
  -4   1  -9 654.695 25.6270   5
   4  -1   9 629.717 91.2659   1
   4  -1   9 644.982 25.4148   6
   4  -1   9 739.633 39.3245   5
   4  -1   9 624.971 19.0383   2
   4  -1   9 630.143 19.4257   2
   4  -1   9 636.465 23.6629   4
  -5   1  -9 26.6179 8.63318   5
  -5   1  -9 22.3521 7.78045   3
  -5   1  -9 22.2704 9.09822   4
  -5   1  -9 37.7709 46.5662   1
   5  -1   9 26.5141 55.2740   1
   5  -1   9 27.2950 6.99844   4
   5  -1   9 21.4964 6.11313   2
   5  -1   9 23.4442 7.02935   2
   5  -1   9 33.8076 9.30588   6
  -6   1  -9 300.669 17.6724   3
  -6   1  -9 274.931 16.6627   4
  -6   1  -9 231.160 60.8414   1
   6  -1   9 296.870 20.0919   6
   6  -1   9 214.714 72.0666   1
   6  -1   9 294.464 15.9120   2
   6  -1   9 316.801 17.6759   2
   6  -1   9 328.476 21.6905   3
  -7   1  -9 54.9269 9.82109   3
  -7   1  -9 63.2764 11.8185   5
  -7   1  -9 -55.785 62.2967   1
   7  -1   9 47.4068 13.0261   2
   7  -1   9 42.4065 11.8900   6
   7  -1   9 48.5694 9.80062   2
   7  -1   9 151.673 77.3216   1
  -8   1  -9 111.935 14.6999   5
  -8   1  -9 102.204 22.5691   3
   8  -1   9 112.500 14.6971   2
   8  -1   9 124.912 16.5320   6
  -9   1  -9 44.1038 13.5523   3
  -9   1  -9 54.8593 14.8862   5
   9  -1   9 46.1263 14.4212   6
   9  -1   9 40.3921 13.4961   2
 -10   1  -9 48.8347 15.5408   3
 -10   1  -9 10.8498 16.4744   5
  10  -1   9 17.8422 16.8655   2
  10  -1   9 46.4007 18.6714   6
   5   0  -9 19.5599 16.3070   5
   5   0  -9 24.3582 25.1874   2
  -5   0   9 33.6723 16.0419   4
   4   0  -9 21.6638 13.7589   5
   4   0  -9 11.7721 9.94104   2
  -4   0   9 22.0326 12.5214   4
   3   0  -9 101.219 14.9704   5
   3   0  -9 62.6263 9.19061   2
  -3   0   9 75.1629 13.0675   4
   2   0  -9 209.743 12.3333   2
   2   0  -9 215.692 19.4225   5
  -2   0   9 239.716 18.7634   4
   1   0  -9 22.8429 11.7605   5
   1   0  -9 30.8440 5.47469   2
   1   0  -9 32.1267 6.12311   6
  -1   0   9 16.7702 10.6621   4
  -1   0   9 21.9359 6.37379   2
  -1   0   9 27.2233 5.44498   6
   0   0  -9 1201.58 36.3911   3
   0   0  -9 1206.42 30.1744   2
   0   0  -9 1196.93 39.3213   5
   0   0  -9 1342.61 91.3106   1
   0   0  -9 1220.52 37.5992   3
   0   0  -9 1231.57 33.2281   6
   0   0   9 1172.85 33.0754   6
   0   0   9 1211.96 38.0111   4
  -1   0  -9 2.63316 7.30340   6
  -1   0  -9 12.5341 6.95531   3
  -1   0  -9 13.7766 9.30715   5
  -1   0  -9 10.6879 8.48362   3
  -1   0  -9 -29.127 35.6296   1
  -1   0  -9 -3.7474 9.90789   4
   1   0   9 12.6571 5.99084   6
   1   0   9 22.1964 41.6125   1
   1   0   9 8.45497 5.75408   4
   1   0   9 8.63239 4.39396   2
  -2   0  -9 743.083 24.9741   6
  -2   0  -9 673.519 27.2122   5
  -2   0  -9 749.351 25.2110   3
  -2   0  -9 721.593 75.2480   1
  -2   0  -9 717.035 27.3151   4
   2   0   9 642.689 27.5035   5
   2   0   9 712.178 19.8306   2
   2   0   9 746.689 80.1104   1
   2   0   9 669.527 25.7286   4
   2   0   9 715.869 24.3965   6
  -3   0  -9 535.331 23.0362   5
  -3   0  -9 498.980 22.3645   4
  -3   0  -9 532.384 22.8846   6
  -3   0  -9 574.661 72.1724   1
  -3   0  -9 518.976 19.9225   3
   3   0   9 532.072 16.6963   2
   3   0   9 465.727 62.1059   1
   3   0   9 522.604 21.3390   4
   3   0   9 475.238 24.0031   5
   3   0   9 561.096 21.6846   6
  -4   0  -9 79.9209 8.80424   3
  -4   0  -9 82.4749 10.8580   4
  -4   0  -9 76.5032 11.2196   6
  -4   0  -9 84.3742 11.2022   5
  -4   0  -9 41.3282 40.1724   1
   4   0   9 59.3734 46.8289   1
   4   0   9 96.2739 9.74311   2
   4   0   9 83.0318 9.68489   4
   4   0   9 77.6685 10.3767   6
  -5   0  -9 775.847 28.5329   5
  -5   0  -9 759.118 83.1846   1
  -5   0  -9 725.270 25.9586   4
  -5   0  -9 714.613 24.6487   3
   5   0   9 759.205 23.6678   2
   5   0   9 628.241 77.8697   1
   5   0   9 821.182 28.9912   6
   5   0   9 739.828 25.1456   4
  -6   0  -9 26.5367 7.63017   3
  -6   0  -9 4.31987 46.7960   1
  -6   0  -9 26.2258 8.19564   4
   6   0   9 -58.672 52.9088   1
   6   0   9 25.6964 10.4721   6
   6   0   9 23.9219 8.73149   2
   6   0   9 35.7128 7.73647   2
   6   0   9 21.3702 6.95462   4
  -7   0  -9 381.100 70.9623   1
  -7   0  -9 423.181 19.4891   3
  -7   0  -9 409.555 22.5591   5
   7   0   9 378.037 22.8745   6
   7   0   9 308.850 77.1086   1
   7   0   9 410.631 19.2428   2
   7   0   9 396.671 22.5753   3
   7   0   9 446.254 22.9380   2
  -8   0  -9 115.707 14.9966   5
  -8   0  -9 110.470 12.0469   3
   8   0   9 81.6067 14.8649   3
   8   0   9 118.072 15.2989   6
   8   0   9 90.1091 12.6615   2
  -9   0  -9 16.0086 12.0616   5
   9   0   9 39.8603 13.1951   6
   9   0   9 50.4062 12.9763   2
 -10   0  -9 50.7989 13.6988   3
 -10   0  -9 26.3938 14.8804   5
  10   0   9 50.9123 15.6304   2
  10   0   9 28.6408 16.2303   6
   5  -1  -9 -31.162 13.8693   2
   5  -1  -9 9.53610 16.2491   5
  -5   1   9 17.0394 16.1736   4
   4  -1  -9 20.0420 13.5030   2
   4  -1  -9 3.56069 13.8210   5
  -4   1   9 40.3028 13.9604   4
   3  -1  -9 -7.6181 10.5814   5
   3  -1  -9 15.6352 8.98488   2
  -3   1   9 3.40513 10.5665   4
   2  -1  -9 -7.6901 6.91187   2
   2  -1  -9 13.0729 10.9845   5
  -2   1   9 -1.5490 10.2590   2
  -2   1   9 6.27421 9.76468   4
   1  -1  -9 -0.4696 5.68331   2
   1  -1  -9 -3.6883 9.61997   5
   1  -1  -9 17.1511 12.8528   3
  -1   1   9 3.60116 8.43388   4
  -1   1   9 18.4501 8.14106   2
  -1   1   9 4.08717 4.19531   6
   0  -1  -9 2.45570 6.52832   5
   0  -1  -9 -1.3669 4.62847   2
   0  -1  -9 15.2743 40.0028   1
   0  -1  -9 -14.086 8.70719   3
   0   1   9 -2.2219 6.63098   4
   0   1   9 5.85861 5.03095   6
   0   1   9 -2.3815 6.66021   2
  -1  -1  -9 1.43681 4.34760   2
  -1  -1  -9 -61.499 37.8590   1
  -1  -1  -9 2.38405 7.92299   5
  -1  -1  -9 1.68634 6.29168   6
  -1  -1  -9 3.95948 8.19165   3
  -1  -1  -9 -3.3176 5.82381   3
   1   1   9 3.82644 5.55801   6
   1   1   9 13.0798 6.01237   2
   1   1   9 1.94673 43.7010   1
   1   1   9 -1.0626 6.53630   4
  -2  -1  -9 159.593 15.5412   5
  -2  -1  -9 145.863 9.19364   2
  -2  -1  -9 132.817 13.9661   4
  -2  -1  -9 130.642 13.0814   3
  -2  -1  -9 153.046 45.5806   1
  -2  -1  -9 129.156 12.3499   6
  -2  -1  -9 146.989 10.9905   3
   2   1   9 136.024 12.8334   4
   2   1   9 185.428 49.9180   1
   2   1   9 143.894 11.9428   6
   2   1   9 137.478 10.5993   2
  -3  -1  -9 9.89484 8.27614   5
  -3  -1  -9 19.5219 6.96416   3
  -3  -1  -9 21.9535 9.33665   4
  -3  -1  -9 32.3062 8.36240   6
  -3  -1  -9 17.2418 5.82046   3
   3   1   9 14.2371 6.30468   2
   3   1   9 22.8558 42.9693   1
   3   1   9 16.4368 7.04697   4
   3   1   9 -0.1868 10.6789   5
   3   1   9 18.2819 6.81324   6
  -4  -1  -9 501.825 18.4871   3
  -4  -1  -9 523.782 22.8137   5
  -4  -1  -9 484.693 72.7939   1
  -4  -1  -9 516.491 22.4709   6
  -4  -1  -9 510.227 22.3522   4
   4   1   9 406.262 73.2790   1
   4   1   9 489.740 20.2647   4
   4   1   9 497.551 21.1677   6
  -5  -1  -9 -9.7128 40.7223   1
  -5  -1  -9 8.66725 7.73155   5
  -5  -1  -9 -1.0145 8.43505   4
  -5  -1  -9 11.0001 5.52871   3
   5   1   9 -0.6853 48.6209   1
   5   1   9 24.8009 7.47778   6
   5   1   9 18.1103 6.51638   4
   5   1   9 13.5803 7.09732   2
  -6  -1  -9 194.949 52.2897   1
  -6  -1  -9 239.821 13.0608   3
  -6  -1  -9 256.490 15.8510   4
   6   1   9 231.250 60.2354   1
   6   1   9 233.782 16.5888   2
   6   1   9 248.479 14.2484   4
   6   1   9 229.432 16.6623   6
  -7  -1  -9 170.172 60.0339   1
  -7  -1  -9 213.954 13.6537   3
  -7  -1  -9 224.174 17.6274   5
   7   1   9 198.066 17.4699   2
   7   1   9 117.131 65.4896   1
   7   1   9 224.635 15.0000   2
   7   1   9 206.911 12.5241   4
   7   1   9 206.219 17.6527   6
  -8  -1  -9 40.1607 9.48568   5
  -8  -1  -9 48.5495 8.83524   3
   8   1   9 42.6269 10.1676   2
   8   1   9 29.4826 10.9698   6
   8   1   9 26.5138 11.1433   3
  -9  -1  -9 151.764 17.2449   5
  -9  -1  -9 193.509 16.7003   3
   9   1   9 132.352 15.4662   2
   9   1   9 145.113 16.8200   6
 -10  -1  -9 26.2987 13.7860   3
 -10  -1  -9 20.3027 14.0409   5
  10   1   9 29.6200 14.5341   2
  10   1   9 11.4694 14.5504   6
 -11  -1  -9 80.0338 19.5668   5
  11   1   9 76.8140 20.0502   2
  11   1   9 45.8481 20.4501   6
   5  -2  -9 47.9093 24.8338   5
   5  -2  -9 74.5020 18.6172   2
  -5   2   9 94.8479 20.9415   4
   4  -2  -9 27.6772 12.4589   2
   4  -2  -9 31.0327 16.3937   5
  -4   2   9 42.4183 15.6256   4
   3  -2  -9 79.6604 15.2141   2
   3  -2  -9 125.512 17.4979   5
  -3   2   9 91.9705 14.9501   4
   2  -2  -9 230.162 20.8688   5
   2  -2  -9 227.921 17.3401   2
  -2   2   9 253.078 20.1454   4
   1  -2  -9 4.01808 6.67805   2
   1  -2  -9 -2.9503 9.77269   5
  -1   2   9 3.20254 3.51083   6
  -1   2   9 -13.085 9.90344   2
  -1   2   9 2.75451 8.46202   4
   0  -2  -9 186.900 17.8299   3
   0  -2  -9 209.223 13.2704   2
   0   2   9 201.640 11.0904   6
   0   2   9 208.308 16.8152   4
   0   2   9 208.202 15.7941   2
  -1  -2  -9 45.7321 9.20506   3
  -1  -2  -9 -0.7471 42.9156   1
  -1  -2  -9 54.2206 9.73117   5
  -1  -2  -9 46.0754 7.42498   2
   1   2   9 44.0974 6.85642   6
   1   2   9 58.1869 9.01937   2
   1   2   9 38.1431 9.16295   4
   1   2   9 -6.4464 45.6826   1
  -2  -2  -9 25.7346 7.60459   3
  -2  -2  -9 14.9702 7.79454   6
  -2  -2  -9 52.9776 40.6148   1
  -2  -2  -9 20.2744 9.45461   5
  -2  -2  -9 21.6998 12.2687   4
  -2  -2  -9 22.1355 6.12017   2
  -2  -2  -9 34.7532 6.77580   3
   2   2   9 29.1948 8.07916   4
   2   2   9 27.3427 6.51609   6
   2   2   9 19.1483 7.50967   2
   2   2   9 10.2458 45.4066   1
  -3  -2  -9 40.6496 10.4321   4
  -3  -2  -9 60.8927 41.0725   1
  -3  -2  -9 45.8633 7.23009   3
  -3  -2  -9 55.0968 9.13546   6
  -3  -2  -9 34.8458 9.05689   5
  -3  -2  -9 43.1926 6.45488   2
  -3  -2  -9 53.6907 6.84017   3
   3   2   9 42.3023 8.44662   4
   3   2   9 32.5551 45.0291   1
   3   2   9 63.6071 8.65491   6
   3   2   9 65.1373 8.76484   2
  -4  -2  -9 -1.7753 5.25001   3
  -4  -2  -9 3.27153 7.20503   5
  -4  -2  -9 -7.9406 8.30106   4
  -4  -2  -9 7.30802 8.24069   6
  -4  -2  -9 17.4040 39.0533   1
  -4  -2  -9 6.14297 4.64315   3
   4   2   9 1.26533 5.84266   4
   4   2   9 2.55286 6.32578   6
   4   2   9 56.7055 45.6802   1
   4   2   9 3.18522 6.60828   2
  -5  -2  -9 22.1728 11.9998   6
  -5  -2  -9 1.00661 7.73532   5
  -5  -2  -9 8.18668 4.67735   3
  -5  -2  -9 8.40360 8.26352   4
  -5  -2  -9 -6.2728 42.0082   1
   5   2   9 39.2032 8.65403   6
   5   2   9 16.9799 6.56626   4
   5   2   9 24.4182 8.38131   2
   5   2   9 54.0433 48.3277   1
  -6  -2  -9 17.3855 9.89988   5
  -6  -2  -9 -36.890 44.0786   1
  -6  -2  -9 8.54086 4.79832   3
  -6  -2  -9 20.2271 8.52093   4
   6   2   9 11.8263 6.54793   4
   6   2   9 -8.8710 48.4930   1
   6   2   9 9.93951 7.62212   6
   6   2   9 23.1386 8.98903   2
  -7  -2  -9 51.9346 55.1624   1
  -7  -2  -9 1.94825 8.47941   5
  -7  -2  -9 -6.1076 7.37017   4
  -7  -2  -9 3.20180 5.05867   3
   7   2   9 -1.5201 11.0525   2
   7   2   9 -0.3949 5.92500   4
   7   2   9 10.2318 57.8853   1
   7   2   9 7.08239 8.46102   6
  -8  -2  -9 33.8412 9.16244   5
  -8  -2  -9 40.4228 7.03170   3
   8   2   9 30.7358 10.4485   6
   8   2   9 35.3084 6.87858   4
   8   2   9 42.5998 10.3513   2
  -9  -2  -9 -9.9342 11.0456   5
  -9  -2  -9 34.9690 8.23310   3
   9   2   9 26.1583 11.6831   2
   9   2   9 17.7623 11.6248   6
 -10  -2  -9 15.6685 9.82168   3
 -10  -2  -9 33.4064 13.3665   5
  10   2   9 19.9422 14.4190   6
  10   2   9 12.7802 13.1248   2
 -11  -2  -9 38.4584 16.6871   5
  11   2   9 21.2762 17.7708   6
  11   2   9 17.4239 17.5995   2
   4  -3  -9 135.857 21.6060   5
   4  -3  -9 122.926 18.7087   2
  -4   3   9 142.052 21.2029   4
   3  -3  -9 241.548 21.7720   2
   3  -3  -9 285.840 25.8093   5
  -3   3   9 244.683 25.4238   4
   2  -3  -9 22.3298 13.2100   5
  -2   3   9 25.3257 12.0898   4
   1  -3  -9 666.120 25.4560   2
   1  -3  -9 651.229 29.7381   5
  -1   3   9 583.715 30.4354   2
  -1   3   9 621.129 28.3676   4
   0  -3  -9 64.7800 9.41708   2
   0  -3  -9 66.1087 12.9793   5
   0  -3  -9 75.8688 12.1691   3
   0   3   9 77.8839 11.8580   4
   0   3   9 55.5293 6.76690   6
   0   3   9 48.2566 12.0720   2
  -1  -3  -9 448.553 100.551   1
  -1  -3  -9 481.395 20.9189   3
  -1  -3  -9 470.623 19.5259   2
  -1  -3  -9 510.255 28.1483   5
   1   3   9 385.068 25.4800   4
   1   3   9 501.371 18.3325   6
   1   3   9 484.513 22.7149   2
  -2  -3  -9 615.362 82.6367   1
  -2  -3  -9 653.538 21.4888   3
  -2  -3  -9 627.551 21.6026   3
  -2  -3  -9 642.030 23.0483   2
  -2  -3  -9 651.820 27.2733   5
   2   3   9 645.963 22.3002   6
   2   3   9 662.654 26.1313   4
   2   3   9 623.432 23.8325   2
   2   3   9 573.833 98.4680   1
  -3  -3  -9 31.5975 9.74311   5
  -3  -3  -9 36.1891 40.0506   1
  -3  -3  -9 41.8752 7.41890   2
  -3  -3  -9 31.8691 12.6809   4
  -3  -3  -9 52.7213 6.67926   3
  -3  -3  -9 36.1252 5.88708   3
   3   3   9 46.2740 9.89528   2
   3   3   9 31.0583 7.67753   6
   3   3   9 25.5099 8.18172   4
   3   3   9 80.4596 53.0432   1
  -4  -3  -9 608.322 17.7279   3
  -4  -3  -9 573.545 21.4551   2
  -4  -3  -9 468.633 62.6486   1
  -4  -3  -9 561.050 24.5137   5
  -4  -3  -9 552.750 17.3883   3
  -4  -3  -9 544.073 24.0343   4
   4   3   9 569.341 22.7812   2
   4   3   9 574.309 22.9790   4
   4   3   9 567.626 22.6623   6
   4   3   9 502.787 67.9682   1
  -5  -3  -9 58.3689 7.00690   3
  -5  -3  -9 56.3722 44.6963   1
  -5  -3  -9 37.3220 4.57127   3
  -5  -3  -9 34.2595 9.63304   4
  -5  -3  -9 54.6594 10.2003   5
   5   3   9 73.1624 49.3381   1
   5   3   9 42.3730 9.93866   2
   5   3   9 45.7844 8.43210   4
   5   3   9 42.5217 8.73439   6
  -6  -3  -9 237.128 9.22033   3
  -6  -3  -9 239.084 17.1558   4
  -6  -3  -9 241.868 26.0985   5
  -6  -3  -9 248.898 10.0332   3
  -6  -3  -9 240.947 57.5515   1
   6   3   9 222.614 16.0767   6
   6   3   9 259.408 15.0675   4
   6   3   9 221.577 58.3806   1
   6   3   9 252.855 17.9244   2
  -7  -3  -9 61.7370 10.4016   4
  -7  -3  -9 62.2099 11.4907   5
  -7  -3  -9 65.6079 6.42060   3
   7   3   9 49.8914 10.4400   6
   7   3   9 58.2118 15.1286   2
   7   3   9 -12.586 54.9863   1
   7   3   9 67.7383 8.87216   4
  -8  -3  -9 50.3051 10.9439   5
  -8  -3  -9 48.6966 9.50283   4
  -8  -3  -9 28.7427 5.18713   3
   8   3   9 17.9511 9.90116   6
   8   3   9 30.1619 7.32168   4
  -9  -3  -9 51.2029 7.09542   3
  -9  -3  -9 78.6126 13.7538   5
   9   3   9 44.0559 12.1051   2
   9   3   9 55.9945 13.1792   6
   9   3   9 63.1598 7.24340   4
 -10  -3  -9 -4.2734 9.63770   5
  10   3   9 21.5362 13.1441   6
  10   3   9 7.38000 13.0166   2
 -11  -3  -9 25.7063 15.7434   5
  11   3   9 19.1159 16.5011   6
  11   3   9 57.7352 17.2094   2
   3  -4  -9 49.8914 16.9509   2
   3  -4  -9 29.8804 17.1433   5
  -3   4   9 30.3887 16.3223   4
   2  -4  -9 305.640 23.1245   2
   2  -4  -9 370.444 26.5499   5
  -2   4   9 311.129 24.9212   4
   1  -4  -9 30.8668 11.9247   5
   1  -4  -9 -3.1897 9.90962   2
  -1   4   9 15.3883 10.9624   4
   0  -4  -9 409.190 23.8894   5
   0  -4  -9 430.665 22.2750   2
   0  -4  -9 349.713 22.9463   3
   0   4   9 372.047 14.9975   6
   0   4   9 363.529 22.0549   4
  -1  -4  -9 415.675 20.4701   3
  -1  -4  -9 468.821 21.7237   2
  -1  -4  -9 411.266 26.6866   5
   1   4   9 431.861 17.6185   6
   1   4   9 434.209 25.6273   2
   1   4   9 446.586 21.7210   4
  -2  -4  -9 235.343 56.0127   1
  -2  -4  -9 247.598 13.8559   3
  -2  -4  -9 237.512 16.2834   2
  -2  -4  -9 234.709 18.5621   5
   2   4   9 106.768 57.6241   1
   2   4   9 201.886 16.9483   4
   2   4   9 205.638 18.3003   2
   2   4   9 239.516 14.0768   6
  -3  -4  -9 759.987 28.5349   5
  -3  -4  -9 835.212 27.9485   2
  -3  -4  -9 767.964 22.3777   3
  -3  -4  -9 683.291 90.1064   1
  -3  -4  -9 779.621 22.4486   3
   3   4   9 785.681 28.9321   2
   3   4   9 774.134 29.1043   4
   3   4   9 835.085 101.930   1
   3   4   9 769.576 26.5397   6
  -4  -4  -9 40.1785 10.2575   5
  -4  -4  -9 40.1659 4.50827   3
  -4  -4  -9 58.4931 9.47147   2
  -4  -4  -9 39.1306 4.63099   3
  -4  -4  -9 82.3683 44.8364   1
   4   4   9 50.3023 8.66262   6
   4   4   9 41.0987 9.11924   4
   4   4   9 42.1366 54.8190   1
   4   4   9 38.6515 10.5112   2
  -5  -4  -9 739.057 28.6906   5
  -5  -4  -9 727.089 85.0688   1
  -5  -4  -9 686.735 28.0989   4
   5   4   9 730.575 28.4140   2
   5   4   9 741.196 26.9305   4
   5   4   9 760.729 27.7856   6
   5   4   9 713.144 98.1732   1
  -6  -4  -9 384.258 21.7838   4
  -6  -4  -9 332.546 32.3896   5
  -6  -4  -9 348.829 64.3591   1
   6   4   9 331.907 23.4143   2
   6   4   9 398.520 66.1244   1
   6   4   9 414.252 19.3080   4
  -7  -4  -9 123.634 13.1802   4
  -7  -4  -9 107.173 13.6062   5
   7   4   9 137.333 15.5088   6
   7   4   9 120.325 13.1441   4
  -8  -4  -9 330.927 19.8591   4
  -8  -4  -9 345.922 20.1759   5
   8   4   9 344.596 22.1220   6
   8   4   9 378.189 17.8895   4
  -9  -4  -9 8.87112 10.8668   5
   9   4   9 2.48497 10.0116   6
   9   4   9 7.23621 7.44614   4
 -10  -4  -9 80.9970 15.7948   5
  10   4   9 98.4315 16.4104   2
  10   4   9 81.9877 15.4715   6
 -11  -4  -9 55.0168 17.8063   5
  11   4   9 32.9602 16.9494   2
  11   4   9 17.6243 15.9888   6
   3  -5  -9 51.8857 20.3425   2
   3  -5  -9 10.1039 19.9039   5
  -3   5   9 44.8879 20.3416   4
   2  -5  -9 39.3498 16.2175   2
   2  -5  -9 15.2436 15.1640   5
   1  -5  -9 87.4390 15.5688   5
   1  -5  -9 66.1558 14.4367   2
  -1   5   9 76.1150 15.1130   4
   0  -5  -9 90.8366 14.0598   2
   0  -5  -9 57.8741 13.4083   5
   0   5   9 78.2015 7.91000   6
   0   5   9 88.3954 14.3444   4
  -1  -5  -9 139.475 15.8552   5
  -1  -5  -9 203.302 20.0970   3
   1   5   9 175.367 13.2696   6
   1   5   9 143.256 15.7712   4
  -2  -5  -9 404.978 71.2985   1
  -2  -5  -9 404.510 21.3263   2
  -2  -5  -9 388.411 18.0576   3
  -2  -5  -9 408.078 26.3314   5
   2   5   9 413.895 22.5929   4
   2   5   9 400.077 18.1786   6
  -3  -5  -9 -0.1833 10.6047   5
  -3  -5  -9 10.5807 8.80398   2
  -3  -5  -9 77.4664 52.9701   1
  -3  -5  -9 -3.8979 5.07136   3
  -3  -5  -9 -0.1160 4.51916   3
   3   5   9 -30.776 57.1138   1
   3   5   9 1.50861 6.58197   6
   3   5   9 8.37125 8.51312   4
  -4  -5  -9 733.035 96.3641   1
  -4  -5  -9 769.929 30.6351   5
  -4  -5  -9 811.837 29.4426   2
   4   5   9 752.952 103.491   1
   4   5   9 822.649 28.0773   6
  -5  -5  -9 28.3974 54.1911   1
  -5  -5  -9 131.705 14.7771   2
   5   5   9 151.202 14.4714   6
   5   5   9 132.695 14.8617   4
   5   5   9 126.743 60.5503   1
  -6  -5  -9 316.137 19.8621   5
   6   5   9 329.745 19.4353   4
   6   5   9 290.729 82.4569   1
   6   5   9 366.815 20.1446   6
  -7  -5  -9 324.540 21.0808   4
  -7  -5  -9 344.933 21.3492   5
   7   5   9 347.663 20.9923   6
   7   5   9 327.807 19.2320   4
  -8  -5  -9 8.63591 9.59715   5
  -8  -5  -9 6.18553 13.2329   4
   8   5   9 -10.589 9.60473   6
   8   5   9 2.09279 8.08415   4
  -9  -5  -9 338.142 23.8689   5
   9   5   9 396.641 25.0222   6
   9   5   9 356.626 18.9785   4
 -10  -5  -9 62.9337 15.7393   5
  10   5   9 87.0132 15.8310   6
 -11  -5  -9 53.2858 17.6687   5
  11   5   9 65.4234 18.3024   6
  11   5   9 93.0499 19.5182   2
   2  -6  -9 16.4013 18.7185   5
   2  -6  -9 2.20825 18.6570   2
  -2   6   9 14.0574 18.5128   4
   1  -6  -9 -7.7378 13.9758   2
   1  -6  -9 -16.939 14.3181   5
  -1   6   9 19.0827 15.5540   4
   0  -6  -9 0.85524 13.1194   5
   0  -6  -9 -7.4692 12.4883   2
   0   6   9 -1.4031 11.9586   4
  -1  -6  -9 12.1843 10.8329   2
  -1  -6  -9 13.7218 12.5773   5
   1   6   9 30.4427 8.55400   6
   1   6   9 14.7399 10.4926   4
  -2  -6  -9 -1.5644 10.3101   5
  -2  -6  -9 5.37245 10.1836   2
   2   6   9 9.79643 7.65552   6
   2   6   9 11.1173 9.09677   4
  -3  -6  -9 68.1794 12.6553   2
  -3  -6  -9 49.3327 11.8096   5
  -3  -6  -9 46.6938 5.68872   3
  -3  -6  -9 71.3683 67.6924   1
   3   6   9 65.2607 11.6060   4
   3   6   9 62.9457 9.80110   6
   3   6   9 11.5033 69.5885   1
  -4  -6  -9 6.65467 8.84942   2
  -4  -6  -9 -0.7316 15.2026   5
   4   6   9 -5.7688 67.7540   1
   4   6   9 2.55734 7.80449   6
   4   6   9 11.8571 8.99683   4
  -5  -6  -9 79.7041 12.3708   2
  -5  -6  -9 87.9346 12.3890   5
   5   6   9 75.5166 13.2849   6
   5   6   9 132.021 15.4971   4
  -6  -6  -9 177.360 17.3738   5
  -6  -6  -9 165.826 17.3233   2
   6   6   9 120.715 16.0433   4
   6   6   9 131.853 15.4701   6
  -7  -6  -9 -3.8904 8.99350   5
   7   6   9 7.05522 8.86940   4
   7   6   9 -6.5351 9.07063   6
  -8  -6  -9 254.992 20.1506   5
   8   6   9 254.927 20.7894   6
   8   6   9 227.545 18.1900   4
  -9  -6  -9 30.5767 12.8660   5
   9   6   9 10.6470 12.3328   6
   9   6   9 34.1528 10.6180   4
 -10  -6  -9 99.7929 16.9600   5
  10   6   9 77.4991 16.4823   6
 -11  -6  -9 74.9767 18.7055   5
  11   6   9 39.0255 17.6039   6
   1  -7  -9 65.4294 21.4312   2
   1  -7  -9 63.8649 19.6549   5
  -1   7   9 63.0583 35.0643   4
   0  -7  -9 29.1434 16.0769   5
   0  -7  -9 35.9972 16.5918   2
   0   7   9 54.0727 17.0564   4
  -1  -7  -9 35.7188 14.6670   2
  -1  -7  -9 29.8754 14.0746   5
   1   7   9 29.1726 13.4651   4
  -2  -7  -9 47.9605 13.5151   5
  -2  -7  -9 39.2599 13.2268   2
   2   7   9 61.8704 13.3139   4
   2   7   9 34.6133 9.89898   6
  -3  -7  -9 -16.446 10.9446   5
  -3  -7  -9 14.1980 11.6672   2
   3   7   9 -2.6278 10.7150   4
   3   7   9 12.6114 8.78343   6
  -4  -7  -9 51.9384 12.1940   5
  -4  -7  -9 -6.0318 10.7640   2
   4   7   9 27.9118 11.1994   4
   4   7   9 21.8133 10.2835   6
  -5  -7  -9 -13.010 9.69173   5
  -5  -7  -9 7.80426 10.8369   2
   5   7   9 20.5164 9.76556   6
   5   7   9 22.2264 10.3888   4
  -6  -7  -9 -12.443 10.5135   2
  -6  -7  -9 2.90323 9.76276   5
   6   7   9 0.61369 9.60737   6
   6   7   9 2.76830 10.0167   4
  -7  -7  -9 -5.0155 9.75532   5
   7   7   9 -11.448 9.11360   4
   7   7   9 8.82038 10.0970   6
  -8  -7  -9 1.06505 11.2006   5
   8   7   9 6.51624 11.4407   6
   8   7   9 2.78884 10.8817   4
  -9  -7  -9 23.9276 12.5234   5
   9   7   9 22.3542 11.9971   4
   9   7   9 31.9239 13.6341   6
 -10  -7  -9 4.94515 14.6232   5
  10   7   9 11.5186 13.8278   6
  10   7   9 11.1793 14.2344   4
 -11  -7  -9 -30.912 17.2722   5
  -1  -8  -9 104.012 20.4092   2
  -1  -8  -9 144.107 18.8970   5
   1   8   9 163.817 21.7639   4
  -2  -8  -9 13.7583 15.2570   2
  -2  -8  -9 8.45538 14.4026   5
   2   8   9 -11.968 14.1473   4
  -3  -8  -9 421.456 28.6724   2
  -3  -8  -9 337.493 25.5608   5
   3   8   9 412.591 27.7615   4
   3   8   9 418.374 23.7914   6
  -4  -8  -9 83.9153 13.6487   5
  -4  -8  -9 120.164 17.2877   2
   4   8   9 74.3589 12.5412   6
   4   8   9 67.6170 15.3002   4
  -5  -8  -9 56.7687 12.6724   5
  -5  -8  -9 68.1942 15.3955   2
   5   8   9 36.0085 11.7808   6
   5   8   9 77.8418 14.1908   4
  -6  -8  -9 162.649 19.0603   5
  -6  -8  -9 115.895 17.2790   2
   6   8   9 154.347 17.1365   4
   6   8   9 121.248 15.2884   6
  -7  -8  -9 -9.5592 12.6123   2
  -7  -8  -9 7.79156 11.6316   5
   7   8   9 5.55969 11.9993   4
   7   8   9 16.4724 11.6212   6
  -8  -8  -9 83.1600 15.0039   5
   8   8   9 101.342 16.5800   6
   8   8   9 100.100 14.7298   4
  -9  -8  -9 -6.1283 13.0452   5
   9   8   9 33.1467 13.3303   4
   9   8   9 48.0273 14.6701   6
 -10  -8  -9 43.9292 16.8146   5
  10   8   9 36.9932 18.0727   6
  10   8   9 49.8463 15.7632   4
  -2  -9  -9 147.395 25.1980   2
  -3  -9  -9 20.3790 18.9245   2
  -3  -9  -9 -3.6996 15.7621   5
   3   9   9 -9.7490 16.4523   4
   3   9   9 1.30382 13.4309   6
  -4  -9  -9 25.4790 13.9275   5
  -4  -9  -9 47.6082 18.6454   2
   4   9   9 41.7609 16.5477   4
   4   9   9 68.1210 14.5285   6
  -5  -9  -9 240.412 23.3661   5
  -5  -9  -9 188.967 21.7602   2
   5   9   9 227.914 22.7558   6
   5   9   9 236.597 25.4542   4
  -6  -9  -9 -26.046 11.6209   5
  -6  -9  -9 11.0175 15.6387   2
   6   9   9 -17.899 14.3190   4
   6   9   9 23.6987 13.1926   6
  -7  -9  -9 290.402 29.3273   2
  -7  -9  -9 276.528 24.7283   5
   7   9   9 290.999 25.2039   6
   7   9   9 313.002 27.2439   4
  -8  -9  -9 59.1045 15.7622   5
   8   9   9 10.4710 14.9924   6
   8   9   9 34.8301 15.4724   4
  -9  -9  -9 80.1472 18.4196   5
   9   9   9 42.2000 17.5099   6
   9   9   9 83.3148 18.2422   4
   5  10   9 16.2965 17.4223   6
  -6 -10  -9 132.859 28.0699   2
   6  10   9 134.481 22.3290   4
   6  10   9 145.781 21.4944   6
   7  10   9 -26.425 16.9349   4
   7  10   9 4.35543 16.6729   6
  -3  -8  10 152.303 20.2395   6
   2   8 -10 5.69100 19.4574   3
  -2  -8  10 22.5528 16.8528   6
   1   8 -10 113.860 20.6767   3
  -1  -8  10 117.627 20.1354   6
   0   8 -10 13.9903 18.0467   3
   0  -8  10 13.8354 17.0347   6
  -1   8 -10 29.8003 19.0007   3
   1  -8  10 4.34567 17.7747   6
   4   7 -10 59.1363 19.6703   5
   3   7 -10 10.5493 17.5953   3
   3   7 -10 18.0646 16.1977   5
  -3  -7  10 -8.2867 14.1185   6
   2   7 -10 143.959 21.0865   3
   2   7 -10 137.008 18.0258   5
  -2  -7  10 142.902 17.9782   6
   1   7 -10 19.6878 12.9739   5
   1   7 -10 56.9329 17.0822   3
  -1  -7  10 19.3011 13.8743   6
   0   7 -10 71.0496 17.5436   3
   0   7 -10 69.2427 13.7386   5
   0  -7  10 38.4974 14.6335   6
  -1   7 -10 130.887 18.8629   3
  -1   7 -10 55.6250 25.2941   5
   1  -7  10 88.1068 17.1493   6
  -2   7 -10 1.50399 14.3094   3
  -2   7 -10 25.3680 23.0371   5
   2  -7  10 -4.6552 14.6319   6
  -3   7 -10 127.723 22.2562   5
  -3   7 -10 119.084 20.4602   3
   3  -7  10 168.468 22.2227   6
  -4   7 -10 -16.342 17.7649   3
   4  -7  10 10.5029 20.7235   6
   4   6 -10 8.03761 16.7454   3
   4   6 -10 36.3115 17.2569   5
   3   6 -10 52.9732 15.4085   5
   3   6 -10 67.9365 17.9712   3
  -3  -6  10 72.1186 14.2538   6
   2   6 -10 5.35688 13.0365   5
   2   6 -10 -6.4372 13.7278   3
  -2  -6  10 -6.3898 11.5788   6
   1   6 -10 101.029 16.8571   3
   1   6 -10 96.1941 14.4713   5
  -1  -6  10 92.9208 15.0497   6
   0   6 -10 147.403 15.7359   5
   0   6 -10 141.906 17.5010   3
   0  -6  10 130.460 16.0501   6
  -1   6 -10 2.51361 11.8699   5
  -1   6 -10 22.0357 12.9157   3
   1  -6  10 4.77941 11.9627   6
  -2   6 -10 180.046 21.3840   3
   2  -6  10 225.417 22.5880   6
  -3   6 -10 21.3352 11.6710   5
  -3   6 -10 -1.1425 13.4770   3
   3  -6  10 5.40816 13.7971   6
  -4   6 -10 54.4462 13.9255   5
  -4   6 -10 25.3632 15.6364   3
   4  -6  10 56.6877 16.4429   6
  -5   6 -10 40.0693 14.6020   5
  -5   6 -10 39.0450 16.8722   3
   5  -6  10 29.7252 17.9811   6
   5   5 -10 5.41963 17.9021   5
   4   5 -10 35.7962 17.9112   3
   4   5 -10 29.0900 15.8397   5
   3   5 -10 -0.5203 13.1037   5
   3   5 -10 17.8845 14.5691   3
  -3  -5  10 0.61296 10.9259   6
   2   5 -10 4.67806 12.0245   5
   2   5 -10 -23.790 12.4620   3
   1   5 -10 9.32319 11.9899   3
   1   5 -10 5.48368 11.2779   5
  -1  -5  10 10.1780 9.92704   6
   0   5 -10 3.49632 10.2606   5
   0   5 -10 -1.9932 11.7545   3
   0  -5  10 12.5752 10.1648   6
  -1   5 -10 34.8290 12.7829   3
  -1   5 -10 36.5930 13.1425   5
   1  -5  10 10.1091 10.0371   6
  -2   5 -10 22.3783 10.7889   3
   2  -5  10 3.07641 10.8453   6
  -3   5 -10 30.5286 12.1695   3
  -3   5 -10 11.9644 12.9356   5
   3  -5  10 13.5523 11.2969   6
  -4   5 -10 122.922 14.7576   5
  -4   5 -10 144.513 17.4526   3
   4  -5  10 114.438 17.0193   6
  -5   5 -10 11.5484 13.8411   3
  -5   5 -10 -3.2003 11.0927   5
   5  -5  10 2.02045 13.8338   6
  -6   5 -10 38.8342 14.5843   5
  -6   5 -10 45.0617 17.2521   3
   6  -5  10 64.5438 17.3188   6
  -7   5 -10 19.9060 18.7429   3
  -7   5 -10 5.41230 15.6498   5
   5   4 -10 81.3139 19.8022   3
   5   4 -10 58.2471 19.1709   5
  -5  -4  10 50.2117 19.6898   4
   4   4 -10 -3.2753 14.7082   5
   4   4 -10 0.91336 14.9962   3
  -4  -4  10 -8.8625 14.3633   4
   3   4 -10 140.960 17.6247   5
   3   4 -10 142.777 18.0222   3
  -3  -4  10 141.975 15.5918   6
  -3  -4  10 118.389 18.0148   4
   2   4 -10 33.3233 12.5955   5
   2   4 -10 49.5833 12.6143   3
  -2  -4  10 71.3319 14.8600   4
  -2  -4  10 44.1265 10.1071   6
   1   4 -10 82.5946 13.7964   5
   1   4 -10 73.2334 13.9092   3
  -1  -4  10 78.9314 12.0022   6
  -1  -4  10 79.2467 14.1537   4
   0   4 -10 54.1981 12.8066   3
   0   4 -10 45.8886 11.6468   5
   0  -4  10 69.8800 11.3685   6
   0  -4  10 60.8263 12.6168   4
  -1   4 -10 29.2135 11.3277   3
  -1   4 -10 6.22756 16.1212   5
   1  -4  10 16.6242 9.92934   6
   1  -4  10 4.54741 9.26847   4
  -2   4 -10 82.8771 12.8832   3
   2  -4  10 72.7199 12.8489   6
  -3   4 -10 -4.7775 10.1738   3
  -3   4 -10 9.55943 15.7281   5
   3  -4  10 14.0817 10.7264   6
  -4   4 -10 31.8818 10.8029   5
  -4   4 -10 22.8945 11.7185   3
   4  -4  10 22.6481 11.6799   6
  -5   4 -10 -8.1059 11.2389   3
  -5   4 -10 -11.121 10.0284   5
   5  -4  10 -5.9896 10.9589   6
  -6   4 -10 22.3361 12.0160   5
  -6   4 -10 40.2174 14.1903   3
   6  -4  10 29.0627 13.9420   6
  -7   4 -10 29.2725 15.0816   3
  -7   4 -10 -4.4681 13.2192   5
   7  -4  10 -5.3005 15.1872   6
  -8   4 -10 35.1653 19.3568   3
  -8   4 -10 20.2332 17.9120   5
   5   3 -10 28.5499 18.0503   5
  -5  -3  10 8.35291 18.0239   4
   4   3 -10 367.999 29.1999   3
   4   3 -10 364.511 27.6721   5
  -4  -3  10 360.709 28.1631   4
   3   3 -10 33.8707 12.8859   5
   3   3 -10 31.8421 14.0506   3
  -3  -3  10 31.7051 13.4697   4
   2   3 -10 400.071 25.8023   5
   2   3 -10 397.725 24.7027   3
  -2  -3  10 372.242 18.8784   6
  -2  -3  10 421.368 25.9363   4
   1   3 -10 314.770 21.9369   5
   1   3 -10 338.708 21.8254   3
   1   3 -10 321.292 21.0536   6
  -1  -3  10 327.519 22.2632   4
  -1  -3  10 278.607 17.6521   6
   0   3 -10 107.534 13.9442   3
   0   3 -10 101.973 13.7361   5
   0   3 -10 85.5031 13.5287   6
   0  -3  10 105.021 11.7277   6
   0  -3  10 119.124 14.3626   4
  -1   3 -10 433.177 34.9914   5
  -1   3 -10 505.159 24.6469   3
   1  -3  10 509.998 24.9923   4
   1  -3  10 504.433 22.9310   6
  -3   3 -10 224.368 27.8198   3
   3  -3  10 224.003 17.2992   4
   3  -3  10 274.270 20.3263   6
  -4   3 -10 73.2967 12.4787   5
  -4   3 -10 59.7241 12.1698   3
   4  -3  10 62.4688 12.0640   6
  -5   3 -10 32.3793 18.1587   4
  -5   3 -10 62.4505 12.3373   5
  -5   3 -10 75.3884 12.8520   3
   5  -3  10 75.5841 13.7928   6
   5  -3  10 57.5230 7.33425   2
  -6   3 -10 96.2084 14.6148   3
  -6   3 -10 78.9960 13.8991   5
   6  -3  10 59.1287 9.64619   2
   6  -3  10 104.054 15.3287   6
  -7   3 -10 -14.289 11.5862   5
  -7   3 -10 9.30722 13.2418   3
   7  -3  10 20.7635 11.0812   2
   7  -3  10 11.1330 13.7925   6
  -8   3 -10 36.4937 15.5463   3
  -8   3 -10 41.4231 15.8643   5
   8  -3  10 62.2345 25.9015   2
   8  -3  10 66.3654 18.5789   6
   5   2 -10 111.657 22.2354   5
  -5  -2  10 137.898 22.3037   4
   4   2 -10 -11.449 14.6709   5
  -4  -2  10 -17.742 13.5377   4
   3   2 -10 312.711 23.6634   3
   3   2 -10 305.818 25.0218   5
  -3  -2  10 292.264 24.2526   4
   2   2 -10 183.442 18.9473   3
   2   2 -10 225.079 20.3208   5
  -2  -2  10 196.348 13.7123   6
  -2  -2  10 181.819 19.9874   4
   1   2 -10 189.825 16.7873   6
   1   2 -10 193.827 19.8258   5
   1   2 -10 208.037 18.3468   3
  -1  -2  10 178.349 18.3214   4
  -1  -2  10 203.479 15.0504   6
   0   2 -10 606.968 27.7254   5
   0   2 -10 605.580 25.1921   6
   0  -2  10 611.481 27.4897   4
   0  -2  10 591.015 23.5469   6
  -1   2 -10 -0.3102 9.75001   5
  -1   2 -10 -12.688 10.3518   6
  -1   2 -10 -2.5111 7.62791   3
   1  -2  10 6.83252 7.41439   6
   1  -2  10 4.03160 7.86071   4
  -2   2 -10 698.912 27.9059   3
   2  -2  10 717.341 28.1641   6
   2  -2  10 721.962 31.4289   4
  -3   2 -10 165.997 16.9384   3
   3  -2  10 164.590 15.4734   4
   3  -2  10 154.102 18.0517   6
  -4   2 -10 189.886 17.0952   5
  -4   2 -10 231.346 17.0149   3
  -4   2 -10 160.596 16.7198   4
   4  -2  10 192.733 16.7397   4
   4  -2  10 189.727 8.93838   2
   4  -2  10 173.180 17.4140   6
  -5   2 -10 256.108 19.0168   3
  -5   2 -10 212.249 18.2735   5
  -5   2 -10 187.986 17.8042   4
   5  -2  10 192.840 19.2019   6
   5  -2  10 237.223 12.5120   2
  -6   2 -10 3.40318 9.77069   5
  -6   2 -10 15.2130 10.0981   3
   6  -2  10 22.3645 11.3416   6
   6  -2  10 4.03738 7.67739   2
  -7   2 -10 154.439 16.7964   5
  -7   2 -10 145.469 15.7320   3
   7  -2  10 200.851 21.9959   6
   7  -2  10 102.917 12.7069   2
  -8   2 -10 12.4757 13.0185   5
  -8   2 -10 39.0547 13.1749   3
   8  -2  10 -6.4129 13.6281   2
   8  -2  10 3.73614 14.7896   6
  -9   2 -10 54.3448 17.7018   3
  -9   2 -10 58.8538 17.6118   5
   9  -2  10 28.7044 19.0443   6
   9  -2  10 56.3538 16.9616   2
  -5  -1  10 -22.916 18.0540   4
   4   1 -10 5.95566 15.7333   5
  -4  -1  10 21.8600 14.7865   4
   3   1 -10 48.3824 14.5445   5
  -3  -1  10 45.9718 14.2810   4
   2   1 -10 64.2326 7.23989   2
   2   1 -10 80.3228 14.8238   5
  -2  -1  10 109.192 15.0850   4
  -2  -1  10 68.0396 6.78902   6
   1   1 -10 234.811 18.5390   3
   1   1 -10 241.179 20.7383   5
   1   1 -10 223.286 15.8162   6
  -1  -1  10 240.418 14.0898   6
  -1  -1  10 247.927 19.9843   4
   0   1 -10 26.1983 9.86187   6
   0   1 -10 29.5232 11.1684   5
   0   1 -10 43.0474 10.2888   3
   0  -1  10 19.1383 7.06023   6
   0  -1  10 28.2604 10.0948   4
  -1   1 -10 422.930 23.0456   5
  -1   1 -10 435.996 21.1571   3
  -1   1 -10 400.908 20.8386   6
   1  -1  10 398.977 22.2011   4
   1  -1  10 398.589 19.3405   6
  -2   1 -10 152.136 14.3373   3
  -2   1 -10 122.545 13.1629   6
   2  -1  10 144.211 13.5946   6
   2  -1  10 157.106 14.9553   4
  -3   1 -10 203.544 17.7620   3
   3  -1  10 214.126 16.0524   4
   3  -1  10 192.137 16.1549   6
   3  -1  10 193.074 7.70723   2
  -4   1 -10 447.031 23.8025   5
  -4   1 -10 481.628 22.2688   3
  -4   1 -10 519.731 77.9176   1
  -4   1 -10 497.756 24.6375   4
   4  -1  10 488.148 16.2132   2
   4  -1  10 507.491 22.0843   4
   4  -1  10 497.635 15.5308   2
  -5   1 -10 9.65482 8.25914   3
  -5   1 -10 18.5681 12.1939   4
  -5   1 -10 32.3156 62.2399   1
  -5   1 -10 13.1986 9.27675   5
   5  -1  10 -7.1968 7.82101   4
   5  -1  10 -13.899 8.45560   6
   5  -1  10 -2.6967 5.69461   2
  -6   1 -10 555.095 26.3314   4
  -6   1 -10 628.001 27.4911   5
  -6   1 -10 647.382 26.1413   3
   6  -1  10 622.316 28.8333   6
   6  -1  10 608.978 23.5872   4
   6  -1  10 704.165 33.2122   2
   6  -1  10 566.825 22.5213   2
  -7   1 -10 21.7007 10.9287   5
  -7   1 -10 8.59016 9.79463   3
   7  -1  10 13.0637 9.11820   2
   7  -1  10 -3.0925 11.3673   6
  -8   1 -10 93.7039 13.9153   3
  -8   1 -10 79.8503 15.2825   5
   8  -1  10 49.7345 14.4911   6
   8  -1  10 82.1364 20.2138   2
  -9   1 -10 66.8075 15.2385   3
  -9   1 -10 63.3839 16.2169   5
   9  -1  10 65.0292 18.0718   6
   9  -1  10 44.2052 15.2646   2
 -10   1 -10 11.9968 18.8949   5
 -10   1 -10 -14.459 16.1116   3
  10  -1  10 -11.893 17.4128   2
   4   0 -10 -28.595 15.8803   5
  -4   0  10 10.7047 15.8906   4
   3   0 -10 -9.0391 8.64395   2
   3   0 -10 10.8016 14.1913   5
  -3   0  10 -25.517 11.7343   4
   2   0 -10 12.7477 12.2807   5
   2   0 -10 19.0894 7.30113   2
  -2   0  10 27.1890 12.0411   4
   1   0 -10 -1.5295 5.27601   2
   1   0 -10 -13.872 9.97017   5
  -1   0  10 3.83198 5.52924   6
  -1   0  10 -17.820 8.97786   4
   0   0 -10 32.0783 8.82614   6
   0   0 -10 9.18273 10.7449   5
   0   0 -10 19.3977 4.61757   2
   0   0 -10 21.5806 8.62748   3
   0   0  10 18.9459 10.0077   4
   0   0  10 14.4982 6.66108   6
   0   0  10 15.3595 5.69684   2
  -1   0 -10 24.4257 11.9944   3
  -1   0 -10 -6.2083 8.96753   6
  -1   0 -10 15.1459 10.5515   5
  -1   0 -10 11.8144 8.52526   3
   1   0  10 12.3073 6.99259   6
   1   0  10 21.4320 5.02415   2
   1   0  10 13.5119 8.70877   4
  -2   0 -10 30.3299 11.8676   5
  -2   0 -10 23.9799 10.1198   3
  -2   0 -10 46.0466 8.67953   3
  -2   0 -10 27.1541 9.48063   6
   2   0  10 28.7005 7.72164   6
   2   0  10 32.3178 5.45036   2
   2   0  10 24.2931 8.96354   4
  -3   0 -10 57.6954 8.98704   3
  -3   0 -10 49.4061 11.7463   6
   3   0  10 42.3115 9.22331   6
   3   0  10 69.2766 7.01341   2
   3   0  10 59.7794 10.0082   4
  -4   0 -10 6.56736 7.16927   3
  -4   0 -10 5.49027 11.3589   4
  -4   0 -10 39.7369 51.8763   1
  -4   0 -10 12.3768 7.42847   5
   4   0  10 35.9037 61.0832   1
   4   0  10 0.40360 6.14756   2
   4   0  10 -0.3417 7.57607   4
   4   0  10 -0.8915 7.64216   6
  -5   0 -10 131.328 14.6893   4
  -5   0 -10 118.277 13.0686   3
  -5   0 -10 150.619 15.8580   5
  -5   0 -10 66.9704 56.1601   1
   5   0  10 113.522 13.6611   6
   5   0  10 142.207 11.3414   2
   5   0  10 120.664 14.0495   4
   5   0  10 148.309 13.8090   2
   5   0  10 97.8083 68.6544   1
  -6   0 -10 14.2845 60.0673   1
  -6   0 -10 39.6485 8.57346   3
  -6   0 -10 55.2191 11.2939   4
  -6   0 -10 40.4924 11.0401   5
   6   0  10 -42.016 69.0454   1
   6   0  10 63.3700 12.1634   6
   6   0  10 39.4779 8.31238   2
   6   0  10 34.4976 10.2429   2
   6   0  10 30.1256 8.21898   4
  -7   0 -10 14.6022 8.95534   3
  -7   0 -10 16.6337 10.7950   5
   7   0  10 25.7286 8.17341   4
   7   0  10 25.1310 9.22530   2
   7   0  10 17.8307 21.6356   2
   7   0  10 12.3673 10.8941   6
   7   0  10 -8.3249 109.008   1
  -8   0 -10 148.920 16.6088   3
  -8   0 -10 145.327 16.7925   5
   8   0  10 172.689 19.1879   2
   8   0  10 150.985 17.2257   6
  -9   0 -10 -23.167 10.9228   3
  -9   0 -10 -19.247 12.8083   5
   9   0  10 9.27490 13.5950   2
   9   0  10 -11.478 13.2354   6
 -10   0 -10 67.2969 16.9189   3
 -10   0 -10 96.2898 20.2229   5
  10   0  10 71.8532 20.0147   6
  10   0  10 60.4512 18.6216   2
   4  -1 -10 160.574 22.2180   5
  -4   1  10 112.163 21.0602   4
   3  -1 -10 97.6751 17.2828   5
   3  -1 -10 75.8185 12.9570   2
  -3   1  10 116.574 18.0062   4
   2  -1 -10 98.0201 16.4381   5
   2  -1 -10 80.3081 10.7825   2
  -2   1  10 93.6016 14.6937   4
   1  -1 -10 286.883 22.1066   5
   1  -1 -10 236.652 14.8119   2
  -1   1  10 253.476 11.3073   6
  -1   1  10 236.286 20.4453   4
   0  -1 -10 -2.5627 5.60019   2
   0  -1 -10 -6.9796 10.5774   5
   0  -1 -10 22.9939 8.42274   3
   0   1  10 1.94481 6.01987   6
   0   1  10 5.78082 9.40507   4
   0   1  10 -0.8790 7.99105   2
  -1  -1 -10 148.871 16.9095   5
  -1  -1 -10 177.512 15.0187   6
  -1  -1 -10 137.149 14.0879   3
  -1  -1 -10 141.087 10.7461   2
  -1  -1 -10 153.238 14.6675   3
   1   1  10 148.408 16.0433   4
   1   1  10 128.277 12.2999   6
  -2  -1 -10 47.9042 11.2882   5
  -2  -1 -10 70.9457 8.98411   3
  -2  -1 -10 73.7856 11.3087   3
  -2  -1 -10 78.1888 10.9992   6
   2   1  10 42.1863 8.14146   6
  -3  -1 -10 34.0550 10.3387   6
  -3  -1 -10 33.3391 8.00251   3
  -3  -1 -10 28.6490 11.9943   5
  -3  -1 -10 24.2984 8.75365   3
  -3  -1 -10 61.2655 50.6833   1
   3   1  10 36.1938 8.42165   6
   3   1  10 -6.9017 62.9278   1
   3   1  10 35.5139 8.87507   4
  -4  -1 -10 46.2833 7.95392   3
  -4  -1 -10 34.7844 12.1297   4
  -4  -1 -10 39.1195 51.4982   1
  -4  -1 -10 65.1455 10.9375   5
   4   1  10 58.0585 8.45267   2
   4   1  10 50.2962 9.80541   4
   4   1  10 49.5214 9.45235   6
   4   1  10 60.7746 55.3653   1
  -5  -1 -10 7.76347 8.98711   5
  -5  -1 -10 19.0108 52.7756   1
  -5  -1 -10 3.96084 11.1849   4
  -5  -1 -10 2.45982 6.41200   3
   5   1  10 48.7869 61.0662   1
   5   1  10 10.5193 8.36739   2
   5   1  10 -0.9347 6.85933   4
  -6  -1 -10 -0.9233 6.45430   3
  -6  -1 -10 20.1700 10.5520   4
  -6  -1 -10 -35.341 55.0043   1
  -6  -1 -10 9.16755 9.64155   5
   6   1  10 14.4536 7.76149   4
   6   1  10 102.972 67.3230   1
   6   1  10 -2.2396 9.82498   2
   6   1  10 12.0240 9.40528   6
  -7  -1 -10 10.9101 9.60353   5
  -7  -1 -10 10.5701 7.46944   3
  -7  -1 -10 16.5897 15.2269   4
   7   1  10 -47.428 76.3428   1
   7   1  10 2.12149 12.0622   2
   7   1  10 8.92362 7.80726   4
   7   1  10 7.34769 10.1682   6
   7   1  10 13.2886 8.74379   2
  -8  -1 -10 -9.0506 10.9433   5
  -8  -1 -10 -8.7712 8.08890   3
   8   1  10 12.4429 7.39858   4
   8   1  10 -3.2762 10.8221   6
   8   1  10 -4.3451 10.8617   2
  -9  -1 -10 25.7920 10.4380   3
  -9  -1 -10 3.94852 11.8531   5
   9   1  10 15.4581 12.6614   6
   9   1  10 18.8491 12.7336   2
 -10  -1 -10 27.7041 17.2426   5
  10   1  10 29.9679 16.1056   2
  10   1  10 22.4864 16.2798   6
   4  -2 -10 83.3729 27.3168   2
  -4   2  10 26.9630 20.8262   4
   3  -2 -10 104.670 15.8832   2
   3  -2 -10 130.580 20.7171   5
  -3   2  10 101.172 18.4379   4
   2  -2 -10 363.941 21.6812   2
   2  -2 -10 310.966 26.1371   5
  -2   2  10 312.597 24.6609   4
   1  -2 -10 11.3846 8.70367   2
   1  -2 -10 -12.264 11.7643   5
  -1   2  10 -17.053 9.48203   4
   0  -2 -10 642.066 23.6175   2
   0  -2 -10 630.389 30.8785   5
   0   2  10 709.819 29.7036   4
   0   2  10 623.281 20.8797   6
   0   2  10 659.650 26.9262   2
  -1  -2 -10 197.098 18.4267   3
  -1  -2 -10 192.508 13.5486   2
  -1  -2 -10 195.230 15.3034   3
  -1  -2 -10 170.691 16.4116   5
   1   2  10 200.790 13.6249   6
   1   2  10 181.551 17.5177   4
   1   2  10 204.446 16.7516   2
  -2  -2 -10 250.488 13.7469   2
  -2  -2 -10 238.612 16.5514   3
  -2  -2 -10 237.853 14.8506   3
  -2  -2 -10 214.917 19.0296   5
   2   2  10 217.863 16.0106   2
   2   2  10 232.139 17.5961   4
   2   2  10 230.028 14.9928   6
  -3  -2 -10 684.906 27.7600   6
  -3  -2 -10 750.131 28.9038   5
  -3  -2 -10 768.199 24.7931   3
  -3  -2 -10 688.707 89.2260   1
  -3  -2 -10 780.375 25.8338   3
   3   2  10 765.818 29.3126   4
   3   2  10 542.725 82.1931   1
   3   2  10 736.894 27.0119   6
   3   2  10 763.632 25.8907   2
  -4  -2 -10 7.37235 7.53063   3
  -4  -2 -10 -26.699 50.5411   1
  -4  -2 -10 4.43328 6.25238   3
  -4  -2 -10 -10.653 8.52249   5
   4   2  10 -19.746 54.9648   1
   4   2  10 -5.5262 6.90255   6
   4   2  10 -5.5215 8.15591   2
   4   2  10 -9.4976 7.10440   4
  -5  -2 -10 455.972 24.0418   4
  -5  -2 -10 505.196 18.2326   3
  -5  -2 -10 493.931 19.2047   3
  -5  -2 -10 439.740 67.7375   1
  -5  -2 -10 485.849 24.1352   5
   5   2  10 509.105 23.6900   6
   5   2  10 511.635 21.9275   4
   5   2  10 516.699 22.4762   2
   5   2  10 591.554 81.0870   1
  -6  -2 -10 17.2102 6.09597   3
  -6  -2 -10 4.58170 9.25580   5
  -6  -2 -10 -53.955 56.5475   1
  -6  -2 -10 44.1939 11.2246   4
   6   2  10 1.46209 62.7149   1
   6   2  10 16.5166 9.36632   6
   6   2  10 19.3558 8.17312   4
   6   2  10 -2.4201 10.4603   2
  -7  -2 -10 120.966 14.7554   5
  -7  -2 -10 106.350 13.2342   4
  -7  -2 -10 121.048 11.3074   3
   7   2  10 144.582 16.2271   6
   7   2  10 118.104 13.5676   4
   7   2  10 70.2467 15.6050   2
  -8  -2 -10 81.2005 13.9660   5
  -8  -2 -10 71.1941 8.74842   3
   8   2  10 91.4571 14.0179   6
   8   2  10 68.6392 9.52958   4
  -9  -2 -10 31.3040 10.0561   3
  -9  -2 -10 25.6379 12.4818   5
   9   2  10 28.0264 13.5996   6
   9   2  10 26.2732 12.7618   2
 -10  -2 -10 26.4041 16.2756   5
  10   2  10 38.8360 15.4596   2
  10   2  10 27.9753 16.4789   6
  11   2  10 -14.136 18.8957   2
   3  -3 -10 36.2003 16.6522   2
   3  -3 -10 66.4991 19.4114   5
  -3   3  10 41.4447 18.2382   4
   2  -3 -10 48.1410 16.0814   5
   2  -3 -10 11.1911 12.9748   2
  -2   3  10 9.61623 14.2702   4
   1  -3 -10 322.949 21.0732   2
   1  -3 -10 332.039 25.1848   5
  -1   3  10 349.578 24.2292   4
   0  -3 -10 67.3965 11.1842   2
   0  -3 -10 51.3920 14.1895   5
   0   3  10 59.1803 11.3154   4
   0   3  10 66.2898 7.63845   6
  -1  -3 -10 388.252 22.0243   3
  -1  -3 -10 412.359 19.7140   2
  -1  -3 -10 365.797 24.2480   5
   1   3  10 392.895 17.5120   6
   1   3  10 338.909 22.5228   2
   1   3  10 366.573 22.6085   4
  -2  -3 -10 451.333 19.8139   3
  -2  -3 -10 495.960 25.3602   5
  -2  -3 -10 484.939 21.5454   3
  -2  -3 -10 479.176 20.6388   2
   2   3  10 455.407 23.2548   2
   2   3  10 468.564 20.4173   6
   2   3  10 487.213 24.3162   4
  -3  -3 -10 103.437 12.4580   5
  -3  -3 -10 95.1166 56.5730   1
  -3  -3 -10 121.215 13.0377   2
  -3  -3 -10 103.325 11.2461   3
  -3  -3 -10 90.4472 9.68361   3
   3   3  10 78.4242 11.9930   4
   3   3  10 87.7347 10.9098   6
   3   3  10 104.058 12.7060   2
  -4  -3 -10 751.855 95.9765   1
  -4  -3 -10 782.139 23.2052   3
  -4  -3 -10 749.599 24.3589   3
  -4  -3 -10 816.015 31.5346   5
   4   3  10 734.406 27.7152   6
   4   3  10 691.879 89.4681   1
   4   3  10 724.284 28.4650   2
   4   3  10 825.852 30.4601   4
  -5  -3 -10 67.3349 12.2011   5
  -5  -3 -10 67.5283 55.3498   1
  -5  -3 -10 64.9246 6.97632   3
  -5  -3 -10 49.2450 5.85823   3
   5   3  10 8.18490 62.0361   1
   5   3  10 65.8891 10.4375   4
   5   3  10 50.2381 11.8988   2
   5   3  10 52.4410 11.9446   6
  -6  -3 -10 241.643 11.7157   3
  -6  -3 -10 269.293 10.7558   3
  -6  -3 -10 226.720 19.7924   4
  -6  -3 -10 251.433 19.7484   5
  -6  -3 -10 270.361 70.9556   1
   6   3  10 120.704 70.0733   1
   6   3  10 258.154 22.7410   2
   6   3  10 264.847 18.7008   6
   6   3  10 282.640 17.9900   4
  -7  -3 -10 329.605 22.3190   4
  -7  -3 -10 340.357 12.2312   3
  -7  -3 -10 379.841 23.0689   5
   7   3  10 357.912 22.4235   6
   7   3  10 339.921 18.6653   4
  -8  -3 -10 52.0801 12.6246   5
   8   3  10 34.7841 9.45992   4
   8   3  10 67.0806 12.5367   6
  -9  -3 -10 117.676 17.6226   5
   9   3  10 116.900 15.7418   2
   9   3  10 141.946 13.9415   4
   9   3  10 145.951 17.3249   6
 -10  -3 -10 36.3381 15.9186   5
  10   3  10 -6.5401 13.5311   6
  10   3  10 15.7770 14.4894   2
  11   3  10 38.8846 19.5383   2
   2  -4 -10 60.8246 16.9084   2
   2  -4 -10 84.5765 18.6659   5
  -2   4  10 72.7810 17.9675   4
   1  -4 -10 9.44684 12.6714   2
   1  -4 -10 -3.1774 14.6345   5
  -1   4  10 3.05271 13.8827   4
   0  -4 -10 157.936 18.6442   2
   0  -4 -10 175.904 19.2146   5
   0   4  10 163.446 18.1919   4
  -1  -4 -10 93.2913 12.4276   2
  -1  -4 -10 109.724 15.3196   5
   1   4  10 80.8068 9.53918   6
   1   4  10 97.7584 14.2968   4
  -2  -4 -10 63.5036 10.5111   2
  -2  -4 -10 61.9482 8.86449   3
  -2  -4 -10 91.6094 14.2907   5
   2   4  10 60.2526 9.22402   6
   2   4  10 96.7903 13.4135   4
   2   4  10 17.3349 23.5755   2
  -3  -4 -10 477.148 78.0374   1
  -3  -4 -10 493.744 22.3826   2
  -3  -4 -10 494.888 18.3158   3
  -3  -4 -10 490.242 25.4352   5
   3   4  10 466.130 21.5905   6
   3   4  10 451.090 26.6329   2
   3   4  10 483.138 24.3456   4
  -4  -4 -10 2.72536 4.65433   3
  -4  -4 -10 4.35740 5.54248   3
  -4  -4 -10 52.3801 60.0655   1
  -4  -4 -10 -2.7267 7.83913   2
  -4  -4 -10 8.24893 10.1570   5
   4   4  10 -1.8668 8.20794   6
   4   4  10 17.4111 13.0657   2
   4   4  10 -7.3964 8.15992   4
   4   4  10 -108.70 63.7437   1
  -5  -4 -10 370.439 22.7619   5
  -5  -4 -10 361.397 10.1154   3
  -5  -4 -10 390.671 71.6621   1
   5   4  10 375.593 26.7694   2
   5   4  10 179.132 72.5129   1
  -6  -4 -10 239.524 18.8954   5
   6   4  10 97.6720 99.2310   1
   6   4  10 208.994 16.8154   4
   6   4  10 245.737 18.3403   6
  -7  -4 -10 136.974 26.2028   4
  -7  -4 -10 146.215 16.1831   5
   7   4  10 128.229 14.3069   6
   7   4  10 138.544 15.8138   4
  -8  -4 -10 338.155 23.9322   5
   8   4  10 322.655 19.6210   4
   8   4  10 310.979 23.1127   6
  -9  -4 -10 22.7445 11.0981   5
   9   4  10 10.1931 12.7448   6
   9   4  10 1.01233 9.15401   4
 -10  -4 -10 151.179 19.9516   5
  10   4  10 208.483 24.7461   2
  10   4  10 162.044 20.0781   6
  11   4  10 59.3693 19.8661   2
  11   4  10 28.0855 21.4955   6
   2  -5 -10 -9.6251 17.4614   2
   2  -5 -10 -11.135 19.5912   5
   1  -5 -10 2.61164 15.3563   2
   1  -5 -10 24.4208 16.4900   5
  -1   5  10 32.2114 16.1322   4
   0  -5 -10 10.1781 14.2342   5
   0  -5 -10 -3.1370 13.1274   2
   0   5  10 -2.1818 12.5667   4
  -1  -5 -10 3.11958 12.6275   5
  -1  -5 -10 -10.590 10.3360   2
   1   5  10 9.02628 8.05938   6
   1   5  10 30.6793 12.4084   4
  -2  -5 -10 -18.592 10.7714   5
  -2  -5 -10 16.3719 9.99619   2
   2   5  10 18.6866 8.55278   6
   2   5  10 2.27848 10.0004   4
  -3  -5 -10 -11.010 10.0160   5
  -3  -5 -10 4.15446 5.78520   3
   3   5  10 9.70055 10.0596   4
   3   5  10 5.77614 8.59213   6
  -4  -5 -10 128.533 90.2575   1
  -4  -5 -10 91.1733 18.8831   2
  -4  -5 -10 61.2805 12.6440   5
   4   5  10 45.4603 80.1773   1
   4   5  10 35.4344 10.6146   6
   4   5  10 49.2611 10.5637   4
  -5  -5 -10 27.3771 10.4787   5
   5   5  10 14.5766 9.56206   6
   5   5  10 34.7453 10.4495   4
  -6  -5 -10 43.2224 11.8346   5
   6   5  10 33.5613 10.4164   6
   6   5  10 22.0293 9.88890   4
  -7  -5 -10 125.408 15.3979   5
   7   5  10 128.338 14.4239   6
  -8  -5 -10 6.12573 11.8487   5
   8   5  10 15.5863 11.2593   6
   8   5  10 -6.5444 9.60510   4
  -9  -5 -10 100.660 15.6323   5
   9   5  10 95.9306 12.5787   4
   9   5  10 101.590 16.2419   6
 -10  -5 -10 -16.927 13.5016   5
  10   5  10 11.1647 15.1183   6
 -11  -5 -10 35.6046 22.0268   5
  11   5  10 25.4345 19.4438   2
   1  -6 -10 15.7121 20.7316   5
   1  -6 -10 24.5180 18.5160   2
   0  -6 -10 90.8502 18.6327   5
   0  -6 -10 81.3802 18.3880   2
   0   6  10 59.1814 17.9729   4
  -1  -6 -10 95.1209 17.2463   5
  -1  -6 -10 107.547 17.1665   2
   1   6  10 72.9614 16.7544   4
  -2  -6 -10 14.0117 12.5611   2
  -2  -6 -10 30.3357 13.7939   5
   2   6  10 9.66368 10.1211   6
   2   6  10 5.79989 12.8205   4
  -3  -6 -10 84.6957 14.6683   5
  -3  -6 -10 80.0564 13.8100   2
   3   6  10 95.1510 14.9187   4
   3   6  10 97.0319 12.8119   6
  -4  -6 -10 4.14910 10.4167   2
  -4  -6 -10 1.79937 11.0741   5
   4   6  10 16.2666 10.1330   6
   4   6  10 23.1277 11.2417   4
  -5  -6 -10 25.3397 11.5041   5
  -5  -6 -10 53.1386 12.0829   2
   5   6  10 42.2643 11.9108   4
   5   6  10 46.6954 10.7980   6
  -6  -6 -10 1.30691 11.2979   5
   6   6  10 19.6231 10.8800   4
   6   6  10 -0.1230 9.68630   6
  -7  -6 -10 11.4298 11.3442   5
   7   6  10 8.23837 10.8069   4
   7   6  10 -11.286 9.99849   6
  -8  -6 -10 10.4685 12.4427   5
   8   6  10 4.37656 11.6261   6
   8   6  10 10.6326 10.4431   4
  -9  -6 -10 15.6474 12.5862   5
   9   6  10 -11.984 13.3802   6
 -10  -6 -10 17.6563 15.5481   5
  10   6  10 4.55484 15.9295   6
  -1  -7 -10 14.0232 16.7990   5
  -1  -7 -10 35.1675 17.5038   2
   1   7  10 59.2765 18.7985   4
  -2  -7 -10 336.222 27.5229   2
  -2  -7 -10 322.676 26.8435   5
   2   7  10 333.645 28.5029   4
  -3  -7 -10 17.2904 13.8101   2
  -3  -7 -10 1.55421 14.1947   5
   3   7  10 5.70513 11.1896   6
   3   7  10 -18.030 12.7766   4
  -4  -7 -10 157.108 17.8831   5
  -4  -7 -10 191.848 22.1753   2
   4   7  10 228.253 23.7028   4
   4   7  10 207.668 20.1736   6
  -5  -7 -10 119.001 16.0910   5
  -5  -7 -10 146.790 17.6926   2
   5   7  10 141.029 16.8658   4
   5   7  10 146.756 15.8721   6
  -6  -7 -10 31.8187 13.0668   5
  -6  -7 -10 13.9538 12.7177   2
   6   7  10 10.2121 11.4649   6
   6   7  10 8.08060 11.6288   4
  -7  -7 -10 229.300 21.9554   5
   7   7  10 198.743 22.6955   6
   7   7  10 210.638 22.5633   4
  -8  -7 -10 4.88225 13.2516   5
   8   7  10 5.26359 12.6188   4
   8   7  10 14.0589 13.3101   6
  -9  -7 -10 116.443 18.4445   5
   9   7  10 138.629 19.6558   6
   9   7  10 139.993 16.4800   4
 -10  -7 -10 27.4897 17.7841   5
  10   7  10 -12.762 16.9969   6
  -2  -8 -10 14.9552 19.3579   2
  -2  -8 -10 -40.215 16.5444   5
  -3  -8 -10 149.392 19.1866   5
  -3  -8 -10 150.308 21.6557   2
   3   8  10 88.9158 15.6332   6
   3   8  10 120.300 19.1649   4
  -4  -8 -10 151.830 20.3838   2
  -4  -8 -10 97.9318 18.2496   5
   4   8  10 126.114 18.9430   4
   4   8  10 116.321 16.4529   6
  -5  -8 -10 75.9425 16.9108   5
  -5  -8 -10 103.587 18.8258   2
   5   8  10 120.097 16.3482   6
   5   8  10 108.276 17.9067   4
  -6  -8 -10 286.472 26.7234   5
  -6  -8 -10 319.530 27.6799   2
   6   8  10 304.966 24.6636   6
   6   8  10 290.787 25.9746   4
  -7  -8 -10 -2.6577 13.8485   5
   7   8  10 -16.300 13.3862   4
   7   8  10 -1.5454 13.3846   6
  -8  -8 -10 188.683 20.4726   5
   8   8  10 184.035 20.9210   6
   8   8  10 206.531 20.7375   4
  -9  -8 -10 28.0517 17.1679   5
   9   8  10 50.2814 16.5475   4
   9   8  10 30.7348 17.4260   6
  -4  -9 -10 24.3164 17.9010   5
  -4  -9 -10 39.1125 22.3836   2
   4   9  10 51.3529 17.3153   6
  -5  -9 -10 104.979 22.6282   2
  -5  -9 -10 87.2648 18.1576   5
   5   9  10 104.452 23.3282   4
   5   9  10 72.5370 16.5455   6
  -6  -9 -10 -3.4422 18.9299   2
  -6  -9 -10 0.25320 15.3874   5
   6   9  10 22.6645 18.2760   4
   6   9  10 23.9037 16.0366   6
  -7  -9 -10 144.174 23.5296   2
  -7  -9 -10 147.325 20.0350   5
   7   9  10 124.642 20.1317   6
   7   9  10 124.389 21.1565   4
  -8  -9 -10 35.8799 18.3958   5
   8   9  10 23.0111 18.4778   6
   8   9  10 54.6292 19.8467   4
   2   7 -11 30.4595 19.7595   5
  -2  -7  11 19.4072 18.2182   6
   1   7 -11 40.6749 17.1947   5
  -1  -7  11 55.9073 17.4845   6
   0   7 -11 48.2183 16.9962   5
   0   7 -11 16.8876 19.7119   3
   0  -7  11 20.7968 17.5306   6
  -1   7 -11 57.7411 16.4391   5
  -1   7 -11 66.5339 19.2928   3
   1  -7  11 43.1059 18.4634   6
  -2   7 -11 13.4019 18.4435   3
   2  -7  11 -6.7305 19.0887   6
   3   6 -11 2.48176 18.5698   5
   2   6 -11 -21.137 17.6885   3
   2   6 -11 -0.6128 15.8908   5
  -2  -6  11 -5.7886 14.6179   6
   1   6 -11 8.04240 16.5945   3
   1   6 -11 8.50327 14.2492   5
  -1  -6  11 -0.7180 14.6899   6
   0   6 -11 19.8233 16.4052   3
   0   6 -11 10.0613 13.9638   5
   0  -6  11 -11.098 13.4111   6
  -1   6 -11 -14.011 12.3329   5
  -1   6 -11 7.59417 15.9626   3
   1  -6  11 -0.4154 14.4942   6
  -2   6 -11 1.98565 14.9547   3
  -2   6 -11 7.36879 12.4422   5
   2  -6  11 -0.1914 14.7512   6
  -3   6 -11 39.9817 17.8718   3
  -3   6 -11 23.1651 13.9670   5
   3  -6  11 31.9510 16.6784   6
  -4   6 -11 -6.8458 17.2898   3
  -4   6 -11 -5.0973 14.6974   5
   4  -6  11 27.1517 19.1098   6
   3   5 -11 -0.5753 18.4625   3
   3   5 -11 2.70560 16.6834   5
   2   5 -11 85.6018 19.4616   3
   2   5 -11 89.3901 17.6788   5
  -2  -5  11 113.758 15.3046   6
   1   5 -11 -2.5044 14.9644   3
   1   5 -11 51.8245 15.1828   5
  -1  -5  11 16.4411 11.9520   6
   0   5 -11 75.2520 15.2794   3
   0   5 -11 43.3667 14.0561   5
   0  -5  11 32.1436 12.9569   6
  -1   5 -11 50.7653 13.1229   5
  -1   5 -11 50.7955 14.1695   3
   1  -5  11 51.2870 14.1976   6
  -2   5 -11 -0.3428 13.6874   3
  -2   5 -11 20.9592 12.0250   5
   2  -5  11 9.72075 12.4467   6
  -3   5 -11 9.76932 12.4465   5
  -3   5 -11 13.6048 14.1251   3
   3  -5  11 7.74207 13.2035   6
  -4   5 -11 -5.8348 12.4384   5
  -4   5 -11 22.1827 15.4529   3
   4  -5  11 13.3932 14.5753   6
  -5   5 -11 7.80779 16.4220   3
  -5   5 -11 21.8113 14.4090   5
   5  -5  11 8.19032 17.1846   6
  -6   5 -11 -3.1961 16.2013   5
  -6   5 -11 -50.668 17.7170   3
   4   4 -11 18.0130 20.1379   5
   3   4 -11 262.955 27.7724   5
   3   4 -11 271.746 29.1554   3
  -3  -4  11 241.698 28.8557   4
   2   4 -11 28.4463 14.5744   5
   2   4 -11 40.4484 16.0691   3
  -2  -4  11 73.8000 17.3526   4
  -2  -4  11 37.8461 12.1253   6
   1   4 -11 200.140 22.7689   5
   1   4 -11 205.069 23.1222   3
  -1  -4  11 199.959 23.5062   4
  -1  -4  11 220.024 22.7575   6
   0   4 -11 285.500 22.4685   5
   0   4 -11 284.988 23.3601   3
   0  -4  11 246.377 22.5087   6
   0  -4  11 309.128 24.6953   4
  -1   4 -11 -2.6077 11.7616   3
  -1   4 -11 37.4919 12.5733   5
   1  -4  11 15.5489 11.6639   6
   1  -4  11 24.8594 12.4191   4
  -2   4 -11 224.708 22.3839   5
  -2   4 -11 236.435 23.1509   3
   2  -4  11 244.289 22.5096   6
  -3   4 -11 33.7359 11.9562   5
  -3   4 -11 4.80231 12.7699   3
   3  -4  11 20.9576 12.8506   6
  -4   4 -11 110.879 15.2380   5
  -4   4 -11 118.528 17.1740   3
   4  -4  11 100.124 16.4663   6
  -5   4 -11 22.7502 13.4207   5
  -5   4 -11 26.6668 14.0454   3
   5  -4  11 43.2754 15.3804   6
  -6   4 -11 23.3032 15.7186   3
  -6   4 -11 56.4433 14.9954   5
   6  -4  11 17.2625 17.0789   6
  -7   4 -11 12.1819 19.3430   3
  -7   4 -11 56.0182 18.5562   5
   4   3 -11 97.6537 22.6722   3
   4   3 -11 70.3458 25.4247   5
   3   3 -11 14.3754 16.6089   3
   3   3 -11 -21.204 15.7070   5
  -3  -3  11 13.5957 16.3696   4
   2   3 -11 244.739 25.1448   5
   2   3 -11 199.212 24.0316   3
  -2  -3  11 228.983 24.1289   4
   1   3 -11 125.795 16.5003   5
   1   3 -11 129.444 16.5142   3
  -1  -3  11 111.856 12.9012   6
  -1  -3  11 97.4667 15.3765   4
   0   3 -11 38.1338 13.1168   5
   0   3 -11 38.6968 12.6114   3
   0  -3  11 9.24391 12.5570   4
   0  -3  11 31.4918 11.3128   6
  -1   3 -11 410.235 24.9580   3
  -1   3 -11 444.385 25.5672   5
   1  -3  11 466.973 27.0025   4
   1  -3  11 449.985 24.7366   6
  -2   3 -11 -11.121 10.5933   5
  -2   3 -11 5.76234 10.3235   3
   2  -3  11 -3.9080 9.41410   6
   2  -3  11 5.51376 10.9590   4
  -3   3 -11 235.226 20.4000   5
  -3   3 -11 264.158 21.2131   3
   3  -3  11 241.088 21.8582   6
   3  -3  11 225.788 19.8859   4
  -4   3 -11 161.380 19.1242   3
  -4   3 -11 165.935 19.2749   5
   4  -3  11 149.300 16.7715   6
  -5   3 -11 59.5795 13.2141   5
  -5   3 -11 27.3604 12.5970   3
   5  -3  11 34.0881 14.0566   6
  -6   3 -11 117.916 16.9384   5
  -6   3 -11 149.312 17.1159   3
   6  -3  11 107.897 17.3399   6
  -7   3 -11 32.4643 15.7347   5
  -7   3 -11 -7.4926 15.0958   3
   7  -3  11 -9.0653 15.6759   6
  -8   3 -11 69.0219 20.1255   3
  -8   3 -11 62.8267 19.6642   5
   4   2 -11 -1.8648 18.9361   3
  -4  -2  11 -2.2868 21.1603   4
   3   2 -11 2.98123 16.0905   5
   3   2 -11 23.8908 15.7906   3
  -3  -2  11 5.90410 16.0823   4
   2   2 -11 1.94761 14.0655   5
   2   2 -11 26.6793 13.6044   3
  -2  -2  11 12.4434 14.6332   4
   1   2 -11 14.3749 12.5011   5
   1   2 -11 27.8957 12.0325   3
  -1  -2  11 27.1492 12.5153   4
  -1  -2  11 32.2036 9.28056   6
   0   2 -11 233.809 20.0726   3
   0   2 -11 157.627 17.9968   5
   0  -2  11 181.094 19.7324   4
   0  -2  11 181.645 17.2817   6
  -1   2 -11 17.5261 11.6713   5
  -1   2 -11 8.98576 10.7264   3
   1  -2  11 -2.7530 9.40102   6
   1  -2  11 -3.7540 9.71395   4
  -2   2 -11 158.915 18.8487   5
  -2   2 -11 148.877 17.7950   3
   2  -2  11 146.285 15.6420   4
   2  -2  11 128.429 14.5572   6
  -3   2 -11 174.032 19.1513   3
  -3   2 -11 150.579 17.8124   5
   3  -2  11 134.058 14.8714   6
   3  -2  11 164.700 18.8339   4
  -4   2 -11 54.3552 12.6758   5
  -4   2 -11 61.0029 12.6915   3
   4  -2  11 45.4190 11.7573   4
   4  -2  11 74.5634 13.0791   6
  -5   2 -11 275.561 20.9483   3
  -5   2 -11 249.438 21.4246   5
   5  -2  11 289.411 23.3082   6
   5  -2  11 266.054 21.3832   4
  -6   2 -11 -19.483 10.9508   5
  -6   2 -11 -6.1738 10.5767   3
   6  -2  11 3.49800 12.3322   6
  -7   2 -11 83.7748 15.7428   3
  -7   2 -11 107.265 16.8999   5
   7  -2  11 74.8187 16.7193   6
  -8   2 -11 65.0576 16.1753   3
  -8   2 -11 37.9965 16.4612   5
   8  -2  11 14.0473 18.2656   6
   3   1 -11 -8.9862 14.5613   3
   3   1 -11 2.37894 16.4627   5
  -3  -1  11 23.3892 16.2946   4
   2   1 -11 8.50914 12.7581   3
   2   1 -11 16.5061 15.0412   5
  -2  -1  11 22.5693 13.9159   4
   1   1 -11 -5.5176 12.5233   5
   1   1 -11 27.6289 11.7667   3
  -1  -1  11 1.68599 12.2323   4
  -1  -1  11 7.46958 8.07049   6
   0   1 -11 0.42861 11.9812   5
   0   1 -11 -8.9741 9.94691   3
   0  -1  11 -1.3333 10.4275   4
   0  -1  11 6.20215 8.58570   6
  -1   1 -11 -7.6153 9.61850   3
  -1   1 -11 -12.552 10.3724   5
  -1   1 -11 -20.289 12.2010   6
   1  -1  11 8.68001 9.07345   6
   1  -1  11 1.87050 9.62526   4
  -2   1 -11 -5.2902 10.2140   5
  -2   1 -11 4.80069 9.21620   3
   2  -1  11 -4.7110 9.02843   4
   2  -1  11 13.5165 9.77828   6
  -3   1 -11 26.9881 10.9939   5
  -3   1 -11 9.93958 9.35201   3
   3  -1  11 -1.0095 8.81695   4
   3  -1  11 12.9288 9.84867   6
  -4   1 -11 31.8156 10.8870   3
  -4   1 -11 25.5171 10.4514   5
   4  -1  11 26.6911 10.8071   6
   4  -1  11 27.5674 11.8284   4
  -5   1 -11 -1.4192 9.44845   3
  -5   1 -11 9.50068 10.6872   5
   5  -1  11 0.04688 9.71883   6
   5  -1  11 5.98320 10.2279   4
   5  -1  11 0.27411 5.83947   2
  -6   1 -11 10.5301 11.6148   5
   6  -1  11 16.1210 8.24458   2
   6  -1  11 4.98328 9.87177   4
   6  -1  11 14.4168 12.1423   6
  -7   1 -11 83.2628 15.2140   5
  -7   1 -11 72.9508 13.4140   3
   7  -1  11 62.3264 15.1605   6
  -8   1 -11 -5.4902 12.8170   3
  -8   1 -11 37.3228 15.6246   5
   8  -1  11 8.21606 15.0563   6
  -9   1 -11 52.4763 18.9515   5
  -9   1 -11 38.7974 16.6436   3
   9  -1  11 22.3049 22.2022   6
   3   0 -11 138.189 22.2306   5
  -3   0  11 134.770 21.2689   4
   2   0 -11 163.964 19.8865   5
  -2   0  11 166.794 20.2733   4
   1   0 -11 -1.5394 12.9580   5
   1   0 -11 29.9031 12.3024   3
  -1   0  11 4.46549 11.2905   4
   0   0 -11 268.075 20.3642   5
   0   0 -11 298.664 20.6231   3
   0   0  11 276.729 22.6898   4
   0   0  11 269.787 16.6663   6
  -1   0 -11 -2.3284 11.5598   5
  -1   0 -11 17.5988 11.8410   6
  -1   0 -11 -4.3141 10.3371   3
   1   0  11 -6.4596 10.0237   4
   1   0  11 11.2094 8.33774   6
  -2   0 -11 164.390 17.3323   5
  -2   0 -11 148.572 15.5919   3
   2   0  11 169.779 16.0926   6
   2   0  11 154.849 17.3271   4
  -3   0 -11 70.1680 11.2386   3
  -3   0 -11 49.7521 12.7584   5
  -3   0 -11 43.9796 13.5758   3
   3   0  11 73.9115 11.7228   6
   3   0  11 66.3509 12.2782   4
  -4   0 -11 37.9361 9.70215   3
  -4   0 -11 36.4266 11.3409   5
   4   0  11 37.1755 13.1780   4
   4   0  11 34.8873 10.8353   6
   4   0  11 43.6051 6.26991   2
  -5   0 -11 37.0471 9.99874   3
  -5   0 -11 56.6904 12.7711   5
   5   0  11 26.3227 10.6927   6
   5   0  11 35.0026 7.38153   2
   5   0  11 34.9017 10.3317   4
  -6   0 -11 1.67425 10.7971   5
  -6   0 -11 11.5822 9.78335   3
   6   0  11 -1.0057 10.2112   6
   6   0  11 6.52951 7.74976   2
   6   0  11 15.9381 9.25319   4
  -7   0 -11 12.9403 12.6289   5
  -7   0 -11 5.67669 10.1436   3
   7   0  11 27.1654 9.96010   2
   7   0  11 -15.486 11.0494   6
   7   0  11 16.0992 9.77156   4
  -8   0 -11 26.2119 13.8755   5
   8   0  11 20.3024 24.2920   2
   8   0  11 6.25983 13.8199   6
  -9   0 -11 -7.2547 16.1250   5
  -9   0 -11 0.56473 15.1993   3
   9   0  11 -13.067 14.8151   2
   9   0  11 12.6140 16.8274   6
   3  -1 -11 139.218 22.7250   5
  -3   1  11 64.7908 20.7737   4
   2  -1 -11 70.7783 17.6971   5
  -2   1  11 59.5954 17.5603   4
   1  -1 -11 339.027 27.2820   5
  -1   1  11 314.461 25.3429   4
   0  -1 -11 16.5745 13.4565   5
   0  -1 -11 -8.8102 9.91979   3
   0  -1 -11 13.4217 7.74688   2
   0   1  11 -3.1228 7.30359   6
   0   1  11 7.27041 11.0518   4
  -1  -1 -11 365.194 24.6586   5
  -1  -1 -11 380.857 21.7374   3
   1   1  11 319.396 22.7146   4
   1   1  11 333.266 18.6585   6
  -2  -1 -11 430.324 21.7945   3
  -2  -1 -11 492.109 26.5419   5
  -2  -1 -11 427.327 26.3623   3
  -2  -1 -11 462.324 25.3804   6
   2   1  11 458.093 24.5463   4
   2   1  11 428.609 21.5135   6
  -3  -1 -11 158.754 15.2689   3
  -3  -1 -11 139.307 15.3290   3
  -3  -1 -11 133.112 15.5801   5
   3   1  11 138.113 15.1026   4
   3   1  11 148.842 17.1603   6
  -4  -1 -11 438.899 24.4856   5
  -4  -1 -11 374.282 22.7135   3
  -4  -1 -11 440.760 20.6772   3
   4   1  11 477.868 23.5935   4
   4   1  11 479.058 23.7136   6
  -5  -1 -11 1.16907 7.66941   3
  -5  -1 -11 3.90603 10.6602   5
   5   1  11 17.0850 10.6044   4
   5   1  11 -7.0985 9.68580   6
  -6  -1 -11 204.900 20.2519   5
  -6  -1 -11 226.823 16.3231   3
   6   1  11 257.217 19.1030   4
   6   1  11 266.737 16.8488   2
   6   1  11 261.305 20.5725   6
  -7  -1 -11 52.5040 13.6504   5
  -7  -1 -11 29.2955 9.57832   3
   7   1  11 44.8986 11.3180   2
   7   1  11 38.8170 13.0088   6
   7   1  11 31.3742 10.3495   4
  -8  -1 -11 38.6038 10.4445   3
  -8  -1 -11 77.3038 15.7283   5
   8   1  11 48.3757 14.9831   6
   8   1  11 40.4780 13.9251   2
   8   1  11 45.1093 10.5370   4
  -9  -1 -11 77.7055 16.7638   5
   9   1  11 55.2197 14.8002   2
   9   1  11 79.6893 18.0255   6
  10   1  11 8.16753 17.9730   2
   2  -2 -11 186.548 23.3339   5
  -2   2  11 176.205 22.4894   4
   1  -2 -11 8.56886 13.8625   5
   1  -2 -11 -19.366 10.4788   2
  -1   2  11 -5.2726 13.6236   4
   0  -2 -11 405.440 20.6418   2
   0  -2 -11 392.193 24.2201   3
   0  -2 -11 451.438 28.7360   5
   0   2  11 425.588 26.6241   4
  -1  -2 -11 162.288 17.6687   3
  -1  -2 -11 115.804 15.8055   5
  -1  -2 -11 108.430 11.1797   2
   1   2  11 147.140 15.0375   6
   1   2  11 123.273 15.8774   4
  -2  -2 -11 484.749 27.0861   5
  -2  -2 -11 464.096 19.3917   2
  -2  -2 -11 409.444 38.7154   3
  -2  -2 -11 436.287 21.8155   3
   2   2  11 475.665 25.4328   4
   2   2  11 462.794 21.6556   6
  -3  -2 -11 259.483 25.2600   3
  -3  -2 -11 289.248 22.5154   5
  -3  -2 -11 297.208 17.8703   3
   3   2  11 291.582 20.7653   4
   3   2  11 272.673 18.1177   6
  -4  -2 -11 -15.615 10.1160   5
  -4  -2 -11 3.85641 7.69619   3
   4   2  11 14.1269 10.2080   4
   4   2  11 -25.471 17.2546   2
  -5  -2 -11 425.421 18.3592   3
  -5  -2 -11 423.656 24.9859   5
   5   2  11 446.687 24.1072   6
   5   2  11 380.956 25.6508   4
  -6  -2 -11 127.565 15.9349   5
  -6  -2 -11 127.465 12.3868   3
   6   2  11 120.260 13.4605   4
   6   2  11 115.094 14.4805   6
  -7  -2 -11 143.717 17.3565   5
  -7  -2 -11 134.021 13.2923   3
   7   2  11 138.957 16.4454   6
   7   2  11 137.334 13.9236   4
  -8  -2 -11 197.079 21.8504   5
   8   2  11 114.511 15.3026   2
   8   2  11 144.646 17.1442   4
   8   2  11 145.432 17.4831   6
  -9  -2 -11 0.63047 13.2384   5
   9   2  11 20.9345 15.4688   6
   9   2  11 -11.542 13.3461   2
 -10  -2 -11 71.6413 22.3760   5
  10   2  11 65.7027 18.2621   2
  10   2  11 63.7568 20.7286   6
   2  -3 -11 -18.802 18.9590   2
   2  -3 -11 0.55336 18.5280   5
  -2   3  11 -7.4824 19.6513   4
   1  -3 -11 44.2492 13.9918   2
   1  -3 -11 65.3571 18.8102   5
  -1   3  11 42.6573 16.6223   4
   0  -3 -11 8.46556 11.1386   2
   0  -3 -11 -8.5653 13.6354   5
   0   3  11 -3.7370 12.8767   4
  -1  -3 -11 71.5462 11.6340   2
  -1  -3 -11 75.4478 12.0789   3
  -1  -3 -11 73.1045 15.7342   5
   1   3  11 62.0606 9.95405   6
   1   3  11 68.4311 14.5418   4
  -2  -3 -11 119.841 16.6987   5
  -2  -3 -11 132.435 15.7699   3
  -2  -3 -11 114.260 12.5542   2
   2   3  11 133.519 16.0312   4
   2   3  11 138.649 15.7946   6
  -3  -3 -11 8.36617 8.68993   2
  -3  -3 -11 -3.0023 11.7881   5
  -3  -3 -11 11.3111 8.07870   3
   3   3  11 -4.6328 9.11223   6
   3   3  11 19.2381 10.6456   4
  -4  -3 -11 327.119 23.4101   5
  -4  -3 -11 330.545 16.2451   3
   4   3  11 372.722 23.0023   4
  -5  -3 -11 36.5660 6.85239   3
  -5  -3 -11 40.7510 13.5251   5
   5   3  11 35.0276 10.6278   6
   5   3  11 19.8620 10.5352   4
   5   3  11 40.4589 25.0946   2
  -6  -3 -11 227.845 21.5600   5
   6   3  11 256.009 20.1679   6
   6   3  11 243.756 23.3941   4
  -7  -3 -11 176.132 17.6716   5
   7   3  11 144.593 16.8032   6
   7   3  11 194.545 18.7535   4
  -8  -3 -11 24.9121 13.6248   5
   8   3  11 25.3368 11.1021   4
   8   3  11 4.41107 12.9261   6
  -9  -3 -11 176.160 21.3061   5
   9   3  11 234.645 24.7059   2
   9   3  11 171.012 20.1451   6
 -10  -3 -11 -13.278 17.7078   5
  10   3  11 1.11494 17.3286   6
  10   3  11 -10.375 17.0883   2
   1  -4 -11 -21.213 17.3954   5
   1  -4 -11 17.4012 15.5129   2
  -1   4  11 -8.6826 17.7491   4
   0  -4 -11 14.3601 16.2498   5
   0  -4 -11 9.48175 13.4109   2
   0   4  11 1.18569 15.4888   4
  -1  -4 -11 5.73384 10.8840   3
  -1  -4 -11 21.5284 11.6793   2
  -1  -4 -11 16.1489 14.5378   5
   1   4  11 9.51782 12.7460   4
  -2  -4 -11 -17.408 8.65965   3
  -2  -4 -11 -4.5848 11.7009   5
  -2  -4 -11 -4.0952 11.7115   2
   2   4  11 3.51655 11.3987   4
   2   4  11 10.9979 9.46915   6
  -3  -4 -11 -10.256 11.9185   5
  -3  -4 -11 9.49627 9.90105   2
  -3  -4 -11 9.93289 7.87344   3
   3   4  11 0.89876 9.18129   6
   3   4  11 -5.2166 11.0971   4
  -4  -4 -11 2.27591 6.44128   3
  -4  -4 -11 -1.5427 11.3819   5
  -4  -4 -11 -11.886 8.61462   2
   4   4  11 7.16079 9.76123   6
   4   4  11 -9.3057 9.74728   4
  -5  -4 -11 47.3372 13.0733   5
   5   4  11 28.1302 11.3077   4
   5   4  11 12.8868 9.93610   6
  -6  -4 -11 35.8421 13.3901   5
   6   4  11 28.7816 11.2267   4
   6   4  11 30.2668 11.8744   6
  -7  -4 -11 -9.9646 11.7876   5
   7   4  11 2.24489 11.4375   6
   7   4  11 -8.1327 10.5158   4
  -8  -4 -11 58.9107 14.3225   5
   8   4  11 55.9389 14.6961   6
   8   4  11 58.8382 13.7828   4
  -9  -4 -11 -2.0334 11.7270   5
   9   4  11 29.4511 14.4107   6
   9   4  11 23.9106 18.3633   4
 -10  -4 -11 32.1147 17.4581   5
  10   4  11 36.2122 19.1177   6
  10   4  11 -2.8489 17.8311   2
   0  -5 -11 25.8440 16.8349   2
   0  -5 -11 15.3805 18.8219   5
   0   5  11 25.7406 18.5043   4
  -1  -5 -11 81.1004 18.2091   5
  -1  -5 -11 99.3804 15.6332   2
   1   5  11 79.3486 18.1286   4
  -2  -5 -11 91.2589 17.5439   5
  -2  -5 -11 90.0587 14.7800   2
   2   5  11 115.695 17.3059   4
   2   5  11 97.2435 12.7789   6
  -3  -5 -11 9.58200 12.8005   5
  -3  -5 -11 -4.0158 11.5369   2
   3   5  11 -18.125 11.8144   4
   3   5  11 18.5732 12.1133   6
  -4  -5 -11 124.980 14.4344   2
  -4  -5 -11 143.336 17.2049   5
   4   5  11 141.470 16.7606   4
   4   5  11 143.242 15.1760   6
  -5  -5 -11 22.8934 13.0464   5
   5   5  11 3.21605 10.9830   4
   5   5  11 16.6807 11.0938   6
  -6  -5 -11 38.2135 13.4239   5
   6   5  11 15.1558 11.6634   6
   6   5  11 13.0550 11.4628   4
  -7  -5 -11 14.4038 13.2219   5
   7   5  11 12.5575 11.8578   4
   7   5  11 19.7175 12.3541   6
  -8  -5 -11 8.29638 13.4848   5
   8   5  11 -3.5687 12.1064   4
   8   5  11 -24.297 12.0146   6
  -9  -5 -11 -5.1277 14.3802   5
   9   5  11 -3.6647 14.7343   6
   9   5  11 -26.042 20.7847   4
 -10  -5 -11 2.20659 18.0857   5
  10   5  11 4.34975 17.3368   6
  -1  -6 -11 125.562 20.3788   2
  -1  -6 -11 136.054 21.9594   5
   1   6  11 121.659 22.5229   4
  -2  -6 -11 28.6740 16.7418   5
  -2  -6 -11 7.44534 13.7394   2
   2   6  11 1.31077 14.7800   4
  -3  -6 -11 399.445 30.3241   5
  -3  -6 -11 351.961 27.6750   2
   3   6  11 309.501 27.5692   4
   3   6  11 341.599 23.7347   6
  -4  -6 -11 30.9802 14.1634   2
  -4  -6 -11 35.7795 15.1481   5
   4   6  11 47.7638 14.7073   4
   4   6  11 43.9074 12.8058   6
  -5  -6 -11 104.109 16.9298   5
  -5  -6 -11 135.149 16.9010   2
   5   6  11 124.254 14.9990   6
   5   6  11 114.556 16.9879   4
  -6  -6 -11 267.799 24.7175   5
   6   6  11 250.625 23.9680   6
   6   6  11 240.746 23.7833   4
  -7  -6 -11 9.25485 13.5689   5
   7   6  11 34.0668 13.4486   6
   7   6  11 -7.4211 12.9733   4
  -8  -6 -11 213.280 24.7003   5
   8   6  11 219.514 24.3285   4
   8   6  11 222.594 25.2015   6
  -9  -6 -11 -2.9638 16.3573   5
   9   6  11 12.3546 14.6789   4
   9   6  11 31.8515 16.0641   6
  -2  -7 -11 125.652 22.6072   5
  -2  -7 -11 188.569 23.8018   2
  -3  -7 -11 -11.248 15.6136   2
  -3  -7 -11 -5.2476 17.0574   5
   3   7  11 14.5283 16.0776   4
  -4  -7 -11 237.116 25.5894   2
  -4  -7 -11 175.637 21.0539   5
   4   7  11 191.021 22.0889   4
   4   7  11 182.943 18.2397   6
  -5  -7 -11 152.447 19.3383   2
  -5  -7 -11 218.702 25.1859   5
   5   7  11 154.863 20.3460   4
   5   7  11 155.764 18.8729   6
  -6  -7 -11 37.3973 16.7104   5
  -6  -7 -11 74.0310 16.7321   2
   6   7  11 51.2974 14.7822   6
   6   7  11 94.6355 16.8584   4
  -7  -7 -11 240.397 26.3091   5
   7   7  11 204.363 21.2829   4
   7   7  11 214.497 25.2834   6
  -8  -7 -11 16.9674 16.5527   5
   8   7  11 8.66443 16.6594   6
   8   7  11 2.14026 14.8295   4
  -9  -7 -11 51.6933 20.3276   5
   9   7  11 51.7965 20.2997   6
   9   7  11 101.840 18.3895   4
  -5  -8 -11 45.6967 19.9900   2
  -5  -8 -11 11.8075 17.4644   5
   5   8  11 12.4693 15.8186   6
   5   8  11 27.9518 19.5097   4
  -6  -8 -11 126.100 21.4497   2
  -6  -8 -11 105.419 20.4149   5
   6   8  11 137.126 19.3158   6
   6   8  11 120.330 21.6809   4
  -7  -8 -11 -5.9633 18.0707   5
   7   8  11 22.0014 17.1378   6
   7   8  11 45.4214 18.2606   4
   0   6 -12 -30.320 16.8863   5
   0  -6  12 -1.3644 18.1236   6
  -1   6 -12 22.0437 18.2998   5
   1  -6  12 45.8012 20.2099   6
  -2   6 -12 -0.0369 17.0829   5
   2  -6  12 33.0933 19.9898   6
   1   5 -12 33.3612 19.7345   3
   1   5 -12 37.4563 18.7099   5
  -1  -5  12 52.5919 16.7392   6
   0   5 -12 68.6881 19.9054   3
   0   5 -12 45.9871 18.4612   5
   0  -5  12 60.5918 16.7859   6
  -1   5 -12 102.794 20.1168   3
  -1   5 -12 121.555 18.6243   5
   1  -5  12 115.904 19.4917   6
  -2   5 -12 -1.5429 14.9129   5
  -2   5 -12 -6.4467 16.2054   3
   2  -5  12 8.94463 15.8874   6
  -3   5 -12 123.055 19.5707   5
  -3   5 -12 145.084 20.9096   3
   3  -5  12 160.479 20.8351   6
  -4   5 -12 -15.349 18.3674   3
  -4   5 -12 13.5066 17.5144   5
   4  -5  12 22.6348 19.0163   6
   2   4 -12 22.6815 20.1458   5
   2   4 -12 23.4107 20.0779   3
   1   4 -12 99.0523 19.6246   3
   1   4 -12 73.2026 18.3334   5
  -1  -4  12 59.1726 19.8698   4
  -1  -4  12 56.2934 15.0644   6
   0   4 -12 106.697 18.8719   3
   0   4 -12 104.228 18.2150   5
   0  -4  12 118.752 19.5568   4
   0  -4  12 118.042 16.8034   6
  -1   4 -12 42.0956 14.9429   5
  -1   4 -12 -7.0459 15.0540   3
   1  -4  12 4.81388 15.1091   4
   1  -4  12 6.25280 13.6127   6
  -2   4 -12 207.238 24.5525   3
  -2   4 -12 178.202 20.0010   5
   2  -4  12 173.052 19.8242   6
  -3   4 -12 -12.393 14.2121   3
  -3   4 -12 32.8140 14.6332   5
   3  -4  12 11.4257 14.5759   6
  -4   4 -12 66.4585 16.6222   5
  -4   4 -12 89.3616 18.7289   3
   4  -4  12 80.1449 18.5235   6
  -5   4 -12 49.1658 17.5280   3
  -5   4 -12 12.7883 16.9558   5
   5  -4  12 41.6760 18.9595   6
  -6   4 -12 3.22752 19.9072   3
   2   3 -12 49.9975 19.2570   3
   2   3 -12 31.1576 18.9849   5
  -2  -3  12 -13.967 18.0678   4
   1   3 -12 33.7876 17.9593   5
   1   3 -12 26.4558 16.3113   3
  -1  -3  12 61.0860 18.4012   4
   0   3 -12 -15.670 13.7243   5
   0   3 -12 -1.3609 13.9992   3
   0  -3  12 19.3333 13.8161   4
   0  -3  12 23.0978 13.1333   6
  -1   3 -12 50.9413 15.5973   5
  -1   3 -12 73.2789 16.0365   3
   1  -3  12 33.0463 15.1451   4
   1  -3  12 56.8023 13.4471   6
  -2   3 -12 1.41032 13.4227   3
  -2   3 -12 26.4551 14.1908   5
   2  -3  12 21.4258 13.7700   4
   2  -3  12 27.6811 13.8578   6
  -3   3 -12 46.8890 14.8774   5
  -3   3 -12 42.8932 15.3873   3
   3  -3  12 56.5700 14.9846   4
   3  -3  12 36.9090 14.0352   6
  -4   3 -12 86.0406 15.8160   5
  -4   3 -12 65.2629 15.3926   3
   4  -3  12 77.3403 16.5583   6
  -5   3 -12 8.65439 14.2730   5
  -5   3 -12 9.49029 13.7619   3
   5  -3  12 14.9718 15.2880   6
  -6   3 -12 109.179 18.6381   5
  -6   3 -12 111.929 19.6204   3
   6  -3  12 73.4011 19.7923   6
  -7   3 -12 -17.785 17.9073   3
  -7   3 -12 -8.7984 17.9992   5
   2   2 -12 7.25347 18.5086   5
   2   2 -12 11.7983 17.3505   3
  -2  -2  12 15.2608 18.6923   4
   1   2 -12 4.46911 16.6288   5
   1   2 -12 16.5120 15.4442   3
  -1  -2  12 22.6328 15.9188   4
   0   2 -12 50.4661 15.1958   3
   0   2 -12 47.9497 16.1794   5
   0  -2  12 34.6283 14.8903   4
   0  -2  12 25.8250 14.1914   6
  -1   2 -12 -8.6145 13.0570   5
  -1   2 -12 -2.0601 12.6172   3
   1  -2  12 -2.4787 13.0529   4
   1  -2  12 1.31735 11.4307   6
  -2   2 -12 15.8100 12.3433   5
  -2   2 -12 11.4302 12.1942   3
   2  -2  12 -8.8039 11.8031   4
   2  -2  12 1.45278 11.6341   6
  -3   2 -12 8.00597 12.0671   3
  -3   2 -12 4.66965 12.9776   5
   3  -2  12 8.24721 11.8941   4
   3  -2  12 12.2849 12.8789   6
  -4   2 -12 16.8373 12.8400   3
  -4   2 -12 4.46516 12.7419   5
   4  -2  12 8.30016 12.5225   4
   4  -2  12 -3.3150 12.3590   6
  -5   2 -12 25.7254 13.6774   3
  -5   2 -12 6.80853 13.6780   5
   5  -2  12 15.0102 12.5274   4
   5  -2  12 7.20991 13.7055   6
  -6   2 -12 44.6520 15.5888   5
  -6   2 -12 5.37857 13.8383   3
   6  -2  12 26.8777 16.2024   6
  -7   2 -12 51.3647 16.4028   3
  -7   2 -12 13.9894 16.8429   5
   7  -2  12 -4.8287 16.9167   6
   2   1 -12 77.5309 19.9444   3
   2   1 -12 60.6705 20.4180   5
  -2  -1  12 98.5273 24.3422   4
   1   1 -12 182.413 20.0488   3
   1   1 -12 148.727 21.2297   5
  -1  -1  12 166.131 21.0088   4
   0   1 -12 -0.9782 14.2757   5
   0   1 -12 -3.1506 13.7747   3
   0  -1  12 2.71850 10.4141   6
   0  -1  12 -9.4768 13.6280   4
  -1   1 -12 183.858 20.9089   5
  -1   1 -12 222.116 21.2691   3
   1  -1  12 222.936 23.5112   6
   1  -1  12 204.910 23.1528   4
  -2   1 -12 32.4044 13.0432   3
  -2   1 -12 38.3815 13.4102   5
   2  -1  12 23.3848 12.2543   6
   2  -1  12 8.95283 11.7040   4
  -3   1 -12 76.3200 14.5717   5
  -3   1 -12 76.1224 14.4469   3
   3  -1  12 102.198 15.1439   4
   3  -1  12 81.2684 14.4441   6
  -4   1 -12 69.1524 14.1966   3
  -4   1 -12 52.2306 13.9044   5
   4  -1  12 57.2769 13.6000   6
   4  -1  12 63.1180 13.2604   4
  -5   1 -12 24.4454 12.1678   3
  -5   1 -12 9.00303 13.5920   5
   5  -1  12 13.8656 11.7005   4
   5  -1  12 18.2425 13.2495   6
  -6   1 -12 2.36513 14.0176   5
  -6   1 -12 24.0609 12.9639   3
   6  -1  12 18.1490 14.5127   6
   6  -1  12 50.3299 13.1443   4
  -7   1 -12 34.1687 14.8738   3
  -7   1 -12 15.0458 15.0018   5
   7  -1  12 49.3316 17.2239   6
  -8   1 -12 -5.7273 17.8911   5
  -8   1 -12 3.64354 15.7679   3
   8  -1  12 34.5516 19.3835   6
   2   0 -12 77.2329 20.5801   3
   1   0 -12 27.1640 15.6789   3
   1   0 -12 38.5351 19.0710   5
  -1   0  12 1.54930 16.5904   4
   0   0 -12 337.062 26.4708   3
   0   0 -12 352.343 28.7652   5
   0   0  12 349.733 28.7594   4
  -1   0 -12 32.9218 15.0929   5
  -1   0 -12 42.1627 13.7525   3
   1   0  12 39.0367 11.3339   6
   1   0  12 26.2841 13.5071   4
  -2   0 -12 250.828 23.9976   5
  -2   0 -12 283.211 21.4577   3
   2   0  12 269.179 23.2678   4
  -3   0 -12 166.041 18.4414   5
   3   0  12 211.228 19.7160   6
   3   0  12 235.588 21.4421   4
  -4   0 -12 54.6929 12.9458   3
  -4   0 -12 36.8195 12.4774   5
   4   0  12 43.2817 12.7679   6
   4   0  12 46.2933 13.2445   4
  -5   0 -12 166.058 19.0370   3
  -5   0 -12 188.728 22.4054   5
   5   0  12 196.467 22.7573   6
   5   0  12 181.982 19.1275   4
  -6   0 -12 -2.7433 10.8512   3
  -6   0 -12 25.2709 14.3451   5
   6   0  12 -12.028 12.7228   6
   6   0  12 7.88273 12.1108   4
  -7   0 -12 84.9933 17.8548   5
   7   0  12 98.0071 25.2512   4
   7   0  12 50.8247 16.3261   6
  -8   0 -12 70.1553 18.0653   5
   8   0  12 99.5002 20.1647   6
   1  -1 -12 249.559 27.7180   3
   1  -1 -12 292.960 31.3594   5
  -1   1  12 165.541 23.2513   4
   0  -1 -12 8.40435 13.1464   3
   0  -1 -12 -27.706 14.7020   5
   0   1  12 -6.9712 14.4216   4
  -1  -1 -12 298.011 27.3324   5
  -1  -1 -12 328.086 23.7739   3
   1   1  12 359.286 26.7597   4
   1   1  12 349.311 21.1583   6
  -2  -1 -12 25.3038 14.6372   5
   2   1  12 62.4959 12.2762   6
   2   1  12 42.4867 13.8660   4
  -3  -1 -12 85.7487 16.0506   5
  -3  -1 -12 68.5612 12.6852   3
   3   1  12 73.9868 14.6989   4
   3   1  12 83.1525 13.2357   6
  -4  -1 -12 413.683 22.5618   3
  -4  -1 -12 416.053 27.3639   5
   4   1  12 408.858 24.3893   6
   4   1  12 381.186 24.4168   4
  -5  -1 -12 16.4630 10.0744   3
  -5  -1 -12 5.82888 13.1565   5
   5   1  12 -0.3230 11.6767   4
   5   1  12 16.8449 12.2238   6
  -6  -1 -12 282.249 25.1425   5
   6   1  12 255.236 22.2622   4
   6   1  12 261.161 25.1168   6
   6   1  12 229.975 17.9745   2
  -7  -1 -12 56.2399 16.0796   5
  -7  -1 -12 48.3973 18.7077   3
   7   1  12 62.4552 16.0720   6
   7   1  12 53.2016 12.3206   2
   7   1  12 82.0477 14.2014   4
  -8  -1 -12 101.451 17.8029   5
   8   1  12 48.7548 19.9426   2
   8   1  12 126.864 19.6634   6
   1  -2 -12 -25.064 20.3515   5
   1  -2 -12 12.1627 16.6803   3
   0  -2 -12 4.02673 17.4477   5
   0  -2 -12 27.8311 15.2016   3
   0   2  12 23.1752 15.9259   4
  -1  -2 -12 24.4400 15.7992   5
  -1  -2 -12 -9.2879 12.2199   3
   1   2  12 9.02819 13.9074   4
  -2  -2 -12 19.0114 11.6623   3
  -2  -2 -12 12.7002 14.2785   5
   2   2  12 13.9007 11.1904   6
   2   2  12 27.1989 13.5251   4
  -3  -2 -12 164.663 17.7393   3
  -3  -2 -12 139.188 17.3120   5
   3   2  12 200.962 19.9959   6
   3   2  12 153.486 17.4329   4
  -4  -2 -12 2.46101 9.31814   3
  -4  -2 -12 -5.1839 12.3013   5
   4   2  12 15.2309 10.6776   6
   4   2  12 6.10344 11.5275   4
  -5  -2 -12 149.376 15.9415   3
  -5  -2 -12 162.223 18.8414   5
   5   2  12 148.471 16.4487   6
   5   2  12 169.787 19.4389   4
  -6  -2 -12 20.4220 13.0766   5
   6   2  12 59.9956 13.8479   6
   6   2  12 24.3735 12.8387   4
  -7  -2 -12 43.3705 12.8367   5
   7   2  12 68.6148 13.7757   4
   7   2  12 27.2355 14.6050   6
  -8  -2 -12 133.403 19.5015   5
   8   2  12 113.543 17.3359   4
   8   2  12 119.510 16.3562   2
   8   2  12 128.913 19.4586   6
  -9  -2 -12 15.3274 21.0743   5
   9   2  12 28.2532 15.9964   2
   9   2  12 -8.6277 18.2716   6
   0  -3 -12 -19.982 18.9512   5
   0  -3 -12 -25.969 14.6502   3
   0   3  12 1.41606 16.6482   4
  -1  -3 -12 10.6050 16.7341   5
  -1  -3 -12 12.4581 13.1587   3
  -1  -3 -12 13.2643 13.0130   2
   1   3  12 -6.6334 15.0133   4
  -2  -3 -12 -4.7025 11.3286   3
  -2  -3 -12 19.5998 15.5164   5
  -2  -3 -12 -10.189 10.6880   2
   2   3  12 7.01002 13.2583   4
   2   3  12 -4.1533 11.1112   6
  -3  -3 -12 -21.054 9.63865   3
  -3  -3 -12 -1.2726 12.2965   5
   3   3  12 -11.397 12.0970   4
   3   3  12 -2.2929 11.3363   6
  -4  -3 -12 12.8515 13.7528   5
   4   3  12 10.3058 11.7144   6
   4   3  12 14.8395 12.9678   4
  -5  -3 -12 3.33311 14.1207   5
   5   3  12 5.43854 11.8951   4
   5   3  12 -22.809 11.1376   6
  -6  -3 -12 6.84616 13.7122   5
   6   3  12 7.38837 11.9354   6
   6   3  12 11.0642 12.0434   4
  -7  -3 -12 32.2968 15.1485   5
   7   3  12 -0.9846 11.7824   4
   7   3  12 17.3708 13.3154   6
  -8  -3 -12 25.0524 16.6155   5
   8   3  12 -7.6722 12.6470   4
   8   3  12 -3.8232 15.0332   6
  -9  -3 -12 14.8090 19.4042   5
   9   3  12 53.6431 17.5906   2
   9   3  12 31.6473 17.7529   6
  -1  -4 -12 75.1224 16.2821   2
  -1  -4 -12 78.2570 19.5220   5
   1   4  12 35.7702 18.4174   4
  -2  -4 -12 62.7530 17.1819   5
  -2  -4 -12 28.3880 14.1866   2
   2   4  12 22.9501 15.9119   4
  -3  -4 -12 129.763 19.9378   5
  -3  -4 -12 147.283 16.1510   2
   3   4  12 146.607 19.0159   4
   3   4  12 148.366 16.5252   6
  -4  -4 -12 -0.5373 13.8034   5
   4   4  12 -14.203 11.8807   6
   4   4  12 19.7505 13.5402   4
  -5  -4 -12 108.608 18.4263   5
   5   4  12 137.760 17.3529   4
   5   4  12 135.576 17.0648   6
  -6  -4 -12 -4.8115 14.6551   5
   6   4  12 20.8126 13.5335   4
   6   4  12 25.1533 13.0750   6
  -7  -4 -12 15.3090 15.7163   5
   7   4  12 23.3606 13.7686   4
   7   4  12 13.1729 13.5166   6
  -8  -4 -12 -9.1554 15.8583   5
   8   4  12 -21.438 13.4482   4
   8   4  12 -17.060 14.2363   6
  -9  -4 -12 -7.7315 30.7864   5
   9   4  12 4.73566 17.8694   6
  -2  -5 -12 295.017 27.4787   2
  -2  -5 -12 205.776 24.8237   5
   2   5  12 259.553 29.9803   4
  -3  -5 -12 -6.4678 14.2586   2
  -3  -5 -12 17.8770 17.2108   5
   3   5  12 -6.9210 16.0231   4
   3   5  12 23.6280 16.4075   6
  -4  -5 -12 211.735 23.2830   5
  -4  -5 -12 220.963 23.8494   2
   4   5  12 232.300 23.2405   6
   4   5  12 215.251 25.3495   4
  -5  -5 -12 106.780 19.1512   5
   5   5  12 81.6575 16.0688   6
   5   5  12 105.851 17.5755   4
  -6  -5 -12 101.865 18.5350   5
   6   5  12 89.2812 16.4298   4
   6   5  12 83.9163 16.3421   6
  -7  -5 -12 166.339 21.8741   5
   7   5  12 155.717 19.4607   6
   7   5  12 152.269 18.1746   4
  -8  -5 -12 0.75461 17.6814   5
   8   5  12 -3.9661 15.6252   4
   8   5  12 15.9157 16.5153   6
  -3  -6 -12 144.508 23.3415   5
  -3  -6 -12 169.205 21.8792   2
  -4  -6 -12 26.5400 15.9904   2
  -4  -6 -12 52.0624 20.0522   5
   4   6  12 78.1611 16.4264   6
   4   6  12 54.1081 18.3755   4
  -5  -6 -12 157.140 19.9171   2
  -5  -6 -12 159.365 21.5918   5
   5   6  12 167.500 21.1948   4
   5   6  12 206.378 24.2295   6
  -6  -6 -12 170.390 21.9957   5
   6   6  12 151.545 20.5578   4
   6   6  12 147.009 19.4126   6
  -7  -6 -12 26.2103 18.3850   5
   7   6  12 10.8969 16.4996   4
   7   6  12 22.8635 16.9705   6
  -8  -6 -12 152.829 23.4021   5
   8   6  12 127.341 21.3476   6
   8   6  12 177.665 21.1305   4
  -1   4 -13 -0.7666 19.9378   3
  -2   4 -13 40.0245 20.0802   3
  -2   4 -13 51.8937 20.3757   5
   2  -4  13 -21.145 17.2545   6
  -3   4 -13 37.4553 19.2575   5
  -3   4 -13 16.2884 20.3623   3
   3  -4  13 30.9467 19.8912   6
   0   3 -13 -20.491 21.5604   5
   0   3 -13 33.8298 19.4663   3
  -1   3 -13 -24.599 18.1963   5
  -1   3 -13 19.8921 18.0539   3
   1  -3  13 3.85841 18.2069   4
   1  -3  13 12.9494 15.5718   6
  -2   3 -13 16.7075 17.2624   5
  -2   3 -13 -20.458 16.2002   3
   2  -3  13 9.01259 17.6945   4
   2  -3  13 -1.0940 15.6807   6
  -3   3 -13 -8.7202 17.0542   3
  -3   3 -13 -4.3469 16.5808   5
   3  -3  13 6.34078 16.8003   4
   3  -3  13 -6.9626 16.5941   6
  -4   3 -13 8.86305 17.4214   5
  -4   3 -13 4.41037 17.7156   3
   4  -3  13 16.0819 17.6921   6
  -5   3 -13 -7.7615 17.2651   3
  -5   3 -13 -8.9015 18.6932   5
   5  -3  13 6.48478 23.2579   6
   0   2 -13 146.165 22.7866   3
   0   2 -13 173.527 26.9376   5
  -1   2 -13 11.8579 16.7005   3
  -1   2 -13 26.4234 18.1981   5
   1  -2  13 -9.3946 17.2289   4
   1  -2  13 13.0021 14.5381   6
  -2   2 -13 100.418 19.9613   5
  -2   2 -13 100.540 17.6300   3
   2  -2  13 117.276 19.8112   4
   2  -2  13 112.004 18.1309   6
  -3   2 -13 -1.3015 16.7583   5
  -3   2 -13 19.3046 16.5210   3
   3  -2  13 19.3618 16.7971   4
   3  -2  13 30.1043 16.0003   6
  -4   2 -13 6.90881 15.4106   3
  -4   2 -13 58.6702 18.1849   5
   4  -2  13 36.9499 16.3886   6
   4  -2  13 40.6853 16.3800   4
  -5   2 -13 2.04138 16.1039   3
  -5   2 -13 30.1521 18.3112   5
   5  -2  13 37.9565 18.0794   6
  -6   2 -13 -7.0487 17.1773   3
  -6   2 -13 -10.700 18.9930   5
   6  -2  13 20.0910 23.2221   6
   0   1 -13 46.2301 35.1556   5
   0   1 -13 33.2648 17.9468   3
   0  -1  13 -3.8466 21.1356   4
  -1   1 -13 201.433 24.5720   5
  -1   1 -13 188.757 21.8307   3
   1  -1  13 166.621 22.4149   4
  -2   1 -13 44.3566 18.6055   5
  -2   1 -13 92.5312 18.0720   3
   2  -1  13 39.6446 16.9626   4
   2  -1  13 60.0851 15.4573   6
  -3   1 -13 103.480 16.7220   3
  -3   1 -13 97.6493 19.6844   5
   3  -1  13 130.508 19.6840   4
   3  -1  13 113.761 17.8300   6
  -4   1 -13 61.5684 18.5474   5
  -4   1 -13 109.619 16.5472   3
   4  -1  13 115.704 18.4369   4
   4  -1  13 98.6002 18.4692   6
  -5   1 -13 14.2820 14.0202   3
  -5   1 -13 25.3626 17.7146   5
   5  -1  13 16.3969 16.8578   6
   5  -1  13 -0.7929 15.4699   4
  -6   1 -13 96.5182 21.2403   5
  -6   1 -13 93.4057 17.1449   3
   6  -1  13 126.512 21.0595   6
   6  -1  13 69.7293 17.4198   4
   0   0 -13 131.731 21.4138   3
  -1   0 -13 5.20924 15.0930   3
  -1   0 -13 23.7539 18.2684   5
   1   0  13 3.11532 16.7575   4
  -2   0 -13 147.934 18.5973   3
  -2   0 -13 110.431 19.7609   5
   2   0  13 120.045 16.2294   6
   2   0  13 141.614 20.4202   4
  -3   0 -13 116.965 16.8476   3
  -3   0 -13 118.819 20.0492   5
   3   0  13 93.1376 16.4088   6
   3   0  13 141.197 19.6731   4
  -4   0 -13 25.6024 13.8603   3
  -4   0 -13 31.6912 17.1572   5
   4   0  13 19.1665 15.1240   4
   4   0  13 2.44776 14.6317   6
  -5   0 -13 207.587 23.7510   5
  -5   0 -13 191.978 19.1547   3
   5   0  13 240.736 25.6573   6
   5   0  13 288.281 24.5878   4
  -6   0 -13 14.5179 18.2651   5
   6   0  13 16.3162 15.2672   4
   6   0  13 45.5398 17.4635   6
  -7   0 -13 94.1444 22.7127   5
   7   0  13 137.549 22.2254   6
  -1  -1 -13 3.47629 19.4131   5
  -1  -1 -13 34.1485 16.6485   3
   1   1  13 -0.5658 17.1200   4
  -2  -1 -13 26.4010 14.3542   3
  -2  -1 -13 33.4988 19.0703   5
   2   1  13 8.87339 16.7831   4
   2   1  13 21.1924 14.9423   6
  -3  -1 -13 38.8194 15.6713   5
  -3  -1 -13 -7.9722 12.6974   3
   3   1  13 25.1573 15.4653   4
   3   1  13 35.3471 14.5003   6
  -4  -1 -13 69.3909 18.5991   5
  -4  -1 -13 56.8352 16.8175   3
   4   1  13 29.9449 15.2286   6
   4   1  13 39.4578 16.1337   4
  -5  -1 -13 12.2187 17.0715   5
   5   1  13 -22.676 13.6722   6
   5   1  13 18.1467 14.0498   4
  -6  -1 -13 47.1448 18.6514   5
   6   1  13 56.9266 16.9370   6
   6   1  13 63.0570 16.9571   4
  -7  -1 -13 20.3453 19.0721   5
   7   1  13 33.6423 15.9432   4
   7   1  13 31.0995 18.4549   6
  -1  -2 -13 35.9949 28.6923   3
  -2  -2 -13 -11.530 18.5227   5
   2   2  13 -20.554 16.4623   4
  -3  -2 -13 -5.9470 16.4693   5
   3   2  13 15.6131 15.7881   4
   3   2  13 12.1839 14.3526   6
  -4  -2 -13 -1.4349 16.5491   5
   4   2  13 1.77846 14.2042   4
   4   2  13 -21.059 13.5838   6
  -5  -2 -13 16.9959 14.8450   5
   5   2  13 -11.928 13.8433   6
   5   2  13 -13.592 14.3335   4
  -6  -2 -13 -3.0511 15.8884   5
   6   2  13 3.74734 15.4234   6
   6   2  13 8.84169 14.5287   4
  -7  -2 -13 3.25614 18.3833   5
   7   2  13 32.8660 17.7648   6
   7   2  13 -16.949 15.0941   4
  -2  -3 -13 165.898 29.7046   5
   2   3  13 78.3993 21.4702   4
  -3  -3 -13 -4.2403 18.8205   5
   3   3  13 -13.452 14.8126   6
   3   3  13 22.5394 17.7144   4
  -4  -3 -13 249.757 29.5784   5
   4   3  13 260.689 24.7514   4
   4   3  13 255.231 26.7133   6
  -5  -3 -13 27.7395 18.3427   5
   5   3  13 21.6482 15.7259   4
   5   3  13 -16.662 14.0171   6
  -6  -3 -13 59.3441 19.4844   5
   6   3  13 55.1398 16.6419   4
   6   3  13 73.4511 17.2721   6
  -7  -3 -13 20.3509 19.2278   5
   7   3  13 15.9360 15.9573   4
   7   3  13 -27.839 16.2046   6
   3   4  13 158.258 26.9547   4
  -4  -4 -13 8.89573 19.1748   5
   4   4  13 -14.755 16.7731   4
   4   4  13 -16.170 14.6236   6
  -5  -4 -13 75.4001 21.7960   5
   5   4  13 97.0870 20.0191   4
   5   4  13 107.206 17.9154   6
  -6  -4 -13 75.9303 21.9121   5
   6   4  13 96.4618 18.9124   6
   6   4  13 84.4532 19.5494   4
   7   4  13 -7.8912 17.4488   6
   7   4  13 37.9821 18.2925   4
   5   5  13 73.4194 19.2882   6
   5   5  13 53.2637 20.4990   4
   6   5  13 51.5176 19.2134   4
   6   5  13 46.2776 19.4809   6
   0   0   0    0.00    0.00   0

 _exptl_absorpt_process_details
)
 SADABS 2016/2: Krause, L., Herbst-Irmer, R., Sheldrick G.M. & Stalke D.,
 J. Appl. Cryst. 48 (2015) 3-10
)
 _exptl_absorpt_correction_type   multi-scan
 _exptl_absorpt_correction_T_max  0.7465
 _exptl_absorpt_correction_T_min  0.6826
 _exptl_special_details
)
 The following wavelength and cell were deduced by SADABS from the
 direction cosines etc. They are given here for emergency use only:
 CELL 0.71082    8.286    8.428    9.046   87.804   71.615   67.297
)

;
_shelx_hkl_checksum              59689
loop_
_space_group_symop_operation_xyz
'x, y, z'
'-x, -y, -z'
loop_
_atom_site_label
_atom_site_type_symbol
_atom_site_fract_x
_atom_site_fract_y
_atom_site_fract_z
_atom_site_U_iso_or_equiv
_atom_site_adp_type
_atom_site_occupancy
_atom_site_site_symmetry_order
_atom_site_calc_flag
_atom_site_refinement_flags_posn
_atom_site_refinement_flags_adp
C1 C 0.5394(3) 0.2290(3) 0.0508(3) 0.0270(5) Uani 1 1 d . .
H1 H 0.566031 0.304154 -0.025380 0.032 Uiso 1 1 calc R U
C2 C 0.6705(3) 0.0668(3) 0.0432(3) 0.0226(4) Uani 1 1 d . .
H2 H 0.785252 0.029382 -0.039726 0.027 Uiso 1 1 calc R U
C3 C 0.6368(3) -0.0460(3) 0.1578(2) 0.0198(4) Uani 1 1 d . .
C4 C 0.4589(3) 0.0174(3) 0.2730(3) 0.0260(5) Uani 1 1 d . .
H4 H 0.427224 -0.053938 0.351188 0.031 Uiso 1 1 calc R U
C5 C 0.3329(3) 0.1794(3) 0.2728(3) 0.0291(5) Uani 1 1 d . .
H5 H 0.214257 0.219330 0.350782 0.035 Uiso 1 1 calc R U
C6 C 0.9474(3) -0.2626(3) 0.0375(3) 0.0285(5) Uani 1 1 d . .
H6A H 1.029264 -0.372434 0.062249 0.043 Uiso 1 1 calc R U
H6B H 1.000337 -0.176069 0.033681 0.043 Uiso 1 1 calc R U
H6C H 0.934560 -0.279043 -0.064369 0.043 Uiso 1 1 calc R U
C7 C 0.7306(4) -0.3171(3) 0.2783(3) 0.0383(6) Uani 1 1 d . .
H7A H 0.685394 -0.254504 0.381961 0.057 Uiso 1 1 calc R U
H7B H 0.845404 -0.418151 0.267550 0.057 Uiso 1 1 calc R U
H7C H 0.637076 -0.355126 0.266392 0.057 Uiso 1 1 calc R U
I1 I 0.21527(2) 0.62616(2) 0.37590(2) 0.02540(5) Uani 1 1 d . .
I2 I 0.18612(3) 0.83372(2) 0.62498(2) 0.03764(6) Uani 1 1 d . .
N1 N 0.3737(3) 0.2843(2) 0.1638(2) 0.0274(4) Uani 1 1 d . .
N2 N 0.7663(3) -0.2037(2) 0.1578(2) 0.0235(4) Uani 1 1 d . .
O1 O 0.2465(3) 0.4459(2) 0.1664(2) 0.0374(4) Uani 1 1 d . .
loop_
_atom_site_aniso_label
_atom_site_aniso_U_11
_atom_site_aniso_U_22
_atom_site_aniso_U_33
_atom_site_aniso_U_23
_atom_site_aniso_U_13
_atom_site_aniso_U_12
C1 0.0335(13) 0.0274(12) 0.0227(11) 0.0047(9) -0.0127(10) -0.0122(10)
C2 0.0226(11) 0.0242(11) 0.0204(10) 0.0009(8) -0.0067(9) -0.0089(9)
C3 0.0214(10) 0.0230(10) 0.0185(10) 0.0003(8) -0.0087(8) -0.0104(8)
C4 0.0257(12) 0.0306(12) 0.0225(11) 0.0001(9) -0.0046(9) -0.0141(10)
C5 0.0227(12) 0.0357(13) 0.0261(12) -0.0057(10) -0.0052(9) -0.0101(10)
C6 0.0216(11) 0.0271(12) 0.0321(13) 0.0032(10) -0.0067(10) -0.0062(9)
C7 0.0398(15) 0.0341(14) 0.0392(15) 0.0157(12) -0.0123(12) -0.0143(12)
I1 0.02578(8) 0.02538(8) 0.02311(8) 0.00093(6) -0.00730(6) -0.00849(6)
I2 0.04966(12) 0.04888(11) 0.02233(9) -0.00144(7) -0.00437(8) -0.03303(9)
N1 0.0271(10) 0.0239(10) 0.0285(10) -0.0045(8) -0.0147(8) -0.0021(8)
N2 0.0233(10) 0.0233(9) 0.0236(9) 0.0052(7) -0.0089(8) -0.0080(8)
O1 0.0371(10) 0.0261(9) 0.0423(10) -0.0037(8) -0.0238(9) 0.0038(7)
loop_
_atom_type_symbol
_atom_type_description
_atom_type_scat_dispersion_real
_atom_type_scat_dispersion_imag
_atom_type_scat_source
C C 0.0033 0.0016 'International Tables Vol C Tables 4.2.6.8 and 6.1.1.4'
H H 0.0000 0.0000 'International Tables Vol C Tables 4.2.6.8 and 6.1.1.4'
I I -0.4742 1.8119 'International Tables Vol C Tables 4.2.6.8 and 6.1.1.4'
N N 0.0061 0.0033 'International Tables Vol C Tables 4.2.6.8 and 6.1.1.4'
O O 0.0106 0.0060 'International Tables Vol C Tables 4.2.6.8 and 6.1.1.4'
loop_
_geom_angle_atom_site_label_1
_geom_angle_atom_site_label_2
_geom_angle_atom_site_label_3
_geom_angle
N1 C1 C2 121.3(2)
N1 C1 H1 119.3
C2 C1 H1 119.3
C1 C2 C3 120.5(2)
C1 C2 H2 119.7
C3 C2 H2 119.7
N2 C3 C2 122.0(2)
N2 C3 C4 122.1(2)
C2 C3 C4 115.9(2)
C5 C4 C3 120.8(2)
C5 C4 H4 119.6
C3 C4 H4 119.6
N1 C5 C4 121.1(2)
N1 C5 H5 119.4
C4 C5 H5 119.4
N2 C6 H6A 109.5
N2 C6 H6B 109.5
H6A C6 H6B 109.5
N2 C6 H6C 109.5
H6A C6 H6C 109.5
H6B C6 H6C 109.5
N2 C7 H7A 109.5
N2 C7 H7B 109.5
H7A C7 H7B 109.5
N2 C7 H7C 109.5
H7A C7 H7C 109.5
H7B C7 H7C 109.5
O1 I1 I2 178.62(4)
C1 N1 C5 120.3(2)
C1 N1 O1 119.5(2)
C5 N1 O1 120.2(2)
C3 N2 C6 120.06(19)
C3 N2 C7 121.3(2)
C6 N2 C7 118.60(19)
N1 O1 I1 110.11(12)
loop_
_geom_bond_atom_site_label_1
_geom_bond_atom_site_label_2
_geom_bond_distance
C1 N1 1.343(3)
C1 C2 1.365(3)
C1 H1 0.9500
C2 C3 1.414(3)
C2 H2 0.9500
C3 N2 1.347(3)
C3 C4 1.417(3)
C4 C5 1.361(3)
C4 H4 0.9500
C5 N1 1.349(3)
C5 H5 0.9500
C6 N2 1.455(3)
C6 H6A 0.9800
C6 H6B 0.9800
C6 H6C 0.9800
C7 N2 1.457(3)
C7 H7A 0.9800
C7 H7B 0.9800
C7 H7C 0.9800
I1 O1 2.3588(18)
I1 I2 2.7951(3)
N1 O1 1.357(2)
loop_
_geom_torsion_atom_site_label_1
_geom_torsion_atom_site_label_2
_geom_torsion_atom_site_label_3
_geom_torsion_atom_site_label_4
_geom_torsion
N1 C1 C2 C3 -1.9(3)
C1 C2 C3 N2 -176.8(2)
C1 C2 C3 C4 2.8(3)
N2 C3 C4 C5 177.9(2)
C2 C3 C4 C5 -1.7(3)
C3 C4 C5 N1 -0.3(4)
C2 C1 N1 C5 -0.2(3)
C2 C1 N1 O1 -179.4(2)
C4 C5 N1 C1 1.3(3)
C4 C5 N1 O1 -179.5(2)
C2 C3 N2 C6 0.0(3)
C4 C3 N2 C6 -179.6(2)
C2 C3 N2 C7 178.9(2)
C4 C3 N2 C7 -0.7(3)
C1 N1 O1 I1 -108.00(19)
C5 N1 O1 I1 72.8(2)
