#------------------------------------------------------------------------------
#$Date: 2019-11-04 17:27:52 +0200 (Mon, 04 Nov 2019) $
#$Revision: 223158 $
#$URL: file:///home/coder/svn-repositories/cod/cif/1/55/27/1552725.cif $
#------------------------------------------------------------------------------
#
# This file is available in the Crystallography Open Database (COD),
# http://www.crystallography.net/
#
# All data on this site have been placed in the public domain by the
# contributors.
#
data_1552725
loop_
_publ_author_name
'Borley, William'
'Watson, Brandon'
'Nizhnik, Yakov P.'
'Zeller, Matthias'
'Rosokha, Sergiy V.'
_publ_section_title
;
 Complexes of Diiodine with Heteroaromatic <i>N</i>-Oxides: Effects of
 Halogen-Bond Acceptors in Halogen Bonding.
;
_journal_issue                   32
_journal_name_full               'The journal of physical chemistry. A'
_journal_page_first              7113
_journal_page_last               7123
_journal_paper_doi               10.1021/acs.jpca.9b05549
_journal_volume                  123
_journal_year                    2019
_chemical_formula_moiety         'C4 H4 N2 O, I2'
_chemical_formula_sum            'C4 H4 I2 N2 O'
_chemical_formula_weight         349.89
_space_group_crystal_system      triclinic
_space_group_IT_number           2
_space_group_name_Hall           '-P 1'
_space_group_name_H-M_alt        'P -1'
_atom_sites_solution_hydrogens   geom
_audit_creation_method           SHELXL-2018/1
_cell_angle_alpha                65.332(2)
_cell_angle_beta                 81.052(3)
_cell_angle_gamma                85.766(3)
_cell_formula_units_Z            2
_cell_length_a                   4.5247(3)
_cell_length_b                   9.3311(7)
_cell_length_c                   10.6259(8)
_cell_measurement_reflns_used    9784
_cell_measurement_temperature    150(2)
_cell_measurement_theta_max      33.1845
_cell_measurement_theta_min      3.8140
_cell_volume                     402.71(5)
_computing_cell_refinement       'SAINT V8.37A (Bruker, 2016)'
_computing_data_collection       'Apex3 v2016.9-0 (Bruker, 2016)'
_computing_data_reduction        'SAINT V8.37A (Bruker, 2016)'
_computing_structure_refinement
;  
SHELXL-2018/1 (Sheldrick, 2015, 2018), 
SHELXLE Rev882 (H\"ubschle et al., 2011)
;
_computing_structure_solution    'SHELXS-97 (Sheldrick, 2008)'
_diffrn_ambient_temperature      150(2)
_diffrn_measured_fraction_theta_full 0.994
_diffrn_measured_fraction_theta_max 0.990
_diffrn_measurement_device_type  'Bruker AXS D8 Quest CMOS diffractometer'
_diffrn_measurement_method       'omega and phi scans'
_diffrn_radiation_monochromator  'Triumph curved graphite crystal'
_diffrn_radiation_type           MoK\a
_diffrn_radiation_wavelength     0.71073
_diffrn_reflns_av_R_equivalents  0.0690
_diffrn_reflns_av_unetI/netI     0.0552
_diffrn_reflns_Laue_measured_fraction_full 0.994
_diffrn_reflns_Laue_measured_fraction_max 0.990
_diffrn_reflns_limit_h_max       6
_diffrn_reflns_limit_h_min       -6
_diffrn_reflns_limit_k_max       14
_diffrn_reflns_limit_k_min       -14
_diffrn_reflns_limit_l_max       16
_diffrn_reflns_limit_l_min       -16
_diffrn_reflns_number            13548
_diffrn_reflns_point_group_measured_fraction_full 0.994
_diffrn_reflns_point_group_measured_fraction_max 0.990
_diffrn_reflns_theta_full        25.242
_diffrn_reflns_theta_max         33.173
_diffrn_reflns_theta_min         3.812
_diffrn_source                   'sealed tube X-ray source'
_exptl_absorpt_coefficient_mu    7.738
_exptl_absorpt_correction_T_max  0.7465
_exptl_absorpt_correction_T_min  0.3803
_exptl_absorpt_correction_type   multi-scan
_exptl_absorpt_process_details
;
 SADABS 2016/2: Krause, L., Herbst-Irmer, R., Sheldrick G.M. & Stalke D.,
 J. Appl. Cryst. 48 (2015) 3-10
;
_exptl_crystal_colour            red
_exptl_crystal_density_diffrn    2.886
_exptl_crystal_description       plate
_exptl_crystal_F_000             312
_exptl_crystal_size_max          0.25
_exptl_crystal_size_mid          0.20
_exptl_crystal_size_min          0.09
_refine_diff_density_max         2.011
_refine_diff_density_min         -1.531
_refine_diff_density_rms         0.283
_refine_ls_extinction_coef       0.028(2)
_refine_ls_extinction_expression Fc^*^=kFc[1+0.001xFc^2^\l^3^/sin(2\q)]^-1/4^
_refine_ls_extinction_method     'SHELXL-2018/1 (Sheldrick 2018)'
_refine_ls_goodness_of_fit_ref   1.095
_refine_ls_hydrogen_treatment    constr
_refine_ls_matrix_type           full
_refine_ls_number_parameters     83
_refine_ls_number_reflns         3050
_refine_ls_number_restraints     0
_refine_ls_restrained_S_all      1.095
_refine_ls_R_factor_all          0.0389
_refine_ls_R_factor_gt           0.0327
_refine_ls_shift/su_max          0.003
_refine_ls_shift/su_mean         0.001
_refine_ls_structure_factor_coef Fsqd
_refine_ls_weighting_details
'w=1/[\s^2^(Fo^2^)+(0.0384P)^2^+0.3588P] where P=(Fo^2^+2Fc^2^)/3'
_refine_ls_weighting_scheme      calc
_refine_ls_wR_factor_gt          0.0910
_refine_ls_wR_factor_ref         0.0951
_reflns_Friedel_coverage         0.000
_reflns_number_gt                2592
_reflns_number_total             3050
_reflns_threshold_expression     'I > 2\s(I)'
_cod_data_source_file            jp9b05549_si_004.cif
_cod_data_source_block           RS60_0m
_cod_database_code               1552725
_shelx_shelxl_version_number     2018/1
_shelx_space_group_comment
;
The symmetry employed for this shelxl refinement is uniquely defined
by the following loop, which should always be used as a source of
symmetry information in preference to the above space-group names.
They are only intended as comments.
;
_shelx_res_file
;
TITL RS60_0m in P-1
    RS60_0m.res
    created by SHELXL-2018/1 at 08:45:11 on 17-Feb-2018
CELL 0.71073   4.52470   9.33110  10.62590  65.3319  81.0518  85.7662
ZERR    2.00   0.00030   0.00070   0.00080   0.0024   0.0025   0.0027
LATT  1
SFAC C H N I O
UNIT 8 8 4 4 2
LIST 6 ! automatically inserted. Change 6 to 4 for CHECKCIF!!
TEMP -123.150
L.S. 4
BOND $H
ACTA
CONF
FMAP 2
PLAN 20
WGHT    0.038400    0.358800
EXTI    0.028345
FVAR       0.63664
C1    1    0.956712    0.159944    0.682397    11.00000    0.03154    0.02363 =
         0.02953   -0.01378   -0.00753    0.00013
AFIX  43
H1    2    0.953815    0.071338    0.660380    11.00000   -1.20000
AFIX   0
C2    1    1.125819    0.156127    0.781606    11.00000    0.02639    0.02379 =
         0.02765   -0.00890   -0.00897    0.00425
AFIX  43
H2    2    1.229787    0.061493    0.830452    11.00000   -1.20000
AFIX   0
C3    1    0.987574    0.408037    0.746521    11.00000    0.02447    0.02587 =
         0.02361   -0.01263   -0.00557   -0.00106
AFIX  43
H3    2    0.994311    0.496244    0.768758    11.00000   -1.20000
AFIX   0
C4    1    0.811417    0.417756    0.648392    11.00000    0.02535    0.02142 =
         0.01989   -0.00931   -0.00682    0.00127
AFIX  43
H4    2    0.702029    0.511613    0.602947    11.00000   -1.20000
AFIX   0
N1    3    0.796194    0.290652    0.617345    11.00000    0.01802    0.01867 =
         0.01417   -0.00535   -0.00264   -0.00146
N2    3    1.148906    0.279940    0.811518    11.00000    0.02218    0.02302 =
         0.02118   -0.00858   -0.01032    0.00239
I1    4    0.508814    0.215220    0.291045    11.00000    0.02727    0.02937 =
         0.02427   -0.01523   -0.01047    0.00505
I2    4    0.345357    0.250416    0.042553    11.00000    0.02142    0.02421 =
         0.02076   -0.01039   -0.00610    0.00149
O1    5    0.633488    0.297450    0.525494    11.00000    0.03921    0.03330 =
         0.03084   -0.01701   -0.02114    0.00475
HKLF 4




REM  RS60_0m in P-1
REM R1 =  0.0327 for    2592 Fo > 4sig(Fo)  and  0.0389 for all    3050 data
REM     83 parameters refined using      0 restraints

END

WGHT      0.0355      0.3799

REM Highest difference peak  2.011,  deepest hole -1.531,  1-sigma level  0.283
Q1    1   0.6867  0.1844  0.5379  11.00000  0.05    2.01
Q2    1   0.6361  0.3134  0.3738  11.00000  0.05    1.75
Q3    1   0.3159  0.2772 -0.0262  11.00000  0.05    1.55
Q4    1   0.3842  0.2416  0.1195  11.00000  0.05    1.40
Q5    1   0.1699  0.2216  0.1414  11.00000  0.05    1.33
Q6    1   0.5386  0.1930  0.3600  11.00000  0.05    1.29
Q7    1   0.1444  0.2747  0.1228  11.00000  0.05    1.23
Q8    1   0.5222  0.2811 -0.0547  11.00000  0.05    1.22
Q9    1   0.4704  0.2332  0.2142  11.00000  0.05    1.22
Q10   1   0.6909  0.2460  0.1945  11.00000  0.05    1.20
Q11   1   0.3555  0.2023  0.3011  11.00000  0.05    1.07
Q12   1   0.5056  0.2600  0.0395  11.00000  0.05    1.06
Q13   1   0.5640  0.2600  0.3449  11.00000  0.05    0.98
Q14   1   1.0388  0.2486  0.8615  11.00000  0.05    0.96
Q15   1   0.1656  0.2462  0.0459  11.00000  0.05    0.90
Q16   1  -0.0490  0.2768  0.1520  11.00000  0.05    0.87
Q17   1  -0.1073  0.3879  0.0783  11.00000  0.05    0.87
Q18   1   0.6227  0.2579 -0.0921  11.00000  0.05    0.86
Q19   1   0.5136  0.2317  0.1384  11.00000  0.05    0.83
Q20   1   0.6939  0.2186  0.2927  11.00000  0.05    0.80
;
_shelx_res_checksum              83080
_shelx_hkl_file
;
  -2   0   0 572.396 65.1458   4
   2   0   0 667.714 65.1764   3
   2   0   0 686.790 65.1371   4
   2   0   0 623.626 65.7107   1
   2   0   0 670.219 65.4645   5
  -3   0   0 -0.0786 2.24508   1
  -3   0   0 1.70937 1.53858   4
   3   0   0 1.59271 1.28472   4
   3   0   0 1.62020 1.17499   3
   3   0   0 3.22601 2.37856   1
   3   0   0 0.96248 1.55589   5
  -4   0   0 5.46933 2.51437   4
  -4   0   0 7.92851 4.23943   1
   4   0   0 6.93436 4.29729   1
   4   0   0 3.55483 2.36225   5
   4   0   0 8.23654 2.09712   4
   4   0   0 8.79511 2.40659   3
   5   0   0 261.487 28.7723   5
   5   0   0 258.497 26.9896   4
   6   0   0 666.016 67.8459   4
   6  -1   0 49.7667 7.63808   4
   6  -1   0 46.9493 11.1091   5
   5  -1   0 1048.22 104.712   4
   5  -1   0 1056.97 106.162   5
  -5   1   0 996.115 105.147   4
   4  -1   0 750.176 72.9708   4
   4  -1   0 746.597 73.9332   5
   4  -1   0 699.756 75.2792   1
   4  -1   0 756.607 73.2505   3
  -4   1   0 665.956 73.2504   4
  -4   1   0 691.359 74.7056   1
   3  -1   0 15.7167 3.67398   1
   3  -1   0 19.5622 3.12013   4
   3  -1   0 17.0703 3.06344   3
   3  -1   0 21.7564 3.87153   5
  -3   1   0 14.3130 2.93233   4
   2  -1   0 371.670 36.2417   3
   2  -1   0 365.856 36.5718   5
   2  -1   0 367.058 36.2201   4
   2  -1   0 358.401 36.6603   1
  -2   1   0 350.358 36.3245   4
  -2   1   0 336.855 37.0098   1
  -2   1   0 343.957 36.2026   3
   1  -1   0 559.748 54.0960   3
   1  -1   0 503.204 54.1812   4
   1  -1   0 560.174 54.3741   1
   1  -1   0 482.515 54.3760   5
  -1   1   0 537.578 54.2339   5
  -1   1   0 569.300 54.1474   4
  -1   1   0 506.815 54.0891   3
  -1   1   0 569.210 54.3866   1
  -1  -1   0 2480.57 246.520   1
   1   1   0 2416.54 246.533   1
  -2  -1   0 1743.89 170.002   2
  -2  -1   0 1859.47 170.392   1
   2   1   0 1552.90 170.130   4
   2   1   0 1548.64 170.029   2
   2   1   0 1626.40 170.409   5
   2   1   0 1828.60 170.396   1
   2   1   0 1660.61 170.194   3
  -3  -1   0 133.992 13.1085   1
   3   1   0 121.632 12.4551   3
   3   1   0 118.079 12.2860   4
   3   1   0 122.925 13.1853   1
   3   1   0 120.968 12.8837   5
   3   1   0 88.5342 12.0635   2
  -4  -1   0 388.667 39.0907   1
   4   1   0 359.117 38.2708   3
   4   1   0 364.385 37.9045   4
   4   1   0 371.899 39.1062   1
   4   1   0 373.795 38.8586   5
   5   1   0 396.018 41.9503   4
   5   1   0 425.269 43.7030   5
   6   1   0 24.4262 7.02163   5
   6   1   0 20.1510 3.96929   4
   6  -2   0 369.860 39.3157   4
   5  -2   0 192.638 20.1782   4
   5  -2   0 198.476 22.2046   5
  -5   2   0 172.155 21.5736   4
   4  -2   0 1.28599 2.46483   5
   4  -2   0 2.76384 2.06601   4
   4  -2   0 1.20195 4.24749   1
   4  -2   0 1.60408 2.05577   3
  -4   2   0 2.38503 4.80157   1
  -4   2   0 -0.4782 2.89293   4
   3  -2   0 17.3586 3.27794   4
   3  -2   0 16.9339 3.98612   5
   3  -2   0 18.5402 4.11397   1
   3  -2   0 20.4607 3.28821   3
  -3   2   0 21.5066 5.32516   4
  -3   2   0 17.5153 3.08874   3
  -3   2   0 17.8962 4.20782   1
   2  -2   0 280.199 27.4911   3
   2  -2   0 263.941 27.8382   5
   2  -2   0 268.051 27.4917   4
   2  -2   0 260.496 28.0489   1
  -2   2   0 276.937 27.6398   4
  -2   2   0 256.574 27.4275   3
  -2   2   0 279.680 27.2182   2
  -2   2   0 270.845 27.2034   2
  -2   2   0 270.994 27.7768   5
  -2   2   0 262.378 28.0858   1
   1  -2   0 6601.17 663.491   1
  -1   2   0 6578.08 663.481   1
  -2  -2   0 457.031 42.3198   2
   2   2   0 360.886 42.4076   4
   2   2   0 419.356 42.3135   2
   2   2   0 420.772 42.4527   3
   2   2   0 430.145 42.6626   5
  -3  -2   0 1.41446 2.16752   1
   3   2   0 1.36518 1.26436   2
   3   2   0 1.95186 1.67296   5
   3   2   0 0.33679 1.19956   3
   3   2   0 0.14907 1.33820   4
   3   2   0 1.95819 2.62229   1
  -4  -2   0 3.53577 3.87383   1
   4   2   0 4.24906 1.99203   4
   4   2   0 6.40058 2.20925   2
   4   2   0 11.0626 4.64807   1
   4   2   0 9.42408 3.11094   5
   4   2   0 5.10204 2.24039   3
   5   2   0 363.752 38.0242   4
   5   2   0 379.427 39.6482   5
   6   2   0 531.296 54.1631   4
   6  -3   0 198.364 24.5950   5
   6  -3   0 191.286 21.3196   4
   5  -3   0 1115.84 107.435   5
   5  -3   0 1106.48 105.798   4
  -5   3   0 885.160 108.975   4
   4  -3   0 1253.85 122.585   3
   4  -3   0 1203.85 122.168   6
   4  -3   0 1260.46 123.450   5
   4  -3   0 1183.88 123.716   1
   4  -3   0 1214.57 122.384   4
  -4   3   0 1121.33 122.804   4
  -4   3   0 1206.85 123.855   1
  -4   3   0 1229.26 122.479   3
   3  -3   0 211.001 21.6220   4
   3  -3   0 209.089 22.3087   5
   3  -3   0 216.031 21.6723   3
   3  -3   0 201.789 21.3538   6
   3  -3   0 191.338 22.7120   1
  -3   3   0 210.689 21.9920   4
  -3   3   0 201.843 22.8414   1
  -3   3   0 211.998 21.1241   2
  -3   3   0 200.732 21.5366   3
  -3   3   0 220.138 21.1726   2
   2  -3   0 7.50864 1.26492   6
   2  -3   0 9.34547 1.74076   4
   2  -3   0 7.91438 2.10324   5
   2  -3   0 9.63720 2.15363   3
   2  -3   0 9.26164 2.63477   1
  -2   3   0 4.41525 1.69912   4
  -2   3   0 6.45722 2.49222   1
  -2   3   0 11.5706 1.55198   2
  -2   3   0 6.70021 1.76600   5
  -2   3   0 5.37920 1.28995   3
   1  -3   0 279.531 27.7032   3
   1  -3   0 251.789 28.1478   5
   1  -3   0 269.839 28.2221   1
   1  -3   0 276.706 27.7466   4
   1  -3   0 274.371 27.5803   6
  -1   3   0 275.412 27.6482   3
  -1   3   0 266.246 27.6065   2
  -1   3   0 277.089 27.7574   5
  -1   3   0 259.642 28.1735   1
  -1   3   0 278.327 27.6000   6
  -1   3   0 283.378 27.7545   4
   0  -3   0 682.904 71.9130   5
   0  -3   0 757.350 72.2729   1
   0  -3   0 612.358 72.0616   3
   0  -3   0 755.360 72.0020   4
   0   3   0 757.126 71.9509   6
   0   3   0 744.565 71.9722   4
   0   3   0 713.141 71.9810   2
   0   3   0 724.977 72.2494   1
   0   3   0 672.070 71.9475   5
  -1  -3   0 3268.73 318.471   4
   1   3   0 3057.96 318.492   2
  -2  -3   0 2988.96 284.220   2
   2   3   0 2709.11 284.048   4
   2   3   0 2789.43 284.426   5
   2   3   0 2799.41 284.191   2
   3   3   0 400.245 43.0517   4
   3   3   0 433.832 43.1765   3
   3   3   0 411.353 42.9283   2
   3   3   0 442.901 43.4809   5
   4   3   0 37.3031 7.14891   1
   4   3   0 45.9384 6.81237   5
   4   3   0 40.2272 6.34815   3
   4   3   0 40.0023 5.82603   2
   4   3   0 42.3276 5.62192   4
   5   3   0 126.818 12.3121   4
   5   3   0 113.391 14.4050   5
   5   3   0 94.2666 12.7284   2
   6   3   0 7.39312 5.08135   5
   6  -4   0 224.761 23.8912   4
   6  -4   0 209.642 27.2829   5
   5  -4   0 60.8218 11.5814   5
   5  -4   0 58.6371 10.8588   4
   4  -4   0 60.3491 7.93131   3
   4  -4   0 57.4376 7.10548   6
   4  -4   0 57.5883 7.72445   4
   4  -4   0 53.7783 10.0177   1
   4  -4   0 59.1958 9.50647   5
  -4   4   0 57.2803 7.44138   3
  -4   4   0 46.1925 9.31378   4
  -4   4   0 52.5452 12.0531   1
   3  -4   0 174.720 17.5197   3
   3  -4   0 161.575 17.1492   6
   3  -4   0 160.233 17.4806   4
   3  -4   0 165.674 18.3280   5
   3  -4   0 158.430 19.0080   1
  -3   4   0 170.398 17.9391   4
  -3   4   0 162.930 17.3404   3
  -3   4   0 169.478 16.9840   2
  -3   4   0 167.245 16.9642   2
  -3   4   0 157.751 18.9853   1
   2  -4   0 50.6035 5.75268   3
   2  -4   0 50.3428 7.28876   1
   2  -4   0 47.2587 6.40357   5
   2  -4   0 48.8488 5.83431   4
   2  -4   0 49.1711 5.39241   6
  -2   4   0 47.6672 5.88089   5
  -2   4   0 48.4513 7.24975   1
  -2   4   0 46.6831 5.50132   3
  -2   4   0 48.1429 6.02790   4
  -2   4   0 47.4632 5.33411   2
   1  -4   0 3008.87 299.203   4
   1  -4   0 3196.37 299.811   1
   1  -4   0 2800.24 299.398   5
   1  -4   0 2620.77 299.149   3
   1  -4   0 2993.30 299.025   6
  -1   4   0 3041.92 299.731   1
  -1   4   0 3103.03 299.201   4
  -1   4   0 3010.99 299.049   6
  -1   4   0 2826.94 299.070   2
  -1   4   0 3055.29 299.157   5
  -1   4   0 3017.10 299.103   3
   0  -4   0 4398.23 486.800   3
   0  -4   0 5117.96 487.084   1
   0   4   0 4934.54 487.056   1
   0   4   0 4890.07 486.645   6
  -1  -4   0 2850.11 286.762   4
  -1  -4   0 2981.17 286.879   1
  -1  -4   0 2999.58 287.259   1
   1   4   0 2646.84 286.768   2
   1   4   0 2923.21 286.897   5
   1   4   0 2684.03 286.902   3
   2   4   0 6.08439 1.27770   4
   2   4   0 8.23815 1.78648   2
   2   4   0 5.77952 1.79194   5
   3   4   0 41.0065 4.63686   4
   3   4   0 33.9904 5.70256   4
   3   4   0 44.2419 5.79421   5
   3   4   0 40.1555 5.55253   2
   3   4   0 36.3066 5.42252   3
   4   4   0 11.2429 2.80026   2
   4   4   0 8.20409 2.96277   3
   4   4   0 12.6212 3.36367   5
   4   4   0 9.25043 1.93802   4
   4   4   0 13.1513 2.68293   4
   5   4   0 181.059 20.6110   5
   5   4   0 186.072 18.7265   4
   5   4   0 188.049 18.5679   4
   5   4   0 151.677 19.5101   2
   6   4   0 290.545 33.0304   5
   6  -5   0 221.962 28.6280   5
   6  -5   0 227.121 24.9792   4
   5  -5   0 824.108 82.2889   4
   5  -5   0 786.196 84.0967   5
   4  -5   0 1461.89 149.526   5
   4  -5   0 1367.72 149.996   1
   4  -5   0 1489.18 148.421   4
   4  -5   0 1461.03 148.480   3
  -4   5   0 1559.31 150.472   4
  -4   5   0 1453.39 148.312   3
  -4   5   0 1472.92 150.765   1
   3  -5   0 312.228 32.0134   4
   3  -5   0 300.885 31.6253   6
   3  -5   0 319.547 32.0015   3
   3  -5   0 299.374 33.5126   1
   3  -5   0 312.912 32.8430   5
  -3   5   0 320.459 31.5370   2
  -3   5   0 315.111 31.5593   2
  -3   5   0 283.113 33.4307   1
  -3   5   0 304.120 31.7801   3
  -3   5   0 317.788 32.3400   4
   2  -5   0 8.46624 2.01957   3
   2  -5   0 9.74183 1.80373   6
   2  -5   0 8.87774 2.78543   5
   2  -5   0 8.37791 2.20583   4
   2  -5   0 11.0925 3.97383   1
  -2   5   0 8.22062 2.16195   4
  -2   5   0 9.84829 2.43397   3
  -2   5   0 13.7956 3.67645   1
  -2   5   0 11.3242 2.28069   2
   1  -5   0 1.25302 1.63432   3
   1  -5   0 3.08952 2.03559   5
   1  -5   0 -0.8672 2.34620   1
   1  -5   0 0.65804 0.93353   6
   1  -5   0 -1.2802 1.30914   4
  -1   5   0 1.74982 1.10816   2
  -1   5   0 1.27032 1.23838   4
  -1   5   0 3.20237 1.10393   5
  -1   5   0 3.27117 2.43056   1
  -1   5   0 0.50874 1.09428   3
  -1   5   0 1.04922 1.13068   6
   0  -5   0 793.773 76.5356   1
   0  -5   0 814.595 76.0549   4
   0  -5   0 781.966 76.1970   3
   0   5   0 706.862 76.1284   2
   0   5   0 825.892 75.9754   4
   0   5   0 803.721 75.9373   6
   0   5   0 532.926 76.0462   3
  -1  -5   0 2905.09 286.095   4
  -1  -5   0 3108.57 286.686   1
  -1  -5   0 3054.54 286.331   1
   1   5   0 2729.41 286.089   2
   1   5   0 2801.31 286.225   5
   1   5   0 2846.50 285.962   4
   1   5   0 2434.61 286.195   3
   2   5   0 3395.26 327.288   3
   2   5   0 3178.93 327.047   2
   2   5   0 3233.07 326.831   4
   2   5   0 3176.98 327.106   5
   3   5   0 555.555 55.4455   5
   3   5   0 516.155 55.2153   3
   3   5   0 554.761 54.7884   4
   3   5   0 538.022 55.1161   2
   4   5   0 -0.5401 2.46504   5
   4   5   0 -0.1340 2.38834   4
   4   5   0 0.38707 2.42698   2
   5   5   0 31.6767 5.62181   4
   5   5   0 36.0069 7.98830   5
   6   5   0 -1.9758 5.27934   5
   6  -6   0 51.1421 10.6571   4
   6  -6   0 48.6131 12.6291   5
   5  -6   0 1.23138 6.13941   5
   5  -6   0 -0.6873 4.02991   4
   4  -6   0 122.118 16.4498   5
   4  -6   0 115.847 14.6527   3
   4  -6   0 120.007 24.4005   1
  -4   6   0 126.454 13.4343   2
  -4   6   0 128.333 13.9664   3
  -4   6   0 128.554 13.2584   2
   3  -6   0 444.290 45.7819   3
   3  -6   0 448.509 46.8194   5
   3  -6   0 427.059 45.3769   6
   3  -6   0 455.604 45.8354   4
   3  -6   0 417.025 47.4407   1
  -3   6   0 464.347 45.3530   2
  -3   6   0 441.111 46.0922   4
  -3   6   0 459.471 45.5352   3
   2  -6   0 27.7697 6.05112   1
   2  -6   0 24.7277 3.91281   6
   2  -6   0 29.3582 4.87388   4
   2  -6   0 27.4521 4.87407   3
   2  -6   0 20.5599 5.79293   5
  -2   6   0 23.0970 3.83307   2
  -2   6   0 24.6832 4.71491   4
  -2   6   0 31.1416 3.98738   3
   1  -6   0 667.081 70.5681   6
   1  -6   0 711.420 70.8768   4
   1  -6   0 700.106 71.6890   1
  -1   6   0 669.705 70.6782   2
  -1   6   0 706.608 70.6406   6
  -1   6   0 715.403 70.8074   4
  -1   6   0 695.300 70.5533   5
  -1   6   0 716.475 70.7056   3
   0  -6   0 1926.75 178.925   3
   0  -6   0 1848.13 179.289   1
   0  -6   0 1848.42 178.753   4
   0   6   0 1823.20 178.630   4
   0   6   0 1405.68 178.774   3
   0   6   0 1723.67 178.652   2
   0   6   0 1822.98 178.600   6
  -1  -6   0 607.579 56.9174   4
  -1  -6   0 590.706 57.1474   1
  -1  -6   0 627.964 57.7604   1
   1   6   0 571.426 56.8487   2
   1   6   0 564.482 56.8266   6
   1   6   0 491.288 56.8815   5
   1   6   0 600.120 56.7060   4
   1   6   0 425.585 56.9315   3
   2   6   0 26.0987 4.07435   4
   2   6   0 29.2762 4.32601   5
   2   6   0 23.3479 5.33094   3
   2   6   0 24.8491 4.58132   2
   2   6   0 29.7838 5.70853   5
   3   6   0 147.215 15.6987   5
   3   6   0 151.670 16.2117   3
   3   6   0 138.121 15.4928   2
   3   6   0 135.953 14.9026   4
   4   6   0 28.2845 6.08028   2
   4   6   0 33.8700 6.27054   4
   4   6   0 36.2157 6.51804   5
   4   6   0 34.2051 4.60032   4
   5   6   0 15.9580 4.85228   5
   5   6   0 23.5908 5.87080   3
   5   6   0 16.5516 3.53823   4
   6   6   0 216.176 29.3331   5
   6   6   0 300.030 31.4391   3
   5  -7   0 654.047 63.1377   4
   5  -7   0 562.780 65.2336   5
   4  -7   0 784.327 85.4698   5
   4  -7   0 769.380 84.0704   3
   4  -7   0 799.458 84.0300   4
  -4   7   0 884.451 83.7377   3
  -4   7   0 867.879 83.2831   2
   3  -7   0 153.512 18.9760   3
   3  -7   0 189.073 22.4053   1
   3  -7   0 158.386 20.1825   5
   3  -7   0 182.960 18.9443   4
  -3   7   0 160.978 22.1055   1
  -3   7   0 184.772 18.3512   2
  -3   7   0 179.653 18.3710   3
   2  -7   0 -0.7777 2.32675   4
   2  -7   0 2.01196 1.73420   6
   2  -7   0 -2.0363 3.14422   5
   2  -7   0 -0.4544 2.60741   3
   2  -7   0 5.10632 5.01696   1
  -2   7   0 0.49459 1.64796   2
  -2   7   0 0.21688 2.28743   4
  -2   7   0 -1.4624 4.88025   1
  -2   7   0 -0.4300 1.57079   3
   1  -7   0 37.3305 8.86539   1
   1  -7   0 51.9560 6.38705   4
   1  -7   0 38.8043 5.86593   5
   1  -7   0 29.0346 7.00726   3
   1  -7   0 47.1272 5.49727   6
  -1   7   0 45.1200 5.66982   2
  -1   7   0 51.4569 6.06108   4
  -1   7   0 45.8470 8.60236   1
  -1   7   0 47.3523 5.88816   6
  -1   7   0 44.2782 5.81257   3
   0  -7   0 238.585 24.0599   4
   0  -7   0 237.708 24.9548   1
   0  -7   0 256.645 24.4097   3
   0   7   0 190.358 24.1554   3
   0   7   0 237.745 23.8548   6
   0   7   0 234.494 23.7833   4
   0   7   0 213.294 23.8013   2
  -1  -7   0 2749.51 254.185   4
  -1  -7   0 2696.24 254.977   1
  -1  -7   0 2704.87 254.473   1
   1   7   0 2628.21 254.054   6
   1   7   0 2667.57 253.923   4
   1   7   0 2476.43 254.078   2
   1   7   0 1717.96 254.086   3
   2   7   0 2021.47 197.955   5
   2   7   0 2054.59 198.498   5
   2   7   0 1931.64 198.139   2
   2   7   0 2028.11 197.830   4
   2   7   0 1773.48 198.271   3
   3   7   0 347.341 39.5174   2
   3   7   0 367.309 38.9814   4
   3   7   0 374.686 39.9548   3
   3   7   0 408.254 39.6888   5
   3   7   0 416.006 40.5006   5
   4   7   0 1.38050 1.81872   4
   4   7   0 0.98613 5.56784   5
   4   7   0 2.28076 3.02553   5
   4   7   0 -0.3399 3.47012   3
   4   7   0 -0.6843 3.33162   4
   5   7   0 5.21516 4.30499   5
   5   7   0 -0.3525 4.80620   3
   5  -8   0 -1.9489 4.96485   4
   5  -8   0 -0.2182 8.56731   5
   4  -8   0 194.331 27.9212   5
   4  -8   0 224.889 25.7910   4
  -4   8   0 261.411 25.0835   3
  -4   8   0 247.972 24.6739   2
   3  -8   0 541.995 58.4215   1
   3  -8   0 462.091 56.4054   5
   3  -8   0 422.194 55.4873   3
   3  -8   0 586.932 55.6848   4
  -3   8   0 543.891 58.2275   1
  -3   8   0 612.446 55.1236   3
  -3   8   0 603.026 55.2656   2
   2  -8   0 141.612 17.6582   1
   2  -8   0 129.729 13.8785   4
   2  -8   0 84.6295 14.0266   3
   2  -8   0 75.8876 13.6926   5
  -2   8   0 148.167 13.0114   3
  -2   8   0 138.647 17.2410   1
  -2   8   0 129.252 13.1179   2
   1  -8   0 83.3428 13.9808   3
   1  -8   0 90.5700 10.6307   4
   1  -8   0 73.0798 13.4286   1
  -1   8   0 92.6225 10.0377   3
  -1   8   0 84.7418 10.2873   4
  -1   8   0 93.1283 10.1342   6
  -1   8   0 82.8663 9.95436   2
   0  -8   0 305.490 32.2853   1
   0  -8   0 307.724 30.7349   4
   0  -8   0 288.036 31.7923   1
   0   8   0 311.886 30.4290   6
   0   8   0 287.712 30.2946   4
   0   8   0 280.997 30.7882   3
   0   8   0 273.461 30.3668   2
  -1  -8   0 78.8138 9.65373   4
  -1  -8   0 68.6740 13.0199   1
  -1  -8   0 62.2653 10.8679   1
   1   8   0 80.7992 8.63588   4
   1   8   0 80.7049 9.42059   6
   1   8   0 63.9975 9.91189   3
   1   8   0 71.6364 8.99459   2
   2   8   0 62.4751 7.37590   4
   2   8   0 56.4001 8.72042   6
   2   8   0 67.7013 7.35889   5
   2   8   0 59.5142 9.12243   5
   2   8   0 49.7795 8.74735   3
   3   8   0 238.407 25.2633   4
   3   8   0 223.608 26.4191   3
   3   8   0 264.798 25.8811   5
   3   8   0 248.462 27.2838   5
   4   8   0 91.3190 11.9161   4
   4   8   0 85.4347 12.3696   3
   4   8   0 89.5275 11.4951   5
   5   8   0 0.79513 5.28317   3
   5   8   0 2.65350 4.82018   5
   4  -9   0 275.827 31.6643   4
   4  -9   0 212.371 33.2750   5
  -4   9   0 312.112 30.8089   3
  -4   9   0 351.847 31.5050   2
   3  -9   0 42.6189 11.0921   5
   3  -9   0 65.8449 9.84187   4
  -3   9   0 70.3255 8.34629   3
  -3   9   0 65.8425 11.0564   2
   2  -9   0 2.13008 2.99456   5
   2  -9   0 -0.2664 4.20412   3
   2  -9   0 0.55717 3.62248   4
  -2   9   0 1.53822 2.13001   3
  -2   9   0 -8.3851 10.0577   1
   1  -9   0 0.91143 3.81895   3
   1  -9   0 -0.1806 3.28006   4
  -1   9   0 0.02760 2.29926   3
   0  -9   0 102.667 12.7874   4
   0   9   0 105.680 12.9802   3
   0   9   0 109.343 12.3532   6
  -1  -9   0 1420.51 138.945   4
  -1  -9   0 1382.35 140.914   1
   1   9   0 1468.76 138.999   6
   1   9   0 1302.08 139.098   3
   1   9   0 1278.51 138.446   4
   2   9   0 735.076 69.1993   4
   2   9   0 525.696 69.6236   3
   2   9   0 785.520 69.7180   6
   3   9   0 188.008 18.9414   5
   3   9   0 180.822 18.6151   4
   3   9   0 180.799 19.7028   6
   3   9   0 129.333 23.2236   3
   4   9   0 5.26623 3.84387   5
   4   9   0 5.75033 4.66543   3
   5   9   0 5.24301 6.65930   3
   4 -10   0 256.235 29.3119   4
   3 -10   0 447.113 47.7966   4
  -3  10   0 441.408 46.9939   2
  -3  10   0 470.923 46.7589   3
   2 -10   0 142.288 17.4178   4
  -2  10   0 149.721 16.0929   3
   1 -10   0 4.39388 4.76697   3
   1 -10   0 4.72847 3.99060   4
  -1  10   0 6.25485 3.28257   6
  -1  10   0 4.99540 2.97125   3
   0 -10   0 33.6393 6.36255   4
   0  10   0 32.8773 7.96169   3
   0  10   0 44.5824 7.26249   6
  -1 -10   0 9.26149 7.93578   4
   1  10   0 4.01218 3.65761   6
   1  10   0 6.89652 4.46734   3
   2  10   0 91.8715 11.9202   6
   2  10   0 79.0945 12.2866   3
   3  10   0 216.251 20.7574   6
   3  10   0 150.294 20.4486   3
   4  10   0 83.7624 12.8118   6
   4  10   0 60.1151 12.6680   3
   3 -11   0 1.66846 5.91036   4
  -3  11   0 -1.7202 4.16183   2
   2 -11   0 22.9987 6.24553   4
  -2  11   0 19.2523 4.05091   3
   1 -11   0 24.3102 6.58779   4
  -1  11   0 28.4464 6.78302   3
  -1  11   0 28.4321 5.48080   6
   0 -11   0 65.4017 11.5320   4
   0  11   0 74.1847 11.1283   3
   0  11   0 69.1250 10.6113   6
  -1 -11   0 305.939 34.5241   4
   1  11   0 328.589 34.1221   6
   1  11   0 327.281 34.9902   3
   2  11   0 344.922 32.8099   6
   2  11   0 258.435 35.6123   3
   3  11   0 36.6362 6.90921   6
   3  11   0 22.1574 6.44382   3
   2 -12   0 112.816 17.7969   4
   1 -12   0 11.2828 6.81212   4
  -1  12   0 18.9948 5.53651   6
   0 -12   0 2.67840 6.52867   4
   0  12   0 4.59959 7.68657   3
   0  12   0 14.0613 5.29722   6
  -1 -12   0 0.45328 5.84788   4
   1  12   0 0.50888 5.01359   6
   1  12   0 -1.3017 6.63781   3
   2  12   0 47.6595 8.76501   6
   2  12   0 58.5315 13.8765   3
   0 -13   0 -6.0120 8.02737   4
   2  12  -1 28.0623 8.34293   3
   1  12  -1 -7.0027 5.36299   6
   1  12  -1 -5.1543 7.42814   3
  -1 -12   1 -7.6166 5.94097   4
   0  12  -1 68.3360 12.8171   6
   0 -12   1 75.8386 14.2649   4
  -1  12  -1 20.5718 6.57786   6
   1 -12   1 11.6005 7.91036   4
   3  11  -1 9.02721 6.19418   3
   3  11  -1 12.2660 6.69705   6
   2  11  -1 4.82736 5.33969   3
   2  11  -1 -5.3460 4.47539   6
   1  11  -1 5.58688 5.06195   6
   1  11  -1 6.67132 8.87867   3
  -1 -11   1 12.3269 5.73895   4
   0  11  -1 50.2290 7.90100   6
   0  11  -1 49.7709 11.2742   3
   0 -11   1 54.3213 8.94138   4
  -1  11  -1 219.987 23.9576   3
  -1  11  -1 222.871 24.1443   6
   1 -11   1 196.067 24.7521   4
  -2  11  -1 511.604 50.5606   3
   2 -11   1 458.748 51.5723   4
   3 -11   1 156.862 20.9651   4
   4  10  -1 64.7243 13.5761   6
   4  10  -1 57.8756 13.2447   3
   3  10  -1 190.651 25.7915   3
   3  10  -1 287.517 26.1315   6
   2  10  -1 253.789 25.2714   6
   2  10  -1 205.220 26.4647   3
   1  10  -1 -4.5137 3.65904   6
   1  10  -1 -1.3326 4.32325   3
   0  10  -1 52.1009 8.55748   6
   0  10  -1 38.7577 9.63923   3
   0 -10   1 50.6499 9.34430   4
  -1  10  -1 1.56667 3.61791   6
  -1  10  -1 7.04245 4.07239   3
   1 -10   1 6.24862 4.73027   4
  -2  10  -1 72.2335 10.1509   3
  -2  10  -1 81.7547 11.1202   6
   2 -10   1 66.7670 11.8042   4
  -3  10  -1 313.863 31.7542   3
   3 -10   1 278.937 32.7628   4
   4   9  -1 108.716 15.6283   3
   3   9  -1 20.3578 5.35472   5
   3   9  -1 9.15860 4.52386   3
   3   9  -1 26.8016 5.38106   6
   2   9  -1 16.7712 4.97087   3
   2   9  -1 36.1372 5.42315   4
   2   9  -1 37.4168 5.56621   6
   1   9  -1 22.2652 4.80112   4
   1   9  -1 20.9815 5.04391   3
   1   9  -1 21.7101 4.55206   6
  -1  -9   1 15.6657 4.69949   4
   0   9  -1 6.62568 4.10658   3
   0   9  -1 7.78283 4.38156   6
   0  -9   1 7.62272 3.98157   4
  -1   9  -1 445.309 45.8160   6
  -1   9  -1 465.673 45.9747   3
   1  -9   1 418.750 46.7294   3
  -2   9  -1 905.425 83.2557   6
  -2   9  -1 912.443 83.1978   3
   2  -9   1 808.789 83.7173   4
   2  -9   1 638.302 83.7359   3
  -3   9  -1 299.347 26.4238   3
   3  -9   1 181.084 26.7997   5
   3  -9   1 261.786 27.2357   4
  -4   9  -1 -1.0424 3.52439   3
   4  -9   1 -1.9345 4.97207   4
   5   8  -1 4.70648 5.85330   3
   5   8  -1 3.01080 5.41647   5
   4   8  -1 202.751 22.5587   5
   4   8  -1 180.552 23.3254   3
   4   8  -1 224.719 22.1767   4
   3   8  -1 762.612 81.3653   4
   3   8  -1 825.024 81.8213   5
   3   8  -1 823.168 82.6548   5
   2   8  -1 796.146 72.5591   4
   2   8  -1 805.750 74.3736   6
   2   8  -1 555.139 73.0633   3
   1   8  -1 -0.5874 2.71279   6
   1   8  -1 2.33681 3.10577   3
   1   8  -1 0.84315 1.84993   4
  -1  -8   1 2.38237 2.98703   4
  -1  -8   1 7.23097 7.60075   1
  -1  -8   1 -0.3035 6.49595   1
   0   8  -1 2.63620 1.99028   4
   0   8  -1 0.51070 2.48646   6
   0   8  -1 0.44874 3.17864   3
   0   8  -1 6.65890 2.67077   2
   0  -8   1 1.84280 3.57754   3
   0  -8   1 -2.9164 6.10703   1
   0  -8   1 -7.4009 5.26116   1
   0  -8   1 2.32195 2.94295   4
  -1   8  -1 2.23948 2.85474   3
  -1   8  -1 3.82785 2.47469   2
  -1   8  -1 0.23484 2.59497   6
  -1   8  -1 -1.8900 2.35030   4
   1  -8   1 3.24849 6.22661   1
   1  -8   1 3.95575 3.28333   4
   1  -8   1 2.55626 3.77785   3
  -2   8  -1 296.108 28.9626   2
  -2   8  -1 334.000 29.0504   3
  -2   8  -1 355.871 29.3203   6
   2  -8   1 181.030 28.6837   5
   2  -8   1 313.297 32.7175   1
   2  -8   1 272.431 30.4526   4
   2  -8   1 208.060 29.5685   3
  -3   8  -1 798.926 83.9302   1
  -3   8  -1 786.790 81.0763   2
  -3   8  -1 941.414 81.1997   3
   3  -8   1 918.361 81.7521   4
   3  -8   1 799.725 84.3673   1
   3  -8   1 594.736 81.4304   3
   3  -8   1 737.291 81.9700   5
  -4   8  -1 630.022 56.4030   2
   4  -8   1 486.225 58.5108   5
   4  -8   1 531.407 57.4743   4
  -5   8  -1 61.7641 9.30808   3
   5  -8   1 48.5729 8.73018   4
   5  -8   1 37.1830 11.5619   5
   5   7  -1 73.4982 11.7189   5
   5   7  -1 73.7803 13.0847   3
   4   7  -1 137.044 16.6111   3
   4   7  -1 128.699 15.0805   4
   4   7  -1 136.966 15.8832   5
   3   7  -1 6.58279 3.77248   3
   3   7  -1 5.38550 1.95189   4
   3   7  -1 12.0531 4.58063   5
   3   7  -1 7.51755 2.83725   5
   2   7  -1 197.256 21.7761   2
   2   7  -1 208.663 22.0545   5
   2   7  -1 170.706 22.0627   3
   2   7  -1 219.977 21.2016   4
   2   7  -1 221.787 21.3084   5
   1   7  -1 450.798 42.5540   4
   1   7  -1 413.543 42.8232   2
   1   7  -1 332.404 43.0841   3
   1   7  -1 433.855 42.8646   6
  -1  -7   1 403.447 44.6363   1
  -1  -7   1 437.672 42.8977   4
  -1  -7   1 448.786 43.6331   1
   0   7  -1 24.9208 4.48338   2
   0   7  -1 26.5961 6.00074   3
   0   7  -1 26.2603 4.29203   4
   0   7  -1 27.2520 4.92970   6
   0  -7   1 23.3095 5.37990   1
   0  -7   1 29.0536 5.16220   4
   0  -7   1 27.0858 6.10119   1
   0  -7   1 32.6432 6.85212   3
  -1   7  -1 524.657 53.9307   2
  -1   7  -1 584.384 54.2117   3
  -1   7  -1 571.251 53.9313   6
  -1   7  -1 546.928 54.0195   4
   1  -7   1 533.258 54.1826   4
   1  -7   1 535.162 55.4196   1
   1  -7   1 407.553 54.3099   3
  -2   7  -1 1077.52 96.7488   3
  -2   7  -1 971.548 98.2522   1
  -2   7  -1 985.884 96.9228   4
  -2   7  -1 1085.90 96.6549   6
  -2   7  -1 1012.04 96.6622   2
   2  -7   1 994.924 98.4666   1
   2  -7   1 637.800 96.7105   3
   2  -7   1 1036.60 97.0221   4
   2  -7   1 947.173 96.4556   6
   2  -7   1 795.465 96.9196   5
  -3   7  -1 227.332 22.1559   3
  -3   7  -1 202.655 25.7765   1
  -3   7  -1 216.761 22.0130   2
   3  -7   1 198.162 23.5377   5
   3  -7   1 199.338 22.7986   3
   3  -7   1 192.161 26.0065   1
  -4   7  -1 0.98741 2.83505   3
  -4   7  -1 -0.5820 2.30642   2
   4  -7   1 3.56096 4.03964   4
   4  -7   1 3.89546 5.51207   5
  -5   7  -1 12.8322 4.06242   3
   5  -7   1 15.3056 8.17574   5
   5  -7   1 26.2781 5.62413   4
   5   6  -1 6.06497 4.96630   3
   5   6  -1 7.13349 4.41803   5
   4   6  -1 327.370 42.3017   2
   4   6  -1 423.257 42.7877   5
   4   6  -1 392.972 41.7279   4
   4   6  -1 470.847 43.2500   3
   4   6  -1 432.526 41.9069   4
   3   6  -1 1573.75 167.440   2
   3   6  -1 1744.28 167.866   3
   3   6  -1 1585.33 167.073   4
   3   6  -1 1722.72 167.582   5
   2   6  -1 994.700 111.977   3
   2   6  -1 1225.41 112.074   5
   2   6  -1 1066.75 111.780   2
   2   6  -1 1127.81 111.631   5
   1   6  -1 100.978 15.0549   3
   1   6  -1 137.728 14.9123   6
   1   6  -1 148.593 14.4668   4
   1   6  -1 139.687 14.7562   2
  -1  -6   1 143.496 17.1906   1
  -1  -6   1 157.218 15.7180   1
  -1  -6   1 143.518 14.8391   4
   0   6  -1 12.5761 2.88602   2
   0   6  -1 6.02444 2.05973   6
   0   6  -1 5.46524 2.63980   3
   0   6  -1 8.32206 1.73245   4
   0  -6   1 11.7889 2.44812   4
   0  -6   1 6.66043 2.81493   3
   0  -6   1 6.40910 3.40971   1
   0  -6   1 13.7741 4.17611   1
  -1   6  -1 46.8920 5.92693   6
  -1   6  -1 50.9087 6.35617   3
  -1   6  -1 49.4975 5.78372   2
  -1   6  -1 54.9155 6.01886   4
   1  -6   1 34.1808 7.08480   3
   1  -6   1 43.6012 6.35902   4
   1  -6   1 45.4688 8.39016   1
   1  -6   1 42.9452 5.51166   6
  -2   6  -1 812.422 86.2587   1
  -2   6  -1 884.480 84.9301   6
  -2   6  -1 881.984 85.0451   3
  -2   6  -1 868.977 84.9528   2
  -2   6  -1 882.354 85.2362   4
   2  -6   1 809.873 85.5002   5
   2  -6   1 850.490 84.8144   6
   2  -6   1 867.567 85.2733   4
   2  -6   1 847.332 86.4403   1
   2  -6   1 680.978 85.1038   3
  -3   6  -1 2038.46 225.685   1
  -3   6  -1 2267.11 224.313   3
  -3   6  -1 2237.13 224.134   2
  -3   6  -1 2617.86 225.425   4
   3  -6   1 2117.71 224.451   3
   3  -6   1 2109.19 225.817   1
   3  -6   1 2157.92 224.064   6
   3  -6   1 2210.05 225.168   5
   3  -6   1 2248.50 224.570   4
  -4   6  -1 1066.09 102.095   2
  -4   6  -1 913.919 102.180   2
  -4   6  -1 1075.46 102.692   3
   4  -6   1 1024.77 102.960   4
   4  -6   1 1007.52 103.992   5
   4  -6   1 975.409 103.019   3
  -5   6  -1 188.627 20.2826   3
   5  -6   1 181.360 20.7485   4
   5  -6   1 177.119 23.2879   5
   6  -6   1 -0.1084 9.13355   5
   6  -6   1 -3.4413 5.40869   4
   6   5  -1 0.96775 5.50701   5
   6   5  -1 -6.9402 6.38640   3
   5   5  -1 55.4839 9.90602   5
   5   5  -1 71.4069 11.4057   3
   4   5  -1 67.5012 9.37108   2
   4   5  -1 73.0424 9.87387   5
   4   5  -1 72.4240 8.53329   4
   4   5  -1 81.2138 15.4125   3
   4   5  -1 74.4156 7.90585   4
   3   5  -1 11.4106 3.08366   5
   3   5  -1 12.5780 2.57979   4
   3   5  -1 13.1224 3.60758   3
   3   5  -1 10.1614 2.95666   2
   2   5  -1 1282.26 129.082   4
   2   5  -1 1286.45 129.672   3
   2   5  -1 1219.32 129.395   2
   2   5  -1 1263.69 129.373   5
  -2  -5   1 1350.37 129.539   2
   1   5  -1 1812.18 182.813   5
   1   5  -1 1857.25 182.872   4
   1   5  -1 1848.35 183.012   5
   1   5  -1 1428.08 183.174   3
   1   5  -1 1809.15 183.073   2
  -1  -5   1 1907.56 183.448   1
  -1  -5   1 1931.03 183.182   2
  -1  -5   1 1793.77 184.005   1
  -1  -5   1 1944.67 183.040   4
   0   5  -1 433.462 43.3387   6
   0   5  -1 319.502 43.5919   3
   0   5  -1 443.704 43.3229   4
   0   5  -1 420.076 43.3577   2
   0  -5   1 517.272 44.2359   1
   0  -5   1 390.271 43.7200   3
   0  -5   1 451.415 43.4309   4
   0  -5   1 439.244 43.4448   2
  -1   5  -1 306.636 27.3363   4
  -1   5  -1 295.133 27.1767   6
  -1   5  -1 303.414 27.4358   3
  -1   5  -1 274.931 28.2448   1
   1  -5   1 212.899 27.3205   5
   1  -5   1 172.839 27.3375   3
   1  -5   1 290.461 27.4234   4
   1  -5   1 253.484 29.8832   1
   1  -5   1 279.657 27.0655   6
  -2   5  -1 862.701 85.6109   4
  -2   5  -1 778.681 86.4073   1
  -2   5  -1 857.333 85.4396   3
  -2   5  -1 840.142 85.3226   2
   2  -5   1 859.685 85.6111   4
   2  -5   1 838.992 86.5960   1
   2  -5   1 841.994 85.2362   6
   2  -5   1 866.087 85.9131   5
  -3   5  -1 139.062 17.8112   1
  -3   5  -1 140.120 15.9564   4
  -3   5  -1 141.039 14.9057   2
  -3   5  -1 142.784 15.2863   3
   3  -5   1 137.454 15.6178   4
   3  -5   1 140.168 16.3343   5
   3  -5   1 141.003 17.8177   1
   3  -5   1 144.949 14.9363   6
   3  -5   1 144.899 15.5988   3
  -4   5  -1 63.7704 7.95518   3
   4  -5   1 63.5669 13.9870   1
   4  -5   1 51.6466 8.65999   3
   4  -5   1 53.9287 9.95949   5
   4  -5   1 54.9990 8.45392   4
  -5   5  -1 253.841 26.0597   3
   5  -5   1 236.156 26.2007   4
   5  -5   1 237.367 28.3372   5
   6  -5   1 14.4556 5.43550   4
   6  -5   1 27.5260 9.42833   5
   6   4  -1 30.3371 7.64086   3
   6   4  -1 23.1627 6.85156   5
   5   4  -1 9.58153 7.70152   2
   5   4  -1 12.4738 4.22000   5
   5   4  -1 10.5116 2.14726   4
   4   4  -1 519.691 52.8349   4
   4   4  -1 542.385 54.1301   5
   4   4  -1 474.679 53.4255   2
   4   4  -1 552.981 53.0273   4
   3   4  -1 2110.84 220.117   5
   3   4  -1 2231.87 219.736   4
   3   4  -1 2124.27 219.427   4
   3   4  -1 2048.11 219.788   2
  -3  -4   1 2381.07 219.884   2
   2   4  -1 1664.57 163.680   3
   2   4  -1 1562.06 163.483   5
   2   4  -1 1552.72 163.126   4
   2   4  -1 1579.13 163.442   2
  -2  -4   1 1739.99 163.516   2
   1   4  -1 426.138 45.4959   5
   1   4  -1 407.040 45.7919   3
   1   4  -1 447.959 45.6029   2
   1   4  -1 466.429 45.4034   4
  -1  -4   1 486.324 45.5397   4
  -1  -4   1 459.236 45.9570   1
  -1  -4   1 412.675 46.5885   1
  -1  -4   1 480.694 45.6937   2
   0   4  -1 32.9430 4.05610   2
   0   4  -1 28.7881 4.96074   3
   0   4  -1 37.1849 4.21687   6
   0   4  -1 36.5384 3.99265   4
   0  -4   1 33.7114 4.21191   4
   0  -4   1 23.5607 4.96682   3
   0  -4   1 34.4270 4.18706   2
   0  -4   1 33.9845 5.07194   1
  -1   4  -1 332.740 36.5196   1
  -1   4  -1 362.096 35.7620   6
  -1   4  -1 359.877 35.8121   2
  -1   4  -1 378.845 35.9799   3
  -1   4  -1 375.149 35.9256   4
   1  -4   1 366.089 35.9788   4
   1  -4   1 365.249 36.6621   1
   1  -4   1 282.286 35.9532   3
   1  -4   1 355.290 35.7076   6
   1  -4   1 344.170 36.0685   5
  -2   4  -1 1144.05 111.440   4
  -2   4  -1 1083.86 111.269   3
  -2   4  -1 1058.18 112.115   1
  -2   4  -1 1100.28 111.135   2
   2  -4   1 1106.13 112.218   1
   2  -4   1 1085.76 111.085   6
   2  -4   1 1108.17 111.401   4
   2  -4   1 1110.92 111.355   3
   2  -4   1 1113.63 111.645   5
  -3   4  -1 2942.24 310.582   1
  -3   4  -1 3197.18 309.846   4
  -3   4  -1 2954.07 309.533   3
  -3   4  -1 3055.83 309.253   2
   3  -4   1 3106.50 309.310   6
   3  -4   1 3039.15 310.175   5
   3  -4   1 3103.80 309.665   4
   3  -4   1 3178.53 309.661   3
   3  -4   1 3060.39 310.670   1
  -4   4  -1 1544.75 161.096   4
  -4   4  -1 1626.20 160.651   3
  -4   4  -1 1504.01 162.087   1
   4  -4   1 1620.88 161.648   5
   4  -4   1 1523.78 162.052   1
   4  -4   1 1677.20 160.821   3
   4  -4   1 1642.65 160.726   4
   4  -4   1 1560.79 160.282   6
   5  -4   1 292.123 31.0294   4
   5  -4   1 295.022 32.8371   5
   6  -4   1 -1.2167 4.01218   4
   6  -4   1 2.83823 6.43607   5
   6   3  -1 19.0330 6.12914   5
   5   3  -1 56.6068 6.67733   4
   5   3  -1 57.6680 6.68628   4
   5   3  -1 60.7178 9.44708   5
   4   3  -1 2.84452 3.21738   2
   4   3  -1 2.85817 2.85936   5
   4   3  -1 3.16937 1.61641   4
   4   3  -1 1.70093 2.52662   3
   4   3  -1 4.97657 1.33931   4
  -4  -3   1 2.22047 5.53874   1
   3   3  -1 229.451 24.4825   4
   3   3  -1 218.612 26.0228   1
   3   3  -1 215.715 24.6171   2
   3   3  -1 237.931 24.2137   4
   3   3  -1 241.734 25.1344   5
   3   3  -1 225.039 24.8381   3
  -3  -3   1 269.051 24.6915   2
  -3  -3   1 266.812 25.1313   1
   2   3  -1 2673.66 308.977   1
   2   3  -1 2936.59 308.435   2
   2   3  -1 2965.28 308.187   4
   2   3  -1 2985.81 308.606   5
  -2  -3   1 3239.40 308.496   2
  -2  -3   1 3571.20 308.790   1
   1   3  -1 6107.10 563.211   1
  -1  -3   1 5073.39 563.476   1
   0   3  -1 2258.24 209.488   6
   0   3  -1 1366.52 209.578   3
   0   3  -1 2245.06 209.468   4
   0   3  -1 2144.53 209.520   2
   0  -3   1 2213.28 209.551   2
   0  -3   1 2361.21 209.530   4
   0  -3   1 1664.36 209.649   3
   0  -3   1 2387.73 209.986   1
  -1   3  -1 113.009 11.5438   6
  -1   3  -1 118.342 11.7470   3
  -1   3  -1 110.071 11.5732   2
  -1   3  -1 105.222 12.2887   1
  -1   3  -1 113.487 11.7277   4
   1  -3   1 104.092 11.7733   3
   1  -3   1 114.061 11.7941   4
   1  -3   1 114.961 12.3824   1
   1  -3   1 115.045 11.5056   6
   1  -3   1 108.299 11.7554   5
   1  -3   1 112.285 11.5790   2
  -2   3  -1 349.784 38.1234   1
  -2   3  -1 377.616 37.2006   2
  -2   3  -1 323.198 38.4635   4
  -2   3  -1 371.022 37.3871   3
   2  -3   1 372.042 38.2384   1
   2  -3   1 368.358 37.5025   4
   2  -3   1 374.301 37.1963   6
   2  -3   1 373.759 37.7212   5
   2  -3   1 385.931 37.4573   3
  -3   3  -1 12.9060 2.28647   2
  -3   3  -1 12.8279 2.06843   2
  -3   3  -1 13.4363 3.25104   4
  -3   3  -1 10.2359 2.28973   3
  -3   3  -1 17.9483 4.63516   1
   3  -3   1 12.0754 3.22580   5
   3  -3   1 12.8996 3.97879   1
   3  -3   1 14.1305 2.85357   4
   3  -3   1 14.9822 3.67825   3
   3  -3   1 9.41652 1.85428   6
  -4   3  -1 445.242 45.5834   3
  -4   3  -1 400.107 46.0708   4
  -4   3  -1 432.695 47.2170   1
   4  -3   1 468.946 46.6177   5
   4  -3   1 453.277 45.6299   4
   4  -3   1 470.392 45.7617   3
   4  -3   1 437.979 47.1535   1
   4  -3   1 435.851 45.1637   6
   5  -3   1 599.229 62.0383   5
   5  -3   1 581.380 60.5120   4
   6  -3   1 135.224 19.6926   5
   6  -3   1 148.154 16.5400   4
   6   2  -1 59.5615 11.6948   5
   5   2  -1 10.2002 4.08543   5
   5   2  -1 6.06388 2.57814   2
   5   2  -1 6.03443 1.86815   4
   4   2  -1 473.733 48.1509   5
   4   2  -1 483.929 48.7561   1
   4   2  -1 457.476 47.6804   3
   4   2  -1 472.304 47.0221   4
   4   2  -1 396.021 47.3300   2
  -4  -2   1 504.649 48.3409   1
   3   2  -1 1922.98 200.334   4
   3   2  -1 2137.57 201.208   1
   3   2  -1 1711.33 200.472   2
   3   2  -1 1950.95 200.690   3
   3   2  -1 1880.37 200.946   5
  -3  -2   1 2157.67 200.991   1
  -3  -2   1 2163.48 200.463   2
   2   2  -1 1948.89 197.408   5
   2   2  -1 1878.04 197.148   2
   2   2  -1 1838.18 196.923   4
   2   2  -1 2030.41 197.665   1
   2   2  -1 1614.81 197.088   4
  -2  -2   1 2260.15 197.507   1
  -2  -2   1 2127.84 197.181   2
   1   2  -1 64.1209 6.97210   3
   1   2  -1 59.6484 6.64133   2
   1   2  -1 64.6499 6.40333   4
   1   2  -1 52.7463 7.85990   1
  -1  -2   1 64.9963 6.72433   2
  -1  -2   1 61.2851 6.47050   4
  -1  -2   1 62.3619 7.72518   1
   0   2  -1 72.8462 6.75923   4
   0   2  -1 39.1167 7.30095   3
   0   2  -1 68.3457 6.82144   2
   0   2  -1 81.6860 6.84239   6
   0  -2   1 70.0530 6.85439   2
   0  -2   1 45.1813 7.11780   3
   0  -2   1 72.9979 7.25280   1
  -1   2  -1 105.535 10.5916   6
  -1   2  -1 101.722 10.7931   4
  -1   2  -1 99.2849 10.6047   2
  -1   2  -1 95.7159 11.1713   1
  -1   2  -1 108.992 10.7461   3
   1  -2   1 102.636 10.8022   4
   1  -2   1 104.805 10.5621   6
   1  -2   1 103.260 11.2345   1
   1  -2   1 98.7269 10.7852   5
   1  -2   1 109.948 10.7779   3
  -2   2  -1 804.191 82.9690   3
  -2   2  -1 793.076 83.5458   1
  -2   2  -1 804.806 82.7448   2
  -2   2  -1 849.397 83.1255   4
   2  -2   1 810.116 83.2498   5
   2  -2   1 811.346 83.5747   1
   2  -2   1 872.767 83.0254   3
   2  -2   1 812.269 83.0406   4
   2  -2   1 829.511 82.7935   6
  -3   2  -1 2891.15 292.965   4
  -3   2  -1 2897.18 293.535   1
  -3   2  -1 2777.30 292.739   3
   3  -2   1 2825.46 293.224   5
   3  -2   1 2975.92 293.545   1
   3  -2   1 2869.12 292.776   4
   3  -2   1 3097.12 292.826   3
  -4   2  -1 2085.82 216.325   1
  -4   2  -1 2154.72 215.300   3
  -4   2  -1 1911.83 215.506   4
   4  -2   1 2223.05 215.264   4
   4  -2   1 2195.43 215.354   3
   4  -2   1 2160.49 216.302   1
   4  -2   1 2192.09 216.072   5
  -5   2  -1 77.6384 14.0977   4
   5  -2   1 106.175 11.8378   4
   5  -2   1 103.248 13.8352   5
   6  -2   1 -0.0484 3.29204   4
   6  -2   1 3.31164 5.23035   5
   6   1  -1 27.2244 5.93043   4
   6   1  -1 32.0486 9.45323   5
   5   1  -1 5.61991 3.29959   5
   5   1  -1 5.34995 1.89635   4
   4   1  -1 7.95662 2.78390   5
   4   1  -1 7.22307 2.48037   3
   4   1  -1 10.6080 2.29122   2
   4   1  -1 8.57360 5.03234   1
   4   1  -1 13.4093 2.03867   4
  -4  -1   1 13.1974 4.58563   1
   3   1  -1 737.864 72.7831   1
   3   1  -1 718.139 72.2690   3
   3   1  -1 704.738 71.9067   4
   3   1  -1 708.612 72.6318   5
   3   1  -1 562.424 72.0039   2
  -3  -1   1 766.195 72.7338   1
  -3  -1   1 789.023 71.9533   2
   2   1  -1 3629.39 440.260   2
   2   1  -1 4685.58 440.719   1
  -2  -1   1 4809.87 440.688   1
   0  -1   1 953.768 96.2438   3
  -1   1  -1 55.7459 5.61586   3
  -1   1  -1 48.9997 5.70515   4
  -1   1  -1 54.3604 5.99375   1
  -1   1  -1 51.6699 5.45250   2
   1  -1   1 50.2334 5.41045   2
   1  -1   1 53.3540 5.60355   3
   1  -1   1 57.2297 5.43105   6
   1  -1   1 48.7859 5.94927   1
   1  -1   1 51.0398 5.72478   4
  -2   1  -1 64.4962 7.41839   4
  -2   1  -1 65.5239 7.11801   3
  -2   1  -1 63.4313 7.76412   1
   2  -1   1 65.5089 7.28043   4
   2  -1   1 71.3867 7.81636   1
   2  -1   1 65.5286 7.12691   3
   2  -1   1 64.2916 7.45607   5
  -3   1  -1 62.0336 7.50443   3
   3  -1   1 70.3643 7.72667   4
   3  -1   1 57.0139 8.58415   1
   3  -1   1 65.8974 8.17611   5
   3  -1   1 72.0049 7.61469   3
  -4   1  -1 920.997 90.8779   3
  -4   1  -1 767.707 90.9688   4
   4  -1   1 906.945 91.8139   1
   4  -1   1 907.378 90.8999   3
   4  -1   1 917.522 91.5815   5
   4  -1   1 948.206 90.7993   4
  -5   1  -1 1100.97 123.410   4
   5  -1   1 1283.38 124.582   5
   5  -1   1 1257.76 123.043   4
   6  -1   1 340.258 34.2806   5
   6  -1   1 263.747 32.5227   4
   6   0  -1 290.784 28.0504   4
   6   0  -1 245.831 30.9490   5
   5   0  -1 57.5918 7.11360   4
   5   0  -1 63.6235 9.59718   5
   4   0  -1 203.774 22.1267   3
   4   0  -1 203.090 23.5451   1
   4   0  -1 213.747 22.8056   5
   4   0  -1 206.798 21.5469   4
  -4   0   1 220.685 23.5384   1
   3   0  -1 1169.79 116.972   3
   3   0  -1 1155.90 116.683   4
   3   0  -1 1160.04 117.410   5
   3   0  -1 1157.17 116.635   2
   3   0  -1 1173.10 117.511   1
  -3   0   1 1174.31 117.509   1
  -3   0   1 1109.07 116.785   4
   2   0  -1 888.236 102.244   2
   2   0  -1 1013.73 102.383   3
   2   0  -1 1022.41 102.684   5
  -2   0   1 1170.05 102.832   5
  -2   0   1 925.934 102.256   4
  -2   0   1 1065.24 102.257   2
   1   0  -1 9.97996 1.34933   4
   1   0  -1 16.6631 2.26667   1
   1   0  -1 16.4070 1.86630   2
  -1   0   1 9.43274 1.49815   4
  -1   0   1 8.36262 2.07906   5
  -1   0   1 8.75726 1.75842   2
  -1   0  -1 550.680 59.7393   4
  -1   0  -1 676.634 59.5536   2
   1   0   1 657.139 59.7079   3
   1   0   1 457.063 59.5549   2
   1   0   1 509.668 59.7367   4
   1   0   1 699.298 59.9292   1
  -2   0  -1 241.332 23.5949   3
  -2   0  -1 195.698 23.6489   4
   2   0   1 246.576 23.5975   3
   2   0   1 238.001 23.8676   5
   2   0   1 230.334 23.6698   4
  -3   0  -1 1257.91 192.623   1
  -3   0  -1 1789.23 192.532   4
  -3   0  -1 2004.34 192.518   3
   3   0   1 1982.10 192.934   5
   3   0   1 2120.99 192.541   3
   3   0   1 2166.60 193.036   1
   3   0   1 2035.73 192.508   4
  -4   0  -1 1356.52 134.586   1
  -4   0  -1 1258.97 133.840   4
   4   0   1 1343.65 134.498   1
   4   0   1 1311.84 133.825   3
   4   0   1 1318.84 134.426   5
   4   0   1 1345.49 133.708   4
   5   0   1 38.3962 6.68689   4
   5   0   1 50.3547 11.7452   5
   6   0   1 1.29244 3.20611   4
   6   0   1 -1.4898 4.48279   5
   6  -1  -1 40.2529 10.4867   5
   6  -1  -1 29.9311 6.21229   4
   5  -1  -1 1.51497 1.92899   4
   5  -1  -1 -3.6631 2.99133   5
  -5   1   1 -1.5944 3.29590   4
   4  -1  -1 3.83366 6.74781   1
   4  -1  -1 6.05641 2.29904   3
   4  -1  -1 7.05415 1.86682   4
   4  -1  -1 8.81674 2.87352   5
  -4   1   1 7.20471 2.71860   4
  -4   1   1 0.74878 4.17543   1
   3  -1  -1 851.037 86.9125   5
   3  -1  -1 1007.35 86.2363   4
   3  -1  -1 824.077 87.0206   1
   3  -1  -1 850.364 86.3940   3
  -3   1   1 731.519 86.3256   4
   2  -1  -1 6605.84 642.594   1
  -2   1   1 6381.42 643.326   1
  -2   1   1 6153.16 642.134   4
  -1  -1  -1 664.104 60.8093   1
  -1  -1  -1 500.901 60.8109   3
   1   1   1 585.323 60.7486   3
   1   1   1 595.766 60.8319   4
   1   1   1 665.569 60.7933   1
  -2  -1  -1 1.14515 0.77773   3
  -2  -1  -1 1.44012 1.21167   1
   2   1   1 7.84218 0.93842   2
   2   1   1 1.31984 1.17002   1
   2   1   1 3.44620 1.39419   4
   2   1   1 1.40412 0.80616   3
  -3  -1  -1 98.2366 10.4636   1
   3   1   1 88.4100 9.96974   4
   3   1   1 88.9141 9.84709   3
   3   1   1 88.4445 10.3796   1
   3   1   1 87.9996 10.3671   5
  -4  -1  -1 1529.08 152.071   1
   4   1   1 1474.07 152.058   5
   4   1   1 1466.15 151.515   3
   4   1   1 1508.84 151.375   4
   4   1   1 1513.90 152.013   1
   5   1   1 1565.35 158.190   4
   5   1   1 1564.74 160.336   5
   6   1   1 368.891 40.1107   4
   6   1   1 409.188 42.3397   5
   6  -2  -1 486.241 52.5434   5
   6  -2  -1 486.383 49.9276   4
   5  -2  -1 163.514 17.0803   4
   5  -2  -1 169.152 19.2565   5
  -5   2   1 145.447 18.3615   4
   4  -2  -1 9.96602 5.15772   1
   4  -2  -1 7.62283 2.33364   3
   4  -2  -1 13.1244 3.51195   5
   4  -2  -1 14.9112 2.36397   4
  -4   2   1 13.4960 5.43789   1
  -4   2   1 9.76434 3.20696   4
   3  -2  -1 311.719 31.0139   3
   3  -2  -1 317.633 30.8573   4
   3  -2  -1 285.759 31.8351   1
   3  -2  -1 309.086 31.6585   5
  -3   2   1 323.478 32.1039   1
  -3   2   1 297.948 31.1710   4
  -3   2   1 235.525 30.5957   2
  -3   2   1 340.242 31.7874   5
   2  -2  -1 480.483 47.5002   4
   2  -2  -1 464.875 47.5352   3
   2  -2  -1 475.885 48.0162   5
   2  -2  -1 454.959 48.1048   1
  -2   2   1 510.034 48.0332   5
  -2   2   1 471.371 47.3752   2
  -2   2   1 426.004 47.4815   3
  -2   2   1 483.757 47.6538   4
  -2   2   1 453.099 48.1604   1
   1  -2  -1 473.301 48.7873   3
   1  -2  -1 472.399 49.2000   1
   1  -2  -1 491.908 48.8363   4
   1  -2  -1 499.268 49.1736   5
  -1   2   1 491.766 48.8660   4
  -1   2   1 514.093 49.1226   5
  -1   2   1 496.865 48.7880   2
  -1   2   1 476.083 49.2211   1
  -1   2   1 434.839 48.7613   3
   0  -2  -1 2819.07 317.624   1
   0   2   1 3491.05 317.678   1
   2   2   1 21.3714 3.30898   4
   2   2   1 16.4301 2.73365   1
   2   2   1 21.5241 2.58714   3
   2   2   1 14.3189 2.19077   2
  -3  -2  -1 933.340 89.1924   1
   3   2   1 809.001 89.0205   4
   3   2   1 896.930 89.0269   3
   3   2   1 845.844 88.7088   2
   3   2   1 868.430 89.3720   5
   3   2   1 922.705 89.2006   1
  -4  -2  -1 489.752 48.4914   1
   4   2   1 461.832 47.8746   4
   4   2   1 445.214 47.9915   3
   4   2   1 481.769 48.5500   1
   4   2   1 464.547 48.5841   5
   5   2   1 10.8542 11.0113   1
   5   2   1 23.7843 4.29987   4
   5   2   1 32.7107 8.71679   5
   6   2   1 47.5028 11.0285   5
   6   2   1 60.9148 8.15070   4
   6  -3  -1 22.4749 4.75834   4
   6  -3  -1 26.2574 7.79478   5
   5  -3  -1 9.73642 4.33187   5
   5  -3  -1 14.0317 3.11041   4
  -5   3   1 7.05012 5.17088   4
   4  -3  -1 1.32541 4.82340   1
   4  -3  -1 0.25773 1.69861   4
   4  -3  -1 0.66975 2.58749   5
   4  -3  -1 0.51940 2.01251   3
  -4   3   1 -0.7382 3.00707   4
  -4   3   1 -1.4029 4.82565   1
   3  -3  -1 558.729 58.2914   5
   3  -3  -1 550.440 58.5391   1
   3  -3  -1 584.378 57.6106   3
   3  -3  -1 543.975 57.4827   4
  -3   3   1 610.310 58.2714   5
  -3   3   1 565.272 57.8192   4
  -3   3   1 551.268 58.6501   1
   2  -3  -1 5430.99 554.757   6
   2  -3  -1 5477.94 555.380   5
   2  -3  -1 5472.60 555.528   1
   2  -3  -1 5366.34 554.859   4
  -2   3   1 5759.79 555.283   5
  -2   3   1 5565.34 554.977   4
  -2   3   1 5511.63 555.568   1
   1  -3  -1 6244.64 624.490   1
  -1   3   1 6156.78 624.483   1
   0  -3  -1 3396.14 293.969   1
   0   3   1 3355.86 293.960   1
   0   3   1 2003.75 293.816   5
   1   3   1 13.5985 2.32447   5
   1   3   1 10.0427 1.78442   2
   1   3   1 13.4126 1.78705   4
   2   3   1 1.32035 0.86998   2
   2   3   1 2.45647 0.93234   3
   3   3   1 84.9505 9.37040   5
   3   3   1 83.9903 8.56731   2
   3   3   1 65.5772 9.11406   4
   3   3   1 80.6565 8.88122   3
   4   3   1 1393.88 141.622   3
   4   3   1 1300.58 141.203   2
   4   3   1 1437.12 141.506   4
   4   3   1 1466.33 142.164   5
   5   3   1 1148.07 116.448   5
   5   3   1 1128.30 115.268   4
   6   3   1 445.248 45.2538   5
   6   3   1 389.102 42.8112   4
   6  -4  -1 420.003 41.8441   4
   6  -4  -1 382.211 45.1883   5
   5  -4  -1 453.517 47.5609   5
   5  -4  -1 432.904 45.6239   4
   4  -4  -1 12.6745 6.36432   1
   4  -4  -1 4.65268 2.45838   3
   4  -4  -1 9.53042 2.36408   4
   4  -4  -1 7.68521 3.56952   5
   4  -4  -1 2.50529 2.10410   6
  -4   4   1 0.26073 5.69876   1
  -4   4   1 11.7062 4.06940   4
   3  -4  -1 45.4965 6.92242   5
   3  -4  -1 43.4049 8.35990   1
   3  -4  -1 40.5110 5.48582   4
   3  -4  -1 35.9762 5.13568   6
   3  -4  -1 43.3811 5.49696   3
  -3   4   1 37.9521 8.31831   1
  -3   4   1 47.1408 6.57187   5
  -3   4   1 42.8363 4.76662   2
  -3   4   1 40.3613 5.17073   3
  -3   4   1 36.6094 6.38558   4
  -3   4   1 42.9645 4.84383   2
   2  -4  -1 43.5684 6.50765   1
   2  -4  -1 42.8516 4.85345   3
   2  -4  -1 39.0072 4.66277   6
   2  -4  -1 41.5555 5.96622   5
   2  -4  -1 37.1582 4.94853   4
  -2   4   1 38.7730 4.64832   3
  -2   4   1 45.9434 4.64712   2
  -2   4   1 43.0022 5.53730   5
  -2   4   1 38.7725 6.59571   1
  -2   4   1 24.5887 5.49082   4
   1  -4  -1 1404.24 147.358   5
   1  -4  -1 1448.81 146.810   6
   1  -4  -1 1478.47 146.953   4
   1  -4  -1 1475.55 147.485   1
   1  -4  -1 1440.67 146.863   3
  -1   4   1 1544.14 146.987   4
  -1   4   1 1550.43 147.137   5
  -1   4   1 1328.30 146.916   3
  -1   4   1 1439.36 146.814   6
  -1   4   1 1462.06 147.468   1
   0  -4  -1 4303.76 382.157   1
   0  -4  -1 4099.41 381.746   6
   0   4   1 4256.85 382.147   1
   0   4   1 2514.88 381.725   3
  -1  -4  -1 3842.74 385.070   4
   1   4   1 3986.34 385.323   5
   1   4   1 3644.53 385.041   2
   2   4   1 243.834 25.0092   4
   2   4   1 244.840 25.1628   3
   2   4   1 247.839 25.1112   2
   3   4   1 154.433 15.4756   2
   3   4   1 158.535 16.0984   5
   3   4   1 123.412 15.8759   4
   3   4   1 150.065 15.3150   4
   3   4   1 149.589 15.6825   3
   4   4   1 169.396 18.7150   2
   4   4   1 177.931 19.2505   5
   4   4   1 173.216 18.6860   4
   4   4   1 174.060 17.9952   4
   4   4   1 168.430 18.7091   3
   5   4   1 4.79487 3.56201   2
   5   4   1 2.59355 2.31586   4
   5   4   1 3.91424 4.10770   5
   5   4   1 0.63620 2.96011   4
   6   4   1 143.049 18.2630   5
   6   4   1 126.798 15.2564   4
   6  -5  -1 -0.9421 4.28298   4
   6  -5  -1 7.46017 8.08718   5
   5  -5  -1 43.8750 7.47045   4
   5  -5  -1 46.8928 11.0383   5
   4  -5  -1 43.6352 9.01614   5
   4  -5  -1 48.9043 9.60587   1
   4  -5  -1 47.8384 6.69753   4
   4  -5  -1 46.8078 7.13017   3
  -4   5   1 52.5738 5.40967   2
  -4   5   1 32.3762 6.78975   4
  -4   5   1 45.2159 5.59588   2
  -4   5   1 41.3072 9.45588   1
   3  -5  -1 181.429 19.4643   6
   3  -5  -1 195.564 19.7635   3
   3  -5  -1 184.543 19.7520   4
   3  -5  -1 190.341 20.9133   5
   3  -5  -1 175.796 21.6598   1
  -3   5   1 183.652 19.5208   3
  -3   5   1 165.233 21.5641   1
  -3   5   1 191.477 20.2330   4
  -3   5   1 190.813 19.3513   2
  -3   5   1 196.340 19.3382   2
  -3   5   1 198.106 20.3958   5
   2  -5  -1 2231.72 222.385   5
   2  -5  -1 2174.88 222.587   1
   2  -5  -1 2192.60 221.623   3
   2  -5  -1 2171.65 221.511   6
   2  -5  -1 2212.51 221.719   4
  -2   5   1 2143.79 221.520   2
  -2   5   1 2291.37 221.990   5
  -2   5   1 2087.50 221.513   3
  -2   5   1 2343.38 221.841   4
  -2   5   1 2136.54 222.559   1
   1  -5  -1 2502.02 314.558   3
   1  -5  -1 3197.22 314.682   4
   1  -5  -1 3379.49 315.367   1
   1  -5  -1 3254.24 314.737   6
   1  -5  -1 2564.51 314.983   5
  -1   5   1 3219.04 314.474   3
  -1   5   1 2962.01 314.867   4
  -1   5   1 3327.14 315.326   1
  -1   5   1 3502.61 314.813   5
  -1   5   1 3167.51 314.575   2
  -1   5   1 3287.54 314.523   6
   0  -5  -1 1185.56 108.341   4
   0  -5  -1 1227.43 108.301   3
   0  -5  -1 1127.29 108.679   1
   0  -5  -1 848.068 108.920   5
   0   5   1 1105.75 108.664   1
   0   5   1 1074.39 108.413   5
   0   5   1 1083.78 108.256   2
   0   5   1 812.948 108.223   3
   0   5   1 1108.31 108.173   6
   0   5   1 1150.78 108.272   4
  -1  -5  -1 45.0707 5.20049   1
  -1  -5  -1 45.8164 5.18339   4
   1   5   1 37.5524 4.99406   6
   1   5   1 42.9500 5.77403   5
   1   5   1 43.4705 4.85792   4
   1   5   1 40.3345 5.05804   2
   1   5   1 37.7832 5.28732   3
   2   5   1 12.1502 2.75222   5
   2   5   1 16.5976 2.63673   2
   2   5   1 8.85406 1.71949   4
   3   5   1 30.5554 4.43599   2
   3   5   1 32.3474 4.62935   3
   3   5   1 29.3012 4.91165   5
   4   5   1 529.528 55.1645   2
   4   5   1 554.341 54.9212   4
   4   5   1 553.821 55.9397   5
   4   5   1 547.693 55.9531   3
   4   5   1 519.063 55.4536   4
   5   5   1 723.216 84.7978   2
   5   5   1 854.079 84.3892   4
   5   5   1 898.714 86.0453   5
   5   5   1 856.401 84.6898   4
   6   5   1 197.506 24.2133   5
   6  -6  -1 400.602 41.6680   4
   6  -6  -1 391.687 46.0656   5
   5  -6  -1 427.266 43.6689   4
   5  -6  -1 412.082 46.1093   5
   4  -6  -1 16.1782 3.66012   4
   4  -6  -1 17.5497 3.82697   3
   4  -6  -1 21.7221 9.97262   1
   4  -6  -1 21.0398 5.87290   5
  -4   6   1 15.5348 3.61574   2
  -4   6   1 14.1350 3.43855   2
   3  -6  -1 1.64694 2.20997   4
   3  -6  -1 -0.8575 1.57523   6
   3  -6  -1 2.19907 2.03021   3
   3  -6  -1 1.15992 3.33399   5
   3  -6  -1 3.96615 5.15878   1
  -3   6   1 3.48703 1.72494   2
  -3   6   1 8.63046 5.37041   1
  -3   6   1 2.59831 1.52388   3
  -3   6   1 6.54856 2.99530   4
   2  -6  -1 75.2647 8.70258   6
   2  -6  -1 94.2361 9.32749   4
   2  -6  -1 74.9230 10.4463   5
   2  -6  -1 76.7851 9.10233   3
   2  -6  -1 76.7320 11.1549   1
  -2   6   1 67.6634 11.0518   1
  -2   6   1 84.6455 9.37127   5
  -2   6   1 80.1375 8.72401   2
  -2   6   1 81.4278 9.31852   4
  -2   6   1 77.6511 8.60774   3
   1  -6  -1 1013.23 106.078   1
   1  -6  -1 1040.35 105.138   6
   1  -6  -1 1062.55 105.377   4
  -1   6   1 1100.79 105.361   5
  -1   6   1 1031.48 105.158   6
  -1   6   1 1033.30 105.093   3
  -1   6   1 1001.13 105.220   2
  -1   6   1 1007.47 106.039   1
  -1   6   1 1081.31 105.364   4
   0  -6  -1 4683.76 456.660   4
   0  -6  -1 4838.39 456.638   5
   0  -6  -1 4765.28 457.104   1
   0   6   1 4732.91 456.642   5
   0   6   1 3799.06 456.567   3
   0   6   1 4312.17 456.557   2
   0   6   1 4523.06 456.476   6
   0   6   1 4793.47 456.589   4
   0   6   1 4357.91 457.695   1
  -1  -6  -1 3465.47 317.292   1
  -1  -6  -1 3735.30 317.579   1
  -1  -6  -1 3279.17 317.181   4
   1   6   1 3083.09 317.117   2
   1   6   1 3255.42 317.035   4
   1   6   1 2587.34 317.334   5
   1   6   1 2590.66 317.155   3
   1   6   1 3189.26 317.048   6
   2   6   1 310.862 30.9829   5
   2   6   1 296.726 30.6003   3
   2   6   1 283.118 30.1523   4
   2   6   1 291.865 30.3764   2
   3   6   1 15.9067 2.91662   2
   3   6   1 12.9204 2.27329   4
   3   6   1 19.5433 4.30809   5
   3   6   1 15.3707 3.87881   5
   3   6   1 10.7764 2.56227   3
   4   6   1 28.1038 6.05740   5
   4   6   1 22.1114 5.23635   2
   4   6   1 21.3140 4.07206   4
   4   6   1 22.8986 4.65007   4
   5   6   1 17.3396 5.16020   5
   5   6   1 13.7818 4.15684   4
   6   6   1 135.401 18.4296   5
   5  -7  -1 96.2531 17.5994   5
   5  -7  -1 112.912 13.4906   4
   4  -7  -1 197.768 20.8315   4
   4  -7  -1 184.610 23.1643   5
   4  -7  -1 179.546 21.1901   3
  -4   7   1 196.871 19.9571   2
   3  -7  -1 5.12075 2.82687   4
   3  -7  -1 7.17488 2.94411   3
   3  -7  -1 7.04240 4.52704   5
   3  -7  -1 12.3326 6.68638   1
  -3   7   1 8.55516 2.05686   3
  -3   7   1 4.60818 6.49519   1
  -3   7   1 9.68024 2.32935   2
  -3   7   1 9.44036 2.38027   2
   2  -7  -1 598.415 60.0935   1
   2  -7  -1 462.837 59.2677   5
   2  -7  -1 613.949 58.6943   4
   2  -7  -1 572.594 58.3191   6
   2  -7  -1 480.728 58.5144   3
  -2   7   1 612.963 58.4269   2
  -2   7   1 566.847 59.9624   1
  -2   7   1 654.966 58.8279   4
  -2   7   1 610.669 58.2616   3
   1  -7  -1 1090.73 102.846   4
   1  -7  -1 756.802 102.795   5
   1  -7  -1 786.832 102.658   3
   1  -7  -1 1020.04 102.512   6
   1  -7  -1 1048.48 103.735   1
  -1   7   1 1038.29 102.648   2
  -1   7   1 1095.30 102.478   3
  -1   7   1 1087.28 102.788   4
  -1   7   1 1026.45 103.653   1
  -1   7   1 1090.54 102.577   6
  -1   7   1 1124.10 102.667   5
   0  -7  -1 162.082 16.7422   4
   0  -7  -1 156.888 17.5085   1
   0   7   1 174.634 16.3835   5
   0   7   1 159.115 16.5115   4
   0   7   1 160.955 16.4478   6
   0   7   1 140.586 17.4340   1
   0   7   1 140.972 16.6650   3
   0   7   1 148.946 16.4769   2
  -1  -7  -1 64.6864 7.64296   1
  -1  -7  -1 58.3899 7.08736   4
  -1  -7  -1 65.6553 8.53704   1
   1   7   1 52.8080 6.74861   6
   1   7   1 60.5451 6.37533   4
   1   7   1 39.2462 7.03849   3
   1   7   1 35.2971 7.08123   5
   1   7   1 58.6926 6.66309   2
   2   7   1 184.529 19.6587   5
   2   7   1 168.079 18.9953   3
   2   7   1 180.995 18.4403   4
   2   7   1 175.843 18.7760   2
   3   7   1 8.66070 1.94166   4
   3   7   1 17.4530 3.13015   2
   3   7   1 4.95202 2.70457   3
   3   7   1 4.81409 3.63558   5
   3   7   1 6.00896 2.40445   5
   3   7   1 5.66568 2.18547   3
   4   7   1 171.406 18.2984   5
   4   7   1 173.936 20.3966   5
   4   7   1 160.088 18.2765   4
   4   7   1 159.630 17.0467   4
   4   7   1 144.560 17.9107   2
   5   7   1 553.434 53.9903   3
   5   7   1 505.564 53.5988   5
   5   7   1 469.672 52.3814   4
   6   7   1 59.7253 16.0963   3
   5  -8  -1 165.718 25.1157   5
   5  -8  -1 185.717 20.6369   4
   4  -8  -1 17.8588 7.78074   5
   4  -8  -1 22.2822 4.82089   4
  -4   8   1 24.4031 5.13064   2
   3  -8  -1 -1.7941 2.87275   4
   3  -8  -1 -0.4214 3.20534   3
   3  -8  -1 -1.5003 4.57880   5
   3  -8  -1 2.13244 7.85689   1
  -3   8   1 -2.2085 2.22264   2
  -3   8   1 -0.6594 1.72570   3
  -3   8   1 -4.9951 7.73396   1
  -3   8   1 -1.2275 2.15191   2
   2  -8  -1 60.5547 7.52831   4
   2  -8  -1 59.8346 12.0183   1
   2  -8  -1 34.9170 9.45784   3
   2  -8  -1 28.9413 8.52142   5
  -2   8   1 56.7164 6.62063   2
  -2   8   1 55.7858 6.12192   3
  -2   8   1 49.9731 8.94331   1
   1  -8  -1 545.385 57.4117   6
   1  -8  -1 581.389 57.8610   4
   1  -8  -1 529.839 57.6590   5
   1  -8  -1 530.031 57.7477   3
   1  -8  -1 569.781 59.0021   1
  -1   8   1 547.157 57.5671   2
  -1   8   1 605.402 57.4144   5
  -1   8   1 597.041 57.5292   6
  -1   8   1 596.143 57.3589   3
  -1   8   1 542.768 58.8580   1
  -1   8   1 569.264 57.7141   4
   0  -8  -1 3703.06 360.677   4
   0  -8  -1 3553.89 361.244   1
   0   8   1 3599.95 360.491   4
   0   8   1 3663.00 360.224   5
   0   8   1 3626.48 360.399   6
   0   8   1 3502.71 360.543   3
   0   8   1 3390.29 360.495   2
  -1  -8  -1 1547.53 138.066   4
  -1  -8  -1 1506.03 138.689   1
  -1  -8  -1 1490.30 138.278   1
   1   8   1 1419.34 137.718   4
   1   8   1 993.479 137.873   3
   1   8   1 1458.64 137.788   6
   1   8   1 1135.83 137.713   5
   1   8   1 1365.06 137.868   2
   2   8   1 239.351 24.9209   2
   2   8   1 248.258 24.5101   4
   2   8   1 210.177 25.0353   3
   2   8   1 259.437 24.9521   6
   2   8   1 228.448 25.6271   5
   3   8   1 0.68381 1.79832   4
   3   8   1 -1.4977 2.68154   3
   3   8   1 -0.0559 2.15508   5
   3   8   1 0.02655 4.37687   5
   3   8   1 0.74355 2.20049   3
   4   8   1 7.04259 3.55744   5
   4   8   1 -1.1386 3.95903   4
   4   8   1 2.29191 6.57432   5
   4   8   1 3.11104 2.64386   4
   4   8   1 6.44496 4.03851   3
   5   8   1 16.6473 5.93819   3
   5   8   1 8.33131 7.55512   4
   5   8   1 6.95567 5.07608   5
   5  -9  -1 140.174 27.4742   5
   5  -9  -1 228.821 23.0282   4
   4  -9  -1 210.164 22.4370   4
   4  -9  -1 123.286 31.4764   5
  -4   9   1 223.775 21.4113   2
   3  -9  -1 12.2930 4.27619   4
   3  -9  -1 8.22111 5.73911   5
  -3   9   1 7.08631 15.6026   1
  -3   9   1 19.3583 4.31834   3
  -3   9   1 14.6819 3.50781   2
  -3   9   1 16.0982 4.11505   2
   2  -9  -1 40.2354 11.0845   3
   2  -9  -1 44.5905 9.29306   5
   2  -9  -1 56.2842 8.97281   4
  -2   9   1 67.2648 14.8174   1
  -2   9   1 67.9043 8.10771   2
  -2   9   1 73.1964 7.27985   3
   1  -9  -1 166.835 24.9715   1
   1  -9  -1 189.288 20.8322   4
   1  -9  -1 198.030 20.8556   3
   1  -9  -1 199.163 20.0796   5
  -1   9   1 161.744 22.8865   1
  -1   9   1 196.777 19.9346   3
  -1   9   1 202.986 20.3179   6
  -1   9   1 186.010 20.4199   2
   0  -9  -1 24.1489 4.63865   4
   0   9   1 25.3690 3.98326   6
   0   9   1 24.6224 5.71125   3
   0   9   1 17.4120 3.69900   4
  -1  -9  -1 173.515 19.1368   4
  -1  -9  -1 194.628 22.4474   1
   1   9   1 166.580 18.7779   6
   1   9   1 153.007 19.2495   3
   1   9   1 183.250 18.4649   4
   2   9   1 218.290 28.7613   3
   2   9   1 321.996 28.9622   6
   2   9   1 316.150 28.2181   5
   2   9   1 217.863 28.9055   5
   2   9   1 291.964 28.2471   4
   3   9   1 37.3179 8.20095   5
   3   9   1 49.3222 6.61897   4
   3   9   1 47.9983 8.13177   6
   3   9   1 52.0686 6.99763   5
   3   9   1 45.7587 8.27248   3
   4   9   1 41.3643 9.97498   3
   4   9   1 66.6640 9.14573   5
   5   9   1 113.307 15.9968   5
   5   9   1 114.948 17.1036   3
   4 -10  -1 1.79058 5.25762   4
   3 -10  -1 1.10218 4.13025   4
   3 -10  -1 1.28646 5.79642   5
  -3  10   1 2.02794 3.96384   2
  -3  10   1 2.91309 2.44828   3
   2 -10  -1 1.05644 3.73949   4
   2 -10  -1 1.83233 3.36316   5
  -2  10   1 0.72265 1.94127   3
   1 -10  -1 422.037 46.0017   4
  -1  10   1 453.033 45.0365   3
  -1  10   1 445.813 45.4372   6
   0 -10  -1 1051.11 124.279   4
   0  10   1 1299.87 122.372   3
   0  10   1 1258.33 122.327   6
  -1 -10  -1 687.406 67.7301   4
   1  10   1 680.742 67.2534   6
   1  10   1 607.262 67.6214   3
   2  10   1 110.902 10.3130   6
   2  10   1 63.6902 10.5203   3
   2  10   1 62.0759 9.43189   5
   3  10   1 -1.2373 3.71663   6
   3  10   1 -0.2153 2.67267   5
   3  10   1 -0.3809 4.91764   3
   4  10   1 13.0997 5.44796   3
   4  10   1 14.4865 5.30394   6
   4  10   1 15.9416 6.82707   5
   3 -11  -1 25.2935 7.17406   4
  -3  11   1 46.8752 8.18871   2
   2 -11  -1 -0.0787 4.47707   4
  -2  11   1 0.35272 2.72529   3
   1 -11  -1 52.3535 10.0813   4
  -1  11   1 51.0772 8.55292   6
  -1  11   1 51.1705 7.12774   3
   0 -11  -1 6.06075 4.94660   4
   0  11   1 2.93933 3.59426   6
   0  11   1 7.12375 3.59095   3
  -1 -11  -1 169.380 20.2696   4
   1  11   1 189.529 19.6578   6
   1  11   1 164.755 20.3201   3
   2  11   1 260.151 26.4586   6
   2  11   1 227.982 27.0997   3
   3  11   1 40.6589 10.5849   3
   3  11   1 71.6792 10.1727   6
   4  11   1 0.98184 6.18433   6
   4  11   1 -1.0998 5.72389   3
   2 -12  -1 -0.7409 6.55245   4
   1 -12  -1 131.570 17.8921   4
  -1  12   1 137.409 16.5049   6
   0 -12  -1 321.602 34.4284   4
   0  12   1 305.904 33.5098   6
  -1 -12  -1 295.718 31.6943   4
   1  12   1 281.171 31.6558   3
   1  12   1 278.780 30.9148   6
   2  12   1 6.48973 11.8556   3
   2  12   1 5.59663 4.94619   6
   3  12   1 2.27807 5.77848   6
   3  12   1 2.69970 6.59814   3
   1 -13  -1 6.49444 9.17159   4
   0 -13  -1 3.50922 7.95696   4
   0  13   1 4.27077 5.93876   6
  -1 -13  -1 69.0486 15.3567   4
   1  13   1 96.2147 14.8214   6
   1  12  -2 43.8423 11.1037   3
  -1 -12   2 30.3268 8.67439   4
   0  12  -2 154.893 24.1422   6
   0 -12   2 115.939 19.3084   4
   1 -12   2 216.480 27.2643   4
   2  11  -2 11.6159 5.80399   6
   2  11  -2 8.31753 6.28217   3
   1  11  -2 61.9845 12.4977   6
   1  11  -2 75.3037 14.5291   3
  -1 -11   2 80.2413 12.8524   4
   0  11  -2 11.5061 7.12653   3
   0  11  -2 2.43310 5.01025   6
   0 -11   2 11.3105 6.57757   4
  -1  11  -2 37.1492 11.0673   3
  -1  11  -2 48.3680 7.90659   6
   1 -11   2 34.7130 8.52699   4
  -2  11  -2 149.730 18.4891   3
  -2  11  -2 144.362 18.9914   6
   2 -11   2 143.309 19.6329   4
   3  10  -2 9.32450 5.41708   6
   3  10  -2 11.4162 5.56436   3
   2  10  -2 -1.1192 4.53185   6
   2  10  -2 -3.2549 4.52174   3
   1  10  -2 55.5450 10.2392   6
  -1 -10   2 57.7827 10.6406   4
   0  10  -2 420.765 46.2479   3
   0  10  -2 444.446 45.3338   6
   0 -10   2 437.294 45.7862   4
  -1  10  -2 685.118 70.3996   6
  -1  10  -2 713.642 70.8236   3
   1 -10   2 654.051 70.8053   4
  -2  10  -2 170.922 18.6505   3
  -2  10  -2 149.224 18.5761   6
   2 -10   2 144.720 19.3283   4
  -3  10  -2 4.08817 4.29456   3
   3 -10   2 -6.3185 5.53334   4
   4   9  -2 158.646 20.5476   3
   3   9  -2 109.694 12.7123   6
   3   9  -2 77.2218 12.7317   3
   2   9  -2 33.8969 5.77832   4
   2   9  -2 51.6590 8.09786   6
   2   9  -2 22.8039 6.37255   3
   1   9  -2 7.32114 3.80802   6
   1   9  -2 7.93785 4.53896   3
   1   9  -2 6.38183 3.99615   4
  -1  -9   2 15.2320 4.56430   4
   0   9  -2 -0.6757 3.50422   6
   0   9  -2 1.28664 4.62029   3
   0  -9   2 2.71087 4.26687   4
  -1   9  -2 263.735 27.8314   6
  -1   9  -2 273.761 28.4350   3
   1  -9   2 228.079 29.5804   3
   1  -9   2 269.885 28.3273   4
  -2   9  -2 616.742 55.1420   3
  -2   9  -2 610.491 54.9901   6
   2  -9   2 407.860 55.8702   3
   2  -9   2 490.550 55.3665   4
  -3   9  -2 255.935 27.1660   3
   3  -9   2 228.744 27.1176   4
  -4   9  -2 -0.0347 3.95190   3
   4  -9   2 8.57554 6.04630   4
   4   8  -2 -2.7807 3.80649   5
   4   8  -2 2.67143 4.71051   3
   3   8  -2 39.9806 9.58372   3
   3   8  -2 65.7314 7.96742   5
   2   8  -2 22.3988 4.19994   6
   2   8  -2 10.9787 4.12384   3
   2   8  -2 26.4988 4.15853   4
   1   8  -2 34.9052 8.08029   3
   1   8  -2 36.6537 5.33654   4
   1   8  -2 30.3562 5.57262   6
  -1  -8   2 39.1355 6.85822   4
   0   8  -2 992.770 97.3802   6
   0   8  -2 904.476 97.9536   3
   0   8  -2 892.981 97.1055   4
   0  -8   2 1014.61 98.3156   3
   0  -8   2 987.896 97.5740   4
  -1   8  -2 1032.31 109.571   2
  -1   8  -2 1101.73 108.553   6
  -1   8  -2 1101.42 108.990   3
   1  -8   2 1091.62 111.313   1
   1  -8   2 1087.76 108.878   4
   1  -8   2 1004.68 109.251   3
  -2   8  -2 175.468 19.4474   2
  -2   8  -2 213.770 20.6433   6
  -2   8  -2 192.824 19.8233   3
   2  -8   2 185.205 20.3418   4
   2  -8   2 175.004 26.2040   1
   2  -8   2 134.422 20.6256   3
  -3   8  -2 -2.7547 3.44375   2
  -3   8  -2 -1.9296 2.85467   3
   3  -8   2 -2.5109 4.19258   5
   3  -8   2 -0.7784 5.96200   3
   3  -8   2 3.48922 4.08598   4
  -4   8  -2 1.16090 3.38349   3
  -4   8  -2 -1.0109 3.02979   2
   4  -8   2 -4.8854 5.93681   5
   4  -8   2 -4.8546 4.58605   4
  -5   8  -2 -1.2512 4.10837   3
   5  -8   2 6.61350 8.42359   4
   5   7  -2 200.719 23.8422   3
   5   7  -2 185.336 22.9911   5
   4   7  -2 523.913 57.4221   3
   4   7  -2 573.978 57.0162   5
   3   7  -2 210.799 23.3888   4
   3   7  -2 239.430 23.9693   5
   2   7  -2 -1.1113 2.57204   3
   2   7  -2 0.52923 1.57500   4
   2   7  -2 0.45286 2.52008   5
   2   7  -2 1.69566 1.63321   5
  -2  -7   2 10.9727 11.4145   1
   1   7  -2 3.80178 2.58060   6
   1   7  -2 2.36398 2.99749   3
   1   7  -2 4.19593 2.46292   2
   1   7  -2 3.52214 1.73080   4
  -1  -7   2 1.18765 4.86932   1
  -1  -7   2 1.99753 2.57300   4
  -1  -7   2 -7.0663 7.08904   1
   0   7  -2 21.3253 4.14119   6
   0   7  -2 32.0034 5.19257   2
   0   7  -2 24.4454 5.11760   3
   0   7  -2 30.3985 4.70936   4
   0  -7   2 24.3192 7.15264   1
   0  -7   2 31.2191 5.76084   4
   0  -7   2 34.9045 8.20615   3
   0  -7   2 23.2344 6.39710   1
  -1   7  -2 952.922 93.5399   3
  -1   7  -2 867.598 93.0630   2
  -1   7  -2 966.633 93.0866   6
  -1   7  -2 906.107 93.0906   4
   1  -7   2 932.560 93.3553   4
   1  -7   2 991.705 95.1285   1
   1  -7   2 931.755 94.6750   1
   1  -7   2 798.191 93.6013   3
  -2   7  -2 1923.63 164.955   3
  -2   7  -2 1616.19 164.651   2
  -2   7  -2 1906.59 164.688   6
   2  -7   2 1401.70 164.565   5
   2  -7   2 1041.28 164.693   3
   2  -7   2 1777.19 165.071   4
   2  -7   2 1657.21 164.527   6
   2  -7   2 1722.39 166.609   1
  -3   7  -2 607.694 61.3497   2
  -3   7  -2 710.164 61.6480   3
   3  -7   2 601.550 64.4633   1
   3  -7   2 482.147 61.7467   3
   3  -7   2 582.321 62.2402   5
   3  -7   2 619.935 61.9922   4
  -4   7  -2 33.9096 5.23099   2
   4  -7   2 26.2621 6.00865   4
   4  -7   2 34.4430 10.1114   5
  -5   7  -2 6.54476 3.94890   3
   5  -7   2 6.04898 7.62251   5
   5  -7   2 5.06395 5.32100   4
   5   6  -2 43.9795 9.99638   5
   5   6  -2 53.6473 11.6763   3
   4   6  -2 6.02025 3.80857   5
   4   6  -2 8.12827 4.22735   3
   3   6  -2 349.674 34.4818   4
   3   6  -2 305.356 35.2813   2
   3   6  -2 367.855 35.3527   5
   3   6  -2 330.931 35.8061   3
   2   6  -2 321.521 30.0068   5
   2   6  -2 286.102 30.2838   2
   2   6  -2 233.566 30.4860   3
   2   6  -2 285.090 29.8611   4
  -2  -6   2 235.291 32.9176   1
  -2  -6   2 326.689 31.3291   1
  -2  -6   2 338.822 30.6913   2
   1   6  -2 33.1341 3.90161   4
   1   6  -2 30.1705 4.67870   2
   1   6  -2 24.5534 4.05657   6
   1   6  -2 17.2130 4.09939   3
  -1  -6   2 23.4415 5.30822   1
  -1  -6   2 19.4465 7.03768   1
  -1  -6   2 32.7057 4.75445   4
  -1  -6   2 30.6948 5.09850   2
   0   6  -2 1093.61 109.629   6
   0   6  -2 989.716 110.110   3
   0   6  -2 1024.96 109.630   2
   0   6  -2 1121.44 109.520   4
   0  -6   2 1142.14 109.744   4
   0  -6   2 1124.08 110.691   1
   0  -6   2 1045.92 110.217   3
   0  -6   2 1125.68 109.801   2
  -1   6  -2 1326.86 129.598   6
  -1   6  -2 1262.10 129.634   2
  -1   6  -2 1326.66 130.014   3
  -1   6  -2 1302.64 129.654   4
   1  -6   2 1418.52 131.303   1
   1  -6   2 979.081 129.893   3
   1  -6   2 1360.51 129.875   4
   1  -6   2 1289.82 130.885   1
  -2   6  -2 167.107 16.9812   3
  -2   6  -2 177.864 16.6922   6
  -2   6  -2 160.777 16.9734   4
  -2   6  -2 160.442 16.5949   2
   2  -6   2 151.445 16.2946   6
   2  -6   2 157.090 17.2293   4
   2  -6   2 161.651 19.3401   1
   2  -6   2 114.616 17.1858   3
   2  -6   2 149.901 17.1252   5
  -3   6  -2 23.5003 4.49724   2
  -3   6  -2 18.0500 7.14522   1
  -3   6  -2 24.0395 5.06854   3
   3  -6   2 16.3789 4.27496   4
   3  -6   2 15.2198 3.15400   6
   3  -6   2 19.2559 7.66705   1
   3  -6   2 18.8571 4.23174   3
   3  -6   2 14.8212 4.63411   5
  -4   6  -2 110.306 13.4681   2
  -4   6  -2 124.061 12.6703   2
  -4   6  -2 123.106 13.7813   3
   4  -6   2 115.729 14.2742   4
   4  -6   2 114.975 15.6723   5
  -5   6  -2 -1.2140 3.10685   3
   5  -6   2 -1.0797 6.01342   5
   5  -6   2 -0.2340 4.28665   4
   6   5  -2 16.3730 7.24933   5
   5   5  -2 378.854 38.4518   3
   5   5  -2 329.905 37.8700   5
   4   5  -2 979.623 94.2763   5
   4   5  -2 1030.37 94.4858   3
   4   5  -2 757.448 93.7285   2
   3   5  -2 409.993 42.3488   4
   3   5  -2 433.947 43.2202   5
   3   5  -2 419.710 43.5369   3
   3   5  -2 361.156 42.9805   2
  -3  -5   2 469.303 43.3324   2
   2   5  -2 96.4544 10.0171   4
   2   5  -2 92.1466 10.7618   2
   2   5  -2 98.8656 10.5057   5
   2   5  -2 84.6316 11.2578   3
  -2  -5   2 83.9871 14.3373   1
  -2  -5   2 108.894 11.1635   2
   1   5  -2 2.03060 2.03171   3
   1   5  -2 5.77110 1.77519   2
   1   5  -2 1.82478 1.11870   4
  -1  -5   2 -0.8806 4.91004   1
  -1  -5   2 1.62959 1.64225   4
  -1  -5   2 1.59928 3.29520   1
  -1  -5   2 3.59398 2.09971   2
   0   5  -2 402.790 41.0428   6
   0   5  -2 341.094 41.4746   3
   0   5  -2 396.955 41.0552   2
   0  -5   2 421.981 42.0327   1
   0  -5   2 428.105 41.1264   4
   0  -5   2 422.755 41.1879   2
  -1   5  -2 1858.83 184.257   6
  -1   5  -2 1822.26 184.621   3
  -1   5  -2 1755.20 184.310   2
  -1   5  -2 1822.14 184.349   4
   1  -5   2 1792.21 184.344   2
   1  -5   2 1852.29 185.366   1
   1  -5   2 1887.55 184.496   4
  -2   5  -2 3738.53 360.968   3
  -2   5  -2 3693.69 360.708   6
  -2   5  -2 3470.07 361.868   1
  -2   5  -2 3422.49 360.796   2
  -2   5  -2 3735.91 361.001   4
   2  -5   2 3677.38 362.664   1
   2  -5   2 3621.15 361.044   4
   2  -5   2 3641.37 361.137   5
   2  -5   2 3618.52 360.614   6
   2  -5   2 3192.75 360.945   3
  -3   5  -2 1387.18 136.853   3
  -3   5  -2 1270.06 138.114   1
  -3   5  -2 1345.70 137.089   4
  -3   5  -2 1349.50 136.572   2
   3  -5   2 1398.03 137.497   5
   3  -5   2 1336.16 136.479   6
   3  -5   2 1400.30 137.067   4
   3  -5   2 1328.23 136.962   3
  -4   5  -2 208.873 20.4330   2
  -4   5  -2 212.841 21.4368   3
  -4   5  -2 163.167 20.6577   2
   4  -5   2 195.095 22.2385   3
   4  -5   2 218.544 22.8898   5
  -5   5  -2 1.51718 2.74355   3
   5  -5   2 -1.7788 3.82735   4
   5  -5   2 6.18777 5.14520   5
   6  -5   2 -1.4353 7.89599   5
   6  -5   2 -1.3811 5.21082   4
   6   4  -2 57.4070 14.2588   3
   6   4  -2 52.9281 12.3355   5
   5   4  -2 5.55898 4.39853   5
   5   4  -2 11.3351 5.07753   3
   4   4  -2 108.814 19.2222   3
   4   4  -2 109.043 12.9361   5
   4   4  -2 92.6372 12.2902   2
   3   4  -2 1098.36 127.873   2
   3   4  -2 1305.46 128.342   3
   3   4  -2 1188.45 127.368   4
   3   4  -2 1283.72 127.582   4
   3   4  -2 1238.65 128.183   5
  -3  -4   2 1393.52 128.099   2
  -3  -4   2 1347.82 128.433   1
   2   4  -2 1110.59 111.724   1
   2   4  -2 1100.64 111.035   3
   2   4  -2 1082.63 110.780   5
   2   4  -2 1024.93 110.740   2
   2   4  -2 1073.50 110.355   4
  -2  -4   2 1171.99 110.911   2
  -2  -4   2 1102.73 111.726   1
   1   4  -2 73.1396 6.29772   4
   1   4  -2 54.8785 6.32660   5
   1   4  -2 71.9403 6.80510   2
   1   4  -2 37.0967 7.01240   3
  -1  -4   2 54.8895 6.49821   4
  -1  -4   2 51.7073 10.1291   1
  -1  -4   2 55.1293 6.86939   2
   0   4  -2 774.373 96.2188   3
   0   4  -2 992.887 96.1451   2
   0   4  -2 963.815 95.9160   6
   0   4  -2 1001.90 95.8509   4
   0  -4   2 1056.93 95.9849   4
   0  -4   2 1005.41 96.0472   2
   0  -4   2 792.395 96.2581   3
   0  -4   2 1006.48 96.7297   1
  -1   4  -2 1101.18 106.807   3
  -1   4  -2 1064.24 106.525   2
  -1   4  -2 1130.23 106.457   6
   1  -4   2 1062.42 106.534   2
   1  -4   2 751.048 106.609   3
   1  -4   2 1105.52 106.472   5
   1  -4   2 1133.68 106.694   4
   1  -4   2 1089.67 107.451   1
  -2   4  -2 32.0463 4.79580   4
  -2   4  -2 20.7291 4.88967   1
  -2   4  -2 27.6768 4.43598   3
  -2   4  -2 23.8262 3.84196   2
   2  -4   2 30.0191 5.49844   1
   2  -4   2 28.2012 4.85570   4
   2  -4   2 26.8892 3.65212   6
   2  -4   2 28.0308 4.67619   5
   2  -4   2 23.9194 4.66890   3
  -3   4  -2 445.754 48.7726   1
  -3   4  -2 464.423 47.7414   4
  -3   4  -2 443.720 47.0676   2
  -3   4  -2 475.221 47.4385   3
   3  -4   2 485.204 47.5722   3
   3  -4   2 447.015 47.5961   4
   3  -4   2 477.336 48.0520   5
   3  -4   2 452.939 47.0324   6
   3  -4   2 477.773 48.9298   1
  -4   4  -2 481.401 47.5270   3
  -4   4  -2 436.582 49.5983   1
   4  -4   2 481.758 48.5824   5
   4  -4   2 460.954 47.7237   3
   4  -4   2 457.381 47.0310   6
   4  -4   2 437.758 49.5506   1
   4  -4   2 468.886 47.7414   4
  -5   4  -2 23.1749 5.63913   3
   5  -4   2 17.3533 5.94109   5
   5  -4   2 21.3259 4.65761   4
   6  -4   2 39.8066 9.79014   5
   6  -4   2 38.6981 7.22584   4
   6   3  -2 14.2252 6.29583   5
   6   3  -2 15.6003 6.62068   3
   5   3  -2 356.050 41.4147   2
   5   3  -2 410.612 41.1396   5
   4   3  -2 987.494 121.112   2
   4   3  -2 1228.48 121.837   5
   4   3  -2 1037.03 122.560   1
  -4  -3   2 1380.14 121.144   2
  -4  -3   2 1345.85 122.252   1
   3   3  -2 824.533 84.4125   5
   3   3  -2 663.328 85.0779   1
   3   3  -2 721.476 84.0052   2
   3   3  -2 922.396 84.5051   3
  -3  -3   2 928.184 84.1423   2
  -3  -3   2 908.541 84.6741   1
   2   3  -2 48.4416 5.17856   4
   2   3  -2 41.1309 6.68075   2
   2   3  -2 47.5527 6.57079   3
   2   3  -2 50.5513 6.03424   5
   2   3  -2 44.8469 7.86110   1
  -2  -3   2 56.2749 6.22711   2
  -2  -3   2 51.2802 8.05260   1
   1   3  -2 4.75727 0.92175   4
   1   3  -2 4.90758 1.63974   3
   1   3  -2 4.21560 1.35825   2
   1   3  -2 3.16889 3.41919   1
  -1  -3   2 3.13975 3.89439   1
  -1  -3   2 4.65406 1.17264   4
  -1  -3   2 4.56734 1.58633   2
   0   3  -2 769.295 72.1838   4
   0   3  -2 743.073 72.2413   6
   0   3  -2 759.360 72.3047   2
   0   3  -2 553.298 72.4867   3
   0  -3   2 788.203 73.0089   1
   0  -3   2 780.942 72.3631   2
   0  -3   2 808.787 72.2783   4
   0  -3   2 515.592 72.4644   3
  -1   3  -2 2057.98 197.825   3
  -1   3  -2 2069.32 197.679   4
  -1   3  -2 1981.72 197.512   6
  -1   3  -2 1897.81 197.590   2
   1  -3   2 1922.51 197.591   2
   1  -3   2 2017.25 198.364   1
   1  -3   2 1704.37 197.722   3
   1  -3   2 1970.64 197.578   5
   1  -3   2 2083.18 197.744   4
   1  -3   2 1904.83 197.460   6
  -2   3  -2 5316.88 532.762   1
  -2   3  -2 5077.46 531.826   2
  -2   3  -2 5430.23 532.116   4
   2  -3   2 5160.37 531.750   6
   2  -3   2 5104.41 532.086   4
   2  -3   2 5347.39 532.078   3
   2  -3   2 5550.18 532.874   1
  -3   3  -2 2444.12 256.356   3
  -3   3  -2 2479.41 257.308   1
  -3   3  -2 2256.77 256.008   2
  -3   3  -2 2607.30 256.620   4
   3  -3   2 2618.76 256.054   6
   3  -3   2 2746.47 256.491   3
   3  -3   2 2553.12 256.862   5
   3  -3   2 2590.95 256.498   4
   3  -3   2 2583.48 257.403   1
  -4   3  -2 140.002 19.2261   1
  -4   3  -2 141.842 17.6338   4
  -4   3  -2 157.584 16.6408   3
   4  -3   2 152.780 16.8585   3
   4  -3   2 160.011 17.7294   5
   4  -3   2 154.400 16.0439   6
   4  -3   2 147.654 19.2816   1
   4  -3   2 156.863 16.8790   4
  -5   3  -2 2.93011 2.62530   3
   5  -3   2 2.47992 5.67491   4
   5  -3   2 1.02798 3.93035   5
   6  -3   2 3.29672 5.75450   5
   6  -3   2 5.93242 4.35250   4
   6   2  -2 26.8674 7.16032   5
   5   2  -2 5.99759 6.26030   2
   5   2  -2 8.16015 4.33539   5
   4   2  -2 368.237 41.3815   1
   4   2  -2 335.043 39.6937   3
   4   2  -2 374.402 40.0525   5
  -4  -2   2 430.673 39.1319   2
  -4  -2   2 396.322 40.5454   1
   3   2  -2 2288.35 232.544   1
   3   2  -2 2204.66 232.073   5
   3   2  -2 1915.67 231.627   2
  -3  -2   2 2541.65 232.337   1
  -3  -2   2 2539.63 231.692   2
   2   2  -2 4114.02 396.881   3
   2   2  -2 3423.15 396.627   2
   2   2  -2 3640.32 397.364   1
  -2  -2   2 4451.31 397.294   1
  -2  -2   2 4066.30 396.721   2
   1   2  -2 146.484 20.0771   1
   1   2  -2 187.869 18.8909   2
   1   2  -2 188.745 19.0374   5
   1   2  -2 178.885 19.0889   3
   1   2  -2 190.948 18.5652   4
  -1  -2   2 195.217 18.6152   4
  -1  -2   2 138.276 19.9604   1
  -1  -2   2 212.937 18.9734   5
  -1  -2   2 190.267 18.9644   2
   0   2  -2 309.170 46.1235   3
   0   2  -2 550.999 46.9373   1
   0   2  -2 481.044 46.0242   2
   0   2  -2 508.971 45.9183   4
   0  -2   2 523.836 45.9788   4
   0  -2   2 503.856 46.0821   2
   0  -2   2 306.366 46.1363   3
  -1   2  -2 354.930 34.7720   3
  -1   2  -2 325.478 34.5805   2
  -1   2  -2 350.570 34.6957   4
  -1   2  -2 351.060 34.4969   6
   1  -2   2 344.149 34.7317   4
   1  -2   2 342.427 35.2494   1
   1  -2   2 333.289 34.4556   6
   1  -2   2 344.196 34.5855   2
   1  -2   2 321.927 34.7189   3
  -2   2  -2 123.563 12.9962   3
  -2   2  -2 115.615 12.7283   2
  -2   2  -2 118.254 13.8079   1
  -2   2  -2 122.237 13.1957   4
   2  -2   2 125.982 12.6589   6
   2  -2   2 118.962 13.2177   5
   2  -2   2 129.518 13.9168   1
   2  -2   2 119.972 13.1764   4
   2  -2   2 133.926 13.0845   3
  -3   2  -2 1574.09 161.055   4
  -3   2  -2 1522.91 160.810   3
  -3   2  -2 1533.62 161.626   1
   3  -2   2 1593.27 161.283   5
   3  -2   2 1716.13 160.918   3
   3  -2   2 1572.95 160.917   4
   3  -2   2 1613.69 161.677   1
   3  -2   2 1612.89 160.503   6
  -4   2  -2 1234.65 131.162   1
  -4   2  -2 1199.65 130.397   4
  -4   2  -2 1318.24 130.090   3
   4  -2   2 1320.04 130.848   5
   4  -2   2 1257.42 131.102   1
   4  -2   2 1296.00 130.124   4
   4  -2   2 1355.68 130.167   3
   4  -2   2 1289.22 129.617   6
  -5   2  -2 232.147 25.0891   3
   5  -2   2 230.512 25.0529   4
   5  -2   2 241.241 26.5887   5
   6  -2   2 17.1439 4.57885   4
   6  -2   2 8.87174 4.99762   5
   6   1  -2 4.38750 5.27972   5
   5   1  -2 392.513 39.5431   4
   5   1  -2 391.537 41.5909   5
   5   1  -2 385.678 39.7063   2
   4   1  -2 1078.15 108.911   4
   4   1  -2 1089.02 110.205   5
   4   1  -2 1027.08 109.636   3
   4   1  -2 1085.52 110.676   1
   4   1  -2 970.151 109.293   2
  -4  -1   2 1205.63 109.182   2
  -4  -1   2 1107.60 110.464   1
   3   1  -2 717.484 75.2430   3
   3   1  -2 609.390 75.0695   2
   3   1  -2 753.685 75.9895   1
   3   1  -2 743.465 75.6374   5
  -3  -1   2 810.470 75.9199   1
  -3  -1   2 814.745 75.0633   2
   2   1  -2 19.8974 3.06414   2
   2   1  -2 12.1493 3.19773   5
   2   1  -2 9.02953 3.34783   1
  -2  -1   2 14.6860 3.04358   2
  -2  -1   2 16.0546 3.10200   1
  -2  -1   2 12.9428 2.92220   5
   1   1  -2 6.34879 1.39003   3
   1   1  -2 2.76816 1.13730   2
   1   1  -2 4.16740 1.18735   5
   1   1  -2 12.2057 5.17777   1
  -1  -1   2 3.57687 1.31187   2
  -1  -1   2 5.39293 1.38097   5
  -1  -1   2 -1.8042 1.94585   1
   0   1  -2 4.71339 2.12278   1
   0   1  -2 5.70182 1.44699   3
   0   1  -2 1.34929 0.84763   2
   0   1  -2 1.49351 0.71857   4
   0   1  -2 7.04629 1.77633   5
   0  -1   2 7.58127 2.29213   1
   0  -1   2 4.46672 1.40885   3
   0  -1   2 2.72379 0.82610   4
   0  -1   2 6.30935 1.82222   5
   0  -1   2 0.61749 0.97481   2
  -1   1  -2 2128.14 214.404   4
  -1   1  -2 1931.75 214.299   2
   1  -1   2 2344.33 214.867   1
   1  -1   2 2112.91 214.390   3
   1  -1   2 2128.44 214.184   6
   1  -1   2 2142.69 214.325   2
   1  -1   2 2110.91 214.418   4
  -2   1  -2 5437.46 526.551   1
  -2   1  -2 4963.22 526.110   4
   2  -1   2 5580.40 526.578   1
   2  -1   2 4920.48 526.083   4
  -3   1  -2 2648.29 265.555   1
  -3   1  -2 2573.57 264.781   3
  -3   1  -2 2472.25 264.940   4
   3  -1   2 2517.90 265.165   5
   3  -1   2 2752.21 265.474   1
   3  -1   2 2622.58 264.863   4
   3  -1   2 2798.52 264.833   3
  -4   1  -2 45.2113 7.01837   3
  -4   1  -2 44.3987 8.21398   4
   4  -1   2 52.5182 7.20904   3
   4  -1   2 45.5590 9.43226   1
   4  -1   2 57.5912 8.24688   5
   4  -1   2 67.6028 7.54098   4
  -5   1  -2 13.8027 5.59979   4
   5  -1   2 14.8413 3.72739   4
   5  -1   2 19.5389 5.66669   5
   6  -1   2 5.21816 5.08047   5
   6  -1   2 -2.1115 3.55922   4
   6   0  -2 -1.2267 4.48675   5
   5   0  -2 9.56154 4.10404   5
   5   0  -2 15.8054 3.13518   4
   4   0  -2 694.037 73.7287   5
   4   0  -2 707.568 72.4735   4
   4   0  -2 706.226 74.2120   1
   4   0  -2 722.910 72.5742   2
   4   0  -2 682.463 73.1254   3
  -4   0   2 722.948 74.1423   1
  -4   0   2 784.032 72.5596   2
   3   0  -2 3589.25 369.761   2
   3   0  -2 3987.47 370.679   1
   3   0  -2 3633.03 370.406   5
   3   0  -2 3661.19 369.958   3
   3   0  -2 3682.46 369.536   4
  -3   0   2 4011.49 369.766   2
  -3   0   2 2590.26 370.210   1
  -3   0   2 4215.75 370.730   5
   2   0  -2 6582.20 633.215   1
   2   0  -2 5126.66 632.173   2
  -2   0   2 7137.33 632.766   5
   1   0  -2 15.0321 2.66865   2
   1   0  -2 21.8379 2.76575   3
   1   0  -2 19.6180 2.82610   5
   1   0  -2 19.6113 3.56010   1
  -1   0   2 14.3088 2.69741   2
  -1   0   2 20.2515 3.02768   5
   0   0  -2 191.040 18.1011   1
   0   0  -2 143.802 17.2642   5
   0   0  -2 138.777 17.1843   3
   0   0  -2 185.021 17.1836   2
   0   0  -2 206.003 17.0680   4
   0   0   2 154.409 17.1260   2
   0   0   2 204.305 17.0572   4
   0   0   2 141.035 17.2910   5
   0   0   2 124.421 17.1854   3
   0   0   2 197.665 18.1782   1
  -1   0  -2 20.5463 2.59297   2
  -1   0  -2 23.5082 2.68100   3
  -1   0  -2 17.1290 2.89374   4
   1   0   2 23.4336 2.31139   6
   1   0   2 24.2739 2.68600   3
   1   0   2 24.1284 3.45112   1
   1   0   2 16.6453 3.01945   4
   1   0   2 23.3450 3.26338   1
   1   0   2 20.0308 2.65671   2
  -2   0  -2 556.203 63.4812   4
  -2   0  -2 636.483 63.4054   3
   2   0   2 665.313 63.4165   3
   2   0   2 597.672 63.5085   4
   2   0   2 675.819 63.8262   1
  -3   0  -2 2998.96 307.919   3
   3   0   2 3045.49 307.910   3
   3   0   2 3046.26 308.326   5
   3   0   2 3075.56 308.009   4
   3   0   2 3111.16 308.679   1
  -4   0  -2 2514.36 251.308   3
  -4   0  -2 2308.58 251.381   4
  -4   0  -2 2520.51 252.023   1
   4   0   2 2523.64 251.933   1
   4   0   2 2522.04 251.915   5
   4   0   2 2553.67 251.319   4
   4   0   2 2488.05 251.287   3
   5   0   2 383.907 37.8990   4
   5   0   2 344.976 39.8784   5
   6   0   2 -2.7685 3.49731   4
   6   0   2 2.15270 4.79358   5
   6  -1  -2 2.00337 5.18770   5
   5  -1  -2 175.748 19.0253   4
   5  -1  -2 191.986 21.3922   5
   4  -1  -2 615.177 60.9284   3
   4  -1  -2 534.899 64.9515   1
   4  -1  -2 612.690 61.6755   5
   4  -1  -2 619.267 60.3262   4
  -4   1   2 586.504 60.5921   4
  -4   1   2 500.518 62.0213   1
  -4   1   2 677.092 60.6073   2
   3  -1  -2 322.500 37.2406   1
   3  -1  -2 345.651 36.3946   3
   3  -1  -2 358.837 36.0244   4
   3  -1  -2 378.190 36.0518   2
   3  -1  -2 359.883 37.0420   5
  -3   1   2 366.769 36.1946   2
  -3   1   2 307.207 36.2098   4
  -3   1   2 398.877 37.3553   5
   2  -1  -2 209.042 20.6491   5
   2  -1  -2 197.353 20.0866   3
   2  -1  -2 207.870 20.8214   1
   2  -1  -2 214.344 19.9859   2
   2  -1  -2 175.651 19.9381   4
  -2   1   2 202.040 20.8963   1
  -2   1   2 185.873 19.9966   4
  -2   1   2 213.703 20.7631   5
  -2   1   2 154.609 20.0307   2
   1  -1  -2 1389.80 144.789   4
   1  -1  -2 1375.29 144.918   2
   1  -1  -2 1480.68 145.344   1
   1  -1  -2 1380.50 145.227   5
  -1   1   2 1489.12 145.359   1
  -1   1   2 1426.92 144.821   4
  -1   1   2 1528.22 145.318   5
   0  -1  -2 377.571 30.6300   3
   0   1   2 274.811 30.8833   5
   0   1   2 253.381 30.5686   3
  -1  -1  -2 1089.27 113.646   3
   1   1   2 1137.33 113.491   2
   1   1   2 1118.97 113.551   3
   1   1   2 1185.80 113.772   5
   1   1   2 1190.39 113.912   1
   1   1   2 1039.45 113.649   4
  -2  -1  -2 4141.63 379.005   1
  -2  -1  -2 3622.04 378.801   4
   2   1   2 3103.47 378.784   4
   2   1   2 4178.88 378.969   1
  -3  -1  -2 1253.32 129.948   3
  -3  -1  -2 1293.25 130.053   4
  -3  -1  -2 1354.58 130.366   1
   3   1   2 1240.34 130.320   5
   3   1   2 1336.79 130.280   1
   3   1   2 1220.04 130.046   4
   3   1   2 1306.28 129.942   3
  -4  -1  -2 66.8236 10.3037   1
   4   1   2 74.6409 10.1921   1
   4   1   2 83.9391 9.24777   4
   4   1   2 68.1740 8.83495   3
   4   1   2 69.8999 9.78857   5
   5   1   2 36.8393 9.25338   5
   5   1   2 31.8446 6.34125   4
   6   1   2 26.0594 5.87419   4
   6   1   2 37.5430 9.15235   5
   6  -2  -2 2.50668 2.80376   4
   6  -2  -2 2.64413 5.53114   5
   5  -2  -2 16.2833 2.75227   4
   5  -2  -2 17.1834 5.22442   5
  -5   2   2 6.55587 4.06978   4
   4  -2  -2 786.626 77.5123   4
   4  -2  -2 797.987 78.8609   5
   4  -2  -2 755.710 79.1859   1
   4  -2  -2 765.333 77.9480   3
  -4   2   2 693.473 77.8556   4
  -4   2   2 798.317 79.4168   1
   3  -2  -2 4286.80 439.302   5
   3  -2  -2 4382.37 438.661   3
   3  -2  -2 4560.66 439.490   1
   3  -2  -2 4303.38 438.423   4
  -3   2   2 5020.37 439.510   5
  -3   2   2 4220.31 438.663   4
  -3   2   2 4736.18 439.664   1
  -3   2   2 3339.88 438.408   2
   2  -2  -2 4295.19 445.594   5
   2  -2  -2 4419.28 445.687   1
   2  -2  -2 4135.29 445.063   3
  -2   2   2 4403.81 445.105   4
  -2   2   2 4664.61 445.652   5
  -2   2   2 4609.62 445.801   1
   1  -2  -2 1394.82 138.140   2
   1  -2  -2 1328.50 138.113   4
   1  -2  -2 1396.98 138.599   5
   1  -2  -2 1264.34 138.084   3
   1  -2  -2 1375.76 138.593   1
  -1   2   2 1382.46 138.179   2
  -1   2   2 1392.57 138.626   1
  -1   2   2 1366.10 138.136   4
  -1   2   2 1439.87 138.604   5
   0  -2  -2 124.340 12.6069   6
   0  -2  -2 125.227 13.0126   1
   0  -2  -2 131.617 12.7408   2
   0   2   2 124.280 12.9757   1
   0   2   2 123.050 12.5971   6
   0   2   2 117.956 12.7022   4
   1   2   2 77.7678 8.07090   5
   1   2   2 70.9295 7.66904   3
  -2  -2  -2 858.610 85.3236   3
   2   2   2 845.544 85.2914   3
   2   2   2 886.226 85.3320   1
   2   2   2 786.503 85.4563   4
  -3  -2  -2 4662.03 439.021   1
   3   2   2 3699.74 438.858   4
   3   2   2 4329.90 438.781   3
   3   2   2 4734.61 438.959   1
  -4  -2  -2 2466.55 245.208   1
   4   2   2 2532.31 245.159   1
   4   2   2 2370.57 244.823   3
   4   2   2 2360.51 244.867   4
   4   2   2 2401.29 245.393   5
   5   2   2 521.859 57.9920   1
   5   2   2 564.585 58.1442   5
   5   2   2 562.715 56.4709   4
   6   2   2 2.87501 3.90771   5
   6   2   2 2.74289 3.49328   4
   6  -3  -2 25.0074 7.80806   5
   6  -3  -2 22.3019 4.26916   4
   5  -3  -2 57.5438 6.53480   4
   5  -3  -2 46.8633 9.58419   5
  -5   3   2 35.4102 7.28679   4
   4  -3  -2 199.932 23.2801   1
   4  -3  -2 203.231 20.4278   4
   4  -3  -2 208.757 22.1623   5
   4  -3  -2 185.308 20.7773   3
  -4   3   2 197.767 23.4727   1
  -4   3   2 180.686 21.2126   4
   3  -3  -2 62.5496 6.82226   4
   3  -3  -2 63.8407 8.48464   5
   3  -3  -2 58.3253 9.36939   1
   3  -3  -2 58.9063 7.01788   3
  -3   3   2 52.0206 6.66451   2
  -3   3   2 58.0535 8.48524   5
  -3   3   2 63.6700 9.50052   1
  -3   3   2 51.8909 9.77993   4
   2  -3  -2 1263.66 129.610   3
   2  -3  -2 1277.00 130.276   5
   2  -3  -2 1205.87 130.297   1
   2  -3  -2 1261.72 129.585   4
  -2   3   2 1392.69 130.266   5
  -2   3   2 1263.88 129.556   2
  -2   3   2 1339.15 129.745   4
  -2   3   2 1275.58 130.424   1
   1  -3  -2 3110.48 323.095   4
   1  -3  -2 3215.61 323.601   1
   1  -3  -2 3126.61 323.622   5
  -1   3   2 3362.15 323.572   5
  -1   3   2 3232.43 323.631   1
   0  -3  -2 1760.23 167.873   4
   0  -3  -2 1151.89 168.157   5
   0  -3  -2 1715.45 167.768   6
   0  -3  -2 1820.70 168.146   1
   0   3   2 1790.24 168.118   1
   0   3   2 1727.84 167.867   4
   0   3   2 1699.46 167.755   6
   1   3   2 114.359 11.2380   4
   1   3   2 99.1135 11.1333   3
   1   3   2 113.725 11.6597   5
   2   3   2 1521.36 148.665   2
   2   3   2 1429.10 148.749   3
   3   3   2 586.819 54.8396   2
   3   3   2 575.253 55.1387   3
   3   3   2 460.254 55.2841   4
   4   3   2 4.07858 1.78334   2
   4   3   2 5.41991 3.05634   4
   4   3   2 0.49714 2.17468   3
   4   3   2 2.23955 3.06636   5
   5   3   2 234.993 25.2961   4
   5   3   2 239.268 26.6177   5
   6   3   2 66.5784 11.5476   5
   6   3   2 57.7467 9.17358   4
   6  -4  -2 9.52465 3.76586   4
   6  -4  -2 15.7869 7.87117   5
   5  -4  -2 6.96213 2.68128   4
   5  -4  -2 5.58700 4.74470   5
  -5   4   2 -3.3499 6.11147   4
   4  -4  -2 540.144 52.7029   3
   4  -4  -2 517.102 53.9191   5
   4  -4  -2 494.510 54.5209   1
   4  -4  -2 531.244 52.4058   4
  -4   4   2 505.511 54.7869   1
  -4   4   2 490.921 53.0778   4
   3  -4  -2 2887.67 304.018   5
   3  -4  -2 2897.89 304.178   1
   3  -4  -2 3027.96 303.176   3
   3  -4  -2 2967.07 303.084   4
   3  -4  -2 2986.56 303.022   6
  -3   4   2 3288.01 303.991   5
  -3   4   2 2896.32 302.962   2
  -3   4   2 3095.91 303.411   4
  -3   4   2 3025.91 304.367   1
   2  -4  -2 3205.08 321.264   3
   2  -4  -2 3116.51 322.099   1
   2  -4  -2 3069.64 321.293   4
   2  -4  -2 3212.04 322.054   5
   2  -4  -2 3174.28 321.215   6
  -2   4   2 3230.44 321.482   4
  -2   4   2 3451.62 322.012   5
  -2   4   2 3086.79 321.232   2
  -2   4   2 3164.23 322.173   1
   1  -4  -2 1272.09 126.328   3
   1  -4  -2 1258.78 126.481   4
   1  -4  -2 1260.65 126.373   6
   1  -4  -2 1254.65 127.036   1
   1  -4  -2 1133.33 127.031   5
  -1   4   2 1355.84 126.940   5
  -1   4   2 1263.26 126.458   2
  -1   4   2 1113.82 126.265   3
  -1   4   2 1352.57 126.548   4
  -1   4   2 1276.31 127.066   1
   0  -4  -2 21.0984 2.69806   6
   0  -4  -2 20.9297 4.00199   5
   0  -4  -2 25.5128 2.94173   4
   0  -4  -2 25.8040 3.47903   1
   0   4   2 21.9400 3.36077   1
   0   4   2 14.8122 4.01619   5
   0   4   2 21.7507 2.62013   6
   0   4   2 25.0017 2.89829   4
   0   4   2 19.2451 2.50817   3
   1   4   2 242.243 25.3489   6
   1   4   2 260.240 25.9424   5
   1   4   2 253.463 25.4299   4
   1   4   2 242.908 25.3252   3
   2   4   2 770.999 76.6832   2
   2   4   2 717.168 76.7004   3
   2   4   2 823.597 77.2439   5
   2   4   2 724.165 76.6475   4
   3   4   2 2677.92 265.911   3
   3   4   2 2773.46 265.723   2
   3   4   2 2459.53 266.101   4
   4   4   2 1979.69 198.963   2
   4   4   2 1816.20 199.420   4
   4   4   2 2076.41 199.922   5
   4   4   2 2019.01 199.370   3
   5   4   2 350.405 45.0321   2
   5   4   2 489.476 44.8041   2
   5   4   2 451.601 46.7226   5
   5   4   2 475.361 45.6969   4
   6   4   2 0.45720 4.74214   5
   6   4   2 -2.4659 3.62486   4
   6  -5  -2 86.2658 11.4359   4
   5  -5  -2 17.4991 4.27442   4
   5  -5  -2 9.88987 5.57827   5
   4  -5  -2 21.4933 3.58722   4
   4  -5  -2 20.3822 5.16637   3
   4  -5  -2 17.8205 5.40649   5
   4  -5  -2 17.8819 7.71102   1
  -4   5   2 18.1259 3.84597   2
  -4   5   2 9.38434 9.53918   1
  -4   5   2 24.5043 3.30147   2
  -4   5   2 8.90912 4.64537   4
   3  -5  -2 45.7536 8.26887   1
   3  -5  -2 47.3754 8.44364   5
   3  -5  -2 47.5502 6.39086   4
   3  -5  -2 46.6955 6.10694   6
   3  -5  -2 53.2082 6.39140   3
  -3   5   2 59.2422 7.93753   5
  -3   5   2 51.0961 5.90165   2
  -3   5   2 36.9781 7.81468   1
  -3   5   2 47.2661 7.45026   4
   2  -5  -2 1586.72 163.564   4
   2  -5  -2 1681.47 163.481   3
   2  -5  -2 1650.40 163.441   6
   2  -5  -2 1640.60 164.441   5
   2  -5  -2 1599.60 164.489   1
  -2   5   2 1480.38 163.363   3
  -2   5   2 1689.60 163.726   4
  -2   5   2 1617.31 164.551   1
  -2   5   2 1644.90 163.490   2
   1  -5  -2 3740.31 403.132   3
   1  -5  -2 4205.73 403.306   4
   1  -5  -2 3218.71 403.763   5
   1  -5  -2 3167.26 403.340   6
   1  -5  -2 4367.97 403.990   1
  -1   5   2 4428.77 404.012   1
  -1   5   2 4200.92 403.149   6
  -1   5   2 4711.88 403.745   5
   0  -5  -2 2631.91 248.772   1
   0  -5  -2 2579.61 248.418   4
   0  -5  -2 2520.16 248.271   6
   0  -5  -2 2380.13 248.707   5
   0   5   2 2628.82 248.395   4
   0   5   2 2074.19 248.701   5
   0   5   2 2302.11 248.204   3
   0   5   2 2492.33 248.243   6
   0   5   2 2581.10 248.745   1
  -1  -5  -2 0.15328 1.15949   4
   1   5   2 1.37676 1.21709   3
   1   5   2 10.7340 1.45727   4
   1   5   2 7.82258 1.23015   6
   1   5   2 2.67851 1.96318   5
   1   5   2 3.82866 1.22799   2
   2   5   2 361.564 37.6996   4
   2   5   2 354.968 37.7362   3
   2   5   2 396.820 38.3934   5
   3   5   2 128.815 13.9950   2
   3   5   2 136.919 13.9247   4
   3   5   2 130.944 14.2000   3
   4   5   2 89.7839 12.2661   4
   4   5   2 103.545 12.5187   5
   4   5   2 94.8185 11.7701   3
   4   5   2 99.3670 11.1229   2
   4   5   2 106.426 11.0025   4
   5   5   2 325.495 32.6563   4
   5   5   2 284.646 32.1224   2
   5   5   2 312.995 33.6755   5
   5   5   2 313.357 31.9469   4
   6   5   2 155.802 18.3061   4
   6   5   2 165.676 20.4301   5
   6  -6  -2 26.0254 5.56362   4
   6  -6  -2 20.9055 10.6666   5
   5  -6  -2 5.92741 3.31007   4
   5  -6  -2 3.78913 5.86533   5
   4  -6  -2 209.980 22.2620   4
   4  -6  -2 213.786 24.5480   5
   4  -6  -2 206.677 22.4702   3
   4  -6  -2 185.137 28.4407   1
  -4   6   2 209.363 21.7619   2
  -4   6   2 216.971 21.6884   2
   3  -6  -2 1241.52 132.273   4
   3  -6  -2 1250.32 132.098   6
   3  -6  -2 1265.96 133.497   5
   3  -6  -2 1361.12 132.272   3
   3  -6  -2 1307.33 133.814   1
  -3   6   2 1429.53 133.069   5
  -3   6   2 1303.78 132.626   4
  -3   6   2 1327.13 132.102   2
  -3   6   2 1284.32 133.852   1
   2  -6  -2 1714.80 176.433   6
   2  -6  -2 1610.65 177.498   5
   2  -6  -2 1784.37 176.650   4
   2  -6  -2 1709.56 177.657   1
   2  -6  -2 1766.33 176.502   3
  -2   6   2 1743.66 176.523   2
  -2   6   2 1936.70 177.119   5
  -2   6   2 1723.78 177.683   1
  -2   6   2 1859.95 176.799   4
  -2   6   2 1648.60 176.337   3
   1  -6  -2 252.322 27.1870   4
   1  -6  -2 243.937 28.0306   1
   1  -6  -2 260.294 26.9918   6
  -1   6   2 254.711 28.0849   1
  -1   6   2 284.692 27.2861   4
  -1   6   2 260.728 26.9914   6
  -1   6   2 289.023 27.5475   5
   0  -6  -2 6.92996 1.45995   6
   0  -6  -2 5.94181 1.76058   4
   0  -6  -2 8.00292 2.31735   5
   0   6   2 10.0238 2.70034   1
   0   6   2 8.64672 1.79801   4
   0   6   2 9.24577 1.54494   6
   0   6   2 8.47545 1.78565   2
   0   6   2 7.63936 2.45180   5
  -1  -6  -2 2.21217 1.54840   4
   1   6   2 7.88129 1.48377   4
   1   6   2 2.25708 1.43409   3
   1   6   2 1.39488 1.18500   2
   1   6   2 0.70219 1.22081   6
   1   6   2 3.61621 2.46064   5
   2   6   2 192.833 20.3161   4
   2   6   2 204.174 21.2557   5
   2   6   2 194.550 20.4643   2
   3   6   2 1198.34 128.983   3
   3   6   2 1259.34 128.949   2
   3   6   2 1264.93 128.808   4
   3   6   2 1382.00 129.888   5
   4   6   2 1544.00 151.599   5
   4   6   2 1610.52 152.287   5
   4   6   2 1308.50 151.228   4
   4   6   2 1534.01 150.697   4
   4   6   2 1463.86 150.846   2
   5   6   2 127.405 15.4706   5
   5   6   2 109.789 14.5966   4
   5   6   2 120.019 14.4718   4
   6   6   2 5.15569 5.33945   5
   5  -7  -2 -0.1432 3.37310   4
   5  -7  -2 2.43370 6.44412   5
   4  -7  -2 1.79052 3.16554   3
   4  -7  -2 2.02655 2.99775   4
   4  -7  -2 -1.7616 5.40677   5
  -4   7   2 -0.3404 2.09744   2
  -4   7   2 1.84655 2.56881   2
   3  -7  -2 140.330 20.2069   1
   3  -7  -2 145.922 16.5433   3
   3  -7  -2 144.119 16.5679   4
   3  -7  -2 148.137 18.6683   5
  -3   7   2 162.507 16.1606   2
  -3   7   2 146.475 20.1297   1
  -3   7   2 151.666 17.9851   4
  -3   7   2 158.688 16.1318   2
  -3   7   2 156.435 17.3304   5
   2  -7  -2 918.410 116.465   5
   2  -7  -2 1010.37 115.493   3
   2  -7  -2 1175.92 115.436   6
   2  -7  -2 1188.04 115.700   4
   2  -7  -2 1158.91 116.926   1
  -2   7   2 1213.54 115.568   2
  -2   7   2 1122.51 116.876   1
  -2   7   2 1163.68 115.503   2
  -2   7   2 1137.21 115.273   3
  -2   7   2 1211.06 115.845   4
  -2   7   2 1268.48 116.048   5
   1  -7  -2 4472.93 437.998   6
   1  -7  -2 4586.09 438.253   4
   1  -7  -2 3735.29 437.969   3
   1  -7  -2 2826.54 438.383   5
   1  -7  -2 4623.97 439.105   1
  -1   7   2 4582.97 438.007   6
  -1   7   2 4264.89 437.812   3
  -1   7   2 4660.64 439.101   1
  -1   7   2 4452.00 438.123   2
  -1   7   2 4866.33 438.427   5
  -1   7   2 4786.04 438.280   4
   0  -7  -2 1565.05 150.263   5
   0  -7  -2 1514.78 150.163   4
   0  -7  -2 1457.63 150.626   1
   0   7   2 1468.23 149.903   3
   0   7   2 1444.73 150.066   2
   0   7   2 1479.47 150.633   1
   0   7   2 1491.71 150.326   5
   0   7   2 1502.71 150.075   4
   0   7   2 1451.96 149.908   6
  -1  -7  -2 89.3654 9.50694   1
  -1  -7  -2 84.7164 9.07358   4
   1   7   2 54.3669 9.61063   5
   1   7   2 84.7630 8.68221   4
   1   7   2 88.7759 8.87782   2
   1   7   2 62.8069 8.95283   3
   1   7   2 87.6199 8.75152   6
   2   7   2 29.9351 7.93847   5
   2   7   2 36.2193 4.65004   4
   2   7   2 36.2895 4.60604   3
   2   7   2 39.5776 5.51103   3
   2   7   2 30.8916 4.98116   2
   2   7   2 37.8185 5.10121   6
   3   7   2 7.94752 3.88835   5
   3   7   2 5.96311 2.49960   2
   3   7   2 3.84270 2.07084   3
   3   7   2 10.4223 2.15231   4
   3   7   2 8.11587 3.01841   3
   4   7   2 117.980 13.1030   4
   4   7   2 123.701 14.5326   5
   4   7   2 113.832 14.6883   4
   4   7   2 127.446 16.5051   5
   4   7   2 115.790 13.6853   2
   5   7   2 410.639 43.3160   4
   5   7   2 415.370 44.1204   5
   6   7   2 179.012 22.5415   5
   5  -8  -2 41.1038 8.19329   4
   5  -8  -2 34.4297 10.9089   5
   4  -8  -2 38.8287 7.00807   4
   4  -8  -2 25.5990 11.4396   5
  -4   8   2 34.3151 5.82696   2
   3  -8  -2 352.635 40.1341   1
   3  -8  -2 300.657 38.4081   5
   3  -8  -2 317.656 36.7317   3
  -3   8   2 384.141 36.4844   2
  -3   8   2 336.046 39.7513   1
  -3   8   2 393.975 37.3836   5
  -3   8   2 379.926 36.4663   2
   2  -8  -2 470.613 49.4383   6
   2  -8  -2 503.524 49.6176   4
   2  -8  -2 294.342 50.1006   5
   2  -8  -2 499.051 51.3410   1
  -2   8   2 553.479 50.2272   4
  -2   8   2 534.789 49.7442   5
  -2   8   2 495.215 49.3490   2
  -2   8   2 497.688 51.3368   1
  -2   8   2 485.096 48.9167   3
  -2   8   2 498.782 49.3216   2
   1  -8  -2 54.9776 6.14553   4
   1  -8  -2 35.7384 6.78287   1
   1  -8  -2 33.4923 4.95036   6
   1  -8  -2 29.2507 5.32826   3
   1  -8  -2 25.9573 6.41076   5
  -1   8   2 35.2873 5.14389   2
  -1   8   2 35.9853 5.49370   4
  -1   8   2 36.0178 5.39109   5
  -1   8   2 31.0808 4.15475   3
  -1   8   2 29.8618 5.09828   6
  -1   8   2 24.3132 6.23899   1
   0  -8  -2 123.536 12.4233   5
   0  -8  -2 112.393 12.6773   4
   0  -8  -2 106.124 13.7882   1
   0   8   2 111.754 12.4612   5
   0   8   2 110.506 12.1812   6
   0   8   2 101.512 13.7216   1
   0   8   2 109.414 12.0801   3
   0   8   2 112.352 12.3268   4
  -1  -8  -2 191.873 18.1326   4
  -1  -8  -2 187.189 18.5651   1
   1   8   2 125.973 18.2291   5
   1   8   2 185.340 17.7060   4
   1   8   2 124.509 17.8727   3
   1   8   2 184.268 17.8782   2
   1   8   2 183.727 17.7119   6
   2   8   2 26.3236 4.47244   6
   2   8   2 18.1212 3.37784   3
   2   8   2 14.3859 3.21270   3
   2   8   2 14.2881 2.66753   4
   2   8   2 13.5402 6.89658   5
   2   8   2 16.5074 3.30831   2
   3   8   2 467.220 49.5099   4
   3   8   2 456.918 49.8724   2
   3   8   2 520.730 50.1998   3
   3   8   2 454.358 49.7305   3
   3   8   2 522.368 50.1125   5
   3   8   2 494.054 51.0934   5
   4   8   2 425.494 53.8365   4
   4   8   2 482.762 53.0514   4
   4   8   2 626.052 55.0790   3
   4   8   2 550.686 54.2113   5
   5   8   2 24.9050 6.79717   4
   5   8   2 46.1536 9.91354   5
   5   8   2 53.2336 11.5775   3
   5  -9  -2 2.18197 9.91946   5
   5  -9  -2 0.79486 5.18962   4
   4  -9  -2 3.65180 3.85368   4
   4  -9  -2 -6.5529 6.96332   5
  -4   9   2 -0.4793 3.10130   2
   3  -9  -2 39.9927 12.0976   5
   3  -9  -2 67.6992 9.38117   4
  -3   9   2 65.6403 8.72957   2
  -3   9   2 79.2311 8.54414   2
  -3   9   2 55.5600 13.1970   1
   2  -9  -2 999.181 90.1631   4
   2  -9  -2 879.071 90.7669   1
   2  -9  -2 565.000 88.8383   5
   2  -9  -2 655.274 88.2176   3
  -2   9   2 992.772 88.6156   5
  -2   9   2 993.715 88.4721   2
  -2   9   2 954.769 87.9041   3
  -2   9   2 909.814 90.5187   1
  -2   9   2 892.001 88.3485   2
   1  -9  -2 2361.41 238.518   4
   1  -9  -2 2218.47 239.517   1
   1  -9  -2 2372.21 238.520   5
  -1   9   2 2338.66 239.525   1
  -1   9   2 2468.40 238.160   6
  -1   9   2 2524.07 238.279   5
  -1   9   2 2383.20 237.835   3
  -1   9   2 2218.30 238.265   2
   0  -9  -2 696.093 74.6551   1
   0  -9  -2 731.713 73.8388   4
   0   9   2 731.341 73.4386   6
   0   9   2 778.060 73.3408   3
   0   9   2 715.739 73.6048   4
   0   9   2 772.415 73.4865   5
   0   9   2 695.424 74.5596   1
   0   9   2 660.511 73.5829   2
  -1  -9  -2 120.615 13.2334   4
  -1  -9  -2 156.756 16.1608   1
  -1  -9  -2 104.278 14.4866   1
   1   9   2 101.231 13.1300   3
   1   9   2 119.540 12.6984   6
   1   9   2 99.8578 12.9372   5
   1   9   2 118.411 12.6291   4
   2   9   2 4.68721 2.65503   6
   2   9   2 1.24687 2.57710   3
   2   9   2 2.92731 1.78439   3
   2   9   2 4.47099 2.14309   4
   3   9   2 1.02162 2.38439   3
   3   9   2 -0.4897 5.13476   5
   3   9   2 2.35427 2.36607   4
   3   9   2 -0.6125 2.90996   3
   3   9   2 2.95136 2.75923   5
   4   9   2 158.339 18.1880   5
   4   9   2 154.637 18.6965   3
   5   9   2 352.684 36.3162   3
   5   9   2 309.470 38.5485   4
   5   9   2 313.544 35.8201   5
   4 -10  -2 -1.6850 4.52183   4
   4 -10  -2 -5.3473 8.30451   5
   3 -10  -2 21.3238 7.75009   5
   3 -10  -2 58.7370 8.14293   4
   2 -10  -2 97.2830 14.4374   5
   2 -10  -2 110.766 14.0610   4
  -2  10   2 124.127 12.0647   3
   1 -10  -2 2.23286 3.78592   4
   1 -10  -2 5.06768 3.04376   5
  -1  10   2 2.87615 2.96266   6
  -1  10   2 4.93040 2.30332   5
  -1  10   2 3.81076 1.66241   3
   0 -10  -2 228.588 31.4741   4
   0  10   2 281.193 28.1939   5
   0  10   2 293.978 28.3278   3
  -1 -10  -2 259.247 26.9370   4
   1  10   2 262.879 26.1561   5
   1  10   2 228.063 26.6753   3
   2  10   2 9.02886 2.47721   3
   2  10   2 11.8396 3.32746   6
   2  10   2 6.67269 3.38340   3
   3  10   2 123.638 12.7759   5
   3  10   2 85.5410 13.5396   3
   3  10   2 106.084 13.2149   6
   4  10   2 104.171 14.7285   6
   4  10   2 111.598 15.6459   3
   4  10   2 130.437 14.9464   5
   3 -11  -2 9.64944 5.59459   4
  -3  11   2 27.0418 5.28814   2
   2 -11  -2 514.533 51.5347   4
   2 -11  -2 494.975 51.3348   5
  -2  11   2 469.293 50.9383   2
   1 -11  -2 783.929 79.1889   4
  -1  11   2 757.368 78.5245   6
   0 -11  -2 455.540 49.6108   4
   0  11   2 487.576 48.4302   3
   0  11   2 478.643 48.8689   6
  -1 -11  -2 11.2942 4.89203   4
   1  11   2 8.94049 4.00613   3
   1  11   2 16.0878 3.88703   6
   2  11   2 0.55620 3.47244   6
   2  11   2 0.03116 2.18682   5
   2  11   2 1.11506 4.06398   3
   3  11   2 1.71484 4.04981   6
   3  11   2 0.28983 5.09603   3
   4  11   2 66.1203 13.4171   3
   4  11   2 90.2922 12.7641   6
  -3  12   2 -3.1435 4.87900   2
   2 -12  -2 7.29023 6.31649   4
  -2  12   2 18.0433 5.00612   2
   1 -12  -2 32.1762 7.19585   4
  -1  12   2 28.1138 5.71024   6
   0 -12  -2 209.462 23.9792   4
   0  12   2 201.884 22.7332   6
  -1 -12  -2 284.313 30.1255   4
   1  12   2 254.989 29.1338   6
   1  12   2 276.667 29.4843   3
   2  12   2 13.1528 5.94034   3
   2  12   2 34.8575 5.47260   6
   3  12   2 10.3070 5.34550   6
   3  12   2 1.10517 6.06134   3
   1 -13  -2 260.790 30.0089   4
  -1  13   2 248.971 28.1766   6
   0 -13  -2 132.413 18.4045   4
   0  13   2 125.272 16.4419   6
   1  13   2 0.85778 4.99447   6
   2  13   2 -6.0079 5.20425   6
   2  11  -3 57.6721 14.9182   3
   1  11  -3 242.075 26.9364   3
   1  11  -3 203.143 25.3535   6
  -1 -11   3 196.515 25.0996   4
   0  11  -3 274.625 31.4379   6
   0  11  -3 307.553 33.1699   3
   0 -11   3 263.705 31.9652   4
  -1  11  -3 17.2436 6.68397   6
  -1  11  -3 22.1224 7.61651   3
   1 -11   3 16.6611 7.66207   4
  -2  11  -3 1.67235 6.79641   3
  -2  11  -3 -0.3264 7.39561   6
   2 -11   3 1.30678 7.39094   4
   3  10  -3 20.9160 6.78685   3
   3  10  -3 29.6411 9.80941   6
   2  10  -3 26.9027 6.26745   6
   2  10  -3 17.9734 6.41147   3
   1  10  -3 -2.2003 5.76863   3
   1  10  -3 1.58061 4.91995   6
  -1 -10   3 -4.1903 5.56356   4
   0  10  -3 109.068 14.6446   6
   0  10  -3 116.892 16.7921   3
   0 -10   3 95.9924 15.0498   4
  -1  10  -3 179.542 21.4554   6
  -1  10  -3 183.164 22.6348   3
   1 -10   3 186.497 21.7860   4
  -2  10  -3 21.7412 6.03553   3
  -2  10  -3 6.64994 5.15083   6
   2 -10   3 15.0009 6.37188   4
  -3  10  -3 14.3943 5.75312   3
   3 -10   3 15.5296 7.36342   4
   4   9  -3 5.84920 6.33712   3
   3   9  -3 -0.6901 4.46854   6
   3   9  -3 -1.1092 4.64562   3
   2   9  -3 57.1373 11.6126   3
   2   9  -3 91.8811 11.2015   6
   1   9  -3 695.372 71.5230   6
   1   9  -3 693.517 75.8974   3
  -1  -9   3 699.470 71.5874   4
   0   9  -3 605.330 59.0297   3
   0   9  -3 578.947 57.8553   6
   0  -9   3 485.624 60.1069   4
  -1   9  -3 64.9243 11.7472   3
  -1   9  -3 52.9174 9.87278   6
   1  -9   3 57.0732 10.1379   4
  -2   9  -3 0.09191 4.09247   6
  -2   9  -3 -0.3133 5.03373   3
   2  -9   3 0.75499 4.76202   4
  -3   9  -3 9.03619 4.58062   3
   3  -9   3 4.47413 5.52530   4
  -4   9  -3 11.2645 5.34232   3
   4  -9   3 9.78039 8.06748   4
   4   8  -3 6.04538 5.08346   3
   3   8  -3 17.7544 5.10536   3
   3   8  -3 32.6246 6.85553   5
   2   8  -3 2.03059 3.90953   3
   2   8  -3 0.61550 3.39149   6
   2   8  -3 -0.1383 2.20552   4
   1   8  -3 5.92254 4.36266   3
   1   8  -3 7.70470 2.63548   4
   1   8  -3 8.31038 3.73515   6
  -1  -8   3 6.16971 4.01197   4
   0   8  -3 538.717 53.8179   3
   0   8  -3 473.061 52.3539   4
   0  -8   3 525.612 52.9264   4
   0  -8   3 509.783 54.2686   3
  -1   8  -3 615.343 73.9627   6
  -1   8  -3 794.905 73.8845   3
   1  -8   3 741.343 73.5950   4
   1  -8   3 698.766 74.1094   3
  -2   8  -3 171.290 18.5989   6
  -2   8  -3 195.794 19.2894   3
   2  -8   3 125.072 20.7467   3
   2  -8   3 165.264 19.1851   4
   3  -8   3 5.76826 4.28587   5
   3  -8   3 11.3507 5.00120   4
  -4   8  -3 67.8562 10.6015   3
   4  -8   3 53.4087 11.5206   4
   5   7  -3 10.4029 8.21044   3
   4   7  -3 50.3431 10.9492   3
   4   7  -3 64.5968 9.81002   5
   3   7  -3 9.03334 2.72684   4
   3   7  -3 2.73206 3.68228   3
   3   7  -3 6.34133 2.92811   5
   2   7  -3 206.439 18.6971   4
   2   7  -3 134.310 19.8655   3
  -2  -7   3 194.669 21.4953   2
   1   7  -3 1103.75 114.720   6
   1   7  -3 1179.90 114.335   4
   1   7  -3 1028.68 115.183   3
  -1  -7   3 1312.86 115.245   2
  -1  -7   3 1195.01 114.714   4
  -1  -7   3 951.127 116.985   1
   0   7  -3 869.078 87.2874   6
   0   7  -3 767.504 87.2142   2
   0   7  -3 849.847 87.0006   4
   0   7  -3 885.734 88.0956   3
   0  -7   3 934.812 87.6123   2
   0  -7   3 869.123 87.3875   4
   0  -7   3 838.432 88.2262   3
   0  -7   3 850.135 88.9877   1
  -1   7  -3 79.5054 11.0886   3
  -1   7  -3 76.9430 9.81620   6
  -1   7  -3 74.8932 9.39765   4
  -1   7  -3 78.0349 9.43832   2
   1  -7   3 62.5167 14.6734   1
   1  -7   3 63.1100 12.1048   1
   1  -7   3 83.4098 10.3325   4
   1  -7   3 71.3076 11.7292   3
  -2   7  -3 4.46312 3.03181   6
  -2   7  -3 4.76019 2.83248   2
  -2   7  -3 1.88227 3.18282   3
   2  -7   3 3.25797 3.80396   3
   2  -7   3 -2.5608 7.14397   1
   2  -7   3 4.32191 3.80702   4
  -3   7  -3 13.0708 3.56005   2
  -3   7  -3 11.1745 3.59263   3
   3  -7   3 7.42342 4.22750   5
   3  -7   3 9.22846 10.3510   1
   3  -7   3 6.28723 4.08972   4
  -4   7  -3 63.2267 9.28743   3
   4  -7   3 56.9178 10.6319   4
   4  -7   3 50.2785 11.6723   5
  -5   7  -3 365.229 36.0691   3
   5  -7   3 303.846 38.5976   5
   5  -7   3 328.672 37.0595   4
   5   6  -3 251.634 28.5464   3
   5   6  -3 238.545 27.8389   5
   4   6  -3 37.2527 9.10603   3
   4   6  -3 36.3848 7.80484   5
   3   6  -3 -0.3046 1.30666   4
   3   6  -3 1.14219 2.41370   5
  -3  -6   3 -2.4116 3.43064   2
   2   6  -3 1.69528 1.42478   4
   2   6  -3 2.47280 1.91714   5
   2   6  -3 1.56687 2.68790   3
   2   6  -3 2.18545 2.80804   2
  -2  -6   3 -2.7731 8.82311   1
  -2  -6   3 1.49791 6.42200   1
  -2  -6   3 0.31002 3.31645   2
   1   6  -3 134.895 19.3745   3
   1   6  -3 189.852 18.3506   4
   1   6  -3 166.283 18.9402   6
   1   6  -3 175.637 18.8820   2
  -1  -6   3 186.862 21.2166   1
  -1  -6   3 186.281 18.7868   4
  -1  -6   3 210.564 19.4830   2
  -1  -6   3 141.557 23.1478   1
   0   6  -3 1353.15 145.448   2
   0   6  -3 1403.25 146.092   3
   0   6  -3 1450.19 145.262   4
   0   6  -3 1422.08 145.434   6
   0  -6   3 1526.05 145.703   2
   0  -6   3 1457.98 146.792   1
   0  -6   3 1529.62 145.562   4
   0  -6   3 1365.06 146.137   3
  -1   6  -3 2161.60 220.781   3
  -1   6  -3 2087.04 220.266   2
  -1   6  -3 2192.75 220.246   4
  -1   6  -3 2257.76 220.229   6
   1  -6   3 2247.28 221.808   1
   1  -6   3 2270.59 220.412   2
   1  -6   3 2304.77 222.023   1
   1  -6   3 2332.13 220.529   4
   1  -6   3 1795.52 220.616   3
  -2   6  -3 607.316 54.9357   3
  -2   6  -3 576.002 54.4064   6
  -2   6  -3 543.293 54.6346   4
  -2   6  -3 529.524 54.4287   2
   2  -6   3 549.598 54.8751   4
   2  -6   3 566.864 57.1517   1
   2  -6   3 566.414 56.7641   1
   2  -6   3 524.510 54.4946   5
   2  -6   3 347.246 54.6192   3
  -3   6  -3 26.9493 5.65792   3
  -3   6  -3 25.1396 4.94778   2
   3  -6   3 18.0365 4.53858   3
   3  -6   3 13.7635 5.24923   4
   3  -6   3 23.4707 8.51280   1
   3  -6   3 21.0635 6.37572   5
   4  -6   3 19.8647 5.69041   5
   4  -6   3 14.3240 4.83291   4
  -5   6  -3 1.84775 3.87272   3
   5  -6   3 2.92692 6.53125   5
   5  -6   3 2.78657 5.09132   4
   5   5  -3 43.9732 10.1369   5
   5   5  -3 43.7950 8.30410   3
   4   5  -3 299.149 33.3891   3
   4   5  -3 292.614 33.0067   5
  -4  -5   3 340.474 33.0426   2
   3   5  -3 70.3005 8.43839   5
   3   5  -3 77.9343 15.2199   1
   3   5  -3 45.6357 8.55502   2
   3   5  -3 62.7133 9.32573   3
  -3  -5   3 56.9132 12.5648   1
  -3  -5   3 78.7872 9.12411   2
   2   5  -3 206.798 20.5760   5
   2   5  -3 165.739 21.0568   3
   2   5  -3 204.931 20.0455   4
   2   5  -3 183.589 20.7556   2
  -2  -5   3 235.320 21.2935   2
  -2  -5   3 163.284 24.5154   1
   1   5  -3 1233.56 127.285   2
   1   5  -3 880.896 127.375   3
   1   5  -3 1346.58 126.946   4
  -1  -5   3 1409.81 127.574   2
  -1  -5   3 1361.63 128.496   1
  -1  -5   3 1375.34 127.151   4
  -1  -5   3 1200.39 129.112   1
   0   5  -3 1025.50 108.212   2
   0   5  -3 994.173 108.734   3
   0   5  -3 1109.67 108.046   4
   0   5  -3 1044.15 108.174   6
   0  -5   3 1124.56 109.472   1
   0  -5   3 976.515 108.768   3
   0  -5   3 1131.56 108.419   2
   0  -5   3 1147.82 108.274   4
  -1   5  -3 13.0631 2.73701   6
  -1   5  -3 14.3376 2.80656   4
  -1   5  -3 15.7645 2.95357   2
  -1   5  -3 18.1143 3.75523   3
   1  -5   3 11.1677 4.79809   1
   1  -5   3 12.3436 3.14099   4
   1  -5   3 13.0225 3.48624   3
   1  -5   3 18.5136 4.26397   2
   1  -5   3 14.4686 5.37476   1
  -2   5  -3 209.123 22.8089   2
  -2   5  -3 222.564 23.0968   4
  -2   5  -3 232.076 22.7847   6
  -2   5  -3 242.452 23.3194   3
   2  -5   3 176.306 23.2055   3
   2  -5   3 209.299 22.5129   6
   2  -5   3 219.903 25.1941   1
   2  -5   3 229.067 23.1296   5
   2  -5   3 230.191 23.3559   4
  -3   5  -3 173.924 17.5899   3
  -3   5  -3 179.719 19.3304   4
  -3   5  -3 149.533 17.1065   2
   3  -5   3 150.447 17.8581   4
   3  -5   3 134.627 17.7768   3
   3  -5   3 179.815 20.9511   1
   3  -5   3 164.896 16.8751   6
   3  -5   3 167.230 18.1010   5
  -4   5  -3 81.0600 9.62270   3
  -4   5  -3 59.9350 8.73143   2
   4  -5   3 72.6530 11.0518   5
   4  -5   3 79.1130 10.2450   4
  -5   5  -3 304.332 31.9778   3
   5  -5   3 290.518 33.9470   5
   5  -5   3 300.117 32.3589   4
  -6   5  -3 336.577 35.2557   3
   6  -5   3 326.283 35.7875   4
   6  -5   3 303.090 38.5257   5
   6   4  -3 187.501 24.1757   5
   5   4  -3 467.688 48.4834   3
   5   4  -3 445.022 48.4565   5
   4   4  -3 135.586 15.8898   5
   4   4  -3 120.111 26.3358   1
   4   4  -3 144.506 16.4130   3
   4   4  -3 106.361 15.5526   2
  -4  -4   3 153.699 15.5245   2
   3   4  -3 3.69781 2.67786   2
   3   4  -3 1.66607 7.61383   1
   3   4  -3 4.13134 2.43691   5
   3   4  -3 2.97336 2.91287   3
  -3  -4   3 6.19111 5.42643   1
  -3  -4   3 4.07634 3.09871   2
   2   4  -3 1.84894 1.69601   5
   2   4  -3 11.2722 6.27073   1
   2   4  -3 0.99541 1.77104   2
   2   4  -3 0.12836 1.93645   3
   2   4  -3 3.69748 0.96766   4
  -2  -4   3 2.00156 2.41706   2
  -2  -4   3 9.11071 6.16712   1
   1   4  -3 684.564 73.7336   5
   1   4  -3 779.290 73.1946   4
   1   4  -3 723.859 73.5386   2
   1   4  -3 522.723 73.6378   3
  -1  -4   3 790.120 73.3365   4
  -1  -4   3 824.592 73.7888   2
  -1  -4   3 749.496 75.5370   1
   0   4  -3 2140.70 221.391   2
   0   4  -3 2225.72 221.227   4
   0   4  -3 2196.58 221.332   6
   0   4  -3 1948.16 221.763   3
   0  -4   3 1976.19 222.071   3
   0  -4   3 2388.13 221.395   4
   0  -4   3 2298.73 221.533   2
   0  -4   3 2390.08 222.540   1
  -1   4  -3 4417.47 471.554   2
  -1   4  -3 4952.69 471.510   4
  -1   4  -3 4920.96 471.396   6
  -1   4  -3 4674.25 471.868   3
   1  -4   3 4721.53 471.609   4
   1  -4   3 5198.38 472.727   1
   1  -4   3 4765.23 471.537   2
   1  -4   3 3170.46 471.596   3
   1  -4   3 5328.71 472.853   1
  -2   4  -3 1702.43 162.292   3
  -2   4  -3 1631.30 162.189   4
  -2   4  -3 1646.41 161.885   6
  -2   4  -3 1556.28 161.975   2
   2  -4   3 1402.29 162.159   3
   2  -4   3 1619.42 161.934   2
   2  -4   3 1639.96 163.348   1
   2  -4   3 1617.05 162.269   4
   2  -4   3 1640.89 162.239   5
   2  -4   3 1595.69 161.782   6
  -3   4  -3 104.481 12.2721   4
  -3   4  -3 104.816 11.6976   3
  -3   4  -3 97.9648 11.2546   2
   3  -4   3 101.576 14.6117   1
   3  -4   3 101.948 12.1412   4
   3  -4   3 106.256 11.0352   6
   3  -4   3 102.197 12.0334   3
   3  -4   3 106.307 12.2807   5
  -4   4  -3 -0.8268 2.25547   3
   4  -4   3 -0.0788 3.01011   5
   4  -4   3 -1.9627 6.85016   1
   4  -4   3 -1.6470 3.02048   4
   4  -4   3 0.28181 1.79061   6
   4  -4   3 -2.6946 5.53140   3
  -5   4  -3 43.4325 7.67208   3
   5  -4   3 37.7128 6.71615   4
   5  -4   3 35.6298 9.92499   5
  -6   4  -3 159.048 19.3103   3
   6  -4   3 159.506 19.9179   4
   6  -4   3 164.221 22.9748   5
   6   3  -3 1.55309 6.38382   5
   6   3  -3 1.81043 6.20539   3
   5   3  -3 148.348 17.6520   3
   5   3  -3 122.387 16.8459   5
   4   3  -3 720.227 66.7862   5
   4   3  -3 526.253 68.6601   1
   4   3  -3 596.064 66.0882   2
   4   3  -3 473.599 67.7479   3
  -4  -3   3 812.820 66.1996   2
  -4  -3   3 740.969 70.9717   1
   3   3  -3 372.288 44.8697   2
   3   3  -3 343.954 46.8696   1
   3   3  -3 470.355 45.2975   5
   3   3  -3 454.102 45.3062   3
  -3  -3   3 497.483 45.1406   2
  -3  -3   3 480.269 46.1375   1
   2   3  -3 75.8259 9.10768   3
   2   3  -3 66.0890 8.61861   2
   2   3  -3 79.8823 12.8686   1
   2   3  -3 80.8294 8.72532   5
  -2  -3   3 69.3050 11.8836   1
  -2  -3   3 82.0541 9.00300   2
   1   3  -3 1115.36 118.532   2
   1   3  -3 1167.68 118.134   4
   1   3  -3 1169.52 119.785   1
   1   3  -3 1194.83 118.434   5
   1   3  -3 914.583 118.575   3
  -1  -3   3 1244.65 118.219   4
  -1  -3   3 1260.95 118.649   2
  -1  -3   3 1218.40 119.771   3
  -1  -3   3 1271.89 120.311   1
   0   3  -3 498.262 51.8903   6
   0   3  -3 457.773 52.3504   3
   0   3  -3 514.924 51.9843   2
   0   3  -3 547.733 51.8166   4
   0  -3   3 425.628 52.3353   3
   0  -3   3 567.705 52.1449   2
   0  -3   3 566.118 51.9443   4
  -1   3  -3 130.440 14.0350   4
  -1   3  -3 129.129 13.9986   2
  -1   3  -3 143.481 13.8960   6
  -1   3  -3 131.831 14.4773   3
   1  -3   3 133.382 14.1911   4
   1  -3   3 139.422 14.0873   2
   1  -3   3 142.077 15.4037   1
   1  -3   3 136.806 15.5992   1
   1  -3   3 146.236 13.8371   5
   1  -3   3 98.3912 14.2821   3
  -2   3  -3 1271.28 134.387   2
  -2   3  -3 1400.06 134.653   4
  -2   3  -3 1395.15 134.660   3
   2  -3   3 1339.69 134.331   2
   2  -3   3 1218.90 134.329   6
   2  -3   3 1312.87 134.621   3
   2  -3   3 1344.04 134.687   5
   2  -3   3 1391.49 135.611   1
   2  -3   3 1312.74 134.665   4
  -3   3  -3 613.864 60.8772   3
  -3   3  -3 592.911 61.0760   4
  -3   3  -3 513.548 60.4766   2
   3  -3   3 610.048 60.4024   6
   3  -3   3 632.955 60.9714   3
   3  -3   3 604.090 62.1076   1
   3  -3   3 612.363 61.3170   5
   3  -3   3 597.801 61.0420   4
  -4   3  -3 1.01809 2.04682   3
  -4   3  -3 13.6710 6.20494   1
  -4   3  -3 3.19184 3.90612   4
   4  -3   3 5.88556 3.36064   5
   4  -3   3 1.77412 1.53030   6
   4  -3   3 3.70928 2.87903   4
   4  -3   3 1.91064 2.65617   3
   4  -3   3 4.23279 5.71874   1
  -5   3  -3 275.596 28.9479   3
   5  -3   3 265.365 29.2265   4
   5  -3   3 273.465 30.4650   5
   6  -3   3 253.168 29.0097   4
   6  -3   3 271.584 31.2543   5
   6   2  -3 259.753 31.9467   3
   6   2  -3 290.190 32.2477   5
   5   2  -3 542.075 53.6851   3
   5   2  -3 480.361 53.9633   5
   4   2  -3 213.852 23.6088   5
   4   2  -3 182.467 26.7466   1
   4   2  -3 228.064 23.6748   3
   4   2  -3 196.846 23.1579   2
  -4  -2   3 197.156 24.9982   1
  -4  -2   3 247.016 22.8071   2
   3   2  -3 8.30932 2.90701   3
   3   2  -3 8.75002 5.79362   1
   3   2  -3 13.7473 3.23172   5
   3   2  -3 12.3318 2.97334   2
  -3  -2   3 16.2957 4.91717   1
  -3  -2   3 18.3797 4.23407   2
   2   2  -3 15.4782 3.48708   2
   2   2  -3 18.4441 3.41023   5
   2   2  -3 17.1190 3.86912   3
   2   2  -3 12.1293 5.36601   1
  -2  -2   3 19.9527 4.74729   1
  -2  -2   3 18.6314 4.20141   5
  -2  -2   3 17.2270 3.68737   2
   1   2  -3 379.272 42.8853   2
   1   2  -3 345.210 45.1684   1
   1   2  -3 362.622 43.0541   3
   1   2  -3 421.016 42.5468   4
   1   2  -3 433.650 42.9650   5
  -1  -2   3 470.126 43.4458   3
  -1  -2   3 442.586 42.5838   4
  -1  -2   3 447.844 43.0761   2
  -1  -2   3 476.198 43.0445   5
   0   2  -3 3244.31 336.356   5
   0   2  -3 2562.62 336.553   3
   0   2  -3 3236.39 336.399   2
   0   2  -3 4176.02 337.774   1
   0  -2   3 3543.44 336.520   2
   0  -2   3 3643.96 337.546   1
   0  -2   3 3358.67 336.355   5
   0  -2   3 2648.95 336.575   3
   0  -2   3 3663.81 336.334   4
   1  -2   3 8136.66 737.602   1
   1  -2   3 5958.49 736.692   3
   1  -2   3 7869.17 737.537   1
  -2   2  -3 2777.88 274.604   3
  -2   2  -3 2786.20 274.674   4
  -2   2  -3 2411.65 274.369   2
   2  -2   3 2946.17 275.440   1
   2  -2   3 2749.85 274.315   2
   2  -2   3 2680.67 274.221   6
   2  -2   3 2719.48 274.659   4
  -3   2  -3 53.1969 7.35419   4
  -3   2  -3 47.6247 8.71549   1
  -3   2  -3 56.5408 6.76339   3
  -3   2  -3 46.7167 5.99326   2
   3  -2   3 56.6327 5.98299   6
   3  -2   3 52.5156 7.14299   4
   3  -2   3 60.5007 7.39653   5
   3  -2   3 56.8537 6.91323   3
   3  -2   3 49.4302 8.64352   1
  -4   2  -3 62.0450 9.98179   4
  -4   2  -3 74.4421 8.75257   3
  -4   2  -3 67.3284 12.0990   1
   4  -2   3 69.4740 9.36166   4
   4  -2   3 76.0312 9.93166   5
   4  -2   3 72.8892 11.6958   1
   4  -2   3 71.2901 7.90459   6
   4  -2   3 68.7774 8.98965   3
  -5   2  -3 15.7575 3.69372   3
   5  -2   3 14.8133 5.00355   5
   6  -2   3 246.761 28.4728   5
   6  -2   3 225.426 26.1277   4
   6   1  -3 8.62284 6.45528   5
   5   1  -3 279.416 31.2067   5
   4   1  -3 1375.37 145.549   1
   4   1  -3 1337.10 144.550   3
   4   1  -3 1423.65 144.812   5
   4   1  -3 1356.39 145.289   2
  -4  -1   3 1591.16 143.960   2
  -4  -1   3 1454.16 145.254   1
   3   1  -3 1496.73 156.571   5
   3   1  -3 1313.17 156.112   2
   3   1  -3 1486.42 157.129   1
  -3  -1   3 1649.27 156.167   2
  -3  -1   3 1612.41 157.018   1
  -3  -1   3 1716.22 157.049   5
   2   1  -3 131.020 13.3864   3
   2   1  -3 120.127 14.6805   1
   2   1  -3 124.333 13.4265   5
   2   1  -3 97.4764 13.1478   2
  -2  -1   3 113.841 14.2383   1
  -2  -1   3 148.556 13.9038   5
  -2  -1   3 127.985 13.3096   2
   1   1  -3 66.5486 8.11791   3
   1   1  -3 71.0334 10.2571   1
   1   1  -3 60.9120 7.95413   2
   1   1  -3 77.3119 8.13099   5
  -1  -1   3 83.7436 8.31295   5
  -1  -1   3 72.1981 8.14535   2
   0   1  -3 61.0495 8.87478   1
   0   1  -3 56.6280 6.99705   5
   0   1  -3 71.3641 6.52988   4
   0   1  -3 66.7887 6.81314   2
   0   1  -3 45.0291 7.06252   3
   0  -1   3 48.7832 7.22315   3
   0  -1   3 74.2105 7.30187   4
   0  -1   3 71.9248 8.84720   1
   0  -1   3 56.1623 7.00146   5
   0  -1   3 63.8346 6.90972   2
  -1   1  -3 1079.28 109.858   4
  -1   1  -3 1143.31 109.621   6
  -1   1  -3 947.218 109.795   2
  -1   1  -3 1151.60 109.983   3
   1  -1   3 1034.52 109.876   4
   1  -1   3 1043.09 109.883   3
   1  -1   3 1075.02 109.842   2
   1  -1   3 1050.60 109.586   6
   1  -1   3 1194.94 110.652   1
   1  -1   3 1165.03 109.898   5
  -2   1  -3 2970.90 339.417   2
  -2   1  -3 3524.37 339.649   3
  -2   1  -3 3318.98 339.708   4
   2  -1   3 3841.03 340.379   1
   2  -1   3 2852.84 339.470   2
   2  -1   3 3506.48 339.293   6
   2  -1   3 3316.65 339.717   4
   2  -1   3 3643.86 339.661   3
  -3   1  -3 1972.56 200.850   3
  -3   1  -3 1921.33 201.040   4
   3  -1   3 2015.39 201.593   1
   3  -1   3 1916.07 200.972   4
   3  -1   3 1958.69 201.249   5
   3  -1   3 2111.04 200.903   3
   3  -1   3 2035.59 200.456   6
  -4   1  -3 102.104 11.0412   3
  -4   1  -3 89.0690 12.0431   4
   4  -1   3 99.8963 11.9110   5
   4  -1   3 94.3799 11.4504   4
   4  -1   3 78.5337 12.9272   1
   4  -1   3 99.6421 10.2553   6
   4  -1   3 98.2213 11.1480   3
  -5   1  -3 160.958 16.6016   3
   5  -1   3 147.528 16.8623   4
   5  -1   3 141.644 15.6555   6
   5  -1   3 138.297 18.2229   5
   6  -1   3 127.279 17.7668   5
   6  -1   3 129.107 15.7429   4
   6   0  -3 183.239 23.6175   5
   5   0  -3 392.129 40.7942   2
   5   0  -3 409.500 42.9405   5
   4   0  -3 141.744 14.5805   2
   4   0  -3 113.730 15.1207   3
   4   0  -3 117.056 18.1737   1
   4   0  -3 128.243 15.9815   5
   4   0  -3 141.008 13.7885   4
  -4   0   3 137.471 17.7005   1
  -4   0   3 140.746 14.4285   2
   3   0  -3 76.6115 9.63259   3
   3   0  -3 80.3408 11.8080   1
   3   0  -3 73.7065 9.63466   2
   3   0  -3 86.1531 10.4179   5
  -3   0   3 94.4602 11.1677   5
  -3   0   3 91.9594 9.66903   2
   2   0  -3 102.201 11.0684   5
   2   0  -3 79.5881 10.7152   2
   2   0  -3 111.354 12.1217   1
  -2   0   3 115.733 11.5396   5
  -2   0   3 91.0439 10.7625   2
   1   0  -3 22.3384 3.41149   5
   1   0  -3 22.7743 3.26642   3
   1   0  -3 14.8002 3.46887   1
   1   0  -3 26.4092 3.33081   2
  -1   0   3 20.3062 3.63630   5
  -1   0   3 21.8810 4.24779   1
  -1   0   3 13.8117 3.20794   2
   0   0  -3 4428.02 368.377   1
   0   0  -3 3034.93 367.117   3
   0   0  -3 3754.15 367.109   2
   0   0   3 2783.40 367.081   3
   0   0   3 4648.48 368.498   1
   0   0   3 3657.05 367.103   2
   0   0   3 3244.51 367.235   5
  -1   0  -3 9999.99 940.489   1
   1   0   3 8677.04 940.278   1
  -2   0  -3 2100.21 227.052   4
  -2   0  -3 2236.89 226.954   3
  -2   0  -3 2367.49 226.710   2
   2   0   3 2055.52 226.745   2
   2   0   3 2474.27 227.516   1
   2   0   3 2025.00 227.045   4
   2   0   3 2325.05 226.643   6
   2   0   3 2429.94 226.985   3
  -3   0  -3 99.7190 11.1750   3
  -3   0  -3 90.1198 11.5972   4
   3   0   3 111.897 11.2317   3
   3   0   3 106.970 12.2450   1
   3   0   3 101.105 11.5848   4
  -4   0  -3 6.79604 2.02525   3
  -4   0  -3 6.10046 3.30194   4
   4   0   3 7.27481 2.85297   5
   4   0   3 11.9700 4.08203   1
   4   0   3 7.92834 2.29179   3
   4   0   3 8.82188 3.05988   4
  -5   0  -3 0.74698 2.26057   3
  -5   0  -3 -2.5177 4.94141   4
   5   0   3 2.22010 3.88104   5
   5   0   3 0.31033 3.13595   4
   6   0   3 222.033 27.8092   5
   6   0   3 258.338 26.2697   4
   6  -1  -3 14.2679 6.61235   5
   5  -1  -3 479.575 53.2957   5
   5  -1  -3 524.247 50.9743   4
   4  -1  -3 2237.61 219.374   2
   4  -1  -3 2235.20 220.688   5
   4  -1  -3 2094.85 219.863   3
   4  -1  -3 2116.98 221.871   1
   4  -1  -3 2144.47 219.217   4
  -4   1   3 2390.09 219.509   2
  -4   1   3 2007.09 221.843   1
   3  -1  -3 1663.69 170.419   3
   3  -1  -3 1755.25 170.240   2
   3  -1  -3 1638.85 169.954   4
   3  -1  -3 1729.44 171.056   5
   3  -1  -3 1680.11 171.290   1
  -3   1   3 1907.47 171.388   5
  -3   1   3 1530.10 170.079   4
  -3   1   3 1599.58 170.332   2
   2  -1  -3 62.4800 6.47677   4
   2  -1  -3 65.6251 7.69353   5
   2  -1  -3 61.6974 8.26497   1
   2  -1  -3 62.4369 7.04434   2
  -2   1   3 56.7322 6.69498   4
  -2   1   3 75.1543 8.16821   5
  -2   1   3 66.3337 8.40302   1
  -2   1   3 54.5019 7.11008   2
   1  -1  -3 129.297 13.9926   2
   1  -1  -3 132.891 14.3779   5
   1  -1  -3 144.534 14.0249   3
   1  -1  -3 138.256 14.6833   1
  -1   1   3 142.389 13.6815   4
  -1   1   3 141.024 14.7302   1
  -1   1   3 107.471 13.9245   2
  -1   1   3 142.592 14.5806   5
   0  -1  -3 15.5345 3.55718   5
   0  -1  -3 28.6579 2.85787   2
   0  -1  -3 26.4339 4.42635   1
   0  -1  -3 27.4958 3.58230   3
   0   1   3 23.5776 4.47131   1
   0   1   3 11.1657 3.07342   3
   0   1   3 24.2960 2.77157   2
   0   1   3 15.4802 3.77400   5
  -1  -1  -3 2879.31 246.077   1
   1   1   3 2346.41 245.905   1
   1   1   3 2406.09 245.462   5
   1   1   3 2409.03 245.232   3
   1   1   3 2139.94 245.299   4
  -2  -1  -3 5901.36 663.333   4
   2   1   3 7605.10 663.851   1
   2   1   3 5704.43 663.359   4
   2   1   3 7149.42 663.623   1
  -3  -1  -3 2778.50 284.574   4
  -3  -1  -3 2820.92 284.439   3
   3   1   3 2863.82 284.413   3
   3   1   3 2591.57 284.571   4
   3   1   3 3053.64 284.863   1
  -4  -1  -3 308.298 30.8956   3
   4   1   3 283.089 31.1162   4
   4   1   3 296.050 30.8541   3
   4   1   3 300.654 31.5980   1
   4   1   3 298.190 31.5303   5
   5   1   3 23.1114 6.17668   5
   5   1   3 15.3257 4.23205   4
   6   1   3 40.2467 9.77605   5
   6   1   3 36.8877 6.52729   4
   6  -2  -3 84.7763 15.3435   5
   5  -2  -3 243.369 26.5966   5
   5  -2  -3 221.548 23.7744   4
  -5   2   3 227.716 24.6062   4
   4  -2  -3 21.9438 7.31996   1
   4  -2  -3 24.4858 5.86502   3
   4  -2  -3 34.5440 7.70138   5
   4  -2  -3 40.0319 4.28359   4
  -4   2   3 34.9171 4.93533   2
  -4   2   3 14.6571 6.81189   1
  -4   2   3 24.1875 6.75629   5
  -4   2   3 19.3064 4.22495   4
   3  -2  -3 533.329 53.6693   4
   3  -2  -3 537.972 54.0418   3
   3  -2  -3 541.753 54.8555   5
   3  -2  -3 536.705 55.1225   1
   3  -2  -3 576.295 53.7788   2
  -3   2   3 493.729 53.9354   4
  -3   2   3 583.074 55.1596   5
  -3   2   3 423.729 53.8960   2
  -3   2   3 553.470 55.2926   1
   2  -2  -3 971.857 100.948   3
   2  -2  -3 974.426 101.686   1
   2  -2  -3 991.401 100.762   4
   2  -2  -3 1020.79 101.604   5
   2  -2  -3 1058.15 100.920   2
  -2   2   3 1059.13 102.215   5
  -2   2   3 1022.42 100.916   4
  -2   2   3 863.224 100.932   2
  -2   2   3 1038.46 101.827   1
   1  -2  -3 9.45012 1.92900   2
   1  -2  -3 16.4802 3.27681   5
   1  -2  -3 12.8389 1.73355   4
   1  -2  -3 9.67004 2.50569   1
  -1   2   3 7.91778 2.27433   5
  -1   2   3 9.97364 1.93663   2
  -1   2   3 9.22757 1.71667   4
  -1   2   3 8.22913 2.31494   1
   0  -2  -3 1391.15 133.700   5
   0   2   3 1212.77 133.077   3
   0   2   3 1358.79 133.674   5
  -1  -2  -3 5742.97 508.446   1
   1   2   3 4345.93 508.168   1
  -2  -2  -3 1194.69 123.463   3
   2   2   3 1264.38 123.637   1
   2   2   3 1120.50 123.636   4
   2   2   3 1274.10 123.305   2
   2   2   3 1211.49 123.440   3
   2   2   3 1275.55 123.914   1
  -3  -2  -3 34.9642 4.72913   3
   3   2   3 33.5923 5.23503   1
   3   2   3 37.3995 5.73287   4
   3   2   3 32.4095 4.59315   3
   3   2   3 32.5327 3.78664   2
   4   2   3 195.604 21.5181   4
   4   2   3 205.010 21.9010   5
   4   2   3 200.341 21.7916   1
   4   2   3 197.891 21.1197   3
   5   2   3 4.23080 3.67514   5
   5   2   3 3.08130 3.41187   4
   6   2   3 90.1388 13.3211   4
   6   2   3 103.043 14.4352   5
   6  -3  -3 10.8948 7.05166   5
   5  -3  -3 529.675 52.4684   4
   5  -3  -3 531.843 54.8576   5
  -5   3   3 481.901 53.4960   4
   4  -3  -3 2149.84 205.053   4
   4  -3  -3 2076.82 206.575   5
   4  -3  -3 2051.04 206.809   1
   4  -3  -3 2053.56 205.463   3
  -4   3   3 2079.96 207.064   1
  -4   3   3 2124.38 208.549   5
  -4   3   3 1938.34 205.438   4
  -4   3   3 1803.11 205.071   2
   3  -3  -3 1535.12 159.461   1
   3  -3  -3 1550.95 158.221   4
   3  -3  -3 1594.88 158.461   3
   3  -3  -3 1602.91 159.363   5
  -3   3   3 1574.78 158.547   4
  -3   3   3 1741.71 159.516   5
  -3   3   3 1328.82 158.308   2
  -3   3   3 1630.42 159.704   1
   2  -3  -3 653.618 67.6423   5
   2  -3  -3 654.758 66.7663   4
   2  -3  -3 709.804 66.8410   2
   2  -3  -3 646.821 66.8393   3
   2  -3  -3 637.016 67.6923   1
  -2   3   3 674.492 66.9352   4
  -2   3   3 673.974 67.8428   1
  -2   3   3 636.374 66.8575   2
   1  -3  -3 4.68288 2.00262   5
   1  -3  -3 3.87972 2.04115   1
   1  -3  -3 4.93939 1.10564   3
   1  -3  -3 7.14418 1.27432   2
   1  -3  -3 2.20283 0.92369   4
  -1   3   3 3.50225 1.97424   5
  -1   3   3 5.35778 1.19187   4
  -1   3   3 3.57184 1.88327   1
  -1   3   3 3.87343 1.13580   2
   0  -3  -3 830.279 84.9420   6
   0  -3  -3 822.924 85.0542   4
   0  -3  -3 902.268 85.1250   2
   0  -3  -3 872.348 85.5280   1
   0   3   3 809.486 85.0878   2
   0   3   3 822.507 85.0704   4
   0   3   3 843.089 85.4415   1
  -1  -3  -3 2139.90 267.975   1
  -1  -3  -3 2972.69 268.048   5
   1   3   3 2834.36 267.734   1
   1   3   3 2624.07 267.512   2
   1   3   3 2710.08 267.963   5
   2   3   3 7075.61 712.582   5
   3   3   3 2951.09 279.972   2
   3   3   3 2923.62 280.253   3
   3   3   3 2397.47 280.437   4
   3   3   3 2845.52 279.950   2
   4   3   3 585.072 57.3927   1
   4   3   3 586.846 56.1394   2
   4   3   3 549.351 56.1640   2
   4   3   3 550.270 56.7199   3
   4   3   3 476.713 56.9322   4
   4   3   3 561.900 57.3912   5
   4   3   3 575.117 56.9061   1
   5   3   3 2.29097 3.21631   5
   5   3   3 4.37972 6.32350   1
   5   3   3 0.52574 3.28679   4
   6   3   3 5.26876 5.10545   5
   6  -4  -3 28.9507 8.73795   5
   5  -4  -3 37.9759 10.5985   5
   5  -4  -3 48.0895 6.27745   4
  -5   4   3 23.8475 9.90704   4
   4  -4  -3 27.1326 4.31347   4
   4  -4  -3 19.9948 5.64727   5
   4  -4  -3 24.9580 5.22620   3
   4  -4  -3 17.7686 7.83620   1
  -4   4   3 15.3566 3.40383   2
  -4   4   3 10.6937 4.45565   4
  -4   4   3 22.3652 7.88766   1
   3  -4  -3 1198.24 119.502   3
   3  -4  -3 1169.25 120.534   5
   3  -4  -3 1164.45 119.357   4
   3  -4  -3 1144.15 120.679   1
  -3   4   3 1273.83 120.568   5
  -3   4   3 1209.37 119.736   4
  -3   4   3 1109.47 119.370   2
  -3   4   3 1188.82 120.892   1
   2  -4  -3 1853.40 195.166   1
   2  -4  -3 1841.85 195.140   5
   2  -4  -3 1893.16 194.255   3
   2  -4  -3 1891.75 194.276   4
  -2   4   3 1918.32 195.298   1
  -2   4   3 2130.78 195.171   5
  -2   4   3 1881.93 194.305   2
  -2   4   3 2010.52 194.452   4
   1  -4  -3 421.711 44.8596   1
   1  -4  -3 449.816 44.1098   6
   1  -4  -3 449.126 44.1997   4
   1  -4  -3 455.314 44.0052   3
   1  -4  -3 358.600 44.8938   5
  -1   4   3 459.700 44.9602   5
  -1   4   3 413.260 44.8707   1
  -1   4   3 448.795 44.2303   2
  -1   4   3 463.924 44.2778   4
   0  -4  -3 880.006 87.4788   4
   0  -4  -3 929.300 87.9271   1
   0  -4  -3 918.989 87.3514   6
   0  -4  -3 642.588 87.9252   5
   0   4   3 903.109 87.8585   1
   0   4   3 925.484 87.5010   4
   0   4   3 863.502 87.3161   6
   0   4   3 869.446 87.4856   2
  -1  -4  -3 2360.34 212.379   5
  -1  -4  -3 2311.11 212.229   1
   1   4   3 1922.68 211.702   3
   1   4   3 2035.03 211.685   6
   1   4   3 2029.58 212.354   5
   1   4   3 1960.89 211.830   4
   2   4   3 414.373 44.6877   3
   2   4   3 467.574 45.3462   5
   3   4   3 174.293 18.2330   3
   3   4   3 167.897 18.8282   4
   3   4   3 178.101 17.9749   2
   4   4   3 488.695 48.1395   2
   4   4   3 480.076 48.6271   3
   4   4   3 515.533 48.1172   2
   4   4   3 387.188 48.8630   4
   4   4   3 492.502 49.3272   5
   5   4   3 79.9016 7.81881   2
   5   4   3 71.7736 10.2241   4
   5   4   3 56.0561 8.35291   2
   5   4   3 78.0541 10.7186   5
   6   4   3 19.8774 6.29689   5
   6   4   3 12.7355 8.04776   4
   6  -5  -3 8.15718 8.50326   5
   6  -5  -3 8.94527 3.98527   4
   5  -5  -3 346.014 35.2526   4
   5  -5  -3 333.567 37.8710   5
   4  -5  -3 1346.07 130.019   4
   4  -5  -3 1322.47 132.230   1
   4  -5  -3 1352.24 130.233   3
   4  -5  -3 1341.09 131.725   5
  -4   5   3 1162.62 129.855   2
  -4   5   3 1190.66 130.535   4
   3  -5  -3 1400.39 144.626   5
   3  -5  -3 1426.68 143.376   4
   3  -5  -3 1349.68 144.728   1
   3  -5  -3 1464.81 143.463   3
   3  -5  -3 1368.93 143.312   6
  -3   5   3 1441.29 143.745   4
  -3   5   3 1388.52 143.320   2
  -3   5   3 1519.34 144.482   5
  -3   5   3 1417.50 144.941   1
   2  -5  -3 265.921 26.4284   3
   2  -5  -3 248.413 27.8202   1
   2  -5  -3 247.406 26.5431   4
   2  -5  -3 243.197 27.7234   5
   2  -5  -3 251.981 26.4483   6
  -2   5   3 258.228 27.9556   1
  -2   5   3 260.228 26.5385   2
  -2   5   3 284.279 27.5135   5
  -2   5   3 266.289 26.7756   4
   1  -5  -3 5.77946 1.43346   4
   1  -5  -3 3.86864 2.67649   5
   1  -5  -3 6.26079 2.59646   1
   1  -5  -3 5.62976 1.28814   6
   1  -5  -3 6.64126 1.09533   3
  -1   5   3 7.21602 1.55469   2
  -1   5   3 6.02671 2.30563   5
  -1   5   3 6.55990 2.76089   1
  -1   5   3 5.89751 1.70181   4
   0  -5  -3 447.702 41.6272   4
   0  -5  -3 368.532 42.1950   5
   0  -5  -3 433.247 41.4503   6
   0  -5  -3 432.884 42.0805   1
   0   5   3 442.170 41.6100   4
   0   5   3 298.190 42.1311   5
   0   5   3 423.429 42.0168   1
   0   5   3 428.256 41.4062   6
  -1  -5  -3 1399.17 123.735   5
   1   5   3 1151.67 123.829   5
   1   5   3 1204.14 123.045   6
   1   5   3 1218.08 123.202   4
   1   5   3 1132.97 123.012   3
   2   5   3 3834.80 398.373   3
   2   5   3 4151.79 399.280   5
   2   5   3 3932.88 398.472   2
   2   5   3 3906.94 398.704   4
   3   5   3 2864.90 293.012   3
   3   5   3 2846.53 292.909   4
   3   5   3 3152.74 293.823   5
   3   5   3 2764.84 293.047   2
   4   5   3 243.230 25.0199   2
   4   5   3 263.299 24.9673   2
   4   5   3 248.072 26.2236   5
   4   5   3 205.287 25.9404   4
   4   5   3 242.695 25.4547   3
   5   5   3 4.05273 3.77963   5
   5   5   3 -3.0548 3.60478   4
   5   5   3 1.88764 1.82690   2
   6   5   3 -5.4082 5.36481   4
   6   5   3 -2.0776 4.72505   5
   6  -6  -3 10.2634 4.55252   4
   6  -6  -3 -5.6173 15.4996   5
   5  -6  -3 0.06476 5.94482   5
   5  -6  -3 0.52606 2.99280   4
   4  -6  -3 122.511 17.4549   5
   4  -6  -3 124.127 14.2073   4
   4  -6  -3 134.376 14.6219   3
  -4   6   3 110.866 17.5226   4
  -4   6   3 117.553 13.9104   2
  -4   6   3 148.125 14.2965   2
   3  -6  -3 1156.24 119.774   3
   3  -6  -3 1126.90 120.560   5
   3  -6  -3 1183.67 119.192   4
   3  -6  -3 1141.54 120.793   1
   3  -6  -3 1132.47 119.073   6
  -3   6   3 1190.89 119.104   2
  -3   6   3 1191.71 120.970   1
  -3   6   3 1298.79 120.279   5
  -3   6   3 1181.70 119.579   4
   2  -6  -3 2970.87 298.823   1
   2  -6  -3 2869.45 297.484   6
   2  -6  -3 2927.86 297.453   3
   2  -6  -3 2592.97 298.583   5
   2  -6  -3 2953.67 297.634   4
  -2   6   3 2938.20 298.760   1
  -2   6   3 3311.37 298.411   5
  -2   6   3 2912.63 297.591   2
  -2   6   3 3102.59 297.821   4
   1  -6  -3 502.936 53.6151   4
   1  -6  -3 514.144 54.4745   1
   1  -6  -3 517.535 53.4583   6
  -1   6   3 577.310 54.3041   5
  -1   6   3 504.011 54.4416   1
  -1   6   3 519.173 53.6055   2
  -1   6   3 558.590 53.7297   4
   0  -6  -3 117.963 12.8724   5
   0  -6  -3 122.215 12.0970   4
   0  -6  -3 114.348 12.8007   1
   0   6   3 113.086 11.7673   6
   0   6   3 119.052 12.0342   4
   0   6   3 95.1666 12.8879   5
   0   6   3 109.807 12.6943   1
  -1  -6  -3 376.092 35.9573   1
   1   6   3 366.971 35.6355   4
   1   6   3 333.409 35.3709   3
   1   6   3 351.054 35.4605   6
   1   6   3 379.437 35.6092   3
   1   6   3 363.709 35.8097   1
   1   6   3 274.741 36.3417   5
   2   6   3 13.3645 2.85270   3
   2   6   3 14.5432 4.77307   5
   2   6   3 18.3842 3.26326   2
   2   6   3 16.0813 3.10171   4
   3   6   3 479.081 48.1205   5
   3   6   3 448.427 47.0808   3
   3   6   3 449.660 46.9660   4
   3   6   3 468.306 47.0498   2
   4   6   3 701.089 69.1085   2
   4   6   3 725.362 70.7377   5
   4   6   3 726.959 70.0749   5
   4   6   3 545.331 69.6573   4
   4   6   3 679.040 69.4386   3
   4   6   3 697.359 69.0801   4
   5   6   3 210.010 23.1456   4
   5   6   3 220.377 24.6553   5
   5   6   3 231.281 22.8172   2
   5   6   3 207.494 24.2543   4
   6   6   3 0.20991 5.26229   5
   6   6   3 0.45106 4.99610   4
   5  -7  -3 147.495 22.0408   5
   5  -7  -3 170.634 17.9777   4
   4  -7  -3 559.188 69.2489   5
   4  -7  -3 635.108 65.5619   3
  -4   7   3 623.612 65.1846   2
  -4   7   3 736.300 65.4249   2
   3  -7  -3 657.523 68.8822   1
   3  -7  -3 659.552 66.6832   4
   3  -7  -3 585.482 68.2309   5
  -3   7   3 636.443 68.7591   1
  -3   7   3 612.709 67.0620   4
  -3   7   3 688.058 66.4797   2
  -3   7   3 714.850 67.7260   5
  -3   7   3 674.270 66.5294   2
   2  -7  -3 32.5747 4.77151   6
   2  -7  -3 27.4682 8.05870   5
   2  -7  -3 25.1049 6.42501   1
   2  -7  -3 28.7253 4.94456   3
   2  -7  -3 33.0849 5.34064   4
  -2   7   3 43.4393 5.04067   2
  -2   7   3 31.9150 5.71931   4
  -2   7   3 36.1067 6.39287   5
  -2   7   3 28.9569 6.46604   1
   1  -7  -3 1.38384 3.67502   1
   1  -7  -3 8.29419 3.62408   5
   1  -7  -3 4.55074 1.94424   4
  -1   7   3 3.42712 3.59904   1
  -1   7   3 11.7981 2.84600   5
  -1   7   3 5.67721 2.12464   4
   0  -7  -3 7.01365 1.87431   4
   0  -7  -3 6.22391 1.46908   6
   0  -7  -3 0.63875 2.89726   1
   0  -7  -3 3.07107 2.41313   5
   0   7   3 3.96353 2.96784   1
   0   7   3 3.96562 1.35758   6
   0   7   3 2.90621 2.53831   5
   0   7   3 16.7918 2.78538   4
  -1  -7  -3 595.850 55.5266   1
  -1  -7  -3 588.169 55.3180   4
   1   7   3 581.278 55.3864   1
   1   7   3 359.098 55.6549   5
   1   7   3 581.630 55.1447   4
   1   7   3 593.538 55.2466   2
   1   7   3 541.772 54.8425   3
   1   7   3 474.156 55.0825   3
   1   7   3 571.065 54.9787   6
   2   7   3 2049.11 211.298   5
   2   7   3 2242.46 210.596   3
   2   7   3 2015.19 210.315   6
   2   7   3 2049.86 210.398   4
   2   7   3 2075.67 210.518   2
   3   7   3 1453.83 151.857   3
   3   7   3 1572.29 152.949   5
   3   7   3 1520.03 151.906   2
   3   7   3 1466.75 151.755   4
   4   7   3 56.8761 12.6566   5
   4   7   3 54.2202 7.74042   2
   4   7   3 59.4623 7.44210   4
   4   7   3 62.3761 9.05495   5
   4   7   3 44.6890 9.58359   4
   5   7   3 2.67858 5.03585   4
   5   7   3 16.4681 3.40263   2
   5   7   3 14.2458 4.86030   5
   6   7   3 11.8277 6.27261   5
   5  -8  -3 0.06959 8.40310   5
   5  -8  -3 -2.9372 3.76025   4
   4  -8  -3 108.044 18.8554   5
   4  -8  -3 145.869 15.4133   4
  -4   8   3 138.112 14.7194   2
   3  -8  -3 860.359 112.216   5
   3  -8  -3 1070.10 113.115   1
   3  -8  -3 1213.96 111.294   4
  -3   8   3 1069.60 112.988   1
  -3   8   3 1171.05 111.682   5
  -3   8   3 1156.97 110.692   2
  -3   8   3 1100.82 110.621   2
   2  -8  -3 2218.23 231.464   6
   2  -8  -3 1436.77 232.286   5
   2  -8  -3 2449.86 231.779   4
   2  -8  -3 2268.67 233.068   1
  -2   8   3 2350.92 233.139   1
  -2   8   3 2452.19 231.937   4
  -2   8   3 2464.27 231.670   2
  -2   8   3 2379.67 231.598   2
  -2   8   3 2640.32 232.302   5
   1  -8  -3 319.562 31.8416   4
   1  -8  -3 246.148 32.5331   5
   1  -8  -3 308.383 33.2308   1
   1  -8  -3 316.803 31.5133   6
  -1   8   3 311.145 31.6772   2
  -1   8   3 323.975 31.8942   4
  -1   8   3 316.980 31.4788   6
  -1   8   3 315.603 33.1849   1
   0  -8  -3 26.4211 5.55132   1
   0  -8  -3 29.6460 5.51008   5
   0  -8  -3 33.1734 5.20844   4
   0   8   3 23.3430 5.33518   1
   0   8   3 35.2545 4.73633   4
   0   8   3 35.7688 4.76284   2
   0   8   3 32.9848 5.84742   5
   0   8   3 29.9386 4.43348   6
  -1  -8  -3 55.2352 6.39511   4
  -1  -8  -3 48.2135 7.53770   1
   1   8   3 43.0192 7.09644   1
   1   8   3 24.8698 7.43834   5
   1   8   3 48.6395 5.71524   4
   1   8   3 44.3158 4.96231   3
   1   8   3 49.1941 5.61107   6
   1   8   3 53.9650 6.00844   2
   1   8   3 27.7112 5.88918   3
   2   8   3 11.3247 2.54990   4
   2   8   3 15.8326 2.67944   6
   2   8   3 13.6273 3.19849   3
   2   8   3 19.1845 4.59635   3
   2   8   3 9.64090 4.49617   5
   2   8   3 11.7809 2.85439   2
   3   8   3 541.467 56.2842   5
   3   8   3 523.662 54.7803   3
   3   8   3 606.979 55.3160   3
   3   8   3 503.766 54.9008   2
   3   8   3 523.143 54.6806   4
   3   8   3 522.628 54.7500   6
   4   8   3 725.204 73.1218   4
   4   8   3 606.922 73.7850   4
   4   8   3 818.413 74.1680   5
   5   8   3 195.246 20.8345   2
   5   8   3 185.663 22.3190   5
   5  -9  -3 22.0859 11.3014   5
   5  -9  -3 45.6277 9.17890   4
   4  -9  -3 131.925 23.3500   5
   4  -9  -3 191.433 19.8954   4
  -4   9   3 194.001 19.2617   2
   3  -9  -3 211.912 20.2350   4
   3  -9  -3 113.291 22.2286   5
  -3   9   3 167.864 19.7119   2
  -3   9   3 204.635 21.2497   5
  -3   9   3 214.056 19.8406   2
  -3   9   3 173.982 26.0529   1
   2  -9  -3 2.06623 2.40014   3
   2  -9  -3 -2.4127 4.27360   4
   2  -9  -3 3.03970 7.56536   1
   2  -9  -3 1.53261 4.78488   5
  -2   9   3 -0.3125 3.00027   5
  -2   9   3 3.03297 2.71926   2
  -2   9   3 0.00733 6.60741   1
  -2   9   3 2.28381 2.61241   2
   1  -9  -3 170.066 20.1829   5
   1  -9  -3 193.723 19.5551   4
   1  -9  -3 163.505 19.2741   6
   1  -9  -3 169.830 22.0393   1
  -1   9   3 177.542 19.1996   2
  -1   9   3 192.150 18.9758   6
  -1   9   3 175.677 21.6206   1
  -1   9   3 188.075 19.5188   5
   0  -9  -3 81.2935 13.8474   1
   0  -9  -3 115.564 11.9347   5
   0  -9  -3 103.945 11.8941   4
   0   9   3 97.8396 11.6140   4
   0   9   3 106.713 11.6382   2
   0   9   3 100.109 11.2278   6
   0   9   3 104.281 11.9884   5
   0   9   3 93.8751 13.5852   1
  -1  -9  -3 85.6907 12.6792   1
  -1  -9  -3 111.976 11.3910   4
   1   9   3 99.4688 10.9123   2
   1   9   3 76.2724 10.8309   3
   1   9   3 99.3967 10.7156   4
   1   9   3 101.816 10.0372   3
   1   9   3 73.3548 11.8999   5
   1   9   3 106.043 10.5906   6
   2   9   3 716.427 67.8416   3
   2   9   3 758.786 67.9846   6
   2   9   3 690.188 67.9832   4
   2   9   3 623.665 68.1825   3
   2   9   3 552.347 69.0105   5
   3   9   3 437.312 43.2579   6
   3   9   3 424.856 43.2372   3
   3   9   3 426.520 43.8822   4
   3   9   3 378.330 44.9925   5
   3   9   3 432.634 43.7035   3
   4   9   3 68.0422 10.1848   3
   4   9   3 52.2887 9.55604   5
   5   9   3 2.71445 5.26622   3
   5   9   3 3.40794 3.72501   2
   5   9   3 1.67779 4.78090   5
   5   9   3 1.39921 6.15710   4
   4 -10  -3 38.2481 10.9045   5
   3 -10  -3 745.903 75.6585   4
  -3  10   3 726.120 76.6357   2
   2 -10  -3 962.674 92.7432   4
   2 -10  -3 691.782 93.2232   5
  -2  10   3 1018.68 92.9383   2
  -2  10   3 964.459 92.7629   5
   1 -10  -3 407.006 43.0909   4
   1 -10  -3 411.561 43.1652   5
  -1  10   3 419.860 42.6909   6
  -1  10   3 416.262 42.7600   5
   0 -10  -3 22.3069 5.12288   4
   0  10   3 18.0167 4.94418   5
   0  10   3 16.3899 3.38722   6
  -1 -10  -3 0.68082 3.00920   4
   1  10   3 2.36710 1.38414   3
   1  10   3 2.46089 3.87065   5
   1  10   3 -0.3441 2.21627   6
   1  10   3 2.87721 2.64353   3
   2  10   3 23.1848 4.62063   6
   2  10   3 22.3361 4.08454   3
   2  10   3 8.37758 5.14482   5
   2  10   3 11.0058 3.58407   3
   3  10   3 345.397 45.0113   5
   3  10   3 410.762 42.5803   3
   3  10   3 413.770 43.1402   3
   3  10   3 480.985 42.7825   6
   4  10   3 426.370 44.0580   6
   4  10   3 421.770 44.7383   3
   5  10   3 145.058 20.1356   3
   5  10   3 162.185 19.6387   5
   5  10   3 144.085 18.4757   6
   5  10   3 145.929 17.6199   2
   3 -11  -3 31.2088 6.24053   4
   3 -11  -3 14.1656 8.77046   5
  -3  11   3 38.9476 7.42558   2
   2 -11  -3 63.3247 9.70769   4
   2 -11  -3 39.9738 10.5075   5
  -2  11   3 49.1139 8.34890   2
   1 -11  -3 233.997 27.8008   4
   1 -11  -3 279.316 27.3829   5
  -1  11   3 248.593 26.9837   6
   0 -11  -3 183.996 20.2970   4
   0  11   3 170.283 19.1743   5
   0  11   3 183.199 19.2994   6
  -1 -11  -3 1.13603 4.00125   4
   1  11   3 -1.0414 2.76697   3
   1  11   3 1.29867 3.30191   5
   1  11   3 2.77785 1.89327   3
   1  11   3 4.19727 2.81505   6
   2  11   3 175.468 17.0457   6
   2  11   3 133.044 17.6840   3
   3  11   3 82.3973 14.5064   3
   3  11   3 130.681 13.8669   5
   3  11   3 119.922 13.7391   6
   4  11   3 10.5533 5.76594   5
   4  11   3 6.98220 4.75793   6
   4  11   3 6.23386 5.46950   3
   3 -12  -3 377.786 38.8423   4
  -3  12   3 324.133 36.9627   2
   2 -12  -3 350.906 40.6700   4
  -2  12   3 402.236 39.9297   2
   1 -12  -3 189.776 23.6050   4
  -1  12   3 214.281 22.6766   2
   0 -12  -3 1.53795 4.61863   4
   0  12   3 -2.6764 3.11008   6
   1  12   3 -0.5890 5.30604   3
   1  12   3 -3.7351 3.11158   6
   2  12   3 6.70111 4.98566   3
   2  12   3 9.62106 3.87108   6
   3  12   3 156.910 18.3791   6
  -2  13   3 35.9999 7.50105   2
   1 -13  -3 238.046 27.0767   4
  -1  13   3 221.428 25.6994   2
   0 -13  -3 192.713 21.9297   4
   0  13   3 165.043 20.2066   6
   1  13   3 -2.5726 4.01804   6
   2  13   3 20.1976 5.34327   6
   0  11  -4 13.6506 8.90898   3
   0  11  -4 18.2120 8.39977   6
   0 -11   4 12.8287 7.89490   4
  -1  11  -4 1.75636 8.36789   3
   1 -11   4 0.75531 7.71791   4
   2  10  -4 266.847 31.0159   3
   1  10  -4 189.322 22.8520   3
   1  10  -4 183.956 21.2758   6
  -1 -10   4 155.139 21.2582   4
   0  10  -4 -1.4732 4.90609   6
   0  10  -4 -4.8552 6.49556   3
   0 -10   4 4.61758 5.93294   4
  -1  10  -4 -1.9856 6.51447   3
  -1  10  -4 -4.7847 4.82967   6
   1 -10   4 -5.3233 5.48799   4
  -2  10  -4 9.98227 6.80892   3
  -2  10  -4 16.2517 6.34493   6
   2 -10   4 15.1050 7.17577   4
  -3  10  -4 29.1217 7.95455   3
   3   9  -4 -3.7469 5.35606   6
   3   9  -4 -0.7792 5.43012   3
   2   9  -4 8.45738 5.58741   3
   2   9  -4 1.15176 4.85923   6
   1   9  -4 190.631 21.7084   6
   1   9  -4 201.842 23.1569   3
  -1  -9   4 171.788 21.7152   4
   0   9  -4 184.340 21.3132   3
   0   9  -4 157.514 19.1899   6
   0  -9   4 153.475 19.4920   4
  -1   9  -4 -0.0566 5.62772   3
  -1   9  -4 0.68966 4.41098   6
   1  -9   4 4.95098 4.72194   4
  -2   9  -4 102.863 14.8779   3
  -2   9  -4 93.1286 13.5469   6
   2  -9   4 90.3450 13.8258   4
  -3   9  -4 169.957 19.8010   3
   3  -9   4 132.574 19.9139   4
   4   8  -4 -1.3253 5.68478   3
   3   8  -4 93.3620 14.0352   3
   2   8  -4 529.431 64.9751   3
   2   8  -4 731.858 64.7336   6
   1   8  -4 307.925 34.2156   3
   1   8  -4 278.775 29.9849   6
   1   8  -4 250.029 29.0405   4
  -1  -8   4 266.569 29.8247   4
  -1  -8   4 304.989 30.8088   2
   0   8  -4 7.66977 3.93498   6
   0   8  -4 2.16354 4.94001   3
   0  -8   4 4.47613 4.26147   4
  -1   8  -4 0.16540 3.80903   6
  -1   8  -4 -4.8214 4.52505   3
   1  -8   4 0.26807 4.75504   4
  -2   8  -4 5.82627 4.03961   6
   2  -8   4 6.08466 4.63758   4
  -3   8  -4 161.280 18.6262   3
   3  -8   4 139.560 18.5777   4
  -4   8  -4 677.943 62.1737   3
   4  -8   4 502.468 62.5297   4
   4   7  -4 7.74084 5.21080   3
   3   7  -4 2.40667 3.19742   5
   3   7  -4 0.92050 3.80563   3
  -3  -7   4 1.04965 5.30520   2
   2   7  -4 42.2440 9.58325   3
   2   7  -4 50.8844 6.70123   4
  -2  -7   4 62.3886 10.1603   2
   1   7  -4 664.098 68.7326   4
   1   7  -4 648.813 69.9433   3
  -1  -7   4 668.829 69.1664   4
  -1  -7   4 730.441 71.5007   2
   0   7  -4 666.215 72.6650   4
   0   7  -4 784.612 74.1183   3
   0   7  -4 681.007 73.0266   6
   0  -7   4 722.548 73.1574   4
   0  -7   4 728.922 73.4245   2
   0  -7   4 708.496 74.3444   3
  -1   7  -4 63.7677 8.65521   6
  -1   7  -4 53.9294 10.2174   3
   1  -7   4 61.8474 8.96110   4
   1  -7   4 75.1360 8.87600   2
   1  -7   4 32.8337 11.7551   1
   1  -7   4 44.4747 11.3941   3
  -2   7  -4 18.9354 4.67727   2
  -2   7  -4 33.5262 7.80679   3
  -2   7  -4 29.9501 5.00645   6
   2  -7   4 23.5487 10.5632   1
   2  -7   4 12.9490 6.97321   3
   2  -7   4 33.6037 6.29607   4
  -3   7  -4 67.2761 14.6130   3
  -3   7  -4 54.9280 8.97248   2
   3  -7   4 57.7294 10.2950   4
   3  -7   4 56.9052 9.14237   5
   3  -7   4 46.3432 15.8233   1
  -4   7  -4 3.16871 4.40372   3
   4  -7   4 -1.2338 5.29075   4
   4  -7   4 2.79985 5.83214   5
  -5   7  -4 89.7274 14.1091   3
   5  -7   4 88.7836 16.4392   4
   5   6  -4 16.4743 7.28013   3
   5   6  -4 35.8505 10.4774   5
   4   6  -4 4.14699 4.01095   5
   4   6  -4 2.04869 4.35581   3
   3   6  -4 258.708 33.1606   3
   3   6  -4 307.011 32.5957   5
  -3  -6   4 370.476 33.6585   2
   2   6  -4 830.542 77.4995   4
   2   6  -4 573.121 78.3241   3
   2   6  -4 694.171 77.6679   5
  -2  -6   4 974.853 79.0015   2
   1   6  -4 432.220 48.2815   2
   1   6  -4 407.031 48.6940   3
   1   6  -4 480.585 48.1943   6
   1   6  -4 494.120 47.6697   4
  -1  -6   4 465.957 51.9441   1
  -1  -6   4 478.870 48.0235   4
  -1  -6   4 453.932 50.6336   1
  -1  -6   4 528.788 48.7943   2
   0   6  -4 3.32056 2.06630   4
   0   6  -4 -1.9440 2.75079   6
   0   6  -4 -0.5902 3.60249   3
   0   6  -4 5.57539 2.85140   2
   0  -6   4 2.90557 3.03548   4
   0  -6   4 1.92721 4.54097   3
   0  -6   4 1.37064 3.30222   2
   0  -6   4 -8.1178 6.38450   1
  -1   6  -4 40.0330 8.06501   3
  -1   6  -4 36.5427 6.18393   2
  -1   6  -4 41.2238 6.54674   6
  -1   6  -4 39.7326 6.05238   4
   1  -6   4 50.7711 6.74170   2
   1  -6   4 34.7288 9.06834   1
   1  -6   4 41.5148 8.91482   1
   1  -6   4 32.0909 6.53050   3
   1  -6   4 40.4151 6.94427   4
  -2   6  -4 1.98045 2.68353   6
  -2   6  -4 4.62227 2.66851   2
  -2   6  -4 4.25393 3.42371   3
   2  -6   4 5.11299 3.45391   4
   2  -6   4 -0.2845 8.01038   1
   2  -6   4 2.71206 3.62567   3
   2  -6   4 8.34900 7.47461   1
  -3   6  -4 388.329 45.4727   2
  -3   6  -4 520.647 46.2615   3
   3  -6   4 432.968 46.1171   4
   3  -6   4 443.046 49.7702   1
   3  -6   4 428.220 46.0526   5
  -4   6  -4 789.235 74.2450   3
   4  -6   4 669.699 74.7696   5
   4  -6   4 702.928 74.3809   4
  -5   6  -4 512.096 47.1151   3
   5  -6   4 398.273 48.7174   5
   5  -6   4 417.488 47.5390   4
   5   5  -4 6.09493 5.32128   5
   5   5  -4 0.35940 5.01899   3
   4   5  -4 3.02762 3.61401   5
   4   5  -4 -1.2037 3.75223   3
  -4  -5   4 1.83189 4.68307   2
   3   5  -4 6.17369 10.5305   1
   3   5  -4 2.90384 2.86624   5
  -3  -5   4 6.54475 4.27715   2
   2   5  -4 311.774 41.2417   3
   2   5  -4 392.607 40.7858   5
   2   5  -4 416.492 40.2207   4
   2   5  -4 365.351 40.9938   2
  -2  -5   4 491.955 41.7163   2
  -2  -5   4 408.242 44.9389   1
   1   5  -4 1033.84 138.901   3
   1   5  -4 1462.79 138.306   4
   1   5  -4 1290.51 138.695   2
  -1  -5   4 1442.00 138.505   4
  -1  -5   4 1563.57 139.155   2
  -1  -5   4 1436.44 141.191   1
   0   5  -4 2092.45 230.535   2
   0   5  -4 2171.79 230.471   6
   0   5  -4 2282.17 231.190   3
   0   5  -4 2323.72 230.331   4
   0  -5   4 2340.01 232.147   1
   0  -5   4 2219.79 231.232   3
   0  -5   4 2402.73 230.575   4
   0  -5   4 2444.87 230.852   2
  -1   5  -4 408.011 41.7029   6
  -1   5  -4 394.986 41.7808   2
  -1   5  -4 372.665 42.4346   3
  -1   5  -4 418.272 41.7310   4
   1  -5   4 443.817 44.2340   1
   1  -5   4 430.900 42.0149   4
   1  -5   4 321.318 42.2410   3
   1  -5   4 448.592 42.0233   2
   1  -5   4 437.340 44.0142   1
  -2   5  -4 6.03026 2.59200   4
  -2   5  -4 10.7784 3.19200   3
  -2   5  -4 1.18251 2.06820   2
  -2   5  -4 1.99107 2.19203   6
   2  -5   4 5.54865 2.97641   4
   2  -5   4 4.73326 1.88700   5
   2  -5   4 -0.2767 2.75263   3
   2  -5   4 1.16636 5.64721   1
   2  -5   4 5.18708 2.31839   2
   2  -5   4 7.81228 6.32592   1
   2  -5   4 3.23210 2.19944   5
  -3   5  -4 17.8848 3.48505   2
  -3   5  -4 17.4026 3.83811   3
   3  -5   4 8.25296 8.14288   1
   3  -5   4 16.4556 4.14053   3
   3  -5   4 12.9046 2.55891   6
   3  -5   4 14.9563 7.92870   1
   3  -5   4 17.8774 4.19738   5
   3  -5   4 13.2340 4.29801   4
  -4   5  -4 68.6344 10.2674   3
  -4   5  -4 66.0444 10.0975   2
   4  -5   4 67.6836 10.7210   4
   4  -5   4 61.3611 14.6421   1
   4  -5   4 67.9046 11.1012   5
  -5   5  -4 291.582 29.6960   3
   5  -5   4 269.818 31.7146   5
   5  -5   4 249.336 30.1835   4
   5   4  -4 125.193 17.2841   3
   5   4  -4 130.882 17.0377   5
   4   4  -4 1.54639 3.63513   3
   4   4  -4 2.11884 3.41084   5
  -4  -4   4 3.63219 4.18638   2
   3   4  -4 305.886 34.6980   1
   3   4  -4 270.877 30.5215   3
   3   4  -4 295.188 30.3463   5
   3   4  -4 229.764 30.0806   2
  -3  -4   4 298.139 33.1057   1
  -3  -4   4 339.074 30.7343   2
   2   4  -4 1021.80 97.9440   1
   2   4  -4 846.736 95.6636   2
   2   4  -4 978.852 95.0529   4
   2   4  -4 995.800 95.7536   5
   2   4  -4 807.133 95.9019   3
  -2  -4   4 835.247 97.7770   1
  -2  -4   4 1113.67 96.1734   2
   1   4  -4 283.019 40.9887   3
   1   4  -4 361.194 40.7591   2
   1   4  -4 430.019 43.5893   1
   1   4  -4 414.722 40.3326   4
  -1  -4   4 414.549 41.9216   3
  -1  -4   4 442.143 41.2325   2
  -1  -4   4 406.199 40.4987   4
  -1  -4   4 446.860 43.9363   1
   0   4  -4 89.4986 9.34357   4
   0   4  -4 77.5580 9.76251   6
   0   4  -4 79.7348 10.9695   3
   0   4  -4 82.8156 9.71173   2
   0  -4   4 96.3500 12.9749   1
   0  -4   4 79.5807 11.3146   3
   0  -4   4 63.2726 13.1550   1
   0  -4   4 93.2259 9.80212   4
   0  -4   4 88.3501 10.2430   2
  -1   4  -4 464.036 45.2802   6
  -1   4  -4 403.371 45.8915   3
  -1   4  -4 434.903 45.3853   2
  -1   4  -4 463.936 45.3571   4
   1  -4   4 499.412 45.5920   2
   1  -4   4 481.911 47.3219   1
   1  -4   4 453.907 45.5388   4
   1  -4   4 313.207 45.5904   3
   1  -4   4 496.393 47.3103   1
  -2   4  -4 52.2604 6.44363   3
  -2   4  -4 34.9964 5.90441   4
  -2   4  -4 34.0252 5.43094   2
  -2   4  -4 37.5175 5.35397   6
   2  -4   4 51.4220 10.3484   1
   2  -4   4 45.5685 5.41679   5
   2  -4   4 45.3103 5.50561   2
   2  -4   4 28.9973 6.32195   3
   2  -4   4 44.3955 5.68449   5
   2  -4   4 35.4257 4.82052   6
   2  -4   4 48.0641 10.6561   1
   2  -4   4 34.1421 6.21850   4
  -3   4  -4 352.378 33.2597   3
  -3   4  -4 308.580 33.2567   4
  -3   4  -4 251.515 32.9936   2
   3  -4   4 320.579 35.4188   1
   3  -4   4 374.395 36.7287   1
   3  -4   4 321.919 33.3563   4
   3  -4   4 309.866 32.4134   6
   3  -4   4 333.180 33.4865   5
   3  -4   4 305.456 33.2387   3
  -4   4  -4 917.887 85.6229   3
  -4   4  -4 719.370 84.6900   2
   4  -4   4 851.654 85.8752   4
   4  -4   4 804.231 84.7033   6
   4  -4   4 896.148 86.3280   5
  -5   4  -4 604.814 59.9890   3
   5  -4   4 574.334 61.4229   5
   5  -4   4 555.816 60.2298   4
  -6   4  -4 24.2279 5.87050   3
   6  -4   4 8.13903 8.54607   5
   6  -4   4 14.1268 7.12679   4
   5   3  -4 11.8103 5.41647   5
   5   3  -4 12.2928 5.07267   3
   4   3  -4 15.6691 4.31602   5
   4   3  -4 13.3564 4.25236   3
   4   3  -4 12.0948 4.67869   2
  -4  -3   4 11.8806 4.25963   2
   3   3  -4 13.0203 3.45480   3
   3   3  -4 16.6706 9.29566   1
   3   3  -4 8.41150 3.24287   2
   3   3  -4 12.0856 3.27213   5
  -3  -3   4 16.3654 3.88811   2
  -3  -3   4 14.0801 6.70016   1
   2   3  -4 667.608 67.6540   1
   2   3  -4 580.416 65.6027   3
   2   3  -4 666.983 65.5421   5
   2   3  -4 566.750 65.3476   2
  -2  -3   4 637.553 67.5399   1
  -2  -3   4 737.560 65.7768   2
   1   3  -4 2479.18 269.326   2
   1   3  -4 2761.32 272.131   1
   1   3  -4 1911.71 269.397   3
   1   3  -4 2712.44 268.953   4
   1   3  -4 2356.25 269.255   5
  -1  -3   4 3091.60 269.378   5
  -1  -3   4 2924.16 269.629   2
  -1  -3   4 2899.74 269.049   4
  -1  -3   4 2909.82 270.033   3
   0   3  -4 4430.66 489.132   3
   0   3  -4 4554.34 488.746   2
   0   3  -4 4955.74 488.556   4
   0  -3   4 5302.30 488.706   4
   0  -3   4 4961.54 490.227   1
   0  -3   4 5148.24 488.970   2
   0  -3   4 4617.77 489.177   3
  -1   3  -4 1315.62 122.207   4
  -1   3  -4 1138.13 122.430   3
  -1   3  -4 1279.41 121.891   6
   1  -3   4 1224.62 122.130   4
   1  -3   4 1332.45 122.195   2
   1  -3   4 1293.54 123.480   1
   1  -3   4 1119.53 121.877   5
   1  -3   4 1352.75 123.589   1
   1  -3   4 826.912 122.085   3
  -2   3  -4 22.2765 3.57166   2
  -2   3  -4 20.4127 3.30402   4
  -2   3  -4 19.8374 4.22808   3
  -2   3  -4 19.2264 2.67973   6
   2  -3   4 15.3580 3.78753   5
   2  -3   4 16.8847 3.00682   6
   2  -3   4 15.3057 4.73651   1
   2  -3   4 15.6112 4.18260   3
   2  -3   4 21.8289 3.58483   5
   2  -3   4 18.7681 3.37685   2
   2  -3   4 16.2190 3.32258   4
   2  -3   4 21.2951 6.10090   1
  -3   3  -4 40.3110 6.99466   4
  -3   3  -4 51.8966 6.62028   3
  -3   3  -4 41.4716 6.05109   2
   3  -3   4 34.2075 6.92753   4
   3  -3   4 39.8923 8.04095   1
   3  -3   4 48.3672 6.95446   3
   3  -3   4 52.8157 7.11644   5
   3  -3   4 49.9670 5.44416   6
   3  -3   4 56.0818 11.5099   1
  -4   3  -4 125.864 14.4836   3
   4  -3   4 139.205 15.6570   5
   4  -3   4 124.329 18.1394   1
   4  -3   4 119.455 15.0203   4
   4  -3   4 121.036 13.4184   6
  -5   3  -4 570.393 57.8690   3
   5  -3   4 539.967 58.1360   4
   5  -3   4 566.587 59.2648   5
  -6   3  -4 528.870 54.8280   3
   6  -3   4 522.950 55.0877   4
   6  -3   4 518.004 56.9314   5
   6   2  -4 86.9120 16.4130   5
   6   2  -4 94.2510 16.7090   3
   5   2  -4 341.069 38.8221   5
   5   2  -4 351.978 38.3643   3
  -5  -2   4 378.390 37.3950   2
   4   2  -4 98.3744 12.7667   2
   4   2  -4 60.9885 15.6531   3
   4   2  -4 103.189 12.7241   5
  -4  -2   4 117.743 12.0912   2
   3   2  -4 302.726 30.6440   5
   3   2  -4 243.835 33.1499   1
   3   2  -4 301.384 30.5306   3
   3   2  -4 253.782 30.2505   2
  -3  -2   4 317.241 32.2349   1
  -3  -2   4 315.356 30.4739   2
   2   2  -4 382.624 46.1655   2
   2   2  -4 464.395 46.4627   5
   2   2  -4 435.455 46.4169   3
   2   2  -4 390.764 48.0535   1
  -2  -2   4 488.745 46.5057   2
  -2  -2   4 523.266 46.8521   5
  -2  -2   4 472.700 48.1307   1
   1   2  -4 71.8454 8.96546   2
   1   2  -4 97.6367 13.2644   1
   1   2  -4 58.6979 9.06854   3
   1   2  -4 77.0727 8.00164   4
   1   2  -4 69.3550 8.84764   5
  -1  -2   4 87.6528 10.2020   3
  -1  -2   4 68.7836 8.47174   4
  -1  -2   4 89.6839 9.14172   5
  -1  -2   4 83.2500 9.26174   2
   0   2  -4 593.250 65.2308   3
   0   2  -4 673.495 64.6641   4
   0   2  -4 479.761 65.1834   5
   0   2  -4 629.299 64.8931   2
   0   2  -4 736.108 66.8294   1
   0  -2   4 727.882 64.7844   4
   0  -2   4 701.409 65.1037   2
   0  -2   4 649.138 64.9342   5
   0  -2   4 579.314 65.2509   3
   0  -2   4 632.974 66.4334   1
  -1   2  -4 1954.31 189.335   6
  -1   2  -4 1743.90 189.532   2
  -1   2  -4 1914.52 189.527   4
  -1   2  -4 1880.37 189.879   3
   1  -2   4 2107.23 190.905   1
   1  -2   4 1958.69 189.649   2
   1  -2   4 1519.89 189.636   3
   1  -2   4 2011.26 190.758   1
   1  -2   4 1901.94 189.529   5
   1  -2   4 1810.61 189.578   4
  -2   2  -4 391.794 46.6218   2
  -2   2  -4 449.484 46.8510   4
  -2   2  -4 483.615 46.9378   3
   2  -2   4 447.447 46.3498   6
   2  -2   4 478.428 48.0065   1
   2  -2   4 451.625 46.8575   3
   2  -2   4 481.734 46.6256   2
   2  -2   4 516.668 46.9168   5
   2  -2   4 478.363 48.1954   1
   2  -2   4 408.940 46.8595   4
  -3   2  -4 81.9607 10.1632   4
  -3   2  -4 86.7282 9.76429   3
  -3   2  -4 72.0967 9.24889   2
   3  -2   4 86.5479 10.2706   5
   3  -2   4 85.4732 9.90492   3
   3  -2   4 86.1933 8.93689   2
   3  -2   4 84.3803 10.2162   4
   3  -2   4 88.4651 8.95929   6
   3  -2   4 94.1136 12.1463   1
  -4   2  -4 977.486 93.1500   3
  -4   2  -4 874.950 93.4557   4
   4  -2   4 910.720 92.4145   6
   4  -2   4 958.274 93.8852   5
   4  -2   4 889.205 93.2792   4
   4  -2   4 908.351 93.1850   3
   4  -2   4 881.357 94.3692   1
  -5   2  -4 320.808 33.5360   3
   5  -2   4 315.043 33.4328   6
   5  -2   4 325.147 34.9827   5
   5  -2   4 302.215 33.8291   4
  -6   2  -4 -2.3993 3.78537   3
   6  -2   4 5.21434 5.49514   4
   6  -2   4 0.80568 6.18797   5
   6   1  -4 132.270 19.6328   5
   6   1  -4 125.383 19.2049   3
   5   1  -4 14.7417 5.19880   3
   5   1  -4 15.0447 5.58055   5
  -5  -1   4 14.3414 4.14914   2
   4   1  -4 37.2382 7.49082   3
   4   1  -4 36.1787 7.38894   5
   4   1  -4 23.9494 10.5339   1
   4   1  -4 31.6322 7.49222   2
  -4  -1   4 38.2518 6.34800   2
   3   1  -4 11.0884 2.96777   3
   3   1  -4 12.0649 3.49008   2
   3   1  -4 10.4735 6.30847   1
   3   1  -4 15.4381 3.52444   5
  -3  -1   4 12.0240 4.18260   5
  -3  -1   4 17.6226 3.36248   2
  -3  -1   4 18.9469 5.59695   1
   2   1  -4 330.950 45.9707   1
   2   1  -4 421.217 42.3439   5
   2   1  -4 405.450 42.1762   3
  -2  -1   4 464.964 43.0239   5
  -2  -1   4 408.192 42.2142   2
   1   1  -4 4889.11 512.696   1
   1   1  -4 4308.34 511.507   3
   1   1  -4 4448.14 511.429   2
  -1  -1   4 5536.29 511.868   3
  -1  -1   4 5119.23 511.603   2
  -1  -1   4 6171.02 511.918   5
   0   1  -4 5708.68 617.171   2
   0   1  -4 6383.72 617.429   5
   0   1  -4 5293.88 617.343   3
   0   1  -4 7188.08 618.913   1
   0  -1   4 6196.02 617.294   2
   0  -1   4 5426.07 617.352   3
   0  -1   4 6636.75 618.719   1
   0  -1   4 6226.77 617.368   5
  -1   1  -4 2011.58 192.508   3
  -1   1  -4 1666.18 192.231   2
  -1   1  -4 2049.04 191.995   6
  -1   1  -4 1944.98 192.256   4
   1  -1   4 1890.83 192.321   2
   1  -1   4 1745.77 192.309   3
   1  -1   4 1794.75 192.263   4
   1  -1   4 2013.89 192.349   5
   1  -1   4 2044.62 193.347   1
  -2   1  -4 58.1138 6.67031   3
  -2   1  -4 51.1495 6.45103   2
  -2   1  -4 58.0958 6.87605   4
   2  -1   4 51.4786 6.87679   4
   2  -1   4 56.7221 6.69265   3
   2  -1   4 55.4807 5.93057   6
   2  -1   4 59.1368 8.22377   1
   2  -1   4 58.6778 8.78738   1
   2  -1   4 60.7843 6.80310   5
   2  -1   4 54.6467 6.36490   2
  -3   1  -4 132.872 15.0765   4
  -3   1  -4 136.609 14.6959   3
  -3   1  -4 139.577 14.1011   2
   3  -1   4 145.969 16.9619   1
   3  -1   4 137.556 14.0474   6
   3  -1   4 122.271 15.0375   4
   3  -1   4 139.891 14.7725   3
   3  -1   4 139.768 16.1236   1
  -4   1  -4 58.7834 8.99359   4
  -4   1  -4 47.0083 7.09292   3
   4  -1   4 54.1216 7.43239   3
   4  -1   4 46.3919 10.0438   1
   4  -1   4 45.6051 8.07992   4
   4  -1   4 56.4624 8.32995   5
   4  -1   4 50.7432 5.92144   6
  -5   1  -4 995.640 97.6001   3
   5  -1   4 992.347 98.7681   5
   5  -1   4 884.186 96.7255   6
   6  -1   4 725.018 74.9440   4
   6   0  -4 183.779 26.9196   5
   6   0  -4 247.077 25.9045   3
   5   0  -4 703.950 74.3761   5
  -5   0   4 721.994 72.5075   2
   4   0  -4 275.091 29.7942   5
   4   0  -4 248.404 32.1535   1
   4   0  -4 269.343 28.8599   2
  -4   0   4 296.538 28.7728   2
   3   0  -4 91.7408 10.8163   3
   3   0  -4 91.0738 11.1577   5
  -3   0   4 83.9067 10.6578   2
  -3   0   4 105.620 12.4172   5
   2   0  -4 5.77627 2.13395   2
   2   0  -4 -4.7389 3.67805   1
   2   0  -4 4.18028 2.02514   5
   2   0  -4 4.24323 1.80324   3
  -2   0   4 1.27229 1.94539   2
   1   0  -4 5.90706 1.90228   2
   1   0  -4 -2.0824 3.14543   1
   1   0  -4 3.46166 1.74085   3
   1   0  -4 4.18052 2.08729   5
  -1   0   4 3.97952 2.34187   5
  -1   0   4 2.48241 1.87969   2
  -1   0   4 9.70965 4.15128   1
   0   0  -4 2031.67 204.496   2
   0   0  -4 2266.60 206.021   1
   0   0  -4 2237.21 204.315   4
   0   0  -4 1762.95 204.546   3
   0   0  -4 1923.06 204.755   5
   0   0   4 2429.15 206.215   1
   0   0   4 1891.06 204.704   5
   0   0   4 2094.76 204.275   4
   0   0   4 1942.21 204.477   2
   0   0   4 1721.26 204.532   3
  -1   0  -4 4259.86 481.904   2
  -1   0  -4 4502.62 481.927   4
  -1   0  -4 6319.98 483.503   1
   1   0   4 5179.80 482.989   1
   1   0   4 4772.23 481.954   3
   1   0   4 4452.52 481.933   4
   1   0   4 4047.05 481.891   2
  -2   0  -4 1526.43 155.771   3
  -2   0  -4 1541.46 155.583   2
  -2   0  -4 1465.13 155.904   4
   2   0   4 1683.85 156.561   1
   2   0   4 1637.93 156.666   1
   2   0   4 1683.34 155.838   3
   2   0   4 1303.23 155.590   2
   2   0   4 1512.67 155.358   6
   2   0   4 1378.09 155.849   4
   2   0   4 1705.20 156.044   5
  -3   0  -4 0.94853 2.20020   4
  -3   0  -4 2.92639 1.53497   3
   3   0   4 6.11693 1.17850   2
   3   0   4 5.52551 3.24100   1
   3   0   4 2.83475 2.15930   4
   3   0   4 7.78450 3.81741   1
   3   0   4 3.77059 0.97587   6
   3   0   4 7.28483 1.70243   3
  -4   0  -4 357.357 35.8272   3
  -4   0  -4 332.479 36.2651   4
   4   0   4 322.572 37.5946   1
   4   0   4 361.641 35.8746   3
   4   0   4 348.770 35.1248   6
   4   0   4 328.986 36.1451   4
   4   0   4 360.982 36.6418   5
  -5   0  -4 105.357 12.7234   3
   5   0   4 111.004 15.1787   5
   5   0   4 110.035 13.6001   4
   5   0   4 95.3006 11.3619   6
   6   0   4 25.8942 7.63988   5
   6   0   4 15.5120 5.80169   4
   6  -1  -4 105.296 17.4186   5
   5  -1  -4 3.61757 5.09566   5
  -5   1   4 0.06649 2.78142   2
   4  -1  -4 142.985 16.0971   2
   4  -1  -4 125.986 15.9246   3
   4  -1  -4 173.940 20.8881   1
   4  -1  -4 136.857 16.8471   5
  -4   1   4 147.314 15.5588   2
   3  -1  -4 61.8230 10.6331   1
   3  -1  -4 63.4634 7.54621   2
   3  -1  -4 59.0774 7.49111   3
   3  -1  -4 61.2807 8.41810   5
  -3   1   4 56.8330 7.68162   2
  -3   1   4 70.3217 9.53009   5
  -3   1   4 48.2183 11.2517   1
   2  -1  -4 572.263 53.9563   3
   2  -1  -4 503.189 53.8761   2
   2  -1  -4 539.733 54.3894   5
   2  -1  -4 535.435 54.8489   1
  -2   1   4 553.846 54.9401   1
  -2   1   4 437.314 53.8403   2
  -2   1   4 568.812 55.0810   5
   1  -1  -4 4789.91 498.932   3
   1  -1  -4 4734.24 498.944   2
  -1   1   4 5840.10 499.991   1
  -1   1   4 4014.48 498.860   2
  -1   1   4 5406.10 499.563   5
   0  -1  -4 6667.64 575.030   1
   0   1   4 5081.56 574.051   5
   0   1   4 6648.79 575.092   1
   0   1   4 4418.04 573.687   3
  -1  -1  -4 1356.79 136.428   2
  -1  -1  -4 1511.17 136.994   5
  -1  -1  -4 1521.93 137.809   1
  -1  -1  -4 1373.76 136.484   3
   1   1   4 1285.40 136.505   4
   1   1   4 1384.75 136.744   5
   1   1   4 1328.55 136.442   3
   1   1   4 1219.01 136.400   2
   1   1   4 1195.79 137.391   1
  -2  -1  -4 142.054 13.4845   2
  -2  -1  -4 120.229 13.9918   4
  -2  -1  -4 132.079 13.7553   3
   2   1   4 114.709 13.5493   2
   2   1   4 135.928 13.7478   3
   2   1   4 134.286 13.2582   6
   2   1   4 138.226 14.9978   1
   2   1   4 142.230 14.1680   5
   2   1   4 131.934 14.9908   1
   2   1   4 114.149 14.0089   4
  -3  -1  -4 38.5220 4.92749   3
  -3  -1  -4 37.4834 5.82588   4
   3   1   4 36.3240 6.31225   1
   3   1   4 31.1022 4.53357   2
   3   1   4 42.3029 7.53529   1
   3   1   4 32.7174 5.66492   4
   3   1   4 42.9917 4.99568   3
  -4  -1  -4 83.8415 9.64696   3
   4   1   4 84.4524 9.74599   3
   4   1   4 85.9487 12.7461   1
   4   1   4 74.5968 10.4442   4
   4   1   4 82.9929 10.6197   5
   4   1   4 80.4420 11.1476   1
  -5  -1  -4 835.736 85.9386   3
   5   1   4 813.795 86.1693   4
   5   1   4 876.017 87.2037   5
   6   1   4 789.813 80.4766   5
   6   1   4 744.922 79.0165   4
   6  -2  -4 263.296 32.2001   5
   5  -2  -4 844.769 91.0183   4
   5  -2  -4 933.242 93.6424   5
  -5   2   4 928.693 91.1731   2
   4  -2  -4 361.202 38.3395   3
   4  -2  -4 367.030 39.3854   5
   4  -2  -4 393.269 37.7711   2
   4  -2  -4 352.395 40.6225   1
   4  -2  -4 361.311 37.4507   4
  -4   2   4 417.987 44.4798   1
  -4   2   4 352.814 37.7560   4
  -4   2   4 366.193 38.0819   2
   3  -2  -4 66.0039 7.08351   4
   3  -2  -4 70.4766 7.71545   2
   3  -2  -4 67.6426 7.94615   3
   3  -2  -4 71.9283 9.18060   5
   3  -2  -4 66.9647 10.8895   1
  -3   2   4 84.1252 11.1710   1
  -3   2   4 68.6817 9.98084   5
  -3   2   4 62.1032 7.65156   4
  -3   2   4 56.3819 7.99697   2
   2  -2  -4 4.28265 1.60452   2
   2  -2  -4 3.37736 0.82039   4
   2  -2  -4 3.56865 2.15023   5
   2  -2  -4 5.10312 3.07361   1
  -2   2   4 1.33984 1.49605   2
  -2   2   4 1.20297 1.21384   4
  -2   2   4 1.67139 2.92834   1
  -2   2   4 4.60916 2.63447   5
   1  -2  -4 406.338 46.0617   5
   1  -2  -4 473.200 45.5514   2
   1  -2  -4 448.317 45.5189   3
   1  -2  -4 468.747 46.3592   1
  -1   2   4 458.280 46.3459   1
  -1   2   4 431.884 46.2537   5
  -1   2   4 424.348 45.5055   2
  -1   2   4 474.652 45.3200   4
   0  -2  -4 2465.71 240.384   3
   0  -2  -4 2394.69 240.791   5
   0   2   4 2423.77 240.778   5
   0   2   4 2250.50 240.171   3
  -1  -2  -4 8017.21 768.662   1
   1   2   4 7234.37 768.410   1
  -2  -2  -4 2140.06 220.194   3
   2   2   4 2325.61 220.629   5
   2   2   4 2259.24 220.621   1
   2   2   4 2250.35 220.196   3
   2   2   4 2010.15 220.377   4
   2   2   4 2194.82 220.063   2
   2   2   4 2111.02 220.937   1
  -3  -2  -4 197.234 19.8748   3
   3   2   4 195.365 19.8522   3
   3   2   4 196.435 20.9933   1
   3   2   4 195.597 19.4642   2
   3   2   4 164.479 20.2364   4
   3   2   4 189.459 20.3231   1
  -4  -2  -4 78.6780 8.70131   3
   4   2   4 59.6291 9.58850   4
   4   2   4 68.0461 9.87007   1
   4   2   4 72.5708 8.71040   3
   4   2   4 81.2290 11.7339   1
   5   2   4 4.75311 4.08965   4
   5   2   4 7.50918 4.28962   5
   6   2   4 79.2563 12.4723   4
   6   2   4 83.8928 14.1256   5
   6  -3  -4 37.0001 10.1752   5
   5  -3  -4 15.0724 6.44784   5
   5  -3  -4 11.3119 2.58356   4
   4  -3  -4 423.810 42.6363   3
   4  -3  -4 429.152 41.9365   4
   4  -3  -4 431.063 45.1199   1
   4  -3  -4 444.105 44.0130   5
  -4   3   4 348.160 42.3239   2
  -4   3   4 404.259 43.7419   4
   3  -3  -4 267.174 29.2089   5
   3  -3  -4 298.206 27.9716   2
   3  -3  -4 275.750 28.1285   3
   3  -3  -4 275.916 27.7421   4
   3  -3  -4 265.684 29.7884   1
  -3   3   4 283.818 30.0573   1
  -3   3   4 266.555 28.1936   4
  -3   3   4 223.181 28.0499   2
  -3   3   4 297.677 29.6523   5
   2  -3  -4 161.670 17.4458   3
   2  -3  -4 175.533 17.5215   2
   2  -3  -4 160.468 18.4938   5
   2  -3  -4 163.759 17.2760   4
   2  -3  -4 168.695 18.8225   1
  -2   3   4 159.842 17.5492   2
  -2   3   4 183.867 19.0279   1
  -2   3   4 166.930 17.5070   4
  -2   3   4 184.388 18.7527   5
   1  -3  -4 2730.67 287.195   4
   1  -3  -4 2991.42 287.372   2
   1  -3  -4 2806.67 287.295   3
   1  -3  -4 3090.35 288.150   1
   1  -3  -4 2432.65 287.937   5
  -1   3   4 2750.60 288.114   5
  -1   3   4 2862.71 287.375   2
  -1   3   4 3028.64 288.123   1
  -1   3   4 2984.59 287.284   4
   0  -3  -4 2899.40 285.162   5
   0   3   4 2828.92 285.130   5
   0   3   4 2742.14 284.303   3
  -1  -3  -4 544.421 69.3888   1
  -1  -3  -4 731.017 68.4647   2
  -1  -3  -4 756.106 69.2122   5
  -1  -3  -4 668.590 68.3588   3
   1   3   4 666.282 68.1673   6
   1   3   4 682.731 68.3688   3
   1   3   4 689.143 68.4481   2
   1   3   4 683.734 69.1029   1
   1   3   4 665.087 68.9917   5
  -2  -3  -4 102.646 10.6685   3
   2   3   4 106.383 10.5450   2
   2   3   4 109.695 11.1738   4
   2   3   4 103.249 11.3299   5
   2   3   4 72.1294 12.3446   1
   2   3   4 98.4882 10.6209   3
  -3  -3  -4 396.833 39.8224   3
   3   3   4 432.651 40.5489   5
   3   3   4 378.419 39.7447   3
   3   3   4 398.075 39.9587   1
   3   3   4 371.715 40.6411   1
   3   3   4 412.447 39.5025   2
   3   3   4 329.929 40.1225   4
   4   3   4 23.3225 6.04428   1
   4   3   4 21.0234 4.46502   1
   4   3   4 22.4054 3.06797   2
   4   3   4 22.9806 4.54738   3
   4   3   4 25.5994 3.19620   2
   4   3   4 22.1118 4.56863   4
   5   3   4 340.080 36.5831   4
   5   3   4 350.033 37.2274   5
   6   3   4 600.289 64.0034   4
   6   3   4 634.172 65.3816   5
   6  -4  -4 249.759 31.2047   5
   5  -4  -4 830.026 85.3689   4
   5  -4  -4 856.631 88.0068   5
   4  -4  -4 554.875 53.1802   5
   4  -4  -4 513.162 53.9661   1
   4  -4  -4 539.050 50.9582   4
   4  -4  -4 504.516 51.4441   3
  -4   4   4 491.609 51.6577   4
  -4   4   4 408.859 51.1621   2
   3  -4  -4 103.211 10.7554   4
   3  -4  -4 100.952 11.0770   3
   3  -4  -4 105.105 14.0546   1
   3  -4  -4 100.619 12.8006   5
  -3   4   4 109.272 14.3267   1
  -3   4   4 91.0610 11.0226   2
  -3   4   4 94.0371 11.6867   4
  -3   4   4 109.850 13.1721   5
   2  -4  -4 3.98293 3.32097   1
   2  -4  -4 1.90385 2.41088   5
   2  -4  -4 1.44520 1.03642   4
   2  -4  -4 1.39091 0.98540   3
  -2   4   4 2.17660 1.38444   2
  -2   4   4 2.84942 3.44792   1
  -2   4   4 0.85909 2.30724   5
  -2   4   4 0.24891 1.40613   4
   1  -4  -4 1036.13 94.6680   2
   1  -4  -4 930.443 94.5246   4
   1  -4  -4 714.241 95.2455   5
   1  -4  -4 958.464 95.3912   1
   1  -4  -4 936.939 94.4566   3
   1  -4  -4 958.227 94.4627   6
   1  -4  -4 917.808 94.3709   3
  -1   4   4 959.117 94.6436   2
  -1   4   4 954.602 95.3905   1
  -1   4   4 943.004 95.5146   5
  -1   4   4 993.048 94.6266   4
   0  -4  -4 2508.94 239.909   4
   0  -4  -4 2612.82 239.761   6
   0  -4  -4 1738.14 240.470   5
   0  -4  -4 2839.01 240.689   1
   0   4   4 2509.58 239.969   2
   0   4   4 2578.59 239.949   4
   0   4   4 1603.65 240.427   5
   0   4   4 2667.08 240.492   1
  -1  -4  -4 7191.35 708.367   1
   1   4   4 7364.01 707.871   1
   1   4   4 6536.87 708.169   5
  -2  -4  -4 3215.10 323.919   3
   2   4   4 3185.07 323.872   3
   2   4   4 3247.53 323.873   2
   3   4   4 268.040 30.5319   4
   3   4   4 302.059 29.8457   2
   3   4   4 288.420 30.0429   3
   3   4   4 309.447 30.9242   5
   4   4   4 0.40531 1.28646   2
   4   4   4 3.59884 1.97708   3
   4   4   4 0.85344 3.18714   4
   4   4   4 2.96056 1.41571   2
   5   4   4 5.86142 4.12207   5
   5   4   4 6.32274 4.34155   4
   6   4   4 93.4092 13.8177   4
   6   4   4 92.6264 14.8470   5
   6  -5  -4 -0.2967 9.16545   5
   5  -5  -4 55.9834 7.60544   4
   5  -5  -4 51.6365 12.6382   5
   4  -5  -4 611.524 56.6490   3
   4  -5  -4 621.905 56.2566   4
   4  -5  -4 487.686 60.4857   5
  -4   5   4 509.761 56.3387   2
  -4   5   4 520.700 57.0133   4
   3  -5  -4 736.726 80.1092   5
   3  -5  -4 804.871 78.8175   3
   3  -5  -4 782.407 78.7010   4
   3  -5  -4 749.186 80.3805   1
   3  -5  -4 771.482 78.7501   6
  -3   5   4 755.373 78.7807   2
  -3   5   4 773.527 80.6173   1
  -3   5   4 842.359 80.2146   5
  -3   5   4 777.525 79.1250   4
   2  -5  -4 5.05800 1.40276   6
   2  -5  -4 3.78992 3.57105   1
   2  -5  -4 3.88227 1.21162   3
   2  -5  -4 3.76907 1.45570   4
   2  -5  -4 2.66974 2.90124   5
  -2   5   4 2.38450 3.68508   1
  -2   5   4 11.9035 3.20858   5
  -2   5   4 5.99616 1.99612   4
  -2   5   4 7.38195 1.74034   2
   1  -5  -4 1147.50 114.172   1
   1  -5  -4 1183.27 113.300   6
   1  -5  -4 1147.48 113.313   4
   1  -5  -4 780.076 113.977   5
  -1   5   4 1132.03 114.170   1
  -1   5   4 1172.42 113.386   2
  -1   5   4 1178.83 113.562   4
  -1   5   4 1239.37 114.467   5
   0  -5  -4 1171.05 114.379   4
   0  -5  -4 1256.65 115.059   1
   0  -5  -4 926.788 115.065   5
   0  -5  -4 1230.54 114.222   6
   0   5   4 1178.27 114.166   6
   0   5   4 1227.44 114.934   1
   0   5   4 781.192 114.973   5
   0   5   4 1234.94 114.419   4
   0   5   4 1191.03 114.413   2
  -1  -5  -4 26.7191 5.70201   1
  -1  -5  -4 30.5544 5.19148   5
   1   5   4 26.8945 4.31356   1
   1   5   4 33.4758 4.26724   4
   1   5   4 24.9312 5.57589   5
   1   5   4 24.2137 3.21489   3
   1   5   4 26.6476 3.23363   6
   1   5   4 28.3464 3.69803   2
   2   5   4 738.804 77.1894   4
   2   5   4 746.804 77.0964   3
   2   5   4 775.978 77.1721   2
   2   5   4 789.443 77.9560   5
   3   5   4 578.387 67.6997   2
   3   5   4 678.908 67.7818   4
   3   5   4 662.569 67.2553   3
   3   5   4 688.380 67.1434   2
   3   5   4 704.352 68.1762   5
   4   5   4 56.2327 7.23358   3
   4   5   4 43.1028 8.60994   4
   4   5   4 59.3590 6.38258   2
   4   5   4 53.0762 9.42452   5
   4   5   4 50.5731 7.91079   2
   5   5   4 187.435 18.6155   2
   5   5   4 190.127 20.7722   5
   5   5   4 173.446 18.9198   2
   5   5   4 157.728 20.5255   4
   6   5   4 329.004 35.8046   5
   6   5   4 307.393 34.6110   4
   5  -6  -4 510.758 55.4521   5
   4  -6  -4 422.552 40.6902   3
   4  -6  -4 403.973 43.9180   5
   4  -6  -4 410.055 40.4371   4
  -4   6   4 368.271 40.3519   2
  -4   6   4 355.667 41.5022   4
   3  -6  -4 8.59045 2.41942   4
   3  -6  -4 8.44654 6.25768   1
   3  -6  -4 10.5851 4.84190   5
   3  -6  -4 11.5268 2.54391   6
  -3   6   4 12.6480 2.65447   2
  -3   6   4 18.3358 6.83342   1
  -3   6   4 10.1139 4.44517   5
  -3   6   4 8.85445 3.26638   4
   2  -6  -4 12.2045 4.26760   5
   2  -6  -4 19.8210 2.93277   3
   2  -6  -4 23.8628 3.59694   4
   2  -6  -4 18.1671 5.45404   1
   2  -6  -4 11.0575 2.38584   6
  -2   6   4 23.4208 5.65822   5
  -2   6   4 22.1388 3.57199   2
  -2   6   4 23.0926 5.31713   1
  -2   6   4 21.1072 4.27224   4
   1  -6  -4 181.065 19.8187   1
   1  -6  -4 106.488 19.4047   5
   1  -6  -4 178.927 18.4926   4
   1  -6  -4 196.470 18.3416   6
  -1   6   4 188.559 19.8373   1
  -1   6   4 200.392 18.6722   4
  -1   6   4 185.993 18.5356   2
  -1   6   4 187.232 20.3177   5
   0  -6  -4 2013.58 188.333   1
   0  -6  -4 1724.25 188.423   5
   0  -6  -4 1929.20 187.685   4
   0  -6  -4 1992.59 187.510   6
   0   6   4 1882.89 187.433   6
   0   6   4 1928.24 187.684   4
   0   6   4 1448.29 188.337   5
   0   6   4 1991.12 188.241   1
   0   6   4 1838.61 187.669   2
  -1  -6  -4 5545.20 492.811   5
  -1  -6  -4 5648.42 492.635   1
   1   6   4 4834.96 492.077   4
   1   6   4 4726.48 492.102   2
   1   6   4 4728.96 491.848   6
   1   6   4 3841.82 492.722   5
   2   6   4 2506.15 254.745   4
   2   6   4 2478.48 254.623   3
   2   6   4 2656.72 255.613   5
   2   6   4 2469.13 254.529   6
   3   6   4 93.3595 9.94512   2
   3   6   4 90.5945 9.89439   2
   3   6   4 94.0668 11.7465   5
   3   6   4 89.0278 9.99506   3
   3   6   4 81.6070 9.92982   4
   4   6   4 35.9273 7.92935   4
   4   6   4 44.2527 5.41807   2
   4   6   4 47.4480 9.35468   5
   4   6   4 40.6615 6.33204   3
   4   6   4 39.1931 5.57488   2
   4   6   4 34.3897 5.88517   4
   5   6   4 -3.6015 4.53220   4
   5   6   4 -2.4242 3.53850   5
   5   6   4 0.94350 2.01924   2
   5   6   4 0.30859 3.95722   2
   6   6   4 66.2115 13.0168   5
   6   6   4 65.8230 12.3702   4
   5  -7  -4 92.4426 17.9687   5
   5  -7  -4 112.530 12.7716   4
   4  -7  -4 619.555 72.3832   5
   4  -7  -4 707.570 70.1521   4
   4  -7  -4 733.219 70.3762   3
  -4   7   4 686.721 70.0146   2
   3  -7  -4 1185.07 114.671   4
   3  -7  -4 1125.66 116.642   1
   3  -7  -4 992.017 116.203   5
   3  -7  -4 1130.20 114.773   3
  -3   7   4 1111.82 116.698   1
  -3   7   4 1105.78 115.075   4
  -3   7   4 1221.91 115.943   5
  -3   7   4 1181.59 114.632   2
   2  -7  -4 12.9097 5.34026   1
   2  -7  -4 7.39019 4.34306   5
   2  -7  -4 12.9048 2.41963   4
   2  -7  -4 5.18790 1.87670   6
   2  -7  -4 8.41734 1.80862   3
  -2   7   4 5.48576 3.32634   5
  -2   7   4 4.59280 2.27686   4
  -2   7   4 0.82607 4.51931   1
  -2   7   4 14.8164 3.27633   2
   1  -7  -4 79.8871 8.42963   4
   1  -7  -4 41.6158 9.98056   5
   1  -7  -4 88.4246 10.7464   1
   1  -7  -4 69.8425 8.06534   6
  -1   7   4 67.5045 10.4853   1
  -1   7   4 78.5635 8.59777   4
  -1   7   4 77.8522 8.35557   2
  -1   7   4 82.4611 9.84129   5
   0  -7  -4 177.353 18.4555   4
   0  -7  -4 173.954 18.2155   6
   0  -7  -4 178.081 19.5257   5
   0  -7  -4 183.683 19.4551   1
   0   7   4 180.933 18.1200   6
   0   7   4 186.296 18.4651   4
   0   7   4 171.554 19.3003   1
   0   7   4 177.139 18.4258   2
   0   7   4 152.552 19.6735   5
  -1  -7  -4 71.2892 9.36795   1
  -1  -7  -4 86.8706 9.21765   5
   1   7   4 36.7070 11.5660   5
   1   7   4 70.1946 7.83959   3
   1   7   4 70.6839 7.95264   4
   1   7   4 65.6618 7.33085   3
   1   7   4 70.8291 8.61539   1
   1   7   4 72.5680 7.63281   6
   2   7   4 1094.46 112.035   6
   2   7   4 1073.04 113.245   5
   2   7   4 1102.59 112.085   3
   2   7   4 1104.40 112.241   4
   2   7   4 1175.88 112.359   2
   3   7   4 1039.41 104.882   3
   3   7   4 1040.95 104.929   2
   3   7   4 1063.20 106.074   5
   3   7   4 1001.45 104.862   4
   4   7   4 129.608 16.4809   3
   4   7   4 130.971 13.7399   2
   4   7   4 132.992 13.9960   4
   4   7   4 105.235 15.2916   4
   4   7   4 124.950 13.8647   2
   5   7   4 55.8986 9.78737   5
   5   7   4 53.9409 7.26956   2
   6   7   4 83.1829 15.0091   4
   6   7   4 100.079 15.4651   5
   5  -8  -4 172.753 27.9313   5
   5  -8  -4 236.202 23.0261   4
   4  -8  -4 169.609 17.8090   4
   4  -8  -4 127.603 21.3661   5
  -4   8   4 171.791 17.5105   2
   3  -8  -4 4.28360 2.77195   4
   3  -8  -4 -6.1175 8.72368   1
   3  -8  -4 0.76821 2.49906   3
   3  -8  -4 3.01137 5.34606   5
  -3   8   4 -2.3012 4.35821   5
  -3   8   4 -1.5532 7.42700   1
  -3   8   4 1.72855 2.47098   2
   2  -8  -4 11.7635 3.00566   6
   2  -8  -4 32.7789 7.25279   1
   2  -8  -4 14.2934 5.68752   5
   2  -8  -4 25.2249 4.85963   4
  -2   8   4 35.8573 4.65002   2
  -2   8   4 19.9710 4.03014   4
  -2   8   4 22.4992 6.75202   1
  -2   8   4 25.6928 6.59490   5
   1  -8  -4 4.03594 1.79827   6
   1  -8  -4 10.6341 5.01693   1
   1  -8  -4 6.49037 4.06620   5
   1  -8  -4 3.02625 2.00406   4
  -1   8   4 1.90954 1.90071   2
  -1   8   4 2.58931 2.09294   4
  -1   8   4 -2.2438 4.20312   1
  -1   8   4 2.91345 2.85013   5
   0  -8  -4 1032.07 104.620   4
   0  -8  -4 1115.88 105.349   5
   0  -8  -4 1034.19 105.370   1
   0  -8  -4 1026.38 104.387   6
   0   8   4 1056.89 105.339   1
   0   8   4 1033.38 104.576   4
   0   8   4 1063.24 104.620   2
   0   8   4 1034.01 104.291   6
   0   8   4 897.722 105.807   5
  -1  -8  -4 2396.13 219.326   1
   1   8   4 2137.23 218.346   3
   1   8   4 2375.35 218.905   2
   1   8   4 1440.07 218.473   3
   1   8   4 2263.30 218.522   6
   1   8   4 2318.63 219.066   1
   1   8   4 2256.86 218.767   4
   2   8   4 1164.37 109.988   3
   2   8   4 1052.96 109.864   4
   2   8   4 1132.65 110.045   2
   2   8   4 1122.74 109.872   3
   2   8   4 1079.84 109.688   6
   2   8   4 961.146 110.973   5
   3   8   4 79.9861 9.87900   4
   3   8   4 85.3244 9.84107   3
   3   8   4 85.1609 10.1460   2
   3   8   4 82.0124 9.75104   6
   3   8   4 97.2054 13.0085   5
   4   8   4 1.65327 4.23972   4
   4   8   4 -1.8858 3.00258   2
   4   8   4 5.06106 2.60776   2
   5   8   4 9.05459 4.71393   5
   5   8   4 8.54861 5.73194   4
   5   8   4 8.44535 3.35053   2
   5  -9  -4 122.920 14.3143   4
   5  -9  -4 82.4252 21.9233   5
   4  -9  -4 678.578 62.2279   4
   4  -9  -4 453.536 64.4773   5
  -4   9   4 670.126 61.8481   2
   3  -9  -4 420.292 64.4044   5
   3  -9  -4 690.778 62.8565   4
  -3   9   4 595.730 66.0696   1
  -3   9   4 629.332 62.6388   2
  -3   9   4 719.787 62.7783   2
   2  -9  -4 99.5142 11.2261   4
   2  -9  -4 45.3084 13.0343   5
   2  -9  -4 75.0039 13.6303   1
  -2   9   4 88.3032 15.8417   1
  -2   9   4 97.2615 11.9305   5
  -2   9   4 102.433 10.6381   2
  -2   9   4 99.0464 10.5571   2
   1  -9  -4 1.94747 2.11908   6
   1  -9  -4 5.76023 2.68018   4
   1  -9  -4 7.92738 4.44496   5
   1  -9  -4 0.37765 5.74442   1
  -1   9   4 4.77861 2.48492   2
  -1   9   4 2.73485 3.03594   5
  -1   9   4 -2.1213 5.44904   1
  -1   9   4 9.06467 2.63980   2
   0  -9  -4 2.55120 5.21798   1
   0  -9  -4 16.4463 3.21209   4
   0  -9  -4 11.2839 3.70778   5
   0   9   4 9.92388 4.94698   1
   0   9   4 12.0174 2.24527   6
   0   9   4 12.7924 3.91683   5
   0   9   4 10.2719 2.85408   2
   0   9   4 6.97299 2.60782   4
  -1  -9  -4 156.913 18.0587   1
   1   9   4 164.104 16.0449   6
   1   9   4 162.270 17.4203   1
   1   9   4 117.777 16.0264   3
   1   9   4 158.918 16.3587   4
   1   9   4 170.515 16.6318   2
   1   9   4 126.411 17.9151   5
   1   9   4 160.174 15.5893   3
   2   9   4 1038.85 102.537   3
   2   9   4 1060.65 102.539   3
   2   9   4 1049.67 102.441   4
   2   9   4 1091.63 102.257   6
   2   9   4 811.030 103.500   5
   3   9   4 683.098 80.4824   5
   3   9   4 865.215 79.3455   3
   3   9   4 757.152 78.8687   3
   3   9   4 799.379 78.8085   6
   4   9   4 144.762 15.3282   2
   4   9   4 106.824 16.5131   6
   5   9   4 3.40992 3.43683   2
   5   9   4 4.64734 5.13847   3
   5   9   4 6.08930 6.14148   4
   5   9   4 3.59244 4.79434   5
   4 -10  -4 11.4968 9.77781   5
   4 -10  -4 33.1636 5.94188   4
   3 -10  -4 43.7622 7.44310   4
   3 -10  -4 14.4508 9.79258   5
   2 -10  -4 91.4643 17.9625   5
   2 -10  -4 141.831 16.0742   4
  -2  10   4 161.818 15.9416   2
  -2  10   4 155.350 16.7826   5
   1 -10  -4 12.3336 4.82366   5
   1 -10  -4 23.6312 4.66400   4
  -1  10   4 15.1078 3.49795   2
  -1  10   4 11.8759 3.83494   5
   0 -10  -4 228.952 25.6554   4
   0 -10  -4 263.002 25.8075   5
   0  10   4 237.305 25.9003   5
   0  10   4 227.832 24.8913   6
   1  10   4 830.868 77.1251   6
   1  10   4 740.928 76.9734   3
   1  10   4 677.351 78.0988   5
   1  10   4 790.707 76.7265   3
   2  10   4 330.738 28.8735   6
   2  10   4 332.117 28.6953   3
   2  10   4 195.152 30.6293   5
   2  10   4 245.990 29.1225   3
   3  10   4 32.8751 7.19553   3
   3  10   4 36.0367 5.99056   3
   3  10   4 16.0721 8.09878   5
   4  10   4 27.7476 5.15786   6
   4  10   4 32.3345 8.00631   5
   4  10   4 33.8936 6.70439   2
   4  10   4 39.0111 8.77145   3
   5  10   4 4.80188 4.70349   6
   5  10   4 7.93728 4.14994   2
   5  10   4 9.74305 7.16135   4
   5  10   4 4.05738 5.65315   5
   5  10   4 3.06919 5.67822   3
   4 -11  -4 160.293 27.0975   5
   3 -11  -4 351.362 37.5530   4
  -3  11   4 351.353 37.0290   2
   2 -11  -4 153.680 20.9469   5
   2 -11  -4 170.200 19.3654   4
  -2  11   4 177.387 18.7226   2
   1 -11  -4 1.02574 3.46423   4
   1 -11  -4 -5.0723 3.98623   5
  -1  11   4 3.42371 3.55996   5
  -1  11   4 1.05934 2.98493   2
   0 -11  -4 15.3398 4.17211   4
   0  11   4 9.63160 3.71022   5
   0  11   4 10.5034 3.56491   2
   0  11   4 7.05595 2.81205   6
   1  11   4 104.392 13.6473   5
   1  11   4 105.272 12.0945   6
   2  11   4 623.814 53.3965   6
   2  11   4 510.694 56.4674   5
   2  11   4 431.921 53.5428   3
   3  11   4 452.911 41.6510   6
   3  11   4 353.987 42.1119   3
   4  11   4 107.663 16.3341   3
   4  11   4 129.409 15.0316   2
   4  11   4 135.582 14.9051   6
   4  11   4 122.912 16.1409   5
   3 -12  -4 58.2354 13.1181   4
  -3  12   4 82.9623 11.6248   2
   2 -12  -4 192.941 21.6590   4
   2 -12  -4 181.793 26.7835   5
  -2  12   4 180.206 20.8401   2
   1 -12  -4 75.0041 11.7892   4
   1 -12  -4 85.0943 11.5888   5
  -1  12   4 76.9254 10.6982   2
   0 -12  -4 43.1908 8.65027   4
   0  12   4 35.7914 6.60742   6
   0  12   4 36.1105 7.26466   2
   1  12   4 202.541 21.7591   6
   2  12   4 64.3857 13.7823   3
   2  12   4 87.5681 10.2833   6
   3  12   4 6.76700 3.92141   6
   3  12   4 -1.0972 5.87668   3
   4  12   4 24.7932 6.13121   6
   4  12   4 38.0668 7.22049   2
   2 -13  -4 38.4467 10.2669   4
  -2  13   4 41.9798 9.94839   2
   1 -13  -4 -3.4451 5.21310   4
  -1  13   4 2.78767 4.43555   2
   0 -13  -4 0.70323 5.42008   4
   0  13   4 -3.8613 3.59135   6
   0  13   4 1.33442 4.15764   2
   1  13   4 36.1595 5.96225   6
   1  13   4 42.5964 8.59842   2
   2  13   4 259.428 27.2739   2
   2  13   4 224.095 26.2048   6
   3  13   4 274.620 32.1888   2
   3  13   4 283.421 30.2428   6
   0  14   4 1.10693 5.95475   6
   1  14   4 9.27248 5.23238   6
   1  10  -5 11.6922 7.58338   3
   1  10  -5 10.1435 6.63072   6
  -1 -10   5 4.69359 10.1734   4
   0  10  -5 16.3928 6.66065   6
   0  10  -5 14.5850 7.99612   3
   0 -10   5 10.0645 6.85643   4
  -1  10  -5 125.491 17.5614   6
  -1  10  -5 126.376 20.4184   3
   1 -10   5 115.874 17.4910   4
  -2  10  -5 176.394 22.5912   3
  -2  10  -5 118.610 19.6938   6
   2 -10   5 129.850 20.2033   4
   2   9  -5 34.0155 6.29592   6
   2   9  -5 16.6693 6.64536   3
   1   9  -5 2.91353 4.95695   6
   1   9  -5 2.39024 5.88025   3
   0   9  -5 -4.6787 4.66048   6
   0   9  -5 -4.7013 5.98576   3
   0  -9   5 1.36808 5.15228   4
  -1   9  -5 27.4126 6.30863   6
  -1   9  -5 18.1386 7.54858   3
   1  -9   5 24.0785 6.54210   4
  -2   9  -5 139.465 18.5349   6
  -2   9  -5 170.025 20.9625   3
   2  -9   5 133.835 19.1177   4
  -3   9  -5 571.284 55.5937   3
   3  -9   5 461.559 55.0629   4
   3   8  -5 10.3169 5.83572   3
   2   8  -5 176.323 24.5698   3
   2   8  -5 224.857 23.7282   6
  -2  -8   5 236.957 25.4209   2
   1   8  -5 102.298 13.6161   6
   1   8  -5 116.973 15.3996   3
  -1  -8   5 96.4292 13.5131   4
  -1  -8   5 107.739 14.6669   2
   0   8  -5 2.56558 5.14692   3
   0   8  -5 1.69234 3.87283   6
   0  -8   5 7.34903 4.85050   2
   0  -8   5 7.77720 4.66508   4
  -1   8  -5 152.493 19.2400   3
  -1   8  -5 143.396 17.1002   6
   1  -8   5 135.694 17.3764   4
  -2   8  -5 98.6523 15.4006   3
  -2   8  -5 102.560 13.2508   6
   2  -8   5 88.7159 13.7675   4
  -3   8  -5 2.80304 5.70076   3
   3  -8   5 -1.7331 5.81487   4
  -4   8  -5 35.8059 7.87731   3
   4  -8   5 21.3313 9.52015   4
   4   7  -5 104.179 16.6215   3
   3   7  -5 218.447 25.4263   3
   2   7  -5 61.3710 12.2561   3
  -2  -7   5 100.439 12.7561   2
   1   7  -5 0.77819 4.44271   3
   1   7  -5 2.10567 3.51273   6
   1   7  -5 2.58440 2.65525   4
  -1  -7   5 -2.9256 3.45338   4
  -1  -7   5 -0.5343 4.33603   2
   0   7  -5 2.07234 4.52282   3
   0   7  -5 1.90599 2.75926   4
   0   7  -5 -2.3592 3.55944   6
   0  -7   5 -3.2555 3.39075   4
   0  -7   5 -0.0952 3.94078   2
  -1   7  -5 31.9325 6.75372   3
   1  -7   5 25.4631 5.68194   4
  -2   7  -5 626.336 62.6550   6
   2  -7   5 593.479 63.1063   4
  -3   7  -5 1047.21 97.5892   3
   3  -7   5 848.494 97.1237   4
  -4   7  -5 393.252 38.7045   3
   4  -7   5 315.228 38.5060   4
   4   6  -5 2.18273 4.83639   3
   4   6  -5 -0.2823 4.75967   5
  -4  -6   5 0.95324 6.49747   2
   3   6  -5 116.652 15.1076   5
   3   6  -5 110.869 16.3795   3
  -3  -6   5 172.164 17.4546   2
   2   6  -5 574.530 53.7977   4
   2   6  -5 391.779 54.9770   3
  -2  -6   5 626.365 55.7303   2
   1   6  -5 519.112 53.5061   6
   1   6  -5 493.397 54.2416   3
   1   6  -5 533.693 53.0272   4
  -1  -6   5 499.273 53.2752   4
  -1  -6   5 558.336 54.5046   2
   0   6  -5 27.4554 4.34783   4
   0   6  -5 9.41264 3.38179   6
   0   6  -5 17.0228 4.64308   3
   0  -6   5 13.3842 4.21437   2
   0  -6   5 -4.0479 8.71566   1
   0  -6   5 5.19796 3.40425   4
   0  -6   5 2.59969 4.94642   3
  -1   6  -5 58.0329 7.58409   4
  -1   6  -5 52.8167 9.81706   3
  -1   6  -5 49.6574 7.74118   2
  -1   6  -5 51.5583 7.95373   6
   1  -6   5 42.7499 8.05274   3
   1  -6   5 45.8769 11.2239   1
   1  -6   5 68.4105 8.50827   2
   1  -6   5 52.3153 8.34859   4
  -2   6  -5 62.1906 8.71626   6
  -2   6  -5 49.8155 8.45420   2
  -2   6  -5 66.2937 10.6068   3
   2  -6   5 46.7789 12.3614   1
   2  -6   5 55.7155 9.74370   4
   2  -6   5 69.1520 8.89922   2
  -3   6  -5 54.0093 9.48532   3
  -3   6  -5 33.3601 7.58636   2
   3  -6   5 40.4184 12.7439   1
   3  -6   5 26.3833 6.44482   4
   3  -6   5 39.7312 7.83019   5
  -4   6  -5 282.596 26.3793   3
   4  -6   5 215.801 26.4888   5
   4  -6   5 190.599 26.3072   4
  -5   6  -5 171.844 19.3916   3
   5  -6   5 142.081 20.2473   4
   5  -6   5 127.727 24.3721   5
   5   5  -5 17.2409 6.69970   5
   5   5  -5 8.59339 9.69666   3
   4   5  -5 199.721 27.4235   3
   4   5  -5 243.493 27.2360   5
  -4  -5   5 295.841 27.8911   2
   3   5  -5 333.925 45.5517   3
   3   5  -5 426.616 45.3457   5
  -3  -5   5 562.236 46.8141   2
   2   5  -5 113.720 14.7738   5
   2   5  -5 103.801 15.8922   3
   2   5  -5 152.747 24.0774   1
   2   5  -5 146.951 13.9646   4
  -2  -5   5 173.765 16.8316   2
   1   5  -5 31.8990 6.31115   2
   1   5  -5 30.9486 7.88918   3
  -1  -5   5 40.6339 5.78150   4
  -1  -5   5 30.4668 10.4957   1
  -1  -5   5 21.6798 6.79244   3
  -1  -5   5 56.8345 7.98611   2
   0   5  -5 42.1641 7.00426   6
   0   5  -5 51.8906 8.75674   3
   0   5  -5 51.0795 6.34951   4
   0   5  -5 52.0812 6.99283   2
   0  -5   5 39.6865 9.63776   1
   0  -5   5 31.0112 10.3191   1
   0  -5   5 48.4373 7.00595   4
   0  -5   5 56.6846 7.93613   2
   0  -5   5 41.6051 9.65412   3
  -1   5  -5 53.2347 7.48816   2
  -1   5  -5 46.8024 9.17557   3
  -1   5  -5 52.2423 7.49820   6
  -1   5  -5 64.6878 7.35076   4
   1  -5   5 57.5528 7.95762   4
   1  -5   5 46.6537 9.26674   3
   1  -5   5 55.8177 10.5903   1
   1  -5   5 70.8358 8.16249   2
   1  -5   5 47.3765 10.3410   1
  -2   5  -5 933.537 103.549   2
  -2   5  -5 1008.23 103.708   4
  -2   5  -5 1112.15 104.353   3
  -2   5  -5 1078.25 103.444   6
   2  -5   5 1037.31 103.902   4
   2  -5   5 1194.67 103.813   2
   2  -5   5 629.301 103.638   3
   2  -5   5 1079.12 106.324   1
   2  -5   5 992.953 103.263   5
   2  -5   5 1132.30 106.486   1
   2  -5   5 1054.77 103.452   5
  -3   5  -5 1074.77 125.351   2
  -3   5  -5 1412.66 126.158   3
   3  -5   5 1241.83 128.337   1
   3  -5   5 1075.67 126.641   4
   3  -5   5 1229.42 128.433   1
   3  -5   5 1236.00 125.884   5
   3  -5   5 1385.88 125.627   5
  -4   5  -5 777.205 70.1689   3
   4  -5   5 609.887 69.9574   4
   4  -5   5 645.052 70.4685   5
  -5   5  -5 7.12030 4.71099   3
   5  -5   5 13.3598 6.18507   4
   5  -5   5 2.12059 6.69511   5
   5   4  -5 8.77922 5.64007   3
   5   4  -5 5.06226 5.42916   5
  -5  -4   5 7.73396 6.24556   2
   4   4  -5 2.48547 3.65902   3
   4   4  -5 5.15234 4.13609   5
  -4  -4   5 5.58584 7.30354   2
   3   4  -5 423.586 45.7003   5
   3   4  -5 392.593 46.3735   3
  -3  -4   5 502.771 46.3192   2
   2   4  -5 1000.69 117.461   2
   2   4  -5 1105.43 117.479   5
   2   4  -5 918.250 117.651   3
   2   4  -5 1346.65 120.467   1
  -2  -4   5 1406.18 118.191   2
  -2  -4   5 1205.04 120.618   1
   1   4  -5 1747.11 176.195   5
   1   4  -5 1875.88 179.584   1
   1   4  -5 1586.36 176.357   2
   1   4  -5 1827.47 175.919   4
   1   4  -5 1353.28 176.567   3
  -1  -4   5 1851.72 176.068   4
  -1  -4   5 1783.99 177.315   3
  -1  -4   5 1945.79 176.855   2
   0   4  -5 164.582 16.1163   4
   0   4  -5 138.409 16.4359   2
   0   4  -5 142.679 16.3980   6
   0   4  -5 161.247 17.5653   3
   0  -4   5 153.330 17.8864   3
   0  -4   5 171.407 17.0448   2
   0  -4   5 111.666 20.2909   1
   0  -4   5 160.763 16.4356   4
  -1   4  -5 6.09572 3.16785   3
  -1   4  -5 8.75791 2.49614   2
  -1   4  -5 17.1318 2.64413   6
  -1   4  -5 9.70163 2.34617   4
   1  -4   5 3.82990 2.56524   4
   1  -4   5 7.44700 5.91906   1
   1  -4   5 15.7051 6.10136   1
   1  -4   5 7.38605 3.21557   3
   1  -4   5 12.8900 3.21585   2
  -2   4  -5 12.0798 3.62756   3
  -2   4  -5 3.30207 2.40622   4
  -2   4  -5 1.34102 2.30507   2
  -2   4  -5 8.56511 2.26631   6
   2  -4   5 -0.9883 5.63107   1
   2  -4   5 2.73626 2.08048   5
   2  -4   5 1.79091 2.12880   5
   2  -4   5 2.97769 2.51285   2
   2  -4   5 3.28813 3.00392   3
   2  -4   5 -5.3054 6.37880   1
   2  -4   5 1.07375 2.78298   4
  -3   4  -5 241.049 23.7484   3
  -3   4  -5 187.441 22.8446   2
   3  -4   5 204.183 22.2881   6
   3  -4   5 237.348 27.7949   1
   3  -4   5 233.183 23.6274   5
   3  -4   5 178.635 23.5157   3
   3  -4   5 217.648 23.6777   4
   3  -4   5 235.228 23.2062   5
   3  -4   5 221.510 27.3655   1
  -4   4  -5 590.508 66.7030   2
  -4   4  -5 741.888 67.6935   3
   4  -4   5 612.828 66.4990   6
   4  -4   5 686.914 68.2543   5
   4  -4   5 650.397 71.0239   1
   4  -4   5 652.174 67.7003   4
  -5   4  -5 529.405 50.8148   3
   5  -4   5 477.009 52.1478   5
   5  -4   5 441.343 51.1483   4
  -6   4  -5 51.8299 11.0603   3
   6  -4   5 31.1265 10.1936   5
   6  -4   5 46.2465 13.1281   4
   5   3  -5 1.75543 4.84486   3
   5   3  -5 3.36671 5.00701   5
  -5  -3   5 10.0599 8.40395   2
   4   3  -5 265.806 30.4950   5
   4   3  -5 271.247 30.4632   3
  -4  -3   5 308.316 30.4579   2
   3   3  -5 378.646 42.2541   3
   3   3  -5 411.150 46.4733   1
   3   3  -5 333.118 41.8969   2
   3   3  -5 414.184 42.2677   5
  -3  -3   5 469.378 42.5609   2
  -3  -3   5 437.209 48.2422   1
   2   3  -5 49.3124 7.23701   2
   2   3  -5 43.3726 10.7869   1
   2   3  -5 42.2386 7.21334   5
   2   3  -5 39.5044 7.74905   3
  -2  -3   5 19.5887 9.95659   1
  -2  -3   5 63.7933 11.9592   5
  -2  -3   5 58.1517 8.57682   2
   1   3  -5 173.650 23.0155   5
   1   3  -5 254.218 28.0146   1
   1   3  -5 197.010 23.1451   2
   1   3  -5 233.326 22.5527   4
   1   3  -5 153.128 23.3891   3
  -1  -3   5 238.297 22.7166   4
  -1  -3   5 256.348 23.7812   2
  -1  -3   5 234.116 24.6445   3
  -1  -3   5 262.038 23.3381   5
   0   3  -5 390.436 40.2199   1
   0   3  -5 361.315 36.7962   4
   0   3  -5 355.656 37.7410   3
   0   3  -5 328.490 37.0722   2
   0  -3   5 372.280 36.9572   5
   0  -3   5 365.021 37.8767   3
   0  -3   5 394.163 37.0068   4
   0  -3   5 378.085 37.4533   2
   0  -3   5 297.148 39.3173   1
  -1   3  -5 17.5485 3.49131   4
  -1   3  -5 20.5377 3.43934   6
  -1   3  -5 20.8907 5.12735   3
  -1   3  -5 14.5010 2.76403   2
   1  -3   5 20.5792 4.14718   2
   1  -3   5 13.5658 2.82259   4
   1  -3   5 26.4640 6.57272   1
   1  -3   5 10.1966 2.99872   3
   1  -3   5 19.7642 6.15440   1
   1  -3   5 11.8509 3.30033   5
  -2   3  -5 890.467 85.2479   3
  -2   3  -5 825.540 84.8507   4
  -2   3  -5 868.089 84.4932   6
  -2   3  -5 737.599 84.7025   2
   2  -3   5 783.899 84.9358   4
   2  -3   5 862.138 86.6871   1
   2  -3   5 689.653 84.8786   3
   2  -3   5 888.529 86.7347   1
   2  -3   5 907.309 84.8398   5
   2  -3   5 907.586 84.8221   2
  -3   3  -5 2056.53 197.077   3
  -3   3  -5 1837.88 196.645   2
  -3   3  -5 1812.78 196.940   4
   3  -3   5 1885.76 196.261   6
   3  -3   5 2106.05 197.032   5
   3  -3   5 1826.09 197.006   4
   3  -3   5 2009.76 198.742   1
   3  -3   5 2012.50 197.290   5
   3  -3   5 1990.97 198.579   1
   3  -3   5 2045.44 196.475   2
   3  -3   5 1842.51 196.940   3
  -4   3  -5 562.750 51.6901   3
  -4   3  -5 430.262 48.9443   2
   4  -3   5 447.741 51.8323   4
   4  -3   5 464.237 48.9322   6
   4  -3   5 508.374 50.8190   5
   4  -3   5 482.206 53.2538   1
  -5   3  -5 0.12776 3.40955   3
   5  -3   5 -0.6438 5.00294   5
   5  -3   5 1.19346 4.95286   4
  -6   3  -5 15.4677 5.41655   3
   6  -3   5 21.1327 8.58964   5
   6  -3   5 16.8285 7.36824   4
   5   2  -5 8.72952 4.49337   3
   5   2  -5 6.30285 4.88763   5
  -5  -2   5 7.83468 5.14507   2
   4   2  -5 36.6729 8.38154   5
   4   2  -5 51.6793 9.47376   2
   4   2  -5 43.2004 8.28680   3
  -4  -2   5 49.1874 8.23357   2
   3   2  -5 450.065 50.4950   2
   3   2  -5 484.770 50.8178   5
   3   2  -5 482.932 50.6907   3
   3   2  -5 376.626 53.3238   1
  -3  -2   5 561.921 51.8234   5
  -3  -2   5 552.351 50.8660   2
  -3  -2   5 502.808 52.8564   1
   2   2  -5 2952.72 307.621   1
   2   2  -5 2650.51 305.818   2
   2   2  -5 2713.22 305.982   3
   2   2  -5 3112.22 306.137   5
  -2  -2   5 3457.46 307.329   5
  -2  -2   5 3311.45 306.212   2
   1   2  -5 2727.72 306.167   2
   1   2  -5 2171.82 306.201   3
   1   2  -5 3392.35 308.329   1
   1   2  -5 2535.19 306.204   5
   1   2  -5 3114.53 305.741   4
  -1  -2   5 3408.22 305.935   4
  -1  -2   5 3100.62 306.797   3
  -1  -2   5 3687.66 306.603   5
  -1  -2   5 3206.49 306.481   2
   0   2  -5 563.352 56.4167   1
   0   2  -5 468.143 53.9203   2
   0   2  -5 589.475 54.1926   5
   0   2  -5 512.541 54.3959   3
   0   2  -5 530.198 53.6731   4
   0  -2   5 554.303 53.7939   4
   0  -2   5 516.841 54.4615   3
   0  -2   5 450.860 55.8519   1
   0  -2   5 555.396 54.1330   5
   0  -2   5 547.049 54.2113   2
  -1   2  -5 1.19965 1.23166   6
  -1   2  -5 2.92350 2.08459   3
  -1   2  -5 0.84864 2.63059   2
   1  -2   5 1.27998 1.89024   3
   1  -2   5 2.42626 3.99886   1
   1  -2   5 0.35691 1.61682   4
   1  -2   5 1.37748 1.57190   5
   1  -2   5 -0.2512 1.78070   2
  -2   2  -5 168.869 17.7300   3
  -2   2  -5 171.262 16.9315   6
  -2   2  -5 145.032 17.3032   2
  -2   2  -5 162.367 17.4961   4
   2  -2   5 160.685 19.6871   1
   2  -2   5 186.788 19.8053   1
   2  -2   5 146.935 17.5219   3
   2  -2   5 172.770 17.3649   2
   2  -2   5 148.165 17.5668   4
   2  -2   5 180.724 17.5136   5
  -3   2  -5 243.953 25.7463   3
  -3   2  -5 233.231 25.8465   4
  -3   2  -5 234.218 25.2876   2
   3  -2   5 258.464 26.1982   5
   3  -2   5 270.225 25.8930   5
   3  -2   5 242.624 27.7447   1
   3  -2   5 235.793 25.7592   3
   3  -2   5 254.422 28.3633   1
   3  -2   5 217.359 25.8360   4
   3  -2   5 235.073 24.8256   6
   3  -2   5 251.144 25.0578   2
  -4   2  -5 1779.92 169.603   3
   4  -2   5 1734.54 170.320   5
   4  -2   5 1664.87 171.468   1
   4  -2   5 1612.97 169.717   4
   4  -2   5 1652.19 168.741   6
   4  -2   5 1594.30 170.907   1
  -5   2  -5 1039.20 98.6615   3
   5  -2   5 881.512 97.6203   6
   5  -2   5 1011.52 99.9738   5
   5  -2   5 928.816 98.9129   4
  -6   2  -5 165.321 19.0991   3
   6  -2   5 162.442 21.7379   5
   6  -2   5 144.508 20.0095   4
   6   1  -5 104.619 18.3500   5
   6   1  -5 112.090 21.5814   3
   5   1  -5 -0.2716 4.70717   5
   5   1  -5 -0.9743 4.15683   3
  -5  -1   5 1.49230 4.29449   2
   4   1  -5 216.271 25.0663   5
   4   1  -5 234.561 26.7492   3
   4   1  -5 205.528 24.8460   2
  -4  -1   5 249.997 24.5686   2
   3   1  -5 57.1620 12.6014   1
   3   1  -5 85.9088 11.0202   5
   3   1  -5 98.7185 11.0500   2
   3   1  -5 81.0436 10.7555   3
  -3  -1   5 62.6734 14.5445   1
  -3  -1   5 92.2636 10.9050   2
  -3  -1   5 89.5257 12.7603   5
   2   1  -5 2.87178 2.69216   3
   2   1  -5 5.70725 3.09600   5
   2   1  -5 24.7250 7.43077   1
   2   1  -5 14.9100 3.35507   2
  -2  -1   5 6.53532 3.28277   2
  -2  -1   5 7.42200 3.91492   5
   1   1  -5 717.435 93.3820   3
   1   1  -5 842.897 93.3654   2
   1   1  -5 849.014 93.5430   5
   1   1  -5 915.016 95.1993   1
  -1  -1   5 1108.55 94.0002   5
  -1  -1   5 974.992 95.7474   1
  -1  -1   5 1030.93 92.8776   4
  -1  -1   5 915.316 93.5581   2
  -1  -1   5 940.388 93.8934   3
   0   1  -5 1529.73 151.359   4
   0   1  -5 1353.84 151.678   2
   0   1  -5 1420.76 151.876   3
   0   1  -5 1622.77 151.973   5
   0   1  -5 1623.13 153.657   1
   0  -1   5 1622.67 151.926   5
   0  -1   5 1587.49 153.553   1
   0  -1   5 1259.34 152.237   3
   0  -1   5 1450.40 151.727   2
   0  -1   5 1546.02 151.390   4
  -1   1  -5 115.870 14.1894   1
  -1   1  -5 83.6388 10.3529   2
  -1   1  -5 96.7240 9.88137   6
  -1   1  -5 99.9804 10.8700   3
  -1   1  -5 97.2548 10.2863   4
   1  -1   5 90.0550 10.3613   4
   1  -1   5 93.8541 10.4561   5
   1  -1   5 92.6857 10.5125   2
   1  -1   5 91.5456 12.7962   1
  -2   1  -5 597.750 61.4972   4
  -2   1  -5 648.130 61.6131   3
  -2   1  -5 585.464 61.3631   2
   2  -1   5 606.391 61.3657   2
   2  -1   5 583.074 62.7478   1
   2  -1   5 575.836 60.9080   6
   2  -1   5 599.909 61.4699   3
   2  -1   5 548.017 61.4873   4
   2  -1   5 665.121 61.6205   5
   2  -1   5 626.909 62.8242   1
  -3   1  -5 1319.26 140.722   4
  -3   1  -5 1417.47 140.648   3
  -3   1  -5 1357.60 140.211   2
   3  -1   5 1432.13 142.031   1
   3  -1   5 1520.04 140.929   5
   3  -1   5 1284.24 140.730   4
   3  -1   5 1386.61 140.601   3
   3  -1   5 1337.85 139.974   6
   3  -1   5 1455.40 140.174   2
   3  -1   5 1381.56 141.705   1
  -4   1  -5 174.229 18.9038   3
  -4   1  -5 167.553 19.9391   4
   4  -1   5 141.401 20.8447   1
   4  -1   5 178.562 19.9458   5
   4  -1   5 174.911 22.7430   1
   4  -1   5 171.282 19.5497   4
   4  -1   5 167.042 17.6709   6
   4  -1   5 190.498 21.0523   3
  -5   1  -5 23.5323 4.66563   3
   5  -1   5 20.9854 6.23981   5
   5  -1   5 17.6317 3.15832   6
   5  -1   5 16.8668 5.64280   4
  -6   1  -5 80.3119 11.1641   3
   6  -1   5 58.5130 12.4462   4
   6  -1   5 64.5532 14.2480   5
   6   0  -5 -2.7529 5.88029   3
   6   0  -5 -0.7933 7.21790   5
   5   0  -5 19.1883 6.20028   5
   5   0  -5 23.3075 5.42945   3
  -5   0   5 24.7823 5.14467   2
   4   0  -5 18.7179 4.07014   3
   4   0  -5 12.1276 4.59342   2
   4   0  -5 13.8276 4.43331   5
  -4   0   5 16.8695 4.32559   2
   3   0  -5 806.407 81.1549   3
   3   0  -5 785.781 81.5902   5
   3   0  -5 763.637 82.9009   1
   3   0  -5 764.948 81.1245   2
  -3   0   5 892.566 82.4264   5
  -3   0   5 762.008 81.1392   2
   2   0  -5 4402.40 465.490   5
   2   0  -5 4532.98 466.323   1
   2   0  -5 4461.92 465.196   2
   2   0  -5 4390.25 465.169   3
  -2   0   5 5182.48 465.997   5
  -2   0   5 5090.58 466.691   1
  -2   0   5 4261.95 465.198   2
   1   0  -5 3436.12 354.457   2
   1   0  -5 3146.22 354.536   5
   1   0  -5 3362.43 355.552   1
   1   0  -5 2762.61 354.244   3
  -1   0   5 3366.79 354.366   2
  -1   0   5 3826.65 356.088   1
  -1   0   5 4118.87 354.849   3
  -1   0   5 4055.00 354.992   5
  -1   0   5 3574.45 353.825   4
   0   0  -5 670.141 64.2032   5
   0   0  -5 617.526 63.7409   2
   0   0  -5 659.198 65.7070   1
   0   0  -5 580.676 63.8722   3
   0   0   5 714.889 65.9319   1
   0   0   5 606.344 64.0614   5
   0   0   5 572.711 63.8756   3
   0   0   5 649.355 63.4415   4
   0   0   5 586.187 63.7168   2
  -1   0  -5 72.5025 7.79204   3
  -1   0  -5 67.4576 7.57192   2
  -1   0  -5 76.8760 8.23123   5
  -1   0  -5 63.7238 7.47751   4
  -1   0  -5 63.7224 11.1369   1
   1   0   5 55.3513 7.51722   3
   1   0   5 60.9402 7.57761   2
   1   0   5 63.4636 7.71163   5
   1   0   5 67.3431 7.56080   4
   1   0   5 61.9795 10.1196   1
  -2   0  -5 25.3924 3.91655   3
  -2   0  -5 25.8481 4.29487   4
  -2   0  -5 23.4951 3.67302   2
   2   0   5 22.4662 4.30426   4
   2   0   5 18.4954 4.85562   1
   2   0   5 23.0681 3.86068   2
   2   0   5 25.5544 5.06937   1
   2   0   5 26.0591 2.80118   6
   2   0   5 27.1100 4.17287   5
   2   0   5 27.0900 3.93636   3
  -3   0  -5 495.834 50.3824   3
  -3   0  -5 518.995 49.8736   2
  -3   0  -5 480.507 50.5869   4
   3   0   5 510.164 51.8319   1
   3   0   5 484.129 51.3451   1
   3   0   5 432.763 50.5432   4
   3   0   5 537.734 50.8014   5
   3   0   5 492.513 49.9730   2
   3   0   5 475.491 49.7123   6
   3   0   5 493.223 50.3529   3
  -4   0  -5 2372.12 240.923   4
  -4   0  -5 2429.36 240.640   3
   4   0   5 2314.72 241.508   1
   4   0   5 2527.15 241.458   5
   4   0   5 2219.18 240.831   4
   4   0   5 2374.73 239.914   6
   4   0   5 2440.32 242.039   1
   4   0   5 2379.32 240.609   3
  -5   0  -5 1376.89 133.629   3
   5   0   5 1259.10 134.417   4
   5   0   5 1379.21 134.774   5
   5   0   5 1243.66 132.667   6
  -6   0  -5 203.355 23.3125   3
   6   0   5 218.422 25.7225   5
   6   0   5 199.557 24.0431   4
   6  -1  -5 179.566 24.8340   5
   6  -1  -5 193.318 23.6139   3
   5  -1  -5 21.0592 6.16710   5
   5  -1  -5 12.4669 4.63939   3
  -5   1   5 17.8117 4.30366   2
   4  -1  -5 17.4646 3.87710   3
   4  -1  -5 16.5121 4.16748   2
   4  -1  -5 17.2628 4.84742   5
  -4   1   5 19.7736 4.25562   2
   3  -1  -5 24.9460 6.98846   1
   3  -1  -5 24.2636 6.19577   5
   3  -1  -5 23.1248 5.42330   3
   3  -1  -5 22.6040 5.39289   2
  -3   1   5 14.3937 5.28330   5
  -3   1   5 22.3272 5.39601   2
  -3   1   5 27.0249 6.99376   1
   2  -1  -5 80.1436 11.9263   1
   2  -1  -5 78.0573 9.39291   3
   2  -1  -5 72.5541 10.0870   5
  -2   1   5 77.4554 11.9894   1
  -2   1   5 73.7592 9.38404   2
  -2   1   5 91.1250 10.8867   5
   1  -1  -5 2263.46 236.040   2
   1  -1  -5 2512.27 237.206   1
   1  -1  -5 2122.27 236.367   5
   1  -1  -5 1951.22 235.933   3
  -1   1   5 2436.79 235.584   4
  -1   1   5 2041.74 235.946   2
  -1   1   5 2466.18 235.590   4
  -1   1   5 2557.29 236.780   5
  -1   1   5 2724.21 237.546   1
   0  -1  -5 3541.70 350.327   5
   0  -1  -5 3697.59 351.290   1
   0  -1  -5 3325.36 349.859   3
   0  -1  -5 3775.64 349.835   2
   0   1   5 3304.42 350.195   5
   0   1   5 3097.87 349.812   3
   0   1   5 3256.94 349.709   2
   0   1   5 3775.28 349.560   4
  -1  -1  -5 547.015 53.9024   2
  -1  -1  -5 604.936 54.6432   5
  -1  -1  -5 585.414 54.0186   3
  -1  -1  -5 561.674 55.8906   1
  -1  -1  -5 518.782 53.4236   6
   1   1   5 459.326 53.8127   2
   1   1   5 512.477 53.8676   3
   1   1   5 430.065 55.2003   1
   1   1   5 554.024 54.2545   5
   1   1   5 527.192 53.9065   4
  -2  -1  -5 74.2376 7.85675   2
  -2  -1  -5 79.6858 8.68553   4
  -2  -1  -5 73.8534 8.10050   3
   2   1   5 74.4583 10.3063   1
   2   1   5 68.4180 7.40163   6
   2   1   5 79.7752 8.60242   5
   2   1   5 74.3541 8.53398   4
   2   1   5 61.2969 7.92469   2
  -3  -1  -5 453.037 41.5544   2
  -3  -1  -5 418.991 42.3625   4
  -3  -1  -5 419.640 42.0491   3
   3   1   5 457.972 42.6111   5
   3   1   5 412.472 43.3471   1
   3   1   5 418.346 42.0227   3
   3   1   5 347.398 41.6785   2
   3   1   5 380.190 42.3253   4
   3   1   5 403.010 41.4113   6
   3   1   5 386.430 43.1937   1
  -4  -1  -5 31.5563 5.89882   3
   4   1   5 23.9791 7.36791   1
   4   1   5 42.7864 6.10920   3
   4   1   5 26.5875 6.23491   1
   4   1   5 27.5229 5.54041   4
  -5  -1  -5 176.696 19.1487   3
   5   1   5 159.447 17.7949   6
   5   1   5 168.714 20.7304   5
   5   1   5 189.255 22.7259   4
   6   1   5 246.859 28.5107   5
   6   1   5 231.952 27.2236   4
   6  -2  -5 6.37600 6.06883   3
   6  -2  -5 2.67043 7.51761   5
   5  -2  -5 70.4785 13.5301   5
   5  -2  -5 98.3209 12.2583   3
  -5   2   5 80.2791 10.3462   2
   4  -2  -5 -1.2788 2.44633   2
   4  -2  -5 -1.8899 2.64537   3
   4  -2  -5 2.78724 3.77784   5
  -4   2   5 0.65634 2.93155   2
   3  -2  -5 895.021 85.5338   3
   3  -2  -5 828.737 86.8873   1
   3  -2  -5 846.027 86.2909   5
   3  -2  -5 813.779 85.3937   3
   3  -2  -5 878.647 85.3862   2
  -3   2   5 884.045 86.8039   5
  -3   2   5 734.281 85.4180   2
  -3   2   5 863.163 87.0581   1
  -3   2   5 828.514 84.9294   4
   2  -2  -5 3203.68 336.834   5
   2  -2  -5 3412.45 336.234   3
   2  -2  -5 3350.64 336.301   2
   2  -2  -5 3513.93 337.331   1
  -2   2   5 2592.43 336.107   2
  -2   2   5 3308.75 335.850   4
  -2   2   5 3651.39 337.463   1
  -2   2   5 3664.54 337.280   5
   1  -2  -5 3945.37 348.691   1
   1  -2  -5 2935.54 347.996   5
   1  -2  -5 2911.34 347.459   3
   1  -2  -5 3724.48 347.605   2
  -1   2   5 3996.81 348.769   1
  -1   2   5 3026.05 347.476   2
  -1   2   5 3696.03 347.266   4
  -1   2   5 3376.23 348.319   5
   0  -2  -5 407.314 35.8052   2
   0  -2  -5 324.927 35.7888   3
   0  -2  -5 319.625 36.4615   5
   0  -2  -5 380.928 37.2643   1
   0   2   5 382.709 35.7388   2
   0   2   5 282.877 35.7668   3
   0   2   5 399.444 37.4025   1
   0   2   5 312.712 36.4450   5
  -1  -2  -5 4.09904 2.28112   5
  -1  -2  -5 6.87562 1.44379   2
  -1  -2  -5 19.6685 5.44139   1
  -1  -2  -5 4.59834 1.32264   3
   1   2   5 3.71902 1.44320   4
   1   2   5 3.87656 3.75246   1
   1   2   5 1.81012 1.18032   3
   1   2   5 12.2317 2.16562   2
   1   2   5 4.88578 2.03275   5
  -2  -2  -5 111.741 11.4136   3
  -2  -2  -5 114.904 11.2059   2
   2   2   5 100.128 11.7512   4
   2   2   5 112.635 11.4204   3
   2   2   5 90.3847 13.5865   1
   2   2   5 102.243 11.2421   2
  -3  -2  -5 772.897 75.5477   3
   3   2   5 712.189 76.5854   1
   3   2   5 684.267 75.1938   2
   3   2   5 738.041 76.0553   1
   3   2   5 695.824 75.8206   4
   3   2   5 829.413 76.1602   5
   3   2   5 771.950 75.5158   3
  -4  -2  -5 1772.31 168.914   3
   4   2   5 1707.51 169.368   1
   4   2   5 1694.96 169.992   1
   4   2   5 1683.14 168.829   3
   4   2   5 1488.41 169.133   4
  -5  -2  -5 1515.02 146.190   3
   5   2   5 1452.44 147.202   5
   5   2   5 1351.75 146.479   4
   6   2   5 190.365 23.0242   5
   6   2   5 173.703 21.8213   4
   6  -3  -5 267.454 34.4827   5
   6  -3  -5 285.316 31.3746   3
   5  -3  -5 76.3408 12.9090   5
   5  -3  -5 73.5517 8.05661   4
  -5   3   5 66.8038 9.31242   2
   4  -3  -5 3.51080 1.33500   4
   4  -3  -5 4.89133 5.92224   5
   4  -3  -5 5.94089 2.44580   2
   4  -3  -5 2.96860 2.75609   3
  -4   3   5 -0.8352 2.90624   2
  -4   3   5 -0.1984 2.56154   4
   3  -3  -5 13.3544 2.66761   2
   3  -3  -5 10.7889 2.13804   4
   3  -3  -5 7.65629 2.19505   3
   3  -3  -5 8.09139 3.60324   5
   3  -3  -5 4.78076 5.66152   1
  -3   3   5 7.10802 4.35714   5
  -3   3   5 8.68816 2.73921   2
  -3   3   5 4.96358 5.43065   1
  -3   3   5 5.43842 2.45490   4
   2  -3  -5 680.220 72.9897   5
   2  -3  -5 756.446 72.1754   3
   2  -3  -5 743.471 72.2060   2
   2  -3  -5 680.486 71.7558   4
   2  -3  -5 734.875 73.3757   1
  -2   3   5 695.415 71.9356   4
  -2   3   5 762.062 73.3946   5
  -2   3   5 623.060 72.0914   2
  -2   3   5 727.776 73.4324   1
   1  -3  -5 2890.31 261.953   2
   1  -3  -5 2186.69 262.506   5
   1  -3  -5 2199.43 261.790   3
   1  -3  -5 2910.12 262.965   1
  -1   3   5 2402.69 262.887   5
  -1   3   5 2793.57 261.756   4
  -1   3   5 2877.09 262.930   1
  -1   3   5 2537.97 261.897   2
   0  -3  -5 4221.38 431.834   5
   0   3   5 4242.13 431.811   5
   0   3   5 4375.57 431.012   3
  -1  -3  -5 1782.45 176.981   3
  -1  -3  -5 1920.12 177.079   2
  -1  -3  -5 1614.91 178.421   1
  -1  -3  -5 1775.67 177.883   5
   1   3   5 1667.25 177.620   5
   1   3   5 1748.60 176.988   3
   1   3   5 1759.06 178.114   1
   1   3   5 1774.78 177.061   2
  -2  -3  -5 81.7664 9.17449   3
   2   3   5 85.9189 9.10072   2
   2   3   5 85.1962 9.67403   4
   2   3   5 90.0593 9.21519   3
   2   3   5 91.7402 10.0624   5
   2   3   5 68.2377 11.9556   1
  -3  -3  -5 67.3866 7.43171   3
   3   3   5 52.3458 8.26460   4
   3   3   5 69.4256 8.46179   5
   3   3   5 63.9957 8.27668   1
   3   3   5 63.2654 7.41550   3
   3   3   5 49.6954 10.8327   1
   3   3   5 64.6477 6.98553   2
  -4  -3  -5 30.3289 5.05553   3
   4   3   5 24.9287 5.15062   3
   4   3   5 21.9026 3.55368   2
   4   3   5 20.2802 4.71303   1
   4   3   5 24.8480 6.85315   1
   4   3   5 25.3324 6.98591   5
   4   3   5 19.1029 4.85271   4
   4   3   5 19.5126 3.14409   2
   5   3   5 284.401 33.5959   4
   5   3   5 336.708 34.2937   5
   6   3   5 444.492 46.3602   5
   6   3   5 403.101 45.2520   4
   6  -4  -5 19.0165 6.78357   3
   6  -4  -5 16.4646 12.1669   5
   5  -4  -5 186.886 23.2904   5
   5  -4  -5 190.022 19.7147   4
   4  -4  -5 36.6054 9.47361   5
   4  -4  -5 37.0829 4.61549   4
   4  -4  -5 29.8123 6.31195   3
  -4   4   5 29.7031 6.13488   2
  -4   4   5 36.8432 7.20192   4
   3  -4  -5 341.822 34.6280   4
   3  -4  -5 337.067 36.4057   5
   3  -4  -5 345.183 34.9696   3
   3  -4  -5 366.239 34.9346   2
   3  -4  -5 344.046 37.1252   1
  -3   4   5 350.924 37.3371   1
  -3   4   5 296.113 34.9745   2
  -3   4   5 374.328 36.9343   5
  -3   4   5 308.142 35.9656   4
   2  -4  -5 1918.24 201.776   4
   2  -4  -5 1982.22 201.869   3
   2  -4  -5 2012.01 203.141   1
   2  -4  -5 1822.93 202.921   5
   2  -4  -5 2140.81 202.007   3
  -2   4   5 2042.76 201.981   4
  -2   4   5 2084.63 203.271   1
  -2   4   5 2144.48 203.264   5
  -2   4   5 1879.96 202.017   2
   1  -4  -5 1834.54 166.162   1
   1  -4  -5 1614.47 164.905   4
   1  -4  -5 1298.90 164.905   3
   1  -4  -5 1881.42 165.162   2
   1  -4  -5 1235.32 165.736   5
  -1   4   5 1834.13 165.064   4
  -1   4   5 1745.89 165.139   2
  -1   4   5 1794.16 166.083   1
  -1   4   5 1495.58 166.650   5
   0  -4  -5 12.3749 3.67255   5
   0  -4  -5 16.8250 2.19900   6
   0  -4  -5 20.0069 3.03794   2
   0  -4  -5 14.8057 2.27300   3
   0  -4  -5 13.8186 3.80354   1
   0   4   5 11.0078 3.69316   5
   0   4   5 15.6997 2.92964   2
   0   4   5 31.7546 5.03816   1
   0   4   5 11.4725 2.84061   3
   0   4   5 20.4351 2.81619   4
  -1  -4  -5 603.458 58.5152   5
  -1  -4  -5 585.361 57.3630   3
  -1  -4  -5 508.422 58.8226   1
   1   4   5 501.846 58.2023   5
   1   4   5 591.083 58.1978   1
   1   4   5 599.046 57.5469   2
   1   4   5 577.941 57.3856   3
  -2  -4  -5 233.306 21.2791   1
  -2  -4  -5 195.114 19.9362   3
   2   4   5 179.844 21.1092   1
   2   4   5 189.925 19.9121   2
   2   4   5 184.175 20.6932   5
   2   4   5 183.677 19.8975   3
  -3  -4  -5 199.917 20.0694   3
   3   4   5 197.677 20.9274   5
   3   4   5 192.156 20.2530   1
   3   4   5 190.720 19.9953   3
   3   4   5 150.526 21.9137   1
   3   4   5 197.802 20.6714   4
   3   4   5 201.933 19.8042   2
   4   4   5 1161.47 115.544   2
   4   4   5 1012.64 116.467   4
   4   4   5 1141.38 116.022   3
   4   4   5 1224.26 117.096   5
   4   4   5 1181.41 115.602   2
   5   4   5 1051.67 98.4504   5
   5   4   5 852.111 97.5681   4
   6   4   5 91.5746 14.9354   5
   6   4   5 93.4131 14.7383   4
   5  -5  -5 115.732 12.7340   4
   5  -5  -5 110.246 17.3988   5
   4  -5  -5 0.47842 4.05389   5
   4  -5  -5 -2.6021 2.39433   3
   4  -5  -5 -1.2280 1.74368   4
  -4   5   5 -0.5943 2.70532   2
  -4   5   5 -1.4484 3.95429   4
   3  -5  -5 21.1671 6.68544   1
   3  -5  -5 19.5394 3.45225   4
   3  -5  -5 21.4845 5.45891   5
   3  -5  -5 21.1673 4.03827   3
  -3   5   5 16.2723 3.97549   2
  -3   5   5 15.1667 5.33289   5
  -3   5   5 22.0394 7.02123   1
  -3   5   5 20.8749 3.85276   4
   2  -5  -5 491.062 53.3709   1
   2  -5  -5 521.730 51.8687   6
   2  -5  -5 495.750 51.8398   4
   2  -5  -5 433.687 53.1328   5
   2  -5  -5 519.672 51.7925   3
  -2   5   5 533.513 52.1441   4
  -2   5   5 524.893 53.5277   1
  -2   5   5 524.989 52.0631   2
  -2   5   5 553.947 53.4802   5
   1  -5  -5 1816.88 260.922   5
   1  -5  -5 2819.33 261.285   1
   1  -5  -5 2553.22 260.130   4
   1  -5  -5 2675.43 259.899   3
  -1   5   5 2658.21 260.590   4
  -1   5   5 2739.47 260.306   2
  -1   5   5 2818.64 261.246   1
  -1   5   5 2581.46 261.361   5
   0  -5  -5 7323.29 606.239   1
   0  -5  -5 4684.58 605.931   5
   0   5   5 6889.47 605.930   1
   0   5   5 6032.36 605.368   4
   0   5   5 6372.02 605.252   2
   0   5   5 4777.28 606.086   5
  -1  -5  -5 2593.85 240.780   1
  -1  -5  -5 2666.48 240.496   5
  -1  -5  -5 2383.68 239.263   3
   1   5   5 2349.82 239.173   6
   1   5   5 1736.97 240.862   5
   1   5   5 2405.66 239.273   3
   1   5   5 2320.80 239.479   2
   1   5   5 2313.36 239.486   4
   1   5   5 2616.97 239.909   1
  -2  -5  -5 73.6590 7.54436   3
   2   5   5 71.1536 7.51695   3
   2   5   5 71.8216 7.60414   2
   2   5   5 63.0488 7.17169   6
   2   5   5 64.0868 7.70754   4
   2   5   5 67.6492 8.91537   5
   3   5   5 34.7397 6.45593   4
   3   5   5 37.3794 4.93941   3
   3   5   5 37.8842 4.66792   2
   3   5   5 36.8973 6.77276   5
   4   5   5 29.5512 8.40662   5
   4   5   5 39.2789 5.79771   3
   4   5   5 26.1672 5.71734   4
   4   5   5 34.4064 4.68248   2
   4   5   5 34.0313 5.84504   2
   5   5   5 349.190 34.1270   2
   5   5   5 356.404 36.3034   5
   5   5   5 287.386 35.8723   4
   5   5   5 332.617 34.2034   2
   6   5   5 440.095 47.4561   5
   6   5   5 427.550 46.4156   4
   5  -6  -5 291.399 30.3782   4
   4  -6  -5 203.333 19.5571   4
   4  -6  -5 198.584 20.0867   3
   4  -6  -5 177.832 22.6420   5
  -4   6   5 153.894 21.3423   4
  -4   6   5 179.943 19.8695   2
   3  -6  -5 121.565 14.2468   6
   3  -6  -5 123.350 16.4733   5
   3  -6  -5 124.916 18.5210   1
   3  -6  -5 138.472 13.8393   4
   3  -6  -5 120.630 14.8406   3
  -3   6   5 139.730 18.8801   1
  -3   6   5 139.463 16.8098   5
  -3   6   5 122.270 14.7283   4
  -3   6   5 131.760 14.0177   2
   2  -6  -5 516.604 52.6236   4
   2  -6  -5 420.656 53.9808   5
   2  -6  -5 519.802 54.3136   1
   2  -6  -5 509.407 52.5722   6
   2  -6  -5 541.983 52.4249   3
  -2   6   5 552.428 52.9440   4
  -2   6   5 529.413 52.7785   2
  -2   6   5 553.207 54.2064   5
  -2   6   5 514.055 54.3695   1
   1  -6  -5 350.299 33.2223   6
   1  -6  -5 337.567 34.7389   1
   1  -6  -5 340.185 33.3717   4
   1  -6  -5 203.085 34.3374   5
  -1   6   5 339.149 34.8775   5
  -1   6   5 342.367 33.4744   2
  -1   6   5 344.623 33.5304   4
  -1   6   5 354.271 34.7560   1
   0  -6  -5 85.0364 9.57854   4
   0  -6  -5 95.5912 11.3352   1
   0  -6  -5 70.3136 11.2658   5
   0  -6  -5 101.281 9.33485   6
   0   6   5 93.4196 12.9735   1
   0   6   5 87.9890 9.61434   2
   0   6   5 63.7417 12.1494   5
   0   6   5 96.0748 9.63018   4
  -1  -6  -5 1348.22 120.926   5
  -1  -6  -5 1272.48 120.820   1
   1   6   5 1191.70 119.598   3
   1   6   5 1174.86 119.913   2
   1   6   5 1178.43 119.593   6
   1   6   5 1172.84 119.909   4
   1   6   5 1265.93 120.295   1
   1   6   5 893.884 120.659   5
   2   6   5 581.118 56.6210   2
   2   6   5 538.862 57.5526   5
   2   6   5 564.898 56.4506   3
   2   6   5 545.183 56.6274   4
   2   6   5 554.709 56.2752   6
   3   6   5 1.27805 1.42280   3
   3   6   5 0.30620 1.72370   4
   3   6   5 3.63978 1.62924   2
   3   6   5 2.11307 2.84904   5
   4   6   5 586.087 65.8980   4
   4   6   5 681.333 65.0117   2
   4   6   5 672.971 65.0083   2
   4   6   5 629.224 65.2709   3
   4   6   5 624.217 65.2195   4
   5   6   5 401.039 40.7913   2
   5   6   5 395.409 42.6876   5
   6   6   5 16.7938 6.97978   4
   6   6   5 10.4149 6.52987   5
   5  -7  -5 63.1269 8.80839   4
   5  -7  -5 54.7847 15.1375   5
   4  -7  -5 -0.1190 2.52742   4
   4  -7  -5 0.47060 5.33505   5
  -4   7   5 -1.2962 2.99018   2
   3  -7  -5 19.9631 8.14350   1
   3  -7  -5 4.98857 4.69281   5
   3  -7  -5 11.5951 2.64344   4
   3  -7  -5 9.24291 2.37080   3
  -3   7   5 -2.6890 6.74299   1
  -3   7   5 8.53994 2.58273   2
  -3   7   5 10.6392 3.95542   4
   2  -7  -5 153.630 15.2220   3
   2  -7  -5 106.632 17.6298   5
   2  -7  -5 163.668 18.7551   1
   2  -7  -5 149.991 15.5863   6
   2  -7  -5 145.973 15.6646   4
  -2   7   5 158.339 17.5913   5
  -2   7   5 151.690 16.1566   4
  -2   7   5 144.169 18.6263   1
  -2   7   5 151.000 15.7699   2
   1  -7  -5 2459.38 244.882   4
   1  -7  -5 1613.27 245.699   5
   1  -7  -5 2543.71 244.728   6
   1  -7  -5 2529.77 246.019   1
  -1   7   5 2518.77 244.962   2
  -1   7   5 2557.27 246.013   1
  -1   7   5 2582.13 245.034   4
  -1   7   5 2628.00 246.142   5
   0  -7  -5 3860.21 388.645   4
   0  -7  -5 4089.00 388.460   6
   0  -7  -5 3667.25 389.647   5
   0  -7  -5 4171.64 389.527   1
   0   7   5 4119.49 389.371   1
   0   7   5 3807.73 388.346   6
   0   7   5 3131.68 389.531   5
   0   7   5 4105.20 388.698   4
   0   7   5 3769.76 388.656   2
  -1  -7  -5 1891.87 163.307   5
  -1  -7  -5 1772.56 163.141   1
   1   7   5 1735.63 162.650   1
   1   7   5 1594.05 161.886   3
   1   7   5 1607.93 162.285   4
   1   7   5 1617.85 161.973   6
   1   7   5 1616.47 162.315   2
   1   7   5 1029.10 162.920   5
   2   7   5 84.7611 12.0342   5
   2   7   5 94.1581 10.1338   2
   2   7   5 87.1193 10.0957   4
   2   7   5 96.9659 9.78114   3
   2   7   5 89.3577 9.62991   6
   3   7   5 52.2876 7.35061   4
   3   7   5 58.5699 9.81369   5
   3   7   5 62.1628 7.16701   3
   3   7   5 64.2442 7.17957   2
   3   7   5 54.3888 6.71703   6
   3   7   5 63.5624 7.33407   2
   4   7   5 3.83358 2.19705   2
   4   7   5 -1.3920 2.37721   3
   4   7   5 2.05062 4.33231   4
   4   7   5 0.80828 4.09937   4
   4   7   5 -0.0919 2.32722   2
   5   7   5 325.793 33.1040   5
   5   7   5 323.261 31.0491   2
   5   7   5 234.620 32.6749   4
   6   7   5 390.605 41.5895   5
   6   7   5 354.870 40.9308   4
   5  -8  -5 266.008 37.3754   5
   5  -8  -5 346.888 32.8707   4
   4  -8  -5 173.875 26.2064   5
   4  -8  -5 239.750 22.9217   4
  -4   8   5 219.346 22.8980   2
   3  -8  -5 15.4169 9.10167   1
   3  -8  -5 6.83692 5.57152   5
   3  -8  -5 9.14358 2.56525   3
   3  -8  -5 7.23994 2.78266   4
  -3   8   5 7.06471 8.11349   1
  -3   8   5 7.25016 2.83708   2
   2  -8  -5 21.9595 7.34486   1
   2  -8  -5 15.2188 3.27334   6
   2  -8  -5 11.3415 5.39987   5
   2  -8  -5 25.1530 4.60049   4
  -2   8   5 25.9067 4.51425   2
  -2   8   5 27.3785 7.52376   5
  -2   8   5 16.6161 3.97935   4
  -2   8   5 27.4577 7.26312   1
   1  -8  -5 40.7679 5.67520   6
   1  -8  -5 50.1533 6.11071   4
   1  -8  -5 36.7554 7.70003   1
   1  -8  -5 32.2781 8.97794   5
  -1   8   5 37.4770 6.50947   4
  -1   8   5 44.4517 5.95435   2
  -1   8   5 54.6682 9.91659   1
  -1   8   5 40.0494 8.39717   5
   0  -8  -5 356.217 36.7218   5
   0  -8  -5 355.973 35.4492   4
   0  -8  -5 349.571 36.6017   1
   0  -8  -5 347.949 35.1745   6
   0   8   5 298.152 36.6679   5
   0   8   5 341.779 35.0022   6
   0   8   5 354.825 35.4230   2
   0   8   5 360.110 36.4902   1
   0   8   5 329.769 35.3768   4
  -1  -8  -5 1781.96 158.613   5
  -1  -8  -5 1572.68 158.438   1
   1   8   5 1453.95 157.661   4
   1   8   5 1497.64 157.730   2
   1   8   5 1490.04 157.368   6
   1   8   5 1572.35 158.048   1
   2   8   5 795.829 77.6513   3
   2   8   5 779.989 77.5983   6
   2   8   5 771.523 77.9353   4
   2   8   5 820.995 78.0369   2
   2   8   5 667.410 79.1327   5
   3   8   5 16.9756 3.91765   2
   3   8   5 15.5946 2.50882   6
   3   8   5 16.9547 3.77832   3
   3   8   5 9.87673 5.12362   5
   3   8   5 11.8022 3.00465   4
   3   8   5 18.2826 4.32755   2
   4   8   5 127.008 17.1003   4
   4   8   5 145.719 14.9944   2
   4   8   5 132.286 15.2475   2
   5   8   5 72.3785 15.2765   4
   5   8   5 115.982 14.9009   5
   5   8   5 113.602 12.4633   2
   6   8   5 -0.4832 7.63472   4
   6   8   5 -2.9208 6.70109   5
   4  -9  -5 9.96375 3.85523   4
   4  -9  -5 4.37790 7.87657   5
  -4   9   5 7.57911 3.97301   2
   3  -9  -5 20.2971 4.41688   4
  -3   9   5 14.7868 10.1277   1
  -3   9   5 31.5779 5.69714   2
   2  -9  -5 60.3616 8.16985   4
   2  -9  -5 38.3444 11.6476   5
   2  -9  -5 52.5699 11.9855   1
  -2   9   5 71.5777 8.19314   2
  -2   9   5 59.4929 11.2102   1
  -2   9   5 76.6624 10.8485   5
   1  -9  -5 887.812 112.757   5
   1  -9  -5 1048.85 111.412   6
   1  -9  -5 1120.94 111.715   4
   1  -9  -5 1044.12 113.083   1
  -1   9   5 1120.29 111.689   2
  -1   9   5 1090.24 113.063   1
  -1   9   5 1321.32 113.136   4
  -1   9   5 1188.67 112.730   5
   0  -9  -5 1862.18 189.060   4
   0  -9  -5 2056.89 190.030   5
   0  -9  -5 1812.48 189.966   1
   0   9   5 1947.39 189.950   1
   0   9   5 1749.18 188.991   4
   0   9   5 1857.16 188.663   6
   0   9   5 1803.41 190.015   5
   0   9   5 1881.32 189.064   2
  -1  -9  -5 796.983 67.9313   5
  -1  -9  -5 651.018 68.0310   1
   1   9   5 703.841 67.1110   2
   1   9   5 668.108 66.6052   6
   1   9   5 691.110 67.4948   1
   1   9   5 646.973 66.9551   4
   1   9   5 444.631 67.9358   5
   2   9   5 80.9781 11.1487   2
   2   9   5 73.1310 8.91275   2
   2   9   5 74.9584 8.87052   3
   2   9   5 72.8367 8.09887   3
   2   9   5 80.1062 8.27113   6
   2   9   5 49.5328 12.0226   5
   2   9   5 67.8207 9.23242   4
   3   9   5 15.3123 3.44326   2
   3   9   5 10.4669 6.50036   5
   3   9   5 14.2868 2.72018   6
   3   9   5 17.4792 4.30377   3
   4   9   5 4.59559 4.68845   4
   4   9   5 3.66435 2.52087   6
   5   9   5 124.609 16.6734   5
   5   9   5 78.6035 17.2843   4
   5   9   5 139.697 14.7376   6
   5   9   5 139.748 14.6741   2
   4 -10  -5 161.898 18.3366   4
   4 -10  -5 94.3487 23.1273   5
  -4  10   5 205.764 19.4542   2
   3 -10  -5 53.9395 7.30387   4
   3 -10  -5 17.1053 8.64159   5
  -3  10   5 40.9571 8.92769   2
   2 -10  -5 -0.8677 5.98864   5
   2 -10  -5 6.57152 3.24756   4
  -2  10   5 4.63224 4.04744   2
  -2  10   5 5.50276 4.74032   5
   1 -10  -5 9.12006 5.37869   5
   1 -10  -5 13.5906 4.21622   4
  -1  10   5 23.9455 5.15871   2
  -1  10   5 12.4485 4.62846   5
   0 -10  -5 409.075 38.7743   4
   0 -10  -5 392.420 39.1809   5
   0  10   5 340.898 39.2480   5
   0  10   5 340.970 37.7039   6
   0  10   5 363.248 38.2534   2
   1  10   5 924.485 112.283   5
   1  10   5 1143.67 111.781   2
   1  10   5 1221.77 110.908   6
   2  10   5 449.407 57.5813   3
   2  10   5 563.245 57.5003   3
   2  10   5 584.958 57.4137   6
   2  10   5 667.999 58.5057   2
   3  10   5 65.2952 19.5829   5
   3  10   5 83.3187 10.4424   3
   3  10   5 79.2242 10.0089   2
   3  10   5 71.1609 9.22133   6
   3  10   5 81.7965 9.59349   3
   4  10   5 33.4112 7.34055   3
   4  10   5 24.6695 5.85065   2
   4  10   5 21.9969 4.30373   6
   5  10   5 24.7531 5.35902   2
   5  10   5 17.0978 7.96438   4
   5  10   5 34.9078 7.38271   3
   5  10   5 15.4499 6.57579   5
   5  10   5 19.4975 4.93399   6
   4 -11  -5 12.5336 12.3153   5
   4 -11  -5 27.2390 6.50436   4
   3 -11  -5 55.6061 8.85051   4
   3 -11  -5 26.5577 10.6607   5
  -3  11   5 54.0617 8.54940   2
   2 -11  -5 3.37544 6.51009   5
   2 -11  -5 12.1589 4.26878   4
  -2  11   5 8.33258 3.73248   2
   1 -11  -5 283.653 31.9139   4
   1 -11  -5 318.141 33.1301   5
  -1  11   5 298.408 31.6169   2
  -1  11   5 299.981 32.4307   5
   0 -11  -5 632.973 70.8249   4
   0 -11  -5 790.115 71.3878   5
   0  11   5 653.417 70.7780   2
   0  11   5 670.409 71.3431   5
   0  11   5 706.378 70.3328   6
   1  11   5 144.458 19.4965   5
   1  11   5 169.229 17.8715   2
   2  11   5 2.08741 3.04519   3
   2  11   5 1.17858 3.24863   2
   2  11   5 -1.4941 6.71645   5
   3  11   5 46.0776 8.89194   3
   3  11   5 52.9004 7.25151   6
   3  11   5 46.7065 8.04662   2
   4  11   5 -5.0287 3.09217   6
   4  11   5 -1.3507 4.47575   3
   4  11   5 3.25399 3.78433   2
   3 -12  -5 32.6296 6.89182   4
   3 -12  -5 14.3413 11.2045   5
  -3  12   5 31.4483 6.41418   2
   2 -12  -5 0.55144 4.62174   4
   2 -12  -5 -3.2611 6.79828   5
  -2  12   5 0.11285 3.96679   2
   1 -12  -5 51.8950 9.04609   4
   1 -12  -5 31.5339 7.32036   5
  -1  12   5 43.1735 7.57784   2
   0 -12  -5 168.857 19.0808   4
   0  12   5 158.181 17.9125   6
   0  12   5 167.679 18.5737   2
   1  12   5 603.262 60.6853   6
   1  12   5 585.410 61.5622   2
   2  12   5 426.178 46.9398   6
   2  12   5 488.761 47.8295   2
   3  12   5 47.0971 8.71407   2
   3  12   5 46.7129 7.70025   6
   4  12   5 0.70761 3.99287   6
   4  12   5 0.90114 4.55340   2
   2 -13  -5 4.25961 6.39444   4
  -2  13   5 5.82686 5.13707   2
   1 -13  -5 79.5487 12.7478   4
  -1  13   5 74.5449 11.5380   2
   0 -13  -5 132.984 17.1741   4
   0  13   5 140.523 16.6924   2
   0  13   5 132.454 15.6171   6
   1  13   5 34.2205 7.68941   2
   1  13   5 19.7498 4.57579   6
   2  13   5 15.1476 5.53032   2
   2  13   5 15.2363 4.24084   6
   3  13   5 62.6670 10.4219   2
   3  13   5 39.6292 7.01882   6
   0 -14  -5 55.5656 12.6849   4
   0  14   5 71.2179 11.9972   2
   1  14   5 259.012 28.0923   6
   2   9  -6 -0.3205 6.92160   3
   1   9  -6 28.0845 6.66092   6
   1   9  -6 39.8936 8.64824   3
   0   9  -6 181.273 22.1820   6
   0   9  -6 199.442 24.4414   3
   0  -9   6 177.451 22.2704   4
  -1   9  -6 91.3330 13.9491   6
  -1   9  -6 91.1365 17.5914   3
   1  -9   6 75.2949 14.1195   4
  -2   9  -6 2.12870 8.04258   3
  -2   9  -6 3.07131 5.84827   6
   2  -9   6 1.58665 6.95352   4
   3   8  -6 -0.2762 7.54817   3
  -3  -8   6 -6.4179 10.8163   2
   2   8  -6 -0.2694 4.88731   6
   2   8  -6 -0.5898 5.41319   3
  -2  -8   6 2.95108 7.07838   2
   1   8  -6 -0.9832 5.27484   3
   1   8  -6 -6.0189 4.04525   6
  -1  -8   6 -3.7974 5.65165   2
  -1  -8   6 -0.2930 4.79402   4
   0   8  -6 59.3738 13.0023   3
   0   8  -6 36.8250 7.59418   6
   0  -8   6 57.0364 10.5491   4
   0  -8   6 69.2461 11.9135   2
  -1   8  -6 485.826 51.8200   6
  -1   8  -6 530.979 53.5946   3
   1  -8   6 475.110 52.0814   4
  -2   8  -6 572.790 61.9600   6
  -2   8  -6 620.825 63.6161   3
   2  -8   6 603.996 62.5067   4
  -3   8  -6 99.7550 16.5072   3
   3  -8   6 79.3909 15.1356   4
   3   7  -6 93.2314 16.8470   3
  -3  -7   6 153.169 18.1657   2
   2   7  -6 31.6992 5.28881   6
   2   7  -6 27.4015 6.29045   3
  -2  -7   6 26.3685 7.32332   2
   1   7  -6 43.5150 10.1334   3
   1   7  -6 43.0225 6.43320   6
  -1  -7   6 37.6592 9.32899   2
  -1  -7   6 35.0709 7.91481   4
   0   7  -6 167.135 19.3689   6
   0   7  -6 130.735 19.5944   4
   0   7  -6 194.052 21.4920   3
   0  -7   6 185.927 20.4661   2
   0  -7   6 173.085 19.3781   4
  -1   7  -6 62.5035 10.8295   6
  -1   7  -6 73.8727 13.7731   3
   1  -7   6 63.1293 11.8794   4
   1  -7   6 79.2099 11.7514   2
  -2   7  -6 6.79152 5.78665   3
  -2   7  -6 2.20393 4.39281   6
   2  -7   6 12.8878 5.50730   4
  -3   7  -6 110.682 15.7504   3
   3  -7   6 82.8400 14.3268   4
  -4   7  -6 25.8470 7.41657   3
   4  -7   6 32.4158 8.28045   4
  -4  -6   6 150.533 20.9014   2
   3   6  -6 6.58075 5.02486   3
   3   6  -6 10.7542 4.64402   5
  -3  -6   6 17.1056 7.16674   2
   2   6  -6 8.53246 4.42042   3
  -2  -6   6 15.8515 6.20016   2
   1   6  -6 -1.1290 3.80865   3
   1   6  -6 -2.1459 3.27922   6
   1   6  -6 0.95147 2.33909   4
  -1  -6   6 -2.8177 2.96166   4
  -1  -6   6 -1.3208 4.46995   2
   0   6  -6 190.853 23.1907   3
   0   6  -6 157.806 18.7870   4
   0   6  -6 176.790 19.3766   6
   0  -6   6 177.187 19.3397   4
   0  -6   6 176.027 20.5122   2
  -1   6  -6 1131.05 124.378   6
  -1   6  -6 1199.49 125.960   3
   1  -6   6 1179.56 124.668   4
   1  -6   6 1399.19 125.406   2
  -2   6  -6 874.958 96.5339   6
  -2   6  -6 971.460 98.1863   3
   2  -6   6 948.757 101.620   1
   2  -6   6 1089.17 97.2106   2
   2  -6   6 864.719 97.0379   4
  -3   6  -6 441.321 42.2714   3
   3  -6   6 378.952 40.7534   5
   3  -6   6 354.317 41.5063   4
  -4   6  -6 -5.8746 4.82995   3
   4  -6   6 3.79018 5.52985   4
   4  -6   6 4.71077 8.39083   5
  -5   6  -6 2.75102 6.11555   3
   4   5  -6 128.532 19.2069   3
   4   5  -6 130.618 20.2068   5
  -4  -5   6 202.505 20.4754   2
   3   5  -6 251.458 32.8614   3
   3   5  -6 281.776 32.2712   5
  -3  -5   6 394.647 34.0413   2
   2   5  -6 214.093 21.7577   5
   2   5  -6 189.883 22.8938   3
   1   5  -6 8.94739 4.05257   3
   1   5  -6 11.2147 2.70950   4
  -1  -5   6 9.74080 3.02935   4
  -1  -5   6 11.9491 4.51034   2
   0   5  -6 105.239 11.8845   4
   0   5  -6 117.635 14.3038   3
   0   5  -6 108.029 12.4576   6
   0  -5   6 109.785 16.4756   3
   0  -5   6 105.539 12.4683   4
   0  -5   6 69.9728 16.9662   1
   0  -5   6 97.4715 21.1439   1
   0  -5   6 111.205 13.4656   2
  -1   5  -6 20.8975 4.22058   6
  -1   5  -6 12.2068 5.02430   3
  -1   5  -6 25.4438 6.10199   2
  -1   5  -6 27.5076 5.56196   4
   1  -5   6 21.5653 10.2592   1
   1  -5   6 24.4056 4.83290   4
   1  -5   6 30.7694 10.3780   1
   1  -5   6 13.2201 5.49578   3
   1  -5   6 31.3245 5.54860   2
  -2   5  -6 168.903 19.8048   3
  -2   5  -6 140.542 18.0242   2
  -2   5  -6 141.299 17.8012   6
   2  -5   6 167.226 17.4919   5
   2  -5   6 169.930 18.7533   4
   2  -5   6 190.281 18.6352   2
   2  -5   6 159.996 25.4329   1
   2  -5   6 160.625 25.3872   1
  -3   5  -6 413.997 47.5648   2
  -3   5  -6 526.106 48.6981   3
   3  -5   6 415.222 48.0426   4
   3  -5   6 456.387 53.2991   1
   3  -5   6 444.376 47.8085   5
   3  -5   6 500.730 47.7074   5
  -4   5  -6 260.870 25.6636   3
   4  -5   6 216.354 25.6152   5
   4  -5   6 191.470 25.3331   4
  -5   5  -6 1.48462 5.07808   3
   5  -5   6 5.07025 6.54859   4
   5  -5   6 3.51915 7.00309   5
   5   4  -6 116.434 24.1313   3
   5   4  -6 103.265 17.3572   5
  -5  -4   6 145.054 18.2526   2
   4   4  -6 143.760 20.5524   3
  -4  -4   6 206.032 21.5084   2
   3   4  -6 7.68472 4.15792   3
   3   4  -6 6.18085 3.98978   5
  -3  -4   6 17.7714 6.41058   2
   2   4  -6 49.3726 7.83132   5
   2   4  -6 48.2144 8.93349   3
   2   4  -6 63.1356 17.6835   1
  -2  -4   6 75.1327 10.0332   2
   1   4  -6 7.32166 1.90161   4
   1   4  -6 3.08861 3.00399   3
   1   4  -6 3.26794 2.57965   2
   1   4  -6 32.9719 13.1762   1
   1   4  -6 6.17112 2.56320   5
  -1  -4   6 13.8262 5.39127   3
  -1  -4   6 4.75865 2.34640   4
  -1  -4   6 2.68722 3.63738   2
   0   4  -6 319.311 31.5632   3
   0   4  -6 244.744 30.4256   2
   0   4  -6 294.760 30.0907   4
   0   4  -6 303.759 30.3669   6
   0  -4   6 311.021 31.7942   3
   0  -4   6 314.747 31.1275   2
   0  -4   6 303.950 30.3800   4
   0  -4   6 228.360 34.4774   1
  -1   4  -6 1226.21 138.229   2
  -1   4  -6 1311.69 138.980   3
  -1   4  -6 1347.97 138.030   6
  -1   4  -6 1421.19 138.131   4
   1  -4   6 1338.89 140.676   1
   1  -4   6 1139.23 138.584   3
   1  -4   6 1500.47 141.246   1
   1  -4   6 1440.69 138.336   4
   1  -4   6 1575.44 138.731   2
  -2   4  -6 1791.42 179.659   4
  -2   4  -6 1776.11 179.327   6
  -2   4  -6 1622.38 179.577   2
  -2   4  -6 1901.29 180.395   3
   2  -4   6 1210.82 179.646   3
   2  -4   6 1955.49 182.555   1
   2  -4   6 1764.90 181.968   1
   2  -4   6 1955.30 179.662   5
   2  -4   6 2120.16 179.921   2
   2  -4   6 1810.78 179.839   4
   2  -4   6 1649.51 179.411   5
  -3   4  -6 425.395 48.0067   2
  -3   4  -6 518.244 48.9608   3
   3  -4   6 514.346 47.9734   2
   3  -4   6 470.481 48.5766   5
   3  -4   6 337.440 50.0831   4
   3  -4   6 490.884 48.2510   5
   3  -4   6 509.214 52.6758   1
   3  -4   6 449.518 51.9882   1
  -4   4  -6 -1.1965 3.69621   3
   4  -4   6 2.97560 4.42634   5
   4  -4   6 -4.5842 4.22091   5
   4  -4   6 0.43027 2.95785   6
   4  -4   6 2.01484 4.48889   4
   4  -4   6 -2.4108 11.8721   1
  -5   4  -6 -3.7684 3.86371   3
   5  -4   6 -5.4782 5.72761   4
   5  -4   6 0.26313 5.85430   5
   5   3  -6 8.39753 5.25891   3
   5   3  -6 19.9712 6.82078   5
  -5  -3   6 19.8122 7.60622   2
   4   3  -6 260.007 32.7768   3
  -4  -3   6 350.604 33.8730   2
   3   3  -6 898.688 103.592   3
   3   3  -6 957.768 103.642   5
  -3  -3   6 1195.18 104.136   2
   2   3  -6 886.053 80.5353   1
   2   3  -6 680.166 76.7789   5
   2   3  -6 580.765 76.8083   3
   2   3  -6 641.383 76.6730   2
  -2  -3   6 728.434 80.4143   1
  -2  -3   6 915.255 77.4309   5
  -2  -3   6 857.920 77.3696   2
   1   3  -6 -8.6988 8.92373   1
   1   3  -6 2.98789 2.74088   3
   1   3  -6 6.90366 2.58390   5
   1   3  -6 3.43107 1.47184   4
   1   3  -6 4.02608 2.66001   2
  -1  -3   6 2.37635 2.96966   2
  -1  -3   6 2.40769 1.86037   4
  -1  -3   6 4.73045 2.68053   5
  -1  -3   6 3.45858 4.15848   3
   0   3  -6 43.8801 7.61960   3
   0   3  -6 38.8278 11.2878   1
   0   3  -6 45.8565 6.02671   5
   0   3  -6 39.2880 5.83734   6
   0   3  -6 37.8609 6.10733   2
   0  -3   6 38.4157 6.87642   2
   0  -3   6 44.2478 5.89134   4
   0  -3   6 48.1920 8.53224   3
   0  -3   6 33.5006 9.55525   1
   0  -3   6 39.3059 6.03023   5
  -1   3  -6 48.6623 6.05675   4
  -1   3  -6 40.9775 6.32621   2
  -1   3  -6 39.9480 5.91333   6
  -1   3  -6 37.0434 7.80456   3
   1  -3   6 46.0304 9.34594   1
   1  -3   6 40.9404 6.15197   5
   1  -3   6 44.5557 9.63426   1
   1  -3   6 54.0397 7.16719   2
   1  -3   6 52.2207 6.61533   4
   1  -3   6 26.5833 7.41705   3
  -2   3  -6 392.440 39.2057   6
  -2   3  -6 348.849 39.5577   2
  -2   3  -6 418.361 40.4555   3
  -2   3  -6 386.615 39.6524   4
   2  -3   6 397.394 39.6211   5
   2  -3   6 308.085 39.8090   3
   2  -3   6 444.616 39.8696   2
   2  -3   6 379.191 39.8295   4
   2  -3   6 377.018 42.3985   1
  -3   3  -6 1761.36 164.319   3
  -3   3  -6 1552.44 163.713   2
   3  -3   6 1566.74 166.052   1
   3  -3   6 1733.17 163.628   2
   3  -3   6 1698.96 164.026   5
   3  -3   6 1465.38 164.027   4
   3  -3   6 1637.03 166.211   1
   3  -3   6 1651.97 164.357   5
   3  -3   6 1497.35 164.497   3
  -4   3  -6 826.112 75.0626   3
  -4   3  -6 643.821 73.9796   2
   4  -3   6 759.486 75.6305   5
   4  -3   6 692.905 73.7227   6
   4  -3   6 754.300 74.9800   5
   4  -3   6 725.602 78.2236   1
   4  -3   6 699.213 74.9759   4
  -5   3  -6 57.0690 9.91436   3
   5  -3   6 48.4363 11.0217   4
   5  -3   6 57.9388 12.0606   5
  -6   3  -6 6.34146 5.34518   3
   6  -3   6 6.15734 8.07355   5
   6  -3   6 10.4721 8.07862   4
   5   2  -6 149.907 19.3138   3
   5   2  -6 137.076 19.6784   5
  -5  -2   6 178.885 19.4968   2
   4   2  -6 87.6314 13.2707   3
  -4  -2   6 105.158 13.8264   2
   3   2  -6 2.46190 3.27634   3
   3   2  -6 6.26282 4.21638   2
   3   2  -6 23.1133 19.7262   1
   3   2  -6 -0.3517 3.65702   5
  -3  -2   6 0.66057 5.68388   5
  -3  -2   6 2.18581 4.56631   2
   2   2  -6 212.695 23.3992   2
   2   2  -6 231.095 36.6721   1
   2   2  -6 183.270 23.4229   3
   2   2  -6 214.912 23.5541   5
  -2  -2   6 282.677 24.6041   5
  -2  -2   6 119.437 27.9931   1
  -2  -2   6 249.567 24.0324   2
   1   2  -6 118.890 17.0772   3
   1   2  -6 138.371 16.8819   2
   1   2  -6 132.647 16.9315   5
   1   2  -6 164.575 21.9022   1
  -1  -2   6 185.802 17.5837   5
  -1  -2   6 147.733 18.2461   3
  -1  -2   6 177.075 16.2435   4
  -1  -2   6 229.721 23.6231   1
  -1  -2   6 164.019 17.4409   2
   0   2  -6 173.287 18.0108   4
   0   2  -6 191.471 18.7817   5
   0   2  -6 153.023 18.4277   2
   0   2  -6 171.181 23.1767   1
   0   2  -6 170.337 19.0754   3
   0  -2   6 164.508 18.7357   2
   0  -2   6 173.355 18.1553   4
   0  -2   6 136.804 22.1361   1
   0  -2   6 195.641 18.8544   5
   0  -2   6 181.788 19.3552   3
  -1   2  -6 1371.22 131.226   6
  -1   2  -6 1472.65 131.488   4
  -1   2  -6 1323.89 131.610   2
   1  -2   6 1470.61 131.594   4
   1  -2   6 922.856 131.534   3
   1  -2   6 1346.67 133.546   1
   1  -2   6 1484.25 131.871   2
   1  -2   6 1019.11 131.411   5
  -2   2  -6 2304.63 225.911   6
  -2   2  -6 2238.75 226.359   4
  -2   2  -6 2190.78 226.328   2
  -2   2  -6 2335.98 226.758   3
   2  -2   6 2199.56 226.436   4
   2  -2   6 2280.80 226.426   5
   2  -2   6 2359.93 226.426   2
   2  -2   6 2402.91 228.430   1
   2  -2   6 1887.45 226.360   3
   2  -2   6 2226.09 228.055   1
  -3   2  -6 137.063 18.4488   2
  -3   2  -6 150.181 18.3213   4
  -3   2  -6 175.951 18.6108   3
   3  -2   6 154.030 18.3960   3
   3  -2   6 155.540 18.5536   4
   3  -2   6 158.094 17.0316   6
   3  -2   6 161.950 21.6942   1
   3  -2   6 174.003 22.0679   1
   3  -2   6 182.291 17.7177   2
   3  -2   6 197.704 18.5156   5
  -4   2  -6 8.22402 2.35062   2
   4  -2   6 2.09175 9.11574   1
   4  -2   6 6.77814 4.42382   5
   4  -2   6 4.29643 3.87625   5
   4  -2   6 6.27762 1.88458   6
   4  -2   6 3.74935 6.37150   4
  -5   2  -6 18.5456 4.47776   3
   5  -2   6 14.8986 6.08586   5
   5  -2   6 14.1221 5.75453   4
   5  -2   6 12.5682 4.18870   6
  -6   2  -6 1.38517 4.42226   3
   6  -2   6 0.25785 6.98187   5
   6  -2   6 2.14575 6.84193   4
   5   1  -6 39.6282 10.7080   5
   5   1  -6 47.2243 10.1825   3
  -5  -1   6 40.8609 10.0058   2
   4   1  -6 493.710 51.2491   2
   4   1  -6 457.385 50.8945   3
  -4  -1   6 515.443 51.0560   2
   3   1  -6 2186.96 220.055   2
   3   1  -6 2126.66 220.389   5
   3   1  -6 1861.00 222.138   1
   3   1  -6 2077.85 220.027   3
  -3  -1   6 2450.67 221.319   5
  -3  -1   6 2339.07 220.266   2
   2   1  -6 816.408 100.727   1
   2   1  -6 947.789 99.0606   5
   2   1  -6 985.116 98.8415   2
   2   1  -6 862.741 98.7887   3
  -2  -1   6 1201.63 99.8656   5
  -2  -1   6 1007.12 99.0349   2
   1   1  -6 69.1790 8.79110   2
   1   1  -6 76.3077 14.2205   1
   1   1  -6 59.1804 8.85674   5
   1   1  -6 57.5667 8.81868   3
  -1  -1   6 70.8027 10.1979   3
  -1  -1   6 91.4862 9.89232   5
  -1  -1   6 96.0611 16.0251   1
  -1  -1   6 80.0397 9.22538   2
   0   1  -6 -0.4576 2.13661   5
   0   1  -6 0.32798 1.76838   2
   0   1  -6 0.88215 2.11326   3
   0   1  -6 2.16571 1.37864   4
   0   1  -6 -6.6701 6.50533   1
   0  -1   6 -0.9005 1.39550   4
   0  -1   6 3.07848 2.39680   3
   0  -1   6 0.15261 1.96528   2
   0  -1   6 2.89074 5.72565   1
   0  -1   6 1.46784 2.43088   5
  -1   1  -6 128.603 15.2657   4
  -1   1  -6 124.765 14.6786   3
  -1   1  -6 176.333 19.5065   1
  -1   1  -6 134.780 13.6522   6
  -1   1  -6 136.867 14.2956   2
   1  -1   6 141.079 14.4695   2
   1  -1   6 116.724 14.2673   5
   1  -1   6 132.113 17.4606   1
   1  -1   6 99.5752 14.2759   3
   1  -1   6 151.196 14.2133   4
  -2   1  -6 856.956 90.3191   2
  -2   1  -6 882.369 90.2539   4
  -2   1  -6 945.614 90.5394   3
   2  -1   6 846.733 91.7984   1
   2  -1   6 810.147 90.2341   3
   2  -1   6 875.677 90.3167   4
   2  -1   6 944.573 90.5165   5
   2  -1   6 962.091 92.2473   1
   2  -1   6 879.938 90.2382   2
  -3   1  -6 3819.69 367.755   3
  -3   1  -6 3623.33 367.727   4
  -3   1  -6 3530.95 367.307   2
   3  -1   6 3744.30 369.069   1
   3  -1   6 3555.03 367.612   3
   3  -1   6 3631.27 369.144   1
   3  -1   6 3403.09 366.899   6
   3  -1   6 3843.15 367.876   5
   3  -1   6 3520.15 367.744   4
   3  -1   6 3782.21 367.309   2
  -4   1  -6 1448.80 139.461   3
  -4   1  -6 1382.54 138.464   2
   4  -1   6 1328.34 140.967   1
   4  -1   6 1339.01 141.357   1
   4  -1   6 1288.53 138.469   6
   4  -1   6 1296.34 139.605   4
   4  -1   6 1469.59 140.335   5
   4  -1   6 1431.34 139.850   5
  -5   1  -6 164.417 17.6140   3
   5  -1   6 133.870 18.2982   4
   5  -1   6 137.640 15.9236   6
   5  -1   6 169.463 19.5200   5
  -6   1  -6 -2.8235 3.77583   3
   6  -1   6 -7.1144 5.85424   4
   6  -1   6 4.40357 6.52332   5
   5   0  -6 69.1786 11.8135   3
   5   0  -6 74.0629 12.6506   5
  -5   0   6 72.4469 11.1223   2
   4   0  -6 29.7949 6.42833   2
   4   0  -6 24.3910 5.24576   3
   4   0  -6 25.0083 8.96652   5
  -4   0   6 17.5054 5.61491   2
   3   0  -6 1.53622 8.60384   1
   3   0  -6 7.76552 3.38049   3
   3   0  -6 8.94092 4.24567   5
   3   0  -6 24.0193 4.88715   2
  -3   0   6 7.18611 6.05138   5
  -3   0   6 9.79535 4.34802   2
   2   0  -6 989.172 96.6974   2
   2   0  -6 836.947 96.5163   3
   2   0  -6 865.991 98.3116   1
   2   0  -6 876.076 96.9087   5
  -2   0   6 953.311 96.7104   2
  -2   0   6 1057.12 99.0077   1
  -2   0   6 1080.98 97.6713   5
   1   0  -6 680.065 78.9566   5
   1   0  -6 583.435 78.5991   3
   1   0  -6 871.827 78.8908   2
   1   0  -6 733.521 80.5488   1
  -1   0   6 911.529 79.6300   5
  -1   0   6 825.952 79.2435   3
  -1   0   6 846.057 81.4227   1
  -1   0   6 825.012 78.8661   2
  -1   0   6 703.258 78.2386   4
   0   0  -6 5.23773 2.03171   2
   0   0  -6 3.26154 6.15907   1
   0   0  -6 5.51947 2.22457   3
   0   0  -6 10.6538 2.95087   5
   0   0   6 7.49387 2.20560   2
   0   0   6 6.99663 5.75120   1
   0   0   6 7.52650 2.91623   5
   0   0   6 3.86265 2.57780   3
   0   0   6 7.83639 1.68378   4
  -1   0  -6 933.090 94.3340   3
  -1   0  -6 917.871 93.5858   6
  -1   0  -6 966.846 94.2403   2
  -1   0  -6 1018.35 94.0402   4
  -1   0  -6 1050.39 94.7783   5
  -1   0  -6 1068.48 96.7298   1
   1   0   6 819.872 94.2065   5
   1   0   6 820.406 95.6541   1
   1   0   6 737.233 93.9943   3
   1   0   6 908.325 94.1118   2
   1   0   6 981.461 94.0194   4
  -2   0  -6 1067.52 107.990   2
  -2   0  -6 1106.47 108.141   4
  -2   0  -6 1175.86 108.261   3
   2   0   6 1053.45 108.131   4
   2   0   6 1057.13 108.054   3
   2   0   6 1008.41 107.985   2
   2   0   6 994.098 109.427   1
  -3   0  -6 65.7936 8.44864   3
  -3   0  -6 64.0799 7.53722   2
  -3   0  -6 52.7601 8.80271   4
   3   0   6 68.3926 8.91650   5
   3   0   6 65.8383 11.3881   1
   3   0   6 67.4425 9.12410   4
   3   0   6 67.4688 8.52198   3
   3   0   6 71.7425 7.92778   2
   3   0   6 63.2704 6.81116   6
   3   0   6 41.7392 9.59303   1
  -4   0  -6 122.388 13.5555   3
  -4   0  -6 80.4590 16.8880   4
   4   0   6 125.597 14.5179   4
   4   0   6 90.7421 16.2726   1
   4   0   6 118.923 14.2270   5
   4   0   6 113.688 12.4636   6
   4   0   6 125.829 18.2955   1
  -5   0  -6 142.209 16.5197   3
   5   0   6 137.766 14.9619   6
   5   0   6 133.738 17.5144   4
   5   0   6 155.285 18.4496   5
  -6   0  -6 14.9469 4.59472   3
   6   0   6 16.7767 7.32469   5
   6   0   6 11.9037 6.72361   4
   5  -1  -6 26.7906 7.45573   5
   5  -1  -6 37.1716 8.80316   3
  -5   1   6 30.8326 6.29379   2
   4  -1  -6 746.919 80.3423   5
   4  -1  -6 757.125 78.5387   2
   4  -1  -6 816.596 80.2178   3
  -4   1   6 749.525 78.5546   2
   3  -1  -6 2126.16 219.827   1
   3  -1  -6 2114.45 218.178   2
   3  -1  -6 2070.72 218.747   5
   3  -1  -6 2141.19 218.138   3
  -3   1   6 2062.75 218.192   2
  -3   1   6 2296.40 220.057   1
  -3   1   6 2302.27 219.554   5
   2  -1  -6 1365.93 141.037   1
   2  -1  -6 1292.04 139.526   3
   2  -1  -6 1382.08 139.659   2
   2  -1  -6 1273.82 140.020   5
  -2   1   6 1499.22 140.682   5
  -2   1   6 1536.51 141.504   1
  -2   1   6 1311.67 139.591   2
   1  -1  -6 61.2733 9.19700   3
   1  -1  -6 91.2514 9.58015   2
   1  -1  -6 90.0961 12.8059   1
   1  -1  -6 76.5716 9.92261   5
  -1   1   6 79.1938 9.24294   2
  -1   1   6 64.9453 14.3025   5
  -1   1   6 95.0374 13.9314   1
  -1   1   6 86.5181 8.41127   4
   0  -1  -6 9.74324 2.40983   3
   0  -1  -6 16.1222 4.40942   5
   0  -1  -6 13.3240 3.35876   2
   0  -1  -6 14.2074 6.18173   1
   0   1   6 9.92700 1.89893   4
   0   1   6 10.0246 2.40186   2
   0   1   6 15.3409 2.87994   3
   0   1   6 17.5806 6.92562   1
   0   1   6 9.23487 3.15616   5
  -1  -1  -6 14.3052 1.73036   6
  -1  -1  -6 17.1288 3.50668   3
  -1  -1  -6 13.3803 3.16414   2
  -1  -1  -6 10.2119 3.02166   5
  -1  -1  -6 10.6969 6.77963   1
   1   1   6 9.13883 2.30318   2
   1   1   6 16.1481 3.15870   4
   1   1   6 7.72578 2.08463   3
   1   1   6 16.1307 5.61925   1
   1   1   6 15.5601 3.85633   5
  -2  -1  -6 2384.61 230.994   3
  -2  -1  -6 2431.13 231.081   4
  -2  -1  -6 2469.03 230.829   2
   2   1   6 2431.88 231.299   5
   2   1   6 2119.65 232.203   1
   2   1   6 2199.74 231.001   4
   2   1   6 2334.13 230.909   3
   2   1   6 1936.82 230.752   2
  -3  -1  -6 4035.18 388.597   4
  -3  -1  -6 4072.16 387.955   2
  -3  -1  -6 3845.72 388.363   3
   3   1   6 4022.48 389.366   1
   3   1   6 3743.68 388.556   4
   3   1   6 3448.75 388.064   2
   3   1   6 3788.06 389.618   1
   3   1   6 3629.70 387.670   6
   3   1   6 4030.54 388.791   5
   3   1   6 3911.55 388.332   3
  -4  -1  -6 2086.81 204.719   3
   4   1   6 2181.98 205.405   5
   4   1   6 1978.14 205.559   1
   4   1   6 1923.05 204.978   4
   4   1   6 2052.68 204.723   3
   4   1   6 1963.55 206.187   1
   4   1   6 1981.94 203.878   6
  -5  -1  -6 213.847 22.9293   3
   5   1   6 187.526 23.8722   4
   5   1   6 208.091 21.5913   6
   5   1   6 226.032 24.7767   5
  -6  -1  -6 0.68434 3.43568   3
   6   1   6 0.93067 5.66723   5
   6   1   6 -1.5183 5.81409   4
   6  -2  -6 -0.2322 6.18096   3
   5  -2  -6 9.06411 5.58378   5
   5  -2  -6 5.94998 4.19958   3
  -5   2   6 9.24385 4.72459   2
   4  -2  -6 12.3021 5.28649   5
   4  -2  -6 14.0326 4.01725   3
   4  -2  -6 18.8822 4.61281   2
  -4   2   6 21.9111 4.81733   2
   3  -2  -6 297.880 31.5585   3
   3  -2  -6 309.023 34.5702   1
   3  -2  -6 289.590 32.4443   5
   3  -2  -6 330.948 31.6639   2
  -3   2   6 301.643 34.3060   1
  -3   2   6 300.133 33.5401   5
  -3   2   6 278.863 31.5669   2
   2  -2  -6 1616.02 166.528   3
   2  -2  -6 1701.23 167.997   1
   2  -2  -6 1518.81 167.158   5
   2  -2  -6 1750.53 166.649   2
  -2   2   6 1637.29 166.011   4
  -2   2   6 1794.14 168.197   1
  -2   2   6 1426.97 166.477   2
  -2   2   6 1747.09 167.770   5
   1  -2  -6 1624.52 219.565   3
   1  -2  -6 2401.78 221.172   1
   1  -2  -6 2458.96 219.877   2
   1  -2  -6 1804.45 220.173   5
  -1   2   6 1963.93 219.656   2
  -1   2   6 2355.46 219.368   4
  -1   2   6 2579.26 221.501   1
  -1   2   6 2254.69 220.748   5
   0  -2  -6 205.511 21.1596   5
   0  -2  -6 195.811 22.6019   1
   0  -2  -6 183.852 20.2628   3
   0  -2  -6 206.948 20.2408   2
   0   2   6 186.602 20.3759   3
   0   2   6 185.516 21.0907   5
   0   2   6 177.627 20.0554   2
   0   2   6 211.231 19.9071   4
   0   2   6 180.132 22.6819   1
  -1  -2  -6 96.9639 9.95341   2
  -1  -2  -6 109.052 14.8219   1
  -1  -2  -6 101.174 10.0450   3
  -1  -2  -6 93.3283 11.0911   5
   1   2   6 83.6986 9.82168   2
   1   2   6 103.927 13.9559   1
   1   2   6 87.4869 9.90308   4
   1   2   6 80.0608 10.6086   5
   1   2   6 82.9883 9.90510   3
  -2  -2  -6 416.946 39.1962   1
  -2  -2  -6 377.053 36.8775   3
  -2  -2  -6 395.455 36.7231   2
   2   2   6 370.644 37.3735   5
   2   2   6 366.046 36.8448   3
   2   2   6 334.442 36.9910   4
   2   2   6 285.041 38.5635   1
   2   2   6 329.455 36.6906   2
  -3  -2  -6 19.6439 4.54317   3
  -3  -2  -6 22.9632 3.42469   2
   3   2   6 18.2217 6.14899   1
   3   2   6 23.7453 2.56957   6
   3   2   6 15.8265 4.01696   4
   3   2   6 12.5047 4.86978   1
   3   2   6 24.7920 5.72443   5
   3   2   6 24.5446 3.87795   2
   3   2   6 21.5733 4.67008   3
  -4  -2  -6 502.856 47.6572   3
   4   2   6 471.325 46.6693   6
   4   2   6 498.251 48.5231   5
   4   2   6 473.355 48.5021   1
   4   2   6 464.031 48.1594   4
   4   2   6 472.438 47.5795   3
   4   2   6 422.082 49.5412   1
   4   2   6 387.083 46.8971   2
  -5  -2  -6 443.312 43.9317   3
   5   2   6 367.431 44.6179   4
   5   2   6 461.582 45.4621   5
   5   2   6 409.085 42.7552   6
   6   2   6 56.5070 11.8175   4
   6   2   6 49.1681 11.9333   5
   5  -3  -6 13.7241 6.67707   5
   5  -3  -6 16.9344 4.75952   3
  -5   3   6 24.6909 5.52862   2
   4  -3  -6 528.159 58.8518   5
   4  -3  -6 513.597 58.3749   3
   4  -3  -6 612.916 57.6178   3
   4  -3  -6 608.152 57.2312   2
  -4   3   6 542.987 57.5138   2
  -4   3   6 543.622 56.6574   4
   3  -3  -6 1753.17 161.871   2
   3  -3  -6 1573.28 163.506   1
   3  -3  -6 1546.67 162.868   5
   3  -3  -6 1679.53 161.937   3
   3  -3  -6 1607.89 161.832   3
  -3   3   6 1664.99 161.489   4
  -3   3   6 1628.63 163.726   1
  -3   3   6 1350.29 161.805   2
  -3   3   6 1600.38 163.418   5
   2  -3  -6 1295.30 116.390   2
   2  -3  -6 1138.52 116.264   3
   2  -3  -6 1031.62 117.062   5
   2  -3  -6 1223.71 117.820   1
  -2   3   6 1235.01 117.907   1
  -2   3   6 1140.62 115.958   4
  -2   3   6 1159.74 117.617   5
  -2   3   6 975.165 116.207   2
   1  -3  -6 1.65432 2.64042   5
   1  -3  -6 4.84925 2.05729   2
   1  -3  -6 3.13477 4.39718   1
   1  -3  -6 1.23706 1.60656   3
  -1   3   6 1.61222 1.38459   4
  -1   3   6 3.87305 3.90487   1
  -1   3   6 2.41787 1.68064   2
  -1   3   6 1.41240 3.32662   5
   0  -3  -6 114.426 10.8760   2
   0  -3  -6 96.1167 13.0084   1
   0  -3  -6 85.5548 11.6696   5
   0  -3  -6 88.4926 10.5384   3
   0   3   6 107.390 12.3993   5
   0   3   6 100.723 10.4780   2
   0   3   6 85.1478 10.7129   3
   0   3   6 99.4202 13.0267   1
   0   3   6 95.4352 10.2749   4
  -1  -3  -6 34.6144 4.32408   2
  -1  -3  -6 29.8658 5.92786   5
  -1  -3  -6 48.3319 10.4014   1
  -1  -3  -6 31.7722 4.19288   3
   1   3   6 25.9344 6.51511   5
   1   3   6 33.2302 4.29707   3
   1   3   6 30.2442 6.59133   1
   1   3   6 40.0785 4.36378   2
  -2  -3  -6 2018.36 212.139   3
  -2  -3  -6 2176.73 212.081   2
  -2  -3  -6 2343.21 213.758   1
   2   3   6 2078.27 212.727   5
   2   3   6 2007.44 212.087   2
   2   3   6 2005.75 212.349   4
  -3  -3  -6 3203.78 318.454   3
   3   3   6 3383.67 319.125   5
   3   3   6 3296.65 319.032   1
   3   3   6 3075.51 318.196   2
   3   3   6 3120.19 318.773   4
   3   3   6 2669.62 319.526   1
   3   3   6 3353.69 318.440   3
  -4  -3  -6 2146.66 198.402   3
   4   3   6 2033.52 198.304   3
   4   3   6 2007.15 198.755   1
   4   3   6 1816.04 197.802   2
   4   3   6 1956.44 198.794   4
   4   3   6 1809.16 199.623   1
  -5  -3  -6 127.518 14.8566   3
   5   3   6 112.092 17.7937   4
   5   3   6 132.870 16.8661   5
   6   3   6 -2.1874 5.40287   5
   6   3   6 -5.0205 5.62396   4
   5  -4  -6 -1.8970 5.46350   5
   5  -4  -6 1.49007 3.99480   3
   4  -4  -6 3.43845 1.57368   4
   4  -4  -6 4.60488 3.33676   3
   4  -4  -6 1.63725 4.74540   5
   4  -4  -6 5.44004 3.17434   3
  -4   4   6 3.19218 3.58234   2
   3  -4  -6 579.839 53.3468   2
   3  -4  -6 516.792 52.7873   4
   3  -4  -6 503.918 54.7350   5
   3  -4  -6 561.776 53.4531   3
   3  -4  -6 527.921 55.7039   1
   3  -4  -6 537.919 53.2768   3
  -3   4   6 437.089 53.2817   2
  -3   4   6 536.005 55.7831   1
  -3   4   6 509.436 55.3398   5
  -3   4   6 504.783 53.2368   4
   2  -4  -6 1985.19 206.765   4
   2  -4  -6 2062.70 207.082   3
   2  -4  -6 2162.97 208.566   1
   2  -4  -6 2291.33 207.200   2
   2  -4  -6 1756.36 207.989   5
  -2   4   6 1955.96 207.143   2
  -2   4   6 2088.45 206.991   4
  -2   4   6 2140.29 208.578   1
  -2   4   6 2034.10 208.467   5
   1  -4  -6 4584.71 406.045   2
   1  -4  -6 2592.12 405.704   3
   1  -4  -6 4644.50 407.317   1
  -1   4   6 4150.40 406.000   2
  -1   4   6 3460.86 406.917   5
  -1   4   6 4424.67 407.155   1
  -1   4   6 4366.59 405.860   4
   0  -4  -6 1020.59 95.3910   3
   0  -4  -6 1101.73 95.7927   2
   0  -4  -6 1008.52 95.1684   6
   0  -4  -6 1027.84 96.9092   1
   0  -4  -6 814.053 96.4473   5
   0   4   6 950.471 95.4384   4
   0   4   6 803.923 95.4241   3
   0   4   6 979.770 96.5583   1
   0   4   6 780.105 96.7921   5
   0   4   6 956.498 95.5320   2
  -1  -4  -6 7.12558 2.95764   5
  -1  -4  -6 1.40240 0.91968   3
   1   4   6 1.68946 1.23024   2
   1   4   6 5.08575 2.67946   5
   1   4   6 2.26406 1.10856   3
   1   4   6 -1.7489 3.52954   1
  -2  -4  -6 4.92800 5.24655   1
  -2  -4  -6 3.60145 1.30814   3
   2   4   6 6.62977 1.60753   2
   2   4   6 2.66721 4.56550   1
   2   4   6 0.63944 2.15313   5
   2   4   6 3.00205 1.35064   3
   2   4   6 2.96459 2.00168   4
  -3  -4  -6 140.996 14.3962   3
   3   4   6 129.278 14.3447   3
   3   4   6 130.669 14.0504   2
   3   4   6 127.282 15.5089   5
   3   4   6 127.238 15.1225   1
   3   4   6 139.156 15.1683   4
   3   4   6 137.054 18.1239   1
  -4  -4  -6 801.960 73.7868   3
   4   4   6 690.243 74.2831   4
   4   4   6 567.439 75.3768   1
   4   4   6 705.695 73.6258   3
   4   4   6 829.592 78.1861   5
   4   4   6 716.766 73.9093   1
   4   4   6 740.600 73.2151   2
   5   4   6 552.571 58.2949   4
   6   4   6 120.626 18.6376   4
   6   4   6 153.626 19.3533   5
   5  -5  -6 0.73040 6.13199   5
   5  -5  -6 1.54396 2.29101   4
   5  -5  -6 1.38761 4.10525   3
   4  -5  -6 357.273 32.4426   3
   4  -5  -6 309.622 32.3042   3
   4  -5  -6 290.664 34.2971   5
   4  -5  -6 309.057 31.5308   4
  -4   5   6 270.546 32.1692   2
  -4   5   6 307.092 32.5828   4
   3  -5  -6 779.569 79.0494   4
   3  -5  -6 764.364 81.5276   1
   3  -5  -6 865.041 79.5045   3
   3  -5  -6 699.198 80.8185   5
   3  -5  -6 804.159 79.3228   3
  -3   5   6 738.137 79.4887   4
  -3   5   6 794.811 81.7499   1
  -3   5   6 719.477 79.4274   2
  -3   5   6 872.785 82.9550   5
   2  -5  -6 347.230 36.6178   4
   2  -5  -6 353.684 36.8264   3
   2  -5  -6 362.092 36.6464   3
   2  -5  -6 379.155 39.0165   1
   2  -5  -6 404.046 37.0530   2
   2  -5  -6 289.909 38.1888   5
  -2   5   6 369.159 38.8838   1
  -2   5   6 366.535 38.8275   5
  -2   5   6 377.531 37.0282   4
  -2   5   6 350.701 36.9902   2
   1  -5  -6 54.2418 6.10276   4
   1  -5  -6 38.2229 6.28205   3
   1  -5  -6 34.5598 8.44898   5
   1  -5  -6 66.5885 6.54351   6
   1  -5  -6 68.3303 10.0483   1
   1  -5  -6 65.0238 6.74031   2
  -1   5   6 42.8251 9.21528   5
  -1   5   6 58.1721 6.59567   2
  -1   5   6 57.4027 9.02035   1
   0  -5  -6 474.114 45.7139   3
   0  -5  -6 515.701 46.2131   2
   0  -5  -6 490.782 45.7866   6
   0  -5  -6 366.296 47.1421   5
   0  -5  -6 467.842 48.3609   1
   0   5   6 461.924 46.1236   2
   0   5   6 475.624 46.1497   4
   0   5   6 450.229 47.0032   1
   0   5   6 365.956 47.2178   5
  -1  -5  -6 3.76988 0.98605   3
  -1  -5  -6 3.62598 5.26918   1
  -1  -5  -6 4.89887 3.00826   5
   1   5   6 8.80708 3.31147   5
   1   5   6 2.04271 1.34935   2
   1   5   6 8.52743 1.97655   3
   1   5   6 5.88919 1.49818   4
   1   5   6 2.40154 3.53878   1
  -2  -5  -6 675.973 68.9714   1
  -2  -5  -6 685.368 67.4281   3
   2   5   6 681.219 67.4110   3
   2   5   6 675.154 68.1827   1
   2   5   6 688.418 67.5009   2
   2   5   6 622.886 67.0971   6
   2   5   6 630.633 68.3192   5
  -3  -5  -6 2538.54 255.005   3
   3   5   6 2513.55 254.937   3
   3   5   6 2561.53 255.432   4
   3   5   6 2490.77 255.809   5
   3   5   6 2536.98 254.864   2
   4   5   6 984.157 98.0231   2
   4   5   6 1032.08 98.1030   2
   4   5   6 904.513 99.0322   4
   4   5   6 952.809 98.4160   3
   5   5   6 26.6016 7.12562   4
   5   5   6 36.5324 5.33068   2
   5   5   6 32.1235 5.21558   2
   6   5   6 5.31708 6.49316   4
   6   5   6 13.2426 6.51198   5
   5  -6  -6 3.07393 2.93334   4
   5  -6  -6 8.09216 7.45208   5
   5  -6  -6 3.54634 4.36044   3
   4  -6  -6 35.2864 6.44740   3
   4  -6  -6 17.0272 6.39216   5
   4  -6  -6 30.9518 4.73652   4
   4  -6  -6 33.8001 6.57035   3
  -4   6   6 20.7553 6.30303   4
  -4   6   6 26.0229 6.22048   2
   3  -6  -6 322.471 31.8050   4
   3  -6  -6 280.136 34.0904   5
   3  -6  -6 328.665 31.9257   3
   3  -6  -6 295.019 35.5636   1
   3  -6  -6 339.004 32.1044   3
  -3   6   6 292.812 32.1146   2
  -3   6   6 298.965 32.5057   4
   2  -6  -6 2505.66 266.117   3
   2  -6  -6 2776.91 266.045   3
   2  -6  -6 2070.56 267.421   5
   2  -6  -6 2668.61 266.175   6
   2  -6  -6 2717.93 267.814   1
   2  -6  -6 2712.45 266.194   4
  -2   6   6 2803.41 267.939   5
  -2   6   6 2777.89 266.490   4
  -2   6   6 2738.76 266.443   2
   1  -6  -6 3823.99 356.606   6
   1  -6  -6 3603.51 356.698   4
   1  -6  -6 2460.98 357.640   5
   1  -6  -6 3865.64 358.105   1
  -1   6   6 3979.00 356.919   4
  -1   6   6 3406.51 358.137   5
  -1   6   6 3650.66 356.885   2
   0  -6  -6 1140.78 106.728   1
   0  -6  -6 877.050 106.574   5
   0  -6  -6 1134.11 105.230   6
   0   6   6 1097.29 105.521   4
   0   6   6 1086.47 105.533   2
   0   6   6 1109.25 106.398   1
   0   6   6 856.906 106.629   5
  -1  -6  -6 28.3976 6.35576   1
  -1  -6  -6 31.3617 6.34616   5
   1   6   6 29.3244 4.08239   4
   1   6   6 29.4622 3.94355   2
   1   6   6 27.6159 3.42110   3
   1   6   6 30.7500 3.16528   6
   1   6   6 12.8731 4.57067   5
   1   6   6 28.7430 5.97225   1
   2   6   6 98.4768 11.2082   4
   2   6   6 105.391 10.9606   3
   2   6   6 108.167 11.9968   1
   2   6   6 105.088 11.1274   2
   2   6   6 107.419 10.5924   6
   2   6   6 90.0764 12.7184   5
   3   6   6 53.6898 5.82225   6
   3   6   6 61.6976 8.38515   4
   3   6   6 51.0180 6.50508   2
   3   6   6 51.2439 9.10654   5
   3   6   6 46.5485 6.86807   4
   3   6   6 53.5205 6.70842   3
   4   6   6 916.335 98.1790   4
   4   6   6 914.604 97.4691   3
   4   6   6 1026.60 97.2492   2
   4   6   6 979.361 97.1885   2
   5   6   6 671.990 78.8080   4
   5   6   6 845.038 77.4539   2
   6   6   6 141.757 21.6168   4
   6   6   6 185.367 21.9556   5
   5  -7  -6 13.8615 3.88491   4
   5  -7  -6 16.6024 6.81417   3
   5  -7  -6 7.17114 7.83762   5
   4  -7  -6 115.957 12.8494   4
   4  -7  -6 100.992 16.7770   5
   4  -7  -6 135.482 13.5995   3
  -4   7   6 100.884 13.3194   2
   3  -7  -6 120.357 13.0199   4
   3  -7  -6 132.875 13.1812   3
   3  -7  -6 119.574 13.1657   3
   3  -7  -6 93.4192 16.2152   5
   3  -7  -6 142.726 20.4449   1
  -3   7   6 93.9450 14.4911   4
  -3   7   6 131.544 19.7043   1
  -3   7   6 124.765 13.4030   2
   2  -7  -6 77.8258 8.57342   6
   2  -7  -6 69.2634 13.7977   1
   2  -7  -6 74.8258 8.64106   4
   2  -7  -6 47.2924 11.6487   5
  -2   7   6 74.0530 13.0845   1
  -2   7   6 76.7059 8.97771   2
  -2   7   6 73.7057 9.60068   4
  -2   7   6 84.3623 12.4705   5
   1  -7  -6 273.964 27.5831   4
   1  -7  -6 279.990 29.6389   1
   1  -7  -6 197.545 29.2699   5
   1  -7  -6 289.555 27.4039   6
  -1   7   6 257.080 29.6070   5
  -1   7   6 276.853 27.8168   4
  -1   7   6 273.841 29.4179   1
  -1   7   6 283.922 27.7652   2
   0  -7  -6 1034.83 98.2606   1
   0  -7  -6 878.895 98.2692   5
   0  -7  -6 1041.86 96.7649   6
   0   7   6 1015.72 97.0553   4
   0   7   6 738.372 98.1421   5
   0   7   6 979.186 97.0265   2
   0   7   6 1017.28 97.9204   1
  -1  -7  -6 211.570 22.6289   1
  -1  -7  -6 232.143 21.9932   5
   1   7   6 191.134 19.8105   3
   1   7   6 196.116 19.8457   6
   1   7   6 195.864 20.3429   4
   1   7   6 202.331 20.3551   2
   1   7   6 208.556 21.1706   1
   1   7   6 122.973 21.7763   5
   2   7   6 181.033 19.0304   2
   2   7   6 189.642 18.7751   3
   2   7   6 191.212 19.1273   4
   2   7   6 181.421 18.5330   6
   2   7   6 161.006 20.6285   5
   3   7   6 981.420 93.7253   2
   3   7   6 870.760 94.9472   5
   3   7   6 953.165 93.6480   3
   3   7   6 930.882 93.2878   6
   3   7   6 883.915 93.7809   4
   4   7   6 295.112 28.9119   2
   4   7   6 278.003 28.8993   2
   4   7   6 275.662 30.3582   4
   4   7   6 261.347 29.2225   3
   5   7   6 -1.3602 5.47428   4
   5   7   6 -0.0951 2.66852   2
   6   7   6 32.9963 8.35899   5
   6   7   6 22.7252 8.59336   4
   5  -8  -6 2.24652 3.97195   4
   5  -8  -6 1.44706 9.69657   5
   4  -8  -6 -1.7103 6.58089   5
   4  -8  -6 1.07608 2.77603   4
   4  -8  -6 3.51111 3.24413   3
  -4   8   6 5.04773 3.71128   2
   3  -8  -6 244.807 24.7362   3
   3  -8  -6 242.376 24.7397   3
   3  -8  -6 184.154 30.2916   5
   3  -8  -6 248.638 25.0213   4
   3  -8  -6 235.854 31.0054   1
  -3   8   6 251.273 25.2245   2
  -3   8   6 245.537 30.4654   1
   2  -8  -6 1924.65 187.892   4
   2  -8  -6 1908.54 189.793   1
   2  -8  -6 1220.47 189.084   5
   2  -8  -6 1880.10 187.825   6
  -2   8   6 2100.05 189.702   5
  -2   8   6 2047.44 188.093   2
  -2   8   6 1948.00 189.845   1
   1  -8  -6 2232.30 216.866   6
   1  -8  -6 2124.72 217.026   4
   1  -8  -6 1668.95 218.307   5
   1  -8  -6 2190.53 218.444   1
  -1   8   6 2289.30 217.175   2
  -1   8   6 2211.16 218.553   5
  -1   8   6 2255.43 217.241   4
  -1   8   6 2234.13 218.397   1
   0  -8  -6 764.171 73.0553   6
   0  -8  -6 761.164 74.6776   1
   0  -8  -6 735.788 73.2817   4
   0  -8  -6 703.156 74.7138   5
   0   8   6 606.920 74.6423   5
   0   8   6 711.842 73.3059   4
   0   8   6 738.290 74.2883   1
   0   8   6 746.578 73.3206   2
  -1  -8  -6 66.5469 11.6447   1
  -1  -8  -6 69.6661 9.63749   5
   1   8   6 65.5623 6.89169   6
   1   8   6 68.8610 7.66303   2
   1   8   6 67.0990 9.42635   1
   1   8   6 39.7049 10.6892   5
   1   8   6 56.1809 7.56478   4
   2   8   6 1.76490 4.33602   5
   2   8   6 2.98751 1.98970   2
   2   8   6 0.01858 1.83230   4
   2   8   6 1.37599 1.20026   6
   2   8   6 2.50671 1.34766   3
   3   8   6 64.3271 7.80281   3
   3   8   6 66.7761 7.12318   6
   3   8   6 50.6804 11.4692   5
   3   8   6 64.2627 7.82760   2
   3   8   6 61.7500 8.09920   2
   4   8   6 768.740 77.7209   2
   4   8   6 821.709 81.0102   4
   4   8   6 725.123 77.6931   2
   4   8   6 748.156 77.2939   6
   5   8   6 445.787 59.5191   4
   5   8   6 679.897 58.4433   2
   6   8   6 82.2300 18.3783   4
   6   8   6 121.491 18.1538   5
   4  -9  -6 -5.4566 7.47903   5
   4  -9  -6 -0.8079 3.15034   4
  -4   9   6 1.16602 3.82436   2
   3  -9  -6 13.0465 7.50625   5
   3  -9  -6 28.2408 5.63671   4
  -3   9   6 17.0933 11.8631   1
  -3   9   6 21.1708 4.44150   2
   2  -9  -6 0.80829 5.49094   5
   2  -9  -6 -4.5554 9.36113   1
   2  -9  -6 3.86244 2.83141   4
  -2   9   6 -1.8463 5.63136   5
  -2   9   6 -6.0075 7.06749   1
  -2   9   6 0.68859 2.75889   2
   1  -9  -6 466.849 47.6936   4
   1  -9  -6 372.716 49.4540   5
   1  -9  -6 465.406 47.4647   6
   1  -9  -6 430.933 49.9344   1
  -1   9   6 475.782 49.3715   5
  -1   9   6 553.819 50.1676   4
  -1   9   6 486.714 47.7611   2
  -1   9   6 472.696 49.6542   1
   0  -9  -6 1174.71 117.837   4
   0  -9  -6 1231.28 119.224   5
   0  -9  -6 1123.80 119.092   1
   0  -9  -6 1143.46 117.579   6
   0   9   6 1027.23 119.126   5
   0   9   6 1230.89 117.902   2
   0   9   6 1207.70 118.890   1
  -1  -9  -6 329.975 37.5015   1
  -1  -9  -6 425.922 36.9130   5
   1   9   6 360.350 35.5006   2
   1   9   6 224.840 36.9598   5
   1   9   6 354.022 34.9438   6
   1   9   6 336.066 35.5060   4
   1   9   6 365.729 36.3194   1
   2   9   6 5.04558 2.40145   2
   2   9   6 3.59909 2.07937   3
   2   9   6 2.93724 1.51317   3
   2   9   6 1.06486 5.03248   5
   2   9   6 1.29856 1.43272   6
   3   9   6 177.260 19.6304   2
   3   9   6 185.786 19.4856   3
   3   9   6 185.360 19.0278   6
   4   9   6 79.0099 12.4378   4
   4   9   6 81.6320 9.06922   6
   4   9   6 62.7585 12.3487   2
   5   9   6 11.6706 4.17432   2
   5   9   6 12.2489 3.88586   6
   5   9   6 12.7691 6.91352   4
   5   9   6 9.99565 5.78831   5
   4 -10  -6 2.25982 3.95183   4
  -4  10   6 3.62863 6.07340   2
   3 -10  -6 137.535 14.3260   4
   3 -10  -6 69.1536 18.5496   5
  -3  10   6 139.517 14.3012   2
   2 -10  -6 540.222 71.8987   5
   2 -10  -6 725.937 69.9922   4
  -2  10   6 784.803 71.4256   2
   1 -10  -6 1257.80 113.643   4
   1 -10  -6 1010.93 114.648   5
  -1  10   6 1054.67 114.126   2
  -1  10   6 1135.44 114.409   5
   0 -10  -6 261.728 28.2068   4
   0 -10  -6 280.712 28.6321   5
   0  10   6 263.066 27.3218   2
   0  10   6 214.069 28.6204   5
  -1 -10  -6 9.21473 4.17678   5
   1  10   6 1.39924 5.74825   5
   1  10   6 3.88794 1.95577   6
   1  10   6 8.93184 4.54191   2
   2  10   6 27.4919 4.14754   3
   2  10   6 18.8761 7.46097   5
   2  10   6 29.2045 4.29166   6
   2  10   6 34.0905 6.17764   2
   2  10   6 19.3279 5.17977   3
   3  10   6 81.9776 10.1475   3
   3  10   6 69.8996 8.78278   6
   3  10   6 81.6579 9.55769   3
   3  10   6 73.6383 9.64653   2
   4  10   6 259.035 27.6140   2
   4  10   6 259.138 28.3173   6
   5  10   6 396.165 39.2972   2
   5  10   6 250.130 40.8024   4
   5  10   6 419.905 41.1543   5
   5  10   6 410.099 38.8682   6
   3 -11  -6 2.76500 4.06019   4
   3 -11  -6 -4.5797 8.85502   5
  -3  11   6 6.22719 4.21489   2
   2 -11  -6 62.9551 9.50860   4
  -2  11   6 63.6672 9.15784   2
   1 -11  -6 323.624 32.9809   4
   1 -11  -6 303.683 34.9741   5
  -1  11   6 307.310 34.4583   5
  -1  11   6 311.788 32.9497   2
   0 -11  -6 1090.57 97.3183   5
   0 -11  -6 948.690 96.2205   4
   0  11   6 876.866 96.1926   2
   0  11   6 861.327 97.1772   5
   1  11   6 311.275 40.4512   5
   1  11   6 403.719 38.7292   2
   1  11   6 394.007 38.0200   6
   2  11   6 23.9453 5.22153   3
   2  11   6 12.9371 3.38982   3
   2  11   6 19.3155 3.20332   6
   2  11   6 30.7239 5.84200   2
   2  11   6 11.9094 7.97910   5
   3  11   6 33.8266 6.26979   2
   3  11   6 21.2927 4.68438   6
   3  11   6 24.5266 4.93238   3
   4  11   6 1.79445 4.81933   3
   4  11   6 4.22336 3.22014   6
   4  11   6 3.01087 3.69352   2
   3 -12  -6 19.2349 6.01026   4
   3 -12  -6 12.8194 10.7911   5
  -3  12   6 23.2338 5.94867   2
   2 -12  -6 235.099 32.0973   5
   2 -12  -6 282.676 29.2056   4
  -2  12   6 282.649 29.0820   2
   1 -12  -6 365.098 38.7772   5
   1 -12  -6 361.780 37.1500   4
  -1  12   6 323.060 37.0553   2
   0 -12  -6 51.9217 10.3145   5
   0 -12  -6 39.5461 8.81348   4
   0  12   6 42.1049 8.17517   2
   1  12   6 14.2962 3.42622   6
   1  12   6 25.2274 5.01771   2
   2  12   6 29.0379 6.86811   2
   2  12   6 22.5314 4.00851   6
   3  12   6 -1.0430 2.80511   6
   3  12   6 3.15614 3.85226   2
   4  12   6 104.748 13.8669   2
   4  12   6 105.121 13.0146   6
   2 -13  -6 27.8104 6.98159   4
  -2  13   6 20.9274 6.06777   2
   1 -13  -6 169.518 20.9654   4
  -1  13   6 181.911 20.7380   2
   0  13   6 507.190 53.1662   2
   1  13   6 302.169 33.1497   6
   1  13   6 335.420 34.2763   2
   2  13   6 7.27616 4.57303   2
   2  13   6 1.28161 3.21563   6
   3  13   6 -3.0133 3.46385   6
   3  13   6 2.45194 4.85534   2
  -1  14   6 55.9567 13.3698   2
   0  14   6 5.29043 5.59353   2
   1  14   6 27.4426 5.58480   6
   1  14   6 40.3326 10.3578   2
   0   9  -7 222.962 25.3341   6
   0   9  -7 229.775 27.9853   3
   0  -9   7 188.754 25.3435   4
  -1   9  -7 265.079 32.3438   3
  -1   9  -7 253.888 29.0910   6
   1  -9   7 237.099 28.9459   4
   2   8  -7 56.5337 15.2299   3
   2   8  -7 81.8197 12.9941   6
  -2  -8   7 72.5316 18.9322   2
   1   8  -7 149.427 20.7517   3
   1   8  -7 159.359 18.1651   6
  -1  -8   7 130.272 20.0859   2
   0   8  -7 35.3921 9.09280   3
   0   8  -7 42.3123 7.28416   6
   0  -8   7 35.8930 9.04466   2
   0  -8   7 31.2813 7.39975   4
  -1   8  -7 3.18978 5.41164   6
  -1   8  -7 6.48004 7.49916   3
   1  -8   7 2.78036 6.60770   2
   1  -8   7 3.43343 6.18308   4
  -2   8  -7 9.42956 5.58740   6
  -2   8  -7 2.28502 7.30608   3
   2  -8   7 14.8013 6.82871   4
  -3   8  -7 3.62145 8.19552   3
   3  -8   7 5.44752 7.50289   4
   3   7  -7 1.90494 7.66164   3
  -3  -7   7 4.68547 8.90629   2
   2   7  -7 -0.2986 4.12649   6
   2   7  -7 0.04980 5.41324   3
  -2  -7   7 4.02443 7.29824   2
   1   7  -7 145.290 19.7727   3
   1   7  -7 153.025 17.6107   6
  -1  -7   7 143.875 19.4655   2
  -1  -7   7 145.491 17.2126   4
   0   7  -7 808.876 81.0916   6
   0   7  -7 840.948 82.6216   3
   0  -7   7 762.905 81.1532   4
   0  -7   7 755.417 82.0680   2
  -1   7  -7 438.041 47.2072   6
  -1   7  -7 496.876 49.3519   3
   1  -7   7 444.593 48.1287   2
   1  -7   7 434.467 47.5327   4
  -2   7  -7 65.0284 14.8011   3
  -2   7  -7 76.4622 11.6123   6
   2  -7   7 86.8015 12.5393   2
   2  -7   7 69.3441 12.1312   4
  -3   7  -7 -7.3807 6.42585   3
   3  -7   7 -1.5387 6.02063   4
  -4   7  -7 2.76906 7.62965   3
   3   6  -7 -2.2135 5.10941   3
  -3  -6   7 1.14710 7.11095   2
   2   6  -7 76.6396 13.2823   3
  -2  -6   7 92.5915 13.8346   2
   1   6  -7 147.502 19.0553   3
   1   6  -7 149.582 17.2705   6
  -1  -6   7 154.751 16.9084   4
  -1  -6   7 144.174 18.4790   2
   0   6  -7 27.3947 5.41698   6
   0   6  -7 33.2504 6.93138   4
   0   6  -7 28.8633 7.46232   3
   0  -6   7 27.4637 5.85194   4
   0  -6   7 35.9489 7.51885   2
  -1   6  -7 59.7668 11.1652   6
  -1   6  -7 77.7923 14.1451   3
   1  -6   7 82.8400 12.3557   2
   1  -6   7 70.4190 11.4171   4
  -2   6  -7 176.400 20.5886   6
  -2   6  -7 174.918 22.6267   3
   2  -6   7 176.218 21.0294   4
   2  -6   7 201.343 21.3144   2
  -3   6  -7 18.0529 6.55991   3
   3  -6   7 13.0116 5.80405   4
  -4   6  -7 23.2372 7.16997   3
   4  -6   7 20.5930 7.50897   4
   4   5  -7 -0.0787 5.85412   3
  -4  -5   7 4.94265 8.19442   2
   3   5  -7 4.89705 4.59492   3
   3   5  -7 9.00613 4.48128   5
  -3  -5   7 23.7442 7.43362   2
   2   5  -7 1.22006 4.01837   3
   2   5  -7 8.79700 3.41862   5
  -2  -5   7 13.1492 5.93540   2
   1   5  -7 305.597 32.9981   4
   1   5  -7 324.555 34.9422   3
  -1  -5   7 321.842 33.2887   4
  -1  -5   7 335.045 34.9282   2
   0   5  -7 1115.20 122.514   4
   0   5  -7 1355.39 122.870   6
   0  -5   7 1270.87 122.863   4
   0  -5   7 1099.68 125.081   2
  -1   5  -7 886.598 99.8810   3
  -1   5  -7 947.757 95.9316   6
  -1   5  -7 879.568 95.9551   4
   1  -5   7 1062.92 96.8799   2
   1  -5   7 992.503 96.2552   4
   1  -5   7 880.792 100.700   1
  -2   5  -7 174.251 20.8443   6
  -2   5  -7 196.946 22.9962   3
   2  -5   7 197.921 31.7554   1
   2  -5   7 129.838 24.3940   4
   2  -5   7 247.814 22.1282   2
  -3   5  -7 6.28577 4.85921   3
  -3   5  -7 3.92689 4.90700   2
   3  -5   7 5.76784 3.77696   5
   3  -5   7 8.58703 4.06825   2
   3  -5   7 6.31054 4.65439   4
  -4   5  -7 7.43192 5.29111   3
   4  -5   7 4.03918 5.46616   5
   4  -5   7 1.56198 5.45650   4
  -5   5  -7 60.5446 14.1266   3
   5  -5   7 52.1001 14.4344   4
   4   4  -7 154.433 21.2997   5
   4   4  -7 160.429 21.4653   3
  -4  -4   7 228.147 23.0010   2
   3   4  -7 57.1498 9.72045   5
   3   4  -7 52.1984 10.1754   3
  -3  -4   7 83.6048 11.9364   2
   2   4  -7 59.2500 8.54125   5
   2   4  -7 49.4876 9.60454   3
  -2  -4   7 75.0299 10.8789   2
   1   4  -7 92.0188 13.2169   3
   1   4  -7 106.081 11.4606   5
   1   4  -7 93.0803 10.6291   4
  -1  -4   7 90.3322 10.9708   4
  -1  -4   7 98.2344 13.1494   2
   0   4  -7 7.89944 3.23315   6
   0   4  -7 3.82101 4.67622   3
   0   4  -7 3.61904 2.49710   4
   0  -4   7 7.51012 4.43962   2
   0  -4   7 5.65696 3.32146   4
   0  -4   7 7.38586 10.0519   1
  -1   4  -7 277.476 35.0398   2
  -1   4  -7 359.414 36.5195   3
  -1   4  -7 339.737 34.8025   4
  -1   4  -7 342.236 34.7971   6
   1  -4   7 378.305 35.8587   2
   1  -4   7 348.970 35.1275   4
   1  -4   7 341.638 40.9133   1
   1  -4   7 282.865 39.8928   1
  -2   4  -7 647.418 73.2005   2
  -2   4  -7 664.769 72.7814   6
  -2   4  -7 703.431 74.1666   3
   2  -4   7 869.514 73.7464   2
   2  -4   7 689.087 76.9197   1
   2  -4   7 773.131 73.5052   4
   2  -4   7 542.620 72.7992   5
   2  -4   7 772.112 77.7968   1
   2  -4   7 801.625 73.1871   5
  -3   4  -7 256.825 26.4966   3
  -3   4  -7 211.794 25.2730   2
   3  -4   7 189.709 33.0691   1
   3  -4   7 228.848 25.4005   5
   3  -4   7 268.512 25.3112   2
   3  -4   7 216.008 36.8618   1
   3  -4   7 224.525 25.7728   4
   3  -4   7 244.034 25.7194   5
  -4   4  -7 4.64641 4.39325   3
   4  -4   7 9.97807 5.28323   4
   4  -4   7 2.75690 4.78991   5
  -5   4  -7 110.121 14.8033   3
   5  -4   7 81.2290 15.1686   4
   5  -4   7 76.8881 16.2712   5
   5   3  -7 22.9807 8.03594   5
  -5  -3   7 21.8996 9.71059   2
   4   3  -7 3.09652 5.15344   5
   4   3  -7 -2.3021 4.19175   3
  -4  -3   7 4.74692 6.80481   2
   3   3  -7 34.6334 7.53345   5
   3   3  -7 14.6924 4.67567   3
  -3  -3   7 52.9415 9.22464   2
   2   3  -7 0.79667 2.88510   5
   2   3  -7 -2.1113 3.18554   3
  -2  -3   7 -2.0975 4.23058   5
  -2  -3   7 -2.5001 3.90186   2
   1   3  -7 450.839 44.8253   5
   1   3  -7 377.046 45.1555   3
   1   3  -7 441.567 44.0324   4
   1   3  -7 350.460 44.7251   2
   1   3  -7 496.036 50.1672   1
  -1  -3   7 492.270 50.5424   1
  -1  -3   7 459.461 44.9810   5
  -1  -3   7 434.124 44.1304   4
  -1  -3   7 429.618 45.3330   2
  -1  -3   7 443.133 46.3886   3
   0   3  -7 1716.93 161.538   6
   0   3  -7 1271.54 161.689   2
   0   3  -7 1504.55 161.370   4
   0   3  -7 1640.73 165.212   1
   0   3  -7 1795.15 161.832   5
   0   3  -7 1724.94 162.543   3
   0  -3   7 1671.13 162.578   3
   0  -3   7 1660.57 161.566   4
   0  -3   7 1566.94 162.177   2
   0  -3   7 1418.96 164.326   1
   0  -3   7 1609.23 161.730   5
  -1   3  -7 1685.38 170.753   6
  -1   3  -7 1733.82 171.894   3
  -1   3  -7 1548.78 171.095   2
  -1   3  -7 1775.19 170.932   4
   1  -3   7 1723.88 171.007   5
   1  -3   7 1930.00 171.592   2
   1  -3   7 1905.62 171.131   4
   1  -3   7 1347.83 171.283   3
   1  -3   7 1568.61 173.468   1
  -2   3  -7 80.8047 9.59465   6
  -2   3  -7 80.3369 11.9628   3
  -2   3  -7 88.2087 10.4713   4
  -2   3  -7 81.6981 10.4826   2
   2  -3   7 84.6903 18.7675   1
   2  -3   7 86.2123 10.8025   4
   2  -3   7 78.0335 10.2555   5
   2  -3   7 101.781 11.1309   2
   2  -3   7 59.2337 11.1934   3
   2  -3   7 94.0412 17.6520   1
  -3   3  -7 4.28455 3.51515   2
  -3   3  -7 -2.1362 3.80764   3
   3  -3   7 0.38211 3.27472   5
   3  -3   7 -0.7352 2.90475   2
   3  -3   7 -0.7388 3.28762   5
   3  -3   7 4.98030 10.2238   1
   3  -3   7 -0.5736 4.05264   4
   3  -3   7 -2.6964 9.41100   1
  -4   3  -7 2.29509 3.97541   3
   4  -3   7 3.40391 4.45887   5
   4  -3   7 1.09419 4.40283   4
   4  -3   7 -1.1074 13.0305   1
   4  -3   7 5.46175 4.57856   5
  -5   3  -7 98.8332 13.8509   3
   5  -3   7 72.3174 14.7630   4
   5  -3   7 103.921 16.0642   5
   5   2  -7 148.234 22.0619   5
  -5  -2   7 198.675 22.2993   2
   4   2  -7 555.755 60.6348   3
   4   2  -7 539.090 60.8923   5
  -4  -2   7 654.708 61.1642   2
   3   2  -7 96.8175 13.4318   5
   3   2  -7 86.2537 13.1764   3
  -3  -2   7 129.974 14.3047   2
  -3  -2   7 115.730 16.5276   5
   2   2  -7 16.0503 11.9230   1
   2   2  -7 8.17901 3.38614   5
   2   2  -7 6.65128 3.33841   3
   2   2  -7 10.2301 3.81744   2
  -2  -2   7 12.9755 4.78600   5
  -2  -2   7 7.80330 4.02457   2
   1   2  -7 15.3438 4.00437   3
   1   2  -7 10.7218 9.87211   1
   1   2  -7 18.6304 5.28186   5
   1   2  -7 22.9796 4.26429   2
  -1  -2   7 17.3252 4.57378   2
  -1  -2   7 16.6055 10.5713   1
  -1  -2   7 19.3606 5.31926   3
  -1  -2   7 16.7608 3.60181   4
  -1  -2   7 18.8566 4.66581   5
   0   2  -7 135.508 14.9735   4
   0   2  -7 138.591 16.6037   3
   0   2  -7 117.514 15.5853   2
   0   2  -7 157.420 16.0399   5
   0   2  -7 157.463 22.8552   1
   0  -2   7 149.306 15.1847   4
   0  -2   7 150.780 16.1738   5
   0  -2   7 127.385 16.0698   2
   0  -2   7 125.502 21.5647   1
   0  -2   7 141.321 16.9675   3
  -1   2  -7 780.558 81.0303   3
  -1   2  -7 811.200 80.4594   2
  -1   2  -7 783.511 79.9191   6
  -1   2  -7 877.309 80.2206   4
   1  -2   7 762.994 82.9576   1
   1  -2   7 892.933 80.7794   2
   1  -2   7 921.546 80.3689   4
   1  -2   7 583.019 80.4164   3
   1  -2   7 693.077 80.3119   5
  -2   2  -7 2728.88 272.693   3
  -2   2  -7 2778.28 272.208   2
  -2   2  -7 2712.09 272.131   4
  -2   2  -7 2718.45 271.649   6
   2  -2   7 2567.88 274.141   1
   2  -2   7 2040.55 272.103   3
   2  -2   7 2897.81 272.355   2
   2  -2   7 3020.31 275.046   1
   2  -2   7 2816.11 272.258   4
  -3   2  -7 737.932 74.1977   2
  -3   2  -7 762.465 74.7228   3
   3  -2   7 715.397 74.5113   4
   3  -2   7 666.050 76.9101   1
   3  -2   7 768.195 74.1228   2
   3  -2   7 730.067 77.3261   1
   3  -2   7 700.479 74.4329   5
  -4   2  -7 14.0523 4.09690   3
  -4   2  -7 14.7864 3.89577   2
   4  -2   7 12.3367 2.45680   6
   4  -2   7 20.6544 5.20350   5
   4  -2   7 17.9015 3.95866   2
   4  -2   7 9.96749 4.55522   4
   4  -2   7 18.5442 5.51151   5
   4  -2   7 31.4440 11.9115   1
  -5   2  -7 45.4149 9.02850   3
   5  -2   7 33.3235 8.30429   5
   5  -2   7 28.0595 7.50911   4
  -6   2  -7 7.97616 6.19351   3
   6  -2   7 8.47012 8.67154   4
   6  -2   7 -4.1582 7.93784   5
   5   1  -7 12.8334 6.97223   5
   5   1  -7 6.95484 5.62945   3
  -5  -1   7 14.3291 7.73011   2
   4   1  -7 2.12526 4.31412   3
   4   1  -7 2.81390 4.79415   5
  -4  -1   7 7.22330 6.22494   2
   3   1  -7 190.358 24.4475   3
   3   1  -7 213.431 24.1531   2
   3   1  -7 210.798 24.1193   5
  -3  -1   7 237.406 26.3210   5
  -3  -1   7 229.033 24.2839   2
   2   1  -7 57.7917 12.1866   1
   2   1  -7 42.9429 7.64641   2
   2   1  -7 40.8905 7.39504   5
   2   1  -7 37.2382 7.12298   3
  -2  -1   7 57.3684 9.62357   5
  -2  -1   7 46.2508 7.91012   2
  -2  -1   7 37.9194 12.2924   1
   1   1  -7 333.856 36.4323   1
   1   1  -7 239.735 32.3766   3
   1   1  -7 312.070 32.4323   2
   1   1  -7 263.216 32.5037   5
  -1  -1   7 357.975 31.6409   4
  -1  -1   7 313.950 32.6452   2
  -1  -1   7 303.057 33.3548   3
  -1  -1   7 358.824 37.9244   1
  -1  -1   7 339.738 34.1976   5
   0   1  -7 1589.83 179.838   2
   0   1  -7 1777.30 179.494   4
   0   1  -7 1745.82 180.234   3
   0   1  -7 1962.78 180.399   5
   0   1  -7 1899.42 182.638   1
   0  -1   7 1814.94 182.449   1
   0  -1   7 1775.05 179.511   4
   0  -1   7 1691.99 180.224   3
   0  -1   7 1898.48 180.279   5
   0  -1   7 1646.19 179.978   2
  -1   1  -7 1270.94 134.007   6
  -1   1  -7 1267.27 134.938   3
  -1   1  -7 1619.37 138.115   1
  -1   1  -7 1505.22 134.413   4
  -1   1  -7 1474.24 134.679   2
   1  -1   7 1494.92 134.802   2
   1  -1   7 912.948 134.404   3
   1  -1   7 1228.14 136.552   1
   1  -1   7 995.003 134.443   5
   1  -1   7 1550.50 134.485   4
  -2   1  -7 50.1732 5.72633   6
  -2   1  -7 49.9541 7.31958   4
  -2   1  -7 51.6796 8.10690   3
  -2   1  -7 48.5818 7.28819   2
   2  -1   7 47.5946 7.58926   5
   2  -1   7 51.3233 7.49786   2
   2  -1   7 36.0852 7.45074   3
   2  -1   7 51.4323 7.43189   4
   2  -1   7 49.9651 10.6476   1
   2  -1   7 35.6368 9.09780   1
  -3   1  -7 19.6787 3.65408   2
  -3   1  -7 15.0039 3.65612   3
  -3   1  -7 5.56704 3.58851   4
   3  -1   7 9.85892 8.60849   1
   3  -1   7 13.1681 3.84308   5
   3  -1   7 13.4965 4.03417   4
   3  -1   7 11.1150 7.57194   1
   3  -1   7 11.4218 3.40276   3
   3  -1   7 13.2885 3.49996   2
  -4   1  -7 14.8658 2.86638   2
  -4   1  -7 17.5460 4.19108   3
   4  -1   7 16.3809 2.92749   6
   4  -1   7 12.9429 5.07850   4
   4  -1   7 16.6033 2.84576   2
   4  -1   7 25.9359 9.83227   1
   4  -1   7 9.68382 4.54814   5
  -5   1  -7 35.5000 7.77046   3
   5  -1   7 36.1467 10.4992   5
   5  -1   7 18.3739 6.28022   4
  -6   1  -7 358.898 37.7542   3
   6  -1   7 349.140 40.4070   5
   6  -1   7 325.804 38.7571   4
   5   0  -7 296.963 35.9902   5
   5   0  -7 323.511 34.6463   3
  -5   0   7 331.191 36.7560   2
   4   0  -7 753.956 82.3830   5
   4   0  -7 743.240 81.7422   3
  -4   0   7 892.391 82.0792   2
   3   0  -7 180.536 22.5944   5
   3   0  -7 178.211 22.0003   3
   3   0  -7 217.512 22.5084   2
   3   0  -7 148.524 33.0817   1
  -3   0   7 209.332 24.7995   5
  -3   0   7 236.291 22.6280   2
   2   0  -7 -0.3828 3.05289   2
   2   0  -7 1.59393 2.38717   3
   2   0  -7 2.47379 2.98480   5
   2   0  -7 -4.6337 8.91819   1
  -2   0   7 -0.1982 2.89075   2
  -2   0   7 -4.8347 8.83494   1
  -2   0   7 -0.7779 4.00266   5
   1   0  -7 2.03652 2.52141   5
   1   0  -7 1.22502 2.07963   3
   1   0  -7 11.7285 7.48945   1
   1   0  -7 3.85607 2.57095   2
  -1   0   7 4.52992 3.57612   5
  -1   0   7 2.00691 1.47911   4
  -1   0   7 -1.1253 2.36325   2
  -1   0   7 2.85818 3.33871   3
  -1   0   7 14.2807 8.93507   1
   0   0  -7 235.213 26.7822   1
   0   0  -7 224.617 23.1885   5
   0   0  -7 207.868 22.4960   2
   0   0  -7 196.411 22.7269   3
   0   0   7 217.584 26.8615   1
   0   0   7 205.468 22.4958   2
   0   0   7 209.749 23.0649   5
   0   0   7 204.996 22.9184   3
   0   0   7 215.167 21.9115   4
  -1   0  -7 2458.38 260.715   3
  -1   0  -7 2925.99 261.262   5
  -1   0  -7 3017.29 260.387   4
  -1   0  -7 2971.92 263.385   1
  -1   0  -7 2383.63 259.862   6
  -1   0  -7 2866.17 260.586   2
   1   0   7 2821.36 260.333   4
   1   0   7 1994.92 260.475   5
   1   0   7 2441.47 262.322   1
   1   0   7 2708.72 260.533   2
   1   0   7 1822.11 260.258   3
  -2   0  -7 4727.71 451.684   4
  -2   0  -7 4687.67 451.662   2
  -2   0  -7 4671.66 451.910   3
   2   0   7 4080.87 451.590   3
   2   0   7 4032.85 453.593   1
   2   0   7 4461.86 451.638   2
   2   0   7 4471.13 451.879   5
   2   0   7 4709.60 451.712   4
  -3   0  -7 1404.70 147.426   2
  -3   0  -7 1574.58 147.862   3
  -3   0  -7 1465.52 147.804   4
   3   0   7 1412.01 147.642   3
   3   0   7 1487.83 147.857   4
   3   0   7 1522.80 148.030   5
   3   0   7 1330.17 149.355   1
   3   0   7 1540.25 149.553   1
   3   0   7 1382.80 147.430   2
  -4   0  -7 103.137 12.3733   3
  -4   0  -7 99.3642 10.3928   2
   4   0   7 84.2963 18.4625   1
   4   0   7 103.003 10.6047   2
   4   0   7 89.0661 10.1663   6
   4   0   7 89.9559 12.9414   5
   4   0   7 96.9814 12.8873   4
  -5   0  -7 1.41882 3.10861   3
   5   0   7 2.55534 4.97266   4
   5   0   7 -4.1347 4.52409   5
  -6   0  -7 -1.4360 4.01153   3
   6   0   7 1.96424 7.19839   5
   6   0   7 -8.7828 6.64218   4
   5  -1  -7 3.66906 5.92379   5
   5  -1  -7 2.88336 4.98177   3
  -5   1   7 7.42489 6.32950   2
   4  -1  -7 72.8020 11.2817   3
   4  -1  -7 72.6596 12.4767   5
   4  -1  -7 63.1045 12.7632   2
  -4   1   7 82.7928 11.6851   2
   3  -1  -7 574.023 63.6663   5
   3  -1  -7 586.656 62.9775   3
   3  -1  -7 603.583 66.2285   1
   3  -1  -7 628.451 63.2638   2
  -3   1   7 637.706 63.2195   2
  -3   1   7 662.017 73.8463   1
  -3   1   7 619.955 64.9168   5
   2  -1  -7 276.995 33.6343   3
   2  -1  -7 289.975 34.2979   5
   2  -1  -7 347.909 36.9613   1
   2  -1  -7 351.501 34.0782   2
  -2   1   7 357.753 37.6414   1
  -2   1   7 342.602 35.3240   5
  -2   1   7 322.247 33.8783   2
   1  -1  -7 86.0935 9.25772   2
   1  -1  -7 53.2370 8.67990   3
   1  -1  -7 67.4615 14.2741   1
   1  -1  -7 60.1510 9.29802   5
  -1   1   7 94.0362 16.0101   1
  -1   1   7 78.9547 10.6304   5
  -1   1   7 78.7737 10.0637   3
  -1   1   7 69.3926 8.84171   2
  -1   1   7 83.7939 7.84754   4
  -1   1   7 71.1338 7.83500   4
   0  -1  -7 860.025 83.4625   2
   0  -1  -7 843.944 85.7940   1
   0  -1  -7 830.929 83.5643   3
   0  -1  -7 915.686 84.2081   5
   0   1   7 810.208 83.5670   3
   0   1   7 728.125 83.2498   2
   0   1   7 841.318 82.9691   4
   0   1   7 940.279 86.3815   1
   0   1   7 621.893 85.4669   5
  -1  -1  -7 855.675 76.4968   1
  -1  -1  -7 735.766 73.2590   3
  -1  -1  -7 760.420 73.0948   2
  -1  -1  -7 746.170 73.9239   5
   1   1   7 756.627 75.5304   1
   1   1   7 742.834 72.8657   4
   1   1   7 633.322 72.8891   2
   1   1   7 542.095 72.8407   3
  -2  -1  -7 9.74891 2.90349   3
  -2  -1  -7 10.5826 4.06273   2
   2   1   7 8.28577 2.75333   2
   2   1   7 11.5065 3.41028   5
   2   1   7 27.4149 4.76778   4
  -3  -1  -7 335.763 33.5164   3
  -3  -1  -7 340.608 32.9673   2
   3   1   7 322.049 33.7141   4
   3   1   7 325.383 33.4173   3
   3   1   7 264.968 35.8158   1
   3   1   7 307.047 33.1431   2
   3   1   7 326.623 35.5650   1
   3   1   7 329.100 33.9106   5
  -4  -1  -7 169.413 17.7535   3
   4   1   7 160.513 18.5100   4
   4   1   7 175.632 19.4672   5
   4   1   7 138.303 23.3867   1
   4   1   7 153.685 16.2923   6
   4   1   7 160.221 16.8599   2
   4   1   7 134.547 22.4174   1
  -5  -1  -7 2.13223 2.87936   3
   5   1   7 -0.4444 4.51641   4
   5   1   7 3.29974 4.92693   5
   5   1   7 2.05365 1.59548   6
  -6  -1  -7 238.581 25.3435   3
   6   1   7 221.180 28.0211   5
   6   1   7 206.960 26.6365   4
   5  -2  -7 387.415 43.8929   5
   5  -2  -7 392.789 42.2004   3
  -5   2   7 406.896 42.2171   2
   4  -2  -7 713.567 69.6790   2
   4  -2  -7 596.419 71.2104   3
   4  -2  -7 662.555 70.6852   5
  -4   2   7 728.296 69.8257   2
   3  -2  -7 398.718 39.5800   2
   3  -2  -7 394.981 43.1283   1
   3  -2  -7 377.012 39.3147   3
   3  -2  -7 351.601 40.2833   5
  -3   2   7 382.377 39.4411   2
  -3   2   7 371.436 43.0587   1
  -3   2   7 365.561 41.9194   5
   2  -2  -7 0.10473 2.14417   3
   2  -2  -7 4.45225 6.97754   1
   2  -2  -7 1.45197 2.80889   2
   2  -2  -7 0.70137 3.08776   5
  -2   2   7 3.12297 6.70126   1
  -2   2   7 0.88489 4.20220   5
  -2   2   7 3.15180 2.59175   2
   1  -2  -7 1.04172 1.75330   3
   1  -2  -7 5.45509 2.40122   2
   1  -2  -7 -2.9382 5.42041   1
   1  -2  -7 0.92015 2.32690   5
  -1   2   7 -1.8159 5.98331   1
  -1   2   7 1.49391 1.30985   4
  -1   2   7 2.08533 2.00689   2
  -1   2   7 4.45670 3.71291   5
  -1   2   7 0.89247 1.16971   4
   0  -2  -7 372.946 36.7158   2
   0  -2  -7 371.816 37.6370   5
   0  -2  -7 316.386 39.0796   1
   0  -2  -7 372.444 36.8221   3
   0   2   7 356.025 37.5328   5
   0   2   7 360.578 36.8774   3
   0   2   7 315.418 36.4895   2
   0   2   7 353.522 39.5911   1
   0   2   7 371.412 36.2805   4
  -1  -2  -7 4909.16 425.684   1
  -1  -2  -7 4082.80 423.896   5
  -1  -2  -7 4459.56 423.028   2
  -1  -2  -7 4373.19 423.115   3
   1   2   7 3305.72 423.257   5
   1   2   7 3640.26 422.856   2
   1   2   7 4049.04 422.867   4
   1   2   7 4798.38 425.325   1
  -2  -2  -7 4766.17 456.993   3
  -2  -2  -7 5562.51 459.465   1
   2   2   7 3893.31 456.737   2
   2   2   7 4477.62 457.000   4
   2   2   7 4334.65 457.316   5
   2   2   7 4659.94 456.895   3
   2   2   7 4069.10 458.508   1
  -3  -2  -7 2393.22 225.549   3
  -3  -2  -7 2475.79 225.156   2
   3   2   7 2367.24 226.062   5
   3   2   7 1915.74 225.169   2
   3   2   7 1924.25 226.892   1
   3   2   7 2180.49 226.664   1
   3   2   7 2269.24 225.738   4
   3   2   7 2326.72 225.469   3
  -4  -2  -7 87.1217 9.75671   3
   4   2   7 47.0283 12.2977   1
   4   2   7 76.6991 7.90459   6
   4   2   7 75.2530 8.90603   2
   4   2   7 69.6787 13.0122   1
   4   2   7 81.5106 10.9662   4
  -5  -2  -7 -0.9013 2.53261   3
   5   2   7 0.81650 1.45501   6
   5   2   7 -2.9825 4.60803   4
  -6  -2  -7 2.78923 3.76901   3
   6   2   7 0.89350 6.20222   5
   6   2   7 -4.8652 6.25881   4
   5  -3  -7 2.43712 6.60590   5
   5  -3  -7 -1.0919 4.21108   3
  -5   3   7 4.70521 7.19329   2
   4  -3  -7 323.876 31.5958   2
   4  -3  -7 298.595 31.6384   3
   4  -3  -7 263.275 33.1431   5
  -4   3   7 294.232 31.7232   2
   3  -3  -7 959.520 96.7947   1
   3  -3  -7 996.008 94.2975   2
   3  -3  -7 928.518 94.1901   3
   3  -3  -7 827.552 95.1214   5
  -3   3   7 999.666 93.5051   4
  -3   3   7 936.137 96.7263   1
  -3   3   7 835.341 94.1822   2
   2  -3  -7 1030.17 120.422   5
   2  -3  -7 1359.53 119.873   2
   2  -3  -7 1055.99 119.560   3
   2  -3  -7 1333.20 121.737   1
  -2   3   7 1176.35 121.122   5
  -2   3   7 1329.80 121.847   1
  -2   3   7 1159.98 119.200   4
  -2   3   7 1028.39 119.594   2
   1  -3  -7 9.97039 3.70345   5
   1  -3  -7 23.6238 4.31670   2
   1  -3  -7 11.2565 6.20550   1
   1  -3  -7 17.7155 3.84837   3
  -1   3   7 17.7125 6.36934   1
  -1   3   7 17.7679 3.67934   2
  -1   3   7 16.5244 4.84623   5
  -1   3   7 22.0236 3.21054   4
   0  -3  -7 234.474 24.1379   3
   0  -3  -7 214.672 26.8005   1
   0  -3  -7 232.790 25.2535   5
   0  -3  -7 252.451 24.1259   2
   0   3   7 220.167 25.2058   5
   0   3   7 225.307 23.9658   2
   0   3   7 226.120 24.2518   3
   0   3   7 234.489 26.7974   1
  -1  -3  -7 231.482 21.5155   3
  -1  -3  -7 231.781 21.5313   2
  -1  -3  -7 185.931 22.7088   5
  -1  -3  -7 207.942 28.5344   1
   1   3   7 251.332 21.5347   4
   1   3   7 160.284 22.1035   5
   1   3   7 200.846 21.3995   2
   1   3   7 200.624 24.7781   1
   1   3   7 177.823 21.3458   3
  -2  -3  -7 144.878 14.4455   3
  -2  -3  -7 139.473 14.5794   2
  -2  -3  -7 131.388 19.1381   1
   2   3   7 107.804 18.4026   1
   2   3   7 128.364 15.3784   5
   2   3   7 127.741 14.2452   2
   2   3   7 132.655 14.6695   4
   2   3   7 138.635 14.4322   3
  -3  -3  -7 895.348 84.5139   3
   3   3   7 865.606 84.4608   3
   3   3   7 846.457 84.8275   4
   3   3   7 852.271 85.1883   5
   3   3   7 851.367 85.5368   1
   3   3   7 699.074 86.3388   1
   3   3   7 797.311 84.2081   2
  -4  -3  -7 615.562 57.4487   3
   4   3   7 621.589 58.2945   3
   4   3   7 462.436 59.8930   1
   4   3   7 570.516 58.3031   1
   4   3   7 556.909 56.3781   6
   4   3   7 492.355 56.8162   2
   4   3   7 584.549 58.0061   4
  -5  -3  -7 24.8949 5.89191   3
   5   3   7 19.0253 6.09124   4
   5   3   7 25.9687 4.81738   6
   6   3   7 54.2192 12.3944   5
   6   3   7 27.9030 8.38080   4
   5  -4  -7 266.086 33.3057   5
   5  -4  -7 297.843 30.9590   3
   4  -4  -7 596.764 56.5794   2
   4  -4  -7 498.877 58.1870   5
   4  -4  -7 585.406 56.7557   3
  -4   4   7 514.507 56.7275   2
   3  -4  -7 209.683 21.6734   3
   3  -4  -7 214.547 21.5563   3
   3  -4  -7 186.702 26.2991   1
   3  -4  -7 174.157 23.2705   5
   3  -4  -7 226.865 21.7670   2
  -3   4   7 205.332 21.2639   4
  -3   4   7 201.683 26.1116   1
  -3   4   7 176.237 21.5277   2
   2  -4  -7 13.8594 3.16222   3
   2  -4  -7 14.2044 4.87353   5
   2  -4  -7 16.9359 6.88878   1
   2  -4  -7 28.3088 5.09847   2
  -2   4   7 16.4032 6.40463   1
  -2   4   7 14.0019 5.64347   5
  -2   4   7 21.0463 4.53823   2
  -2   4   7 26.5964 4.31116   4
   1  -4  -7 11.1386 2.46292   3
   1  -4  -7 20.3208 6.22424   1
   1  -4  -7 7.83687 3.71537   5
   1  -4  -7 19.6359 3.84426   2
  -1   4   7 15.8800 3.11830   4
  -1   4   7 18.2430 5.64750   1
  -1   4   7 6.82731 4.36897   5
  -1   4   7 13.8638 2.76163   2
   0  -4  -7 387.891 43.9534   5
   0  -4  -7 436.405 42.7103   3
   0  -4  -7 394.530 45.6614   1
   0  -4  -7 457.232 42.8366   2
   0   4   7 381.633 43.9568   5
   0   4   7 419.677 42.7487   2
   0   4   7 394.599 42.8112   3
   0   4   7 443.766 44.6005   1
   0   4   7 443.009 42.8595   4
  -1  -4  -7 2853.40 250.864   2
  -1  -4  -7 2679.87 250.686   3
  -1  -4  -7 2304.90 251.884   5
  -1  -4  -7 2482.64 252.829   1
   1   4   7 1971.32 251.360   5
   1   4   7 2736.91 252.748   1
   1   4   7 2647.59 250.826   2
   1   4   7 2225.71 250.638   3
  -2  -4  -7 4804.40 450.621   2
  -2  -4  -7 4856.59 452.656   1
  -2  -4  -7 4487.66 450.598   3
   2   4   7 4456.47 452.189   1
   2   4   7 4365.45 450.822   4
   2   4   7 4340.73 450.769   3
   2   4   7 4095.74 451.274   5
   2   4   7 4388.17 450.608   2
  -3  -4  -7 1661.87 159.144   3
   3   4   7 1558.32 159.474   4
   3   4   7 1564.58 159.886   5
   3   4   7 1543.14 159.798   1
   3   4   7 1464.74 160.797   1
   3   4   7 1627.99 159.096   3
   3   4   7 1591.38 158.943   2
  -4  -4  -7 33.6171 5.35332   3
   4   4   7 25.2626 4.26171   2
   4   4   7 18.0948 3.89079   3
   4   4   7 19.7214 5.67655   1
   4   4   7 21.1095 5.07084   4
   4   4   7 15.5248 10.0185   1
  -5  -4  -7 0.41535 2.43220   3
   5   4   7 -1.1729 4.72163   4
   6   4   7 7.81633 6.43492   5
   6   4   7 13.4143 6.94198   4
   5  -5  -7 7.18961 7.02479   5
   5  -5  -7 18.9453 5.32002   3
   4  -5  -7 307.981 29.5989   3
   4  -5  -7 278.545 29.5095   3
   4  -5  -7 257.555 31.4785   5
  -4   5   7 257.229 29.4070   2
   3  -5  -7 1290.43 151.787   5
   3  -5  -7 1704.02 150.582   2
   3  -5  -7 1590.34 150.375   3
   3  -5  -7 1561.61 150.487   3
  -3   5   7 1544.06 152.914   1
  -3   5   7 1334.07 150.460   2
  -3   5   7 1385.60 150.354   4
   2  -5  -7 1972.39 173.096   2
   2  -5  -7 1495.50 172.759   3
   2  -5  -7 1359.17 173.902   5
   2  -5  -7 1851.08 172.723   3
  -2   5   7 1740.76 173.022   2
  -2   5   7 1764.51 172.893   4
  -2   5   7 1851.52 174.799   1
  -2   5   7 1663.37 174.588   5
   1  -5  -7 134.945 16.1861   3
   1  -5  -7 181.206 19.8318   1
   1  -5  -7 121.561 17.6630   5
   1  -5  -7 178.883 16.5426   2
  -1   5   7 173.659 16.3507   4
  -1   5   7 119.982 18.3327   5
  -1   5   7 171.349 18.8803   1
  -1   5   7 161.093 16.4023   2
   0  -5  -7 22.3544 3.00070   6
   0  -5  -7 27.6219 3.97682   2
   0  -5  -7 26.9649 3.26077   3
   0  -5  -7 14.5805 4.36748   5
   0  -5  -7 22.1523 6.57428   1
   0   5   7 22.0865 3.72110   4
   0   5   7 17.2904 4.99523   5
   0   5   7 22.4734 3.67040   2
   0   5   7 32.2203 6.10930   1
   0   5   7 18.0471 3.95129   3
  -1  -5  -7 28.4630 3.85139   2
  -1  -5  -7 25.0606 3.03738   3
  -1  -5  -7 11.2692 4.13967   5
  -1  -5  -7 19.2950 7.17576   1
   1   5   7 14.9115 3.33996   3
   1   5   7 12.8515 4.05452   5
   1   5   7 19.2386 3.51470   2
   1   5   7 22.6229 5.14361   1
   1   5   7 19.0479 3.56324   4
  -2  -5  -7 212.002 20.9282   3
  -2  -5  -7 210.322 25.1361   1
   2   5   7 218.388 23.1116   1
   2   5   7 204.032 21.0427   2
   2   5   7 194.980 21.2347   3
   2   5   7 174.954 22.2082   5
  -3  -5  -7 1633.02 157.589   3
   3   5   7 1488.38 157.981   1
   3   5   7 1529.46 158.737   1
   3   5   7 1592.77 157.459   2
   3   5   7 1500.15 158.456   5
   3   5   7 1598.21 158.026   4
   3   5   7 1569.10 157.523   3
  -4  -5  -7 1125.38 109.858   3
   4   5   7 1047.71 109.786   3
   4   5   7 1099.02 109.464   2
   4   5   7 1053.99 110.435   4
   5   5   7 112.414 15.3873   4
   5   5   7 110.625 12.3053   2
   6   5   7 -2.2634 6.41327   4
   6   5   7 2.32882 5.65012   5
   5  -6  -7 167.462 19.8782   3
   4  -6  -7 170.336 23.5814   5
   4  -6  -7 207.816 20.8635   3
   4  -6  -7 199.018 19.7181   4
  -4   6   7 168.109 20.6838   2
   3  -6  -7 62.7016 12.6784   1
   3  -6  -7 58.8752 7.97245   3
   3  -6  -7 48.8809 15.5255   5
   3  -6  -7 64.2904 7.68939   3
   3  -6  -7 58.7220 7.04465   4
  -3   6   7 50.6726 9.10562   4
  -3   6   7 44.9580 11.0970   1
  -3   6   7 51.5357 8.09921   2
   2  -6  -7 83.6518 9.74294   6
   2  -6  -7 64.6664 9.74466   3
   2  -6  -7 96.6541 9.42443   3
   2  -6  -7 87.8647 15.5711   1
   2  -6  -7 65.4562 12.4268   5
   2  -6  -7 99.6503 9.59890   4
  -2   6   7 93.9270 14.4621   1
  -2   6   7 94.9670 10.2981   2
  -2   6   7 84.3120 13.7441   5
  -2   6   7 89.0201 10.5328   4
   1  -6  -7 224.525 21.8152   6
   1  -6  -7 234.670 22.3489   2
   1  -6  -7 228.684 24.8507   1
   1  -6  -7 167.004 23.7048   5
  -1   6   7 163.932 24.1951   5
  -1   6   7 234.345 22.2711   4
  -1   6   7 225.668 22.2608   2
  -1   6   7 210.920 24.0891   1
   0  -6  -7 65.3374 11.8675   1
   0  -6  -7 72.4254 7.41589   6
   0  -6  -7 59.7208 10.2660   5
   0   6   7 81.9608 10.4990   1
   0   6   7 63.4184 7.86417   4
   0   6   7 60.0615 10.9639   5
   0   6   7 71.1989 7.95595   2
  -1  -6  -7 1274.54 121.451   5
  -1  -6  -7 1225.52 121.856   1
  -1  -6  -7 1299.04 119.612   3
   1   6   7 837.053 120.721   5
   1   6   7 1224.89 119.991   4
   1   6   7 1272.87 119.997   2
   1   6   7 1299.14 120.819   1
   1   6   7 1060.40 119.645   3
  -2  -6  -7 2731.15 268.768   3
  -2  -6  -7 2514.33 270.505   1
   2   6   7 2787.31 268.947   2
   2   6   7 2644.22 268.398   6
   2   6   7 2413.98 269.818   5
   2   6   7 2857.46 269.527   1
   2   6   7 2584.00 268.983   4
   2   6   7 2798.69 268.779   3
  -3  -6  -7 518.495 50.5529   3
   3   6   7 478.485 49.8983   6
   3   6   7 459.172 51.7974   5
   3   6   7 503.612 50.4828   2
   3   6   7 490.202 50.4941   3
   3   6   7 517.200 51.1889   4
   4   6   7 6.84223 4.62480   4
   4   6   7 8.44816 2.59648   2
   4   6   7 4.42720 2.91673   3
   5   6   7 10.2686 5.76632   4
   5   6   7 16.6645 3.34315   2
   6   6   7 -2.3899 5.63560   5
   6   6   7 -2.6040 6.93548   4
   5  -7  -7 9.36783 9.25386   5
   4  -7  -7 269.570 25.9390   3
   4  -7  -7 181.925 28.9554   5
   4  -7  -7 271.714 25.3399   4
  -4   7   7 231.186 25.9884   2
   3  -7  -7 1298.17 161.835   5
   3  -7  -7 1676.84 159.750   4
   3  -7  -7 1633.97 159.789   3
   3  -7  -7 1664.10 162.664   1
  -3   7   7 1679.22 162.730   1
  -3   7   7 1455.33 160.181   4
  -3   7   7 1666.45 160.094   2
   2  -7  -7 911.890 126.186   5
   2  -7  -7 1387.15 124.402   3
   2  -7  -7 1299.95 124.706   6
   2  -7  -7 1304.53 127.022   1
   2  -7  -7 872.192 124.484   3
   2  -7  -7 1313.17 124.712   4
  -2   7   7 1326.06 126.947   1
  -2   7   7 1350.29 125.058   2
  -2   7   7 1292.19 125.116   4
  -2   7   7 1290.65 127.000   5
   1  -7  -7 315.130 30.6909   6
   1  -7  -7 246.652 32.7794   5
   1  -7  -7 311.361 33.5464   1
  -1   7   7 319.129 31.0999   2
  -1   7   7 317.549 31.1721   4
  -1   7   7 312.642 32.9783   1
  -1   7   7 273.252 33.2611   5
   0  -7  -7 6.36948 4.01257   5
   0  -7  -7 11.4752 5.72831   1
   0  -7  -7 10.4716 1.95973   6
   0   7   7 9.09401 2.43740   4
   0   7   7 10.5899 4.41221   1
   0   7   7 3.27637 5.01055   5
   0   7   7 8.19205 2.30822   2
  -1  -7  -7 25.6637 7.69157   1
  -1  -7  -7 42.4051 7.80273   5
   1   7   7 51.1497 7.68087   1
   1   7   7 19.3232 6.25405   5
   1   7   7 24.7896 4.01203   3
   1   7   7 38.5447 4.99921   4
   1   7   7 35.7510 4.73152   2
  -2  -7  -7 210.414 28.6953   1
   2   7   7 225.154 24.9975   4
   2   7   7 257.701 25.6621   1
   2   7   7 256.026 24.6685   3
   2   7   7 245.134 24.2858   6
   2   7   7 206.386 26.5493   5
   2   7   7 258.272 24.9766   2
   3   7   7 1760.49 195.344   5
   3   7   7 2039.04 194.142   3
   3   7   7 2032.75 194.210   2
   3   7   7 1930.21 193.660   6
   3   7   7 1850.23 194.355   4
   4   7   7 808.867 106.944   4
   4   7   7 1043.89 104.957   2
   4   7   7 1051.74 104.498   6
   4   7   7 1124.28 105.548   3
   4   7   7 1129.88 105.037   2
   5   7   7 169.806 17.0551   2
   5   7   7 132.431 19.5105   4
   6   7   7 0.17523 6.14698   5
   6   7   7 0.13699 7.79193   4
   4  -8  -7 44.4240 6.74805   4
   4  -8  -7 27.9073 9.61898   5
  -4   8   7 40.4800 8.12502   2
   3  -8  -7 5.03423 11.7719   1
   3  -8  -7 9.46732 3.82601   3
   3  -8  -7 2.76344 6.33309   5
   3  -8  -7 2.14474 2.45621   3
   3  -8  -7 2.58694 2.76079   4
  -3   8   7 6.16076 13.5741   1
  -3   8   7 7.62029 3.52255   2
   2  -8  -7 207.970 32.3797   5
   2  -8  -7 319.993 30.0892   4
   2  -8  -7 296.049 34.2847   1
  -2   8   7 307.679 33.6294   1
  -2   8   7 284.323 30.7945   4
  -2   8   7 321.330 30.4427   2
   1  -8  -7 515.852 50.9640   4
   1  -8  -7 508.071 53.4334   1
   1  -8  -7 418.586 52.9324   5
   1  -8  -7 516.458 50.8053   6
  -1   8   7 526.835 51.1730   2
  -1   8   7 518.801 53.0142   1
  -1   8   7 521.821 51.2836   4
  -1   8   7 463.043 53.1537   5
   0  -8  -7 16.4369 5.62471   5
   0  -8  -7 17.4156 2.67816   6
   0  -8  -7 13.7197 6.66349   1
   0   8   7 9.92052 5.48541   5
   0   8   7 11.9990 2.86965   4
   0   8   7 10.8804 5.06689   1
   0   8   7 16.5909 3.82729   2
  -1  -8  -7 366.778 39.4567   1
  -1  -8  -7 414.023 38.8446   5
   1   8   7 397.956 38.0265   1
   1   8   7 373.707 37.0150   2
   1   8   7 351.529 37.0266   4
   1   8   7 254.119 38.6057   5
   2   8   7 559.879 72.0981   5
   2   8   7 742.388 70.8124   2
   2   8   7 693.552 70.8324   4
   2   8   7 731.820 70.2206   6
   2   8   7 743.343 70.4151   3
   3   8   7 163.442 17.1848   2
   3   8   7 159.608 16.3906   6
   3   8   7 152.130 17.0406   3
   4   8   7 8.04667 5.09168   4
   4   8   7 12.7998 2.35406   6
   4   8   7 8.74323 3.62063   2
   4   8   7 15.2269 3.41320   2
   5   8   7 62.1561 8.30268   2
   5   8   7 48.4844 9.75465   4
   5   8   7 59.6506 7.54375   6
   6   8   7 9.15512 8.69230   4
   4  -9  -7 251.426 24.1254   4
   4  -9  -7 167.356 28.4699   5
  -4   9   7 240.864 24.7541   2
   3  -9  -7 942.119 83.4212   4
   3  -9  -7 588.250 85.4031   5
  -3   9   7 920.982 84.5878   2
   2  -9  -7 658.406 89.4438   5
   2  -9  -7 972.766 95.8027   1
   2  -9  -7 887.627 87.5120   4
  -2   9   7 935.810 87.6945   2
  -2   9   7 875.006 90.1523   1
   1  -9  -7 171.331 17.9740   4
   1  -9  -7 155.776 21.2159   5
   1  -9  -7 136.755 22.8247   1
   1  -9  -7 167.823 17.8694   6
  -1   9   7 168.007 21.3281   5
  -1   9   7 171.751 21.7763   1
  -1   9   7 178.223 18.1762   2
   0  -9  -7 5.42579 5.09888   5
   0  -9  -7 5.63243 7.40003   1
   0  -9  -7 3.84494 2.31601   6
   0   9   7 11.3491 2.79830   2
   0   9   7 8.46550 5.56574   1
   0   9   7 8.96067 3.36151   4
   0   9   7 4.92353 5.63560   5
  -1  -9  -7 9.67734 8.33638   1
  -1  -9  -7 -1.1161 3.82542   5
   1   9   7 1.91089 1.35103   6
   1   9   7 -2.2767 5.55246   5
   1   9   7 7.15403 2.50778   2
   1   9   7 2.95071 4.74626   1
   2   9   7 458.652 42.6121   6
   2   9   7 298.793 44.9360   5
   2   9   7 466.247 43.3184   2
   2   9   7 446.608 42.6902   3
   3   9   7 1078.72 108.576   3
   3   9   7 1065.03 108.834   2
   3   9   7 1073.56 108.246   6
   4   9   7 869.007 87.0382   6
   4   9   7 851.200 88.5824   4
   5   9   7 119.537 14.3291   2
   5   9   7 134.325 13.5456   6
   5   9   7 97.2559 17.5374   4
   4 -10  -7 -0.3310 9.66163   5
   4 -10  -7 6.67611 4.17883   4
  -4  10   7 8.29225 7.49337   2
   3 -10  -7 12.9927 9.08360   5
   3 -10  -7 37.5492 7.10112   4
  -3  10   7 34.3963 7.28314   2
   2 -10  -7 336.462 33.4424   4
   2 -10  -7 254.690 37.8679   5
  -2  10   7 354.485 33.7453   2
   1 -10  -7 657.277 67.7112   4
   1 -10  -7 555.568 69.6662   5
  -1  10   7 683.941 68.3791   2
  -1  10   7 761.355 72.9541   5
   0 -10  -7 141.590 17.1964   5
   0  10   7 109.583 17.8993   5
  -1 -10  -7 21.6060 5.83477   5
   1  10   7 18.8817 3.48798   6
   1  10   7 4.41973 7.01161   5
   2  10   7 180.142 18.0293   2
   2  10   7 170.632 16.9832   6
   2  10   7 158.754 16.9050   3
   2  10   7 143.477 17.2673   3
   3  10   7 21.3524 3.99468   6
   3  10   7 14.5318 3.55360   3
   3  10   7 21.4875 4.42484   2
   4  10   7 57.8783 9.01223   2
   4  10   7 70.9037 12.1932   4
   4  10   7 63.7301 7.90825   6
   5  10   7 49.0023 11.6660   4
   5  10   7 100.012 11.2382   2
   3 -11  -7 393.673 38.5575   4
   3 -11  -7 279.528 42.8552   5
  -3  11   7 412.867 38.8057   2
   2 -11  -7 456.060 42.7669   4
   2 -11  -7 332.492 45.8206   5
  -2  11   7 433.790 42.9204   2
   1 -11  -7 30.4652 8.63262   5
   1 -11  -7 35.4395 6.84228   4
  -1  11   7 28.3002 6.90090   2
   0 -11  -7 5.48119 5.56066   5
   0  11   7 1.22274 6.67316   5
   0  11   7 5.56287 3.09329   2
  -1 -11  -7 1.61338 4.65030   5
   1  11   7 -0.6449 1.90525   6
   1  11   7 3.35919 2.91272   2
   1  11   7 -6.0642 6.95395   5
   2  11   7 188.585 19.4272   6
   2  11   7 181.448 20.2068   2
   3  11   7 467.025 48.6449   3
   3  11   7 486.801 48.0477   6
   3  11   7 458.140 48.9522   2
   4  11   7 392.050 53.0902   3
   4  11   7 509.527 49.7150   2
   4  11   7 515.065 48.8480   6
   3 -12  -7 35.9573 6.94448   4
   3 -12  -7 17.7936 11.9941   5
  -3  12   7 30.6777 6.48036   2
   2 -12  -7 227.368 25.2627   4
   2 -12  -7 204.549 29.3423   5
  -2  12   7 242.911 25.0806   2
   1 -12  -7 565.446 67.5696   5
   1 -12  -7 567.098 61.7871   4
  -1  12   7 654.392 61.8010   2
   0 -12  -7 242.062 25.9289   5
   0  12   7 195.075 23.8989   2
   1  12   7 -0.1778 2.21851   6
   1  12   7 0.92658 3.25428   2
   2  12   7 2.54083 2.56803   6
   2  12   7 10.9165 3.98770   2
   3  12   7 0.33144 2.68500   6
   3  12   7 2.62408 4.04323   2
   4  12   7 44.8159 7.81062   6
   4  12   7 46.3131 9.59599   2
   2 -13  -7 67.8886 20.1414   5
   2 -13  -7 116.215 15.1393   4
  -2  13   7 107.304 13.9630   2
   1 -13  -7 2.25304 7.72341   5
   1 -13  -7 4.69389 5.10135   4
  -1  13   7 0.25958 4.47851   2
   0  13   7 26.5231 6.11639   2
   1  13   7 2.76350 2.90115   6
   1  13   7 10.2438 4.51095   2
   2  13   7 20.9249 3.93956   6
   2  13   7 18.3529 5.50186   2
   3  13   7 264.064 28.7901   6
   3  13   7 284.246 30.2843   2
   0  14   7 149.493 18.9389   2
   1  14   7 5.05465 8.06905   2
   2  14   7 -1.1082 3.70231   6
   1   8  -8 238.422 32.9033   3
   1   8  -8 267.165 28.9634   6
   0   8  -8 106.072 15.0650   6
   0   8  -8 109.073 18.8367   3
   0  -8   8 101.815 17.6098   2
   0  -8   8 84.5582 17.4592   4
  -1   8  -8 -1.6086 8.07121   3
  -1   8  -8 3.02933 5.76986   6
   1  -8   8 2.16421 7.70745   2
   1  -8   8 -2.8899 6.31487   4
  -2   8  -8 4.34856 9.42571   3
  -2   8  -8 -2.3056 6.29800   6
   2  -8   8 2.30629 7.16441   4
   2   7  -8 69.2458 15.6493   3
   2   7  -8 62.8517 12.0946   6
  -2  -7   8 77.1737 17.0297   2
   1   7  -8 3.72601 4.77963   6
   1   7  -8 2.83698 6.49870   3
  -1  -7   8 10.5304 8.26243   2
   0   7  -8 22.3293 5.70317   6
   0   7  -8 11.8478 7.25028   3
   0  -7   8 15.7045 7.41178   2
   0  -7   8 15.2198 6.50909   4
  -1   7  -8 37.6374 9.17646   3
  -1   7  -8 38.3397 6.74680   6
   1  -7   8 26.0197 7.08248   4
   1  -7   8 35.9400 8.31152   2
  -2   7  -8 -0.5336 7.26097   3
  -2   7  -8 4.90111 5.23084   6
   2  -7   8 8.86877 6.57210   2
   2  -7   8 12.0767 6.03679   4
  -3   7  -8 142.358 21.9977   3
   3  -7   8 123.472 18.8736   4
   3   6  -8 16.5267 9.83832   3
  -3  -6   8 10.8770 9.87616   2
   2   6  -8 157.253 20.3046   3
  -2  -6   8 149.853 21.1796   2
   1   6  -8 601.097 63.0860   3
   1   6  -8 607.443 61.5307   6
  -1  -6   8 548.279 62.8221   2
  -1  -6   8 631.178 61.2550   4
   0   6  -8 294.117 31.5186   3
   0   6  -8 277.528 29.4281   6
   0  -6   8 248.107 30.5550   2
   0  -6   8 275.018 29.4535   4
  -1   6  -8 34.2049 8.37678   3
  -1   6  -8 41.1214 6.33803   6
   1  -6   8 37.1324 7.95800   2
   1  -6   8 37.1430 6.89262   4
  -2   6  -8 12.8571 6.81024   3
  -2   6  -8 11.6975 4.65626   6
   2  -6   8 18.5925 5.54461   4
   2  -6   8 10.5986 5.93837   2
  -3   6  -8 6.96454 7.04434   3
   3  -6   8 10.1715 6.17914   4
  -4   6  -8 95.1079 18.2805   3
   4  -6   8 66.7538 16.6913   4
   3   5  -8 54.9555 13.6051   3
  -3  -5   8 104.250 14.9789   2
   2   5  -8 70.6158 13.0949   3
  -2  -5   8 77.6414 13.5490   2
   1   5  -8 -3.1824 4.84556   3
   1   5  -8 1.01118 3.86515   6
  -1  -5   8 2.70271 3.61081   4
  -1  -5   8 12.4787 6.51580   2
   0   5  -8 193.968 22.5505   3
   0   5  -8 166.070 19.6742   4
   0  -5   8 182.977 20.1190   4
   0  -5   8 181.535 21.7099   2
  -1   5  -8 227.163 23.9340   6
  -1   5  -8 237.812 26.2635   3
   1  -5   8 212.839 24.1597   4
   1  -5   8 210.105 25.0686   2
  -2   5  -8 4.21602 3.64049   6
  -2   5  -8 4.60761 5.53429   3
   2  -5   8 5.97702 4.85478   2
   2  -5   8 3.17038 4.26517   4
  -3   5  -8 117.573 16.8755   3
   3  -5   8 110.868 15.0344   4
  -4   5  -8 251.559 29.3659   3
   4  -5   8 237.415 28.2004   4
   4   4  -8 3.75796 7.89624   5
   4   4  -8 2.90425 5.76252   3
  -4  -4   8 7.48372 9.06810   2
   3   4  -8 12.7611 5.33020   3
   3   4  -8 9.44284 5.00507   5
  -3  -4   8 15.5527 7.13914   2
   2   4  -8 238.870 30.8072   3
   2   4  -8 291.802 30.0830   5
  -2  -4   8 314.665 31.6902   2
   1   4  -8 944.978 99.1869   4
   1   4  -8 1051.28 99.2617   5
   1   4  -8 941.713 100.257   3
  -1  -4   8 995.795 98.9141   4
  -1  -4   8 946.618 100.256   2
   0   4  -8 989.848 89.2529   3
   0   4  -8 902.340 87.0771   6
   0   4  -8 753.606 86.8356   4
   0  -4   8 794.331 88.5001   2
   0  -4   8 846.816 87.0581   4
  -1   4  -8 19.8122 6.26357   3
  -1   4  -8 40.1353 6.38871   6
  -1   4  -8 24.8504 4.74680   4
   1  -4   8 31.0358 5.84016   4
   1  -4   8 26.2853 6.18905   2
   1  -4   8 13.9775 14.1494   1
  -2   4  -8 0.27919 4.70557   3
  -2   4  -8 -3.4364 2.71465   6
   2  -4   8 3.94203 15.0842   1
   2  -4   8 -2.8964 3.87405   2
   2  -4   8 -0.2198 3.38203   5
  -3   4  -8 61.3225 11.3136   3
  -3   4  -8 43.9425 10.2500   2
   3  -4   8 54.0757 9.67009   4
   3  -4   8 63.0583 9.48261   2
   3  -4   8 53.0868 9.36190   5
  -4   4  -8 254.992 27.3159   3
   4  -4   8 219.706 26.5121   4
   4  -4   8 219.262 26.9014   5
  -5   4  -8 487.003 50.4588   3
   5  -4   8 422.893 53.4803   5
   5  -4   8 479.108 51.3186   4
   4   3  -8 2.60151 5.23585   3
   4   3  -8 2.99516 5.56193   5
  -4  -3   8 1.67680 7.51133   2
   3   3  -8 39.9962 9.81990   3
   3   3  -8 49.5214 9.51195   5
  -3  -3   8 63.9298 10.9788   2
   2   3  -8 10.6470 4.53128   3
   2   3  -8 18.2213 4.66093   5
  -2  -3   8 20.2339 6.11016   2
  -2  -3   8 20.3253 6.38506   5
   1   3  -8 71.2565 9.56002   5
   1   3  -8 42.5312 10.3550   3
  -1  -3   8 71.7072 12.4263   5
  -1  -3   8 64.4158 7.99403   4
  -1  -3   8 54.1437 12.2894   2
   0   3  -8 537.909 58.9077   4
   0   3  -8 617.498 59.1213   6
   0   3  -8 609.362 60.4685   3
   0   3  -8 595.896 65.6927   1
   0  -3   8 580.673 59.4493   5
   0  -3   8 566.806 60.0663   2
   0  -3   8 521.504 64.9506   1
   0  -3   8 589.822 59.1404   4
  -1   3  -8 1118.91 105.878   3
  -1   3  -8 1070.95 104.415   6
  -1   3  -8 910.358 104.839   2
  -1   3  -8 1003.39 104.547   4
   1  -3   8 1075.08 105.323   2
   1  -3   8 808.855 107.803   1
   1  -3   8 1094.21 104.770   5
   1  -3   8 1141.41 104.762   4
  -2   3  -8 98.4179 12.0896   2
  -2   3  -8 82.7276 13.9781   3
  -2   3  -8 88.1283 10.9709   6
   2  -3   8 100.209 22.2574   1
   2  -3   8 110.982 23.8573   1
   2  -3   8 103.137 12.0621   4
   2  -3   8 105.013 12.5883   2
  -3   3  -8 72.4912 10.8733   3
  -3   3  -8 68.4603 10.0247   2
   3  -3   8 54.1052 10.1895   5
   3  -3   8 78.6430 9.68832   2
   3  -3   8 26.5603 14.0063   1
   3  -3   8 66.9244 9.95586   4
  -4   3  -8 206.267 22.3413   3
   4  -3   8 176.623 22.5309   5
   4  -3   8 194.155 20.2379   2
   4  -3   8 157.488 21.7882   4
  -5   3  -8 13.1327 6.10491   3
   5  -3   8 12.5881 7.95785   5
   5  -3   8 9.10094 7.44173   4
   4   2  -8 7.37421 4.69167   3
   4   2  -8 18.7879 6.04584   5
  -4  -2   8 8.75090 6.98115   2
   3   2  -8 3.98741 3.56531   3
   3   2  -8 1.77557 3.98395   5
  -3  -2   8 -5.8448 12.1453   5
  -3  -2   8 9.96961 5.58667   2
   2   2  -8 316.595 44.0973   5
  -2  -2   8 477.753 45.5025   5
  -2  -2   8 487.958 45.1777   2
   1   2  -8 1396.48 146.075   5
   1   2  -8 1211.13 146.088   3
   1   2  -8 1457.24 149.305   1
  -1  -2   8 1401.76 145.159   4
  -1  -2   8 1388.60 146.232   2
  -1  -2   8 1465.85 146.349   5
  -1  -2   8 1636.20 150.503   3
  -1  -2   8 1592.93 150.207   1
   0   2  -8 1261.44 113.370   5
   0   2  -8 1155.92 116.944   1
   0   2  -8 907.624 112.884   2
   0   2  -8 1056.38 112.449   4
   0   2  -8 1166.27 113.675   3
   0  -2   8 1214.89 113.349   5
   0  -2   8 1080.33 113.657   3
   0  -2   8 1154.23 112.585   4
   0  -2   8 1059.01 116.377   1
   0  -2   8 1062.47 113.293   2
  -1   2  -8 8.87799 3.55634   2
  -1   2  -8 6.38285 2.72080   6
  -1   2  -8 6.18478 2.95842   4
  -1   2  -8 17.4620 5.02601   3
   1  -2   8 18.1334 4.68274   2
   1  -2   8 9.84333 3.85844   3
   1  -2   8 5.94900 3.80121   5
   1  -2   8 12.7370 3.34888   4
   1  -2   8 11.5077 9.68130   1
  -2   2  -8 17.1753 4.81784   3
  -2   2  -8 14.0795 2.70210   6
  -2   2  -8 19.8879 3.95718   4
  -2   2  -8 16.1120 4.10409   2
   2  -2   8 14.1146 4.31487   2
   2  -2   8 11.5036 3.82477   5
   2  -2   8 6.56565 9.37524   1
   2  -2   8 21.0510 11.2177   1
   2  -2   8 13.1508 3.72953   4
  -3   2  -8 13.4464 7.01699   3
  -3   2  -8 18.1969 4.48865   2
   3  -2   8 4.39355 5.52579   4
   3  -2   8 22.6046 4.60281   2
   3  -2   8 21.7471 4.90645   5
   3  -2   8 14.0440 11.0051   1
   3  -2   8 14.9802 11.0701   1
  -4   2  -8 313.212 33.5481   3
   4  -2   8 297.183 34.2960   5
   4  -2   8 323.041 32.1756   2
   4  -2   8 298.681 33.4736   4
  -5   2  -8 779.634 75.7601   3
   5  -2   8 685.522 76.8753   5
   5  -2   8 718.433 75.8517   4
   5   1  -8 148.952 21.3161   3
   5   1  -8 136.285 21.5498   5
  -5  -1   8 200.284 23.5731   2
   4   1  -8 -3.1961 4.67570   5
   4   1  -8 1.78973 4.02344   3
  -4  -1   8 2.74654 6.20145   2
   3   1  -8 8.92568 4.24583   5
   3   1  -8 3.74076 3.64518   3
   2   1  -8 10.9433 11.8359   1
   2   1  -8 1.69613 3.05960   3
   2   1  -8 0.08328 3.23746   5
  -2  -1   8 3.45944 5.42207   5
  -2  -1   8 0.48644 3.91922   2
   1   1  -8 189.940 25.8861   3
   1   1  -8 256.416 31.9691   1
   1   1  -8 227.403 25.7613   2
   1   1  -8 216.193 26.0295   5
  -1  -1   8 252.042 26.2176   2
  -1  -1   8 269.121 26.9616   5
  -1  -1   8 251.964 24.6769   4
  -1  -1   8 247.189 27.2778   3
  -1  -1   8 281.992 33.6884   1
   0   1  -8 2118.46 191.812   5
   0   1  -8 1681.35 191.172   2
   0   1  -8 1890.44 191.643   3
   0   1  -8 2014.08 194.389   1
   0  -1   8 1904.21 190.772   4
   0  -1   8 1849.62 191.668   3
   0  -1   8 1818.37 191.383   2
   0  -1   8 1975.17 194.282   1
   0  -1   8 1774.55 193.772   5
  -1   1  -8 2763.32 265.321   2
  -1   1  -8 3052.50 268.975   1
  -1   1  -8 2871.99 265.005   4
  -1   1  -8 2494.67 265.665   3
  -1   1  -8 2531.58 264.620   6
   1  -1   8 1856.15 265.087   3
   1  -1   8 2946.21 265.070   4
   1  -1   8 2845.77 265.465   2
   1  -1   8 2294.23 267.276   1
  -2   1  -8 329.742 34.3657   3
  -2   1  -8 351.374 33.7341   4
  -2   1  -8 323.619 32.8669   6
  -2   1  -8 365.407 33.9107   2
   2  -1   8 359.659 33.9826   2
   2  -1   8 328.268 38.6255   1
   2  -1   8 353.483 33.7913   4
   2  -1   8 283.683 37.5354   1
   2  -1   8 244.784 33.7226   3
   2  -1   8 282.823 33.8122   5
  -3   1  -8 7.82773 3.37237   2
  -3   1  -8 1.93862 3.07075   3
   3  -1   8 -3.0471 9.08537   1
   3  -1   8 1.48808 3.32026   4
   3  -1   8 -0.2723 2.88701   2
   3  -1   8 3.10206 3.41965   5
   3  -1   8 -0.3559 9.13151   1
  -4   1  -8 52.4675 8.28766   2
  -4   1  -8 63.0480 9.89877   3
   4  -1   8 63.4587 7.92606   2
   4  -1   8 51.7418 10.2512   4
  -5   1  -8 4.26308 4.57470   3
   5  -1   8 0.02814 5.72979   4
   5  -1   8 5.85010 6.67468   5
   6  -1   8 119.645 21.9916   5
   6  -1   8 102.564 20.4364   4
   5   0  -8 16.2873 7.92885   5
   5   0  -8 7.02860 5.69579   3
  -5   0   8 11.6966 9.29437   2
   4   0  -8 107.577 16.9152   5
   4   0  -8 122.036 16.4208   3
  -4   0   8 170.789 17.4776   2
   3   0  -8 -1.1445 3.49305   5
   3   0  -8 0.24080 5.53290   3
  -3   0   8 -0.2290 4.19589   2
   2   0  -8 311.290 40.9269   1
   2   0  -8 285.576 36.0165   5
   2   0  -8 394.016 36.1888   2
   2   0  -8 276.375 35.6122   3
  -2   0   8 389.217 37.5004   5
  -2   0   8 394.810 36.1683   2
  -2   0   8 324.806 42.1328   1
   1   0  -8 1173.22 130.505   1
   1   0  -8 1251.40 128.129   2
   1   0  -8 1054.12 128.055   3
   1   0  -8 1074.67 128.327   5
  -1   0   8 1239.82 128.148   2
  -1   0   8 1382.71 127.321   4
  -1   0   8 1432.82 129.080   5
  -1   0   8 1462.11 132.103   1
  -1   0   8 1306.73 128.775   3
   0   0  -8 839.983 86.3845   1
   0   0  -8 787.865 83.4105   3
   0   0  -8 778.753 83.1376   2
   0   0  -8 891.015 83.8722   5
   0   0   8 782.728 83.4734   3
   0   0   8 824.313 83.6632   5
   0   0   8 818.133 82.5818   4
   0   0   8 762.206 83.1226   2
   0   0   8 861.665 86.5246   1
  -1   0  -8 23.5821 4.62859   2
  -1   0  -8 18.1151 11.6794   1
  -1   0  -8 22.2286 3.83460   6
  -1   0  -8 16.7876 4.49718   3
  -1   0  -8 29.7003 7.35503   5
   1   0   8 24.5706 6.08613   3
   1   0   8 22.3769 4.81825   5
   1   0   8 28.5618 5.18888   4
   1   0   8 18.5705 8.50729   1
   1   0   8 31.3827 6.12102   2
  -2   0  -8 54.6008 7.40840   2
  -2   0  -8 50.4983 8.02589   3
  -2   0  -8 59.4276 7.52223   4
   2   0   8 42.2491 7.65985   3
   2   0   8 50.8075 7.35037   4
   2   0   8 34.0927 10.7112   1
   2   0   8 54.3683 7.44688   2
   2   0   8 46.2900 7.93372   5
  -3   0  -8 0.92319 2.59569   3
  -3   0  -8 -0.6088 3.56537   4
  -3   0  -8 4.32208 2.77439   2
   3   0   8 1.08387 2.80338   2
   3   0   8 -0.2506 8.28395   1
   3   0   8 32.5959 6.57466   3
   3   0   8 -0.6614 3.02365   4
   3   0   8 21.2894 4.24594   5
   3   0   8 3.27368 8.26344   1
  -4   0  -8 232.944 25.2395   3
   4   0   8 235.232 24.2818   2
   4   0   8 222.856 25.5235   4
  -5   0  -8 830.656 84.0947   3
   5   0   8 826.130 85.7208   5
   5   0   8 792.074 84.4415   4
  -6   0  -8 290.676 31.5188   3
   6   0   8 293.673 34.7895   5
   6   0   8 243.665 32.4811   4
   5  -1  -8 159.681 22.3974   5
   5  -1  -8 160.419 20.7468   3
  -5   1   8 186.830 24.3192   2
   4  -1  -8 22.6065 6.38080   5
   4  -1  -8 19.0216 4.92141   3
  -4   1   8 32.1791 7.25555   2
   3  -1  -8 1.37562 2.97592   3
   3  -1  -8 3.73708 4.95671   2
   3  -1  -8 2.06282 3.97749   5
  -3   1   8 5.91929 4.22233   2
   2  -1  -8 4.86792 10.3120   1
   2  -1  -8 8.20115 3.62796   5
   2  -1  -8 16.2332 4.41677   2
   2  -1  -8 8.11370 2.90628   3
  -2   1   8 9.37734 3.53531   2
  -2   1   8 7.23203 5.35404   5
  -2   1   8 2.96072 10.2613   1
   1  -1  -8 462.304 52.4952   1
   1  -1  -8 406.107 49.2319   3
   1  -1  -8 516.740 49.5003   2
   1  -1  -8 396.765 49.6794   5
  -1   1   8 557.415 50.6988   5
  -1   1   8 528.370 48.4838   4
  -1   1   8 449.225 49.2537   2
  -1   1   8 508.673 50.1077   3
  -1   1   8 489.868 53.7590   1
  -1   1   8 467.403 48.4858   4
   0  -1  -8 4469.05 418.679   5
   0  -1  -8 4083.15 417.887   2
   0  -1  -8 4180.78 420.141   1
   0  -1  -8 4092.37 418.037   3
   0   1   8 4157.44 418.429   5
   0   1   8 3580.26 417.707   2
   0   1   8 4159.24 418.060   3
   0   1   8 3960.53 417.365   4
   0   1   8 4631.35 420.697   1
  -1  -1  -8 3665.96 313.937   5
  -1  -1  -8 3631.84 312.945   2
  -1  -1  -8 2900.06 312.021   6
  -1  -1  -8 3172.59 313.041   3
   1   1   8 3665.03 315.584   1
   1   1   8 2316.29 312.819   5
   1   1   8 3022.17 312.694   2
   1   1   8 2154.30 312.483   3
   1   1   8 3402.32 312.574   4
  -2  -1  -8 1188.09 110.042   3
  -2  -1  -8 1269.39 113.538   1
  -2  -1  -8 1126.74 109.733   2
   2   1   8 1166.49 109.765   4
   2   1   8 954.365 109.624   3
   2   1   8 901.301 111.757   1
   2   1   8 996.980 110.028   5
   2   1   8 1060.29 109.644   2
  -3  -1  -8 3.59753 2.36640   2
  -3  -1  -8 7.37435 2.76927   3
   3   1   8 3.51445 2.69287   3
   3   1   8 7.09308 7.70071   1
   3   1   8 6.41594 3.05330   4
   3   1   8 2.17568 3.07233   5
   3   1   8 6.73724 7.85450   1
   3   1   8 4.20838 2.60182   2
  -4  -1  -8 4.01575 2.12133   2
  -4  -1  -8 4.09857 3.95920   3
   4   1   8 -0.3669 5.50122   4
   4   1   8 4.48029 2.81645   2
  -5  -1  -8 23.0911 4.92750   3
   5   1   8 16.4828 6.23084   4
   5   1   8 18.0161 7.27152   5
  -6  -1  -8 306.734 32.5496   3
   6   1   8 305.996 35.8676   5
   6   1   8 257.883 33.7739   4
   5  -2  -8 98.3269 16.8421   5
   5  -2  -8 92.1901 14.4012   3
   4  -2  -8 219.226 25.7532   3
   4  -2  -8 211.201 27.3271   5
  -4   2   8 273.872 26.4741   2
   3  -2  -8 93.1629 12.6677   2
   3  -2  -8 84.4545 11.1986   3
   3  -2  -8 82.3930 12.4810   5
  -3   2   8 94.7232 11.6395   2
   2  -2  -8 123.288 16.0703   3
   2  -2  -8 162.022 16.8820   2
   2  -2  -8 155.720 22.3449   1
   2  -2  -8 127.579 17.1252   5
  -2   2   8 156.035 16.3759   2
  -2   2   8 155.184 18.8896   5
  -2   2   8 168.510 23.2933   1
   1  -2  -8 570.289 66.5164   3
   1  -2  -8 681.594 66.7593   2
   1  -2  -8 626.730 69.1714   1
   1  -2  -8 537.540 67.1336   5
  -1   2   8 716.576 65.9512   4
  -1   2   8 693.085 69.9807   1
  -1   2   8 773.279 68.1716   5
  -1   2   8 587.152 66.4693   2
  -1   2   8 705.780 67.2071   3
  -1   2   8 630.880 65.9652   4
   0  -2  -8 457.387 46.3862   3
   0  -2  -8 446.185 46.2161   2
   0  -2  -8 416.132 49.2393   1
   0  -2  -8 501.918 47.4240   5
   0   2   8 449.735 45.6615   4
   0   2   8 467.581 46.4834   3
   0   2   8 466.296 47.1937   5
   0   2   8 368.813 45.9067   2
   0   2   8 455.175 49.9171   1
  -1  -2  -8 46.5104 6.53844   2
  -1  -2  -8 50.9016 7.16292   3
  -1  -2  -8 43.8947 8.64326   5
  -1  -2  -8 47.4663 11.4048   1
   1   2   8 50.1737 10.9066   1
   1   2   8 25.2436 6.30051   3
   1   2   8 56.2474 6.05384   4
   1   2   8 36.4626 6.03687   2
   1   2   8 28.5193 7.37572   5
  -2  -2  -8 539.204 50.2387   2
  -2  -2  -8 553.306 54.6296   1
  -2  -2  -8 560.819 50.4954   3
   2   2   8 447.536 50.7173   5
   2   2   8 424.221 50.0286   2
   2   2   8 460.766 50.1697   3
   2   2   8 455.052 53.1282   1
   2   2   8 490.374 50.2643   4
  -3  -2  -8 140.984 14.8514   3
  -3  -2  -8 142.214 14.3248   2
   3   2   8 122.242 14.4067   2
   3   2   8 120.631 15.0736   4
   3   2   8 162.715 19.4561   1
   3   2   8 130.757 14.8960   3
   3   2   8 123.464 20.3861   1
   3   2   8 126.812 15.6195   5
  -4  -2  -8 52.4391 7.70868   3
   4   2   8 36.7223 8.57331   4
   4   2   8 50.1330 6.84314   2
  -5  -2  -8 425.843 44.1648   3
   5   2   8 415.686 44.9850   4
  -6  -2  -8 232.196 25.2680   3
   6   2   8 220.918 28.6212   5
   6   2   8 198.671 27.1852   4
   5  -3  -8 186.641 25.2799   5
   5  -3  -8 191.923 22.6694   3
   4  -3  -8 49.3796 11.4422   5
   4  -3  -8 52.9016 9.16143   3
  -4   3   8 54.3204 10.2141   2
   3  -3  -8 14.3268 3.61243   3
   3  -3  -8 6.98254 4.82036   5
   3  -3  -8 10.5788 13.8271   1
   3  -3  -8 12.3691 4.67607   2
  -3   3   8 12.1878 3.94258   2
   2  -3  -8 31.8422 9.00682   1
   2  -3  -8 26.7573 7.11254   5
   2  -3  -8 32.9755 6.55529   2
   2  -3  -8 23.2776 5.37860   3
  -2   3   8 25.1278 6.95331   5
  -2   3   8 25.1007 8.88348   1
  -2   3   8 27.6280 5.42323   2
  -2   3   8 26.3828 4.23285   4
   1  -3  -8 829.826 77.6710   2
   1  -3  -8 792.865 79.9193   1
   1  -3  -8 635.941 78.1951   5
   1  -3  -8 691.638 77.4100   3
  -1   3   8 691.737 77.3755   2
  -1   3   8 839.992 80.3248   1
  -1   3   8 772.389 77.0412   4
  -1   3   8 849.395 79.1227   5
   0  -3  -8 3709.23 365.034   3
   0  -3  -8 3806.90 366.072   5
   0  -3  -8 3168.14 367.907   1
   0  -3  -8 3882.79 365.024   2
   0   3   8 3293.29 364.816   2
   0   3   8 3650.83 364.604   4
   0   3   8 3660.25 367.040   1
   0   3   8 3768.19 365.945   5
  -1  -3  -8 4382.72 393.187   3
  -1  -3  -8 4511.51 393.162   2
  -1  -3  -8 3927.57 394.261   5
  -1  -3  -8 4778.21 396.159   1
   1   3   8 2865.08 393.367   5
   1   3   8 4073.18 392.945   4
   1   3   8 3756.67 392.972   2
   1   3   8 2933.01 392.818   3
  -2  -3  -8 1497.49 139.018   3
  -2  -3  -8 1441.61 141.911   1
  -2  -3  -8 1506.47 138.908   2
   2   3   8 1272.70 138.801   2
   2   3   8 1333.40 138.992   4
   2   3   8 1195.67 139.423   5
   2   3   8 1322.66 138.860   3
   2   3   8 1424.20 141.447   1
  -3  -3  -8 5.16325 2.23740   3
  -3  -3  -8 6.33189 2.11209   2
   3   3   8 4.59158 2.90681   4
   3   3   8 4.53422 2.15837   2
   3   3   8 10.9127 8.86103   1
   3   3   8 7.62653 3.54189   5
   3   3   8 8.65252 6.35566   1
   3   3   8 4.64271 2.45479   3
  -4  -3  -8 2.60391 2.44604   3
   4   3   8 6.33970 3.98342   4
   4   3   8 3.56609 2.36495   2
  -5  -3  -8 86.7628 11.5836   3
   5   3   8 92.2930 13.7283   4
  -6  -3  -8 331.312 34.1249   3
   6   3   8 271.922 35.6947   4
   6   3   8 324.839 37.0032   5
   5  -4  -8 137.451 21.5974   5
   5  -4  -8 149.426 18.3676   3
   4  -4  -8 428.082 51.1180   5
   4  -4  -8 509.160 50.5559   2
   4  -4  -8 478.623 51.9769   3
  -4   4   8 492.280 49.8517   2
   3  -4  -8 394.960 38.7870   2
   3  -4  -8 400.494 43.9364   1
   3  -4  -8 376.724 38.4990   3
   3  -4  -8 336.423 38.3734   3
  -3   4   8 397.424 37.9089   4
  -3   4   8 323.607 38.4405   2
   2  -4  -8 31.0024 7.57265   5
   2  -4  -8 24.3408 9.03548   1
   2  -4  -8 32.8063 6.32780   2
   2  -4  -8 27.7246 5.38398   3
  -2   4   8 30.7173 5.45851   2
  -2   4   8 25.6601 7.23444   5
  -2   4   8 33.7609 5.13220   4
  -2   4   8 52.3380 9.86422   1
   1  -4  -8 226.859 33.0690   1
   1  -4  -8 188.764 25.8960   5
   1  -4  -8 278.495 25.1286   2
   1  -4  -8 224.276 24.8374   3
  -1   4   8 239.370 27.0922   5
  -1   4   8 256.066 28.3995   1
  -1   4   8 220.453 24.7886   2
  -1   4   8 259.594 24.6003   4
   0  -4  -8 41.4327 5.93103   2
   0  -4  -8 33.7238 8.23212   5
   0  -4  -8 25.8628 8.66120   1
   0  -4  -8 54.1636 6.02004   3
   0   4   8 27.6340 8.58234   5
   0   4   8 37.5175 5.55517   2
   0   4   8 29.2342 7.90892   1
   0   4   8 26.2329 5.00672   4
   0   4   8 29.8281 6.38157   3
  -1  -4  -8 255.372 29.5448   5
  -1  -4  -8 325.844 27.8413   3
  -1  -4  -8 280.655 32.2547   1
  -1  -4  -8 314.526 27.9771   2
   1   4   8 281.378 27.8249   2
   1   4   8 265.725 31.1436   1
   1   4   8 204.199 27.6334   3
   1   4   8 288.088 27.8208   4
   1   4   8 195.321 28.6896   5
  -2  -4  -8 1458.16 140.464   3
  -2  -4  -8 1530.18 140.482   2
  -2  -4  -8 1515.86 142.169   5
  -2  -4  -8 1416.65 143.271   1
   2   4   8 1194.90 141.115   5
   2   4   8 1342.44 140.596   4
   2   4   8 1305.21 140.402   2
   2   4   8 1335.19 140.399   3
   2   4   8 1407.80 142.715   1
  -3  -4  -8 697.493 67.4318   3
   3   4   8 647.115 67.2230   2
   3   4   8 636.892 70.2426   1
   3   4   8 627.127 68.2554   5
   3   4   8 658.780 67.7732   4
   3   4   8 694.743 67.4233   3
  -4  -4  -8 3.48676 2.29510   3
   4   4   8 3.70105 4.34455   4
   4   4   8 -4.6389 5.71281   1
   4   4   8 2.85116 2.19709   2
  -5  -4  -8 154.713 16.5603   3
   5   4   8 146.692 18.3046   4
   5   4   8 129.982 15.5688   2
   6   4   8 130.073 18.9699   5
   6   4   8 91.8530 18.1693   4
   5  -5  -8 92.0033 19.2467   5
   5  -5  -8 120.654 15.2066   3
   4  -5  -8 14.1540 6.97746   5
   4  -5  -8 11.5116 4.24559   3
  -4   5   8 15.8790 5.32940   2
   3  -5  -8 12.5711 3.52182   3
   3  -5  -8 13.9224 3.45323   3
   3  -5  -8 17.1692 12.1187   1
   3  -5  -8 20.8529 4.61969   2
   3  -5  -8 11.4301 5.34062   5
  -3   5   8 16.5824 3.93565   4
  -3   5   8 21.3115 4.32760   2
   2  -5  -8 1.45029 3.53265   5
   2  -5  -8 -4.8373 8.39714   1
   2  -5  -8 0.76771 2.91022   2
   2  -5  -8 1.89011 2.08296   3
  -2   5   8 -0.3691 2.31025   2
  -2   5   8 2.04476 5.50535   5
  -2   5   8 8.54872 7.57038   1
  -2   5   8 0.41207 2.47951   4
   1  -5  -8 572.976 57.1593   1
   1  -5  -8 612.152 54.7855   2
   1  -5  -8 442.500 55.7507   5
   1  -5  -8 547.022 54.5188   3
  -1   5   8 549.598 54.4456   4
  -1   5   8 476.732 56.3640   5
  -1   5   8 538.388 54.6263   2
   0  -5  -8 2652.11 252.626   2
   0  -5  -8 2423.89 253.946   5
   0  -5  -8 2442.32 254.341   1
   0  -5  -8 2623.84 252.070   6
   0  -5  -8 2653.69 252.378   3
   0   5   8 2409.58 252.436   4
   0   5   8 2513.14 252.576   2
   0   5   8 2529.48 254.007   1
   0   5   8 2312.39 253.814   5
   0   5   8 2465.30 252.508   3
  -1  -5  -8 3286.90 358.542   5
  -1  -5  -8 3598.88 359.497   1
  -1  -5  -8 4266.43 357.366   2
  -1  -5  -8 3984.31 357.047   3
   1   5   8 3585.84 357.213   4
   1   5   8 2562.48 357.824   5
   1   5   8 2846.67 356.972   3
   1   5   8 3693.96 357.255   2
   1   5   8 4081.74 358.903   1
  -2  -5  -8 629.247 58.0045   5
  -2  -5  -8 564.766 55.8122   3
  -2  -5  -8 529.454 59.5333   1
   2   5   8 582.464 56.2216   4
   2   5   8 530.939 57.9645   1
   2   5   8 530.102 55.8208   3
   2   5   8 447.621 56.7766   5
   2   5   8 568.033 55.9381   2
  -3  -5  -8 16.7869 3.93160   3
   3   5   8 17.4788 8.35342   1
   3   5   8 10.8777 2.75650   3
   3   5   8 16.7889 3.91486   4
   3   5   8 14.5840 2.90509   2
   3   5   8 6.17293 4.28393   5
  -4  -5  -8 -0.0350 1.95733   3
   4   5   8 1.08350 1.98996   2
   4   5   8 -0.6625 5.22312   1
  -5  -5  -8 60.9423 8.43952   3
   5   5   8 52.7883 10.9769   4
   5   5   8 48.7837 7.42056   2
   6   5   8 221.376 27.2912   5
   6   5   8 195.608 26.4099   4
   5  -6  -8 163.669 19.8837   3
   5  -6  -8 128.079 23.7918   5
   4  -6  -8 814.005 75.1805   3
   4  -6  -8 669.015 77.1990   5
  -4   6   8 708.665 75.0596   2
   3  -6  -8 384.310 34.3860   3
   3  -6  -8 328.155 34.4450   3
   3  -6  -8 371.098 40.6959   1
   3  -6  -8 275.441 36.6128   5
  -3   6   8 324.411 34.6268   2
  -3   6   8 312.596 34.7127   4
   2  -6  -8 3.54598 1.71671   3
   2  -6  -8 7.94594 3.27679   2
   2  -6  -8 2.38162 1.98761   6
   2  -6  -8 5.74954 4.13886   5
   2  -6  -8 6.04494 8.11981   1
   2  -6  -8 5.43352 2.23823   3
  -2   6   8 4.43192 2.63967   2
  -2   6   8 5.85050 3.01987   4
  -2   6   8 14.1676 7.33836   1
   1  -6  -8 19.4008 3.54427   6
   1  -6  -8 22.8274 4.83468   2
   1  -6  -8 15.5776 2.90242   3
   1  -6  -8 32.1831 8.17051   1
   1  -6  -8 14.3579 4.98093   5
  -1   6   8 12.9271 5.99919   5
  -1   6   8 19.4900 4.30094   2
  -1   6   8 17.8436 3.31987   4
  -1   6   8 21.0993 6.77124   1
   0  -6  -8 42.7548 6.00210   2
   0  -6  -8 44.2886 4.82006   6
   0  -6  -8 23.1686 8.70634   1
   0  -6  -8 41.2832 4.63961   3
   0  -6  -8 32.0535 8.77202   5
   0   6   8 37.4984 5.59725   2
   0   6   8 44.4880 5.81618   4
   0   6   8 26.6305 7.22379   5
   0   6   8 29.5507 7.18638   1
  -1  -6  -8 436.958 45.4133   5
  -1  -6  -8 505.324 43.0595   3
  -1  -6  -8 414.447 46.7633   1
   1   6   8 312.868 43.0631   3
   1   6   8 488.883 43.5348   2
   1   6   8 483.505 45.1212   1
   1   6   8 298.192 44.4832   5
   1   6   8 451.845 43.4896   4
  -2  -6  -8 2646.81 267.824   1
  -2  -6  -8 3120.54 267.440   5
  -2  -6  -8 2670.17 265.292   3
   2   6   8 2114.70 266.260   5
   2   6   8 2511.19 265.546   4
   2   6   8 2723.36 266.477   1
   2   6   8 2642.29 265.478   2
  -3  -6  -8 1125.24 109.411   3
   3   6   8 1049.48 110.486   1
   3   6   8 1079.22 109.368   2
   3   6   8 1126.51 109.952   4
   3   6   8 1069.07 109.366   3
   3   6   8 1027.46 111.244   5
  -4  -6  -8 64.4367 8.28050   3
   4   6   8 63.5258 10.2495   4
   4   6   8 62.4506 7.80058   2
   5   6   8 34.7467 7.44172   4
   5   6   8 30.3984 5.77424   2
   6   6   8 20.8579 8.62645   5
   6   6   8 10.2352 8.29300   4
   4  -7  -8 0.71232 3.72255   3
   4  -7  -8 6.02531 7.66039   5
  -4   7   8 4.74958 4.45934   2
   3  -7  -8 81.2277 10.6645   3
   3  -7  -8 64.8698 14.5309   5
   3  -7  -8 109.707 10.6269   3
   3  -7  -8 103.000 20.2993   1
  -3   7   8 90.9199 11.2682   2
  -3   7   8 74.7781 12.4499   4
   2  -7  -8 60.9344 6.32195   3
   2  -7  -8 42.2803 10.7620   5
   2  -7  -8 54.9848 7.23676   6
   2  -7  -8 47.4294 11.5489   1
   2  -7  -8 47.4322 7.00731   3
  -2   7   8 61.5939 8.60221   4
  -2   7   8 49.1202 10.6435   1
  -2   7   8 56.4089 7.57927   2
   1  -7  -8 171.203 17.0893   6
   1  -7  -8 170.214 22.1717   1
   1  -7  -8 144.596 19.9647   5
  -1   7   8 139.800 20.6319   5
  -1   7   8 180.013 20.8165   1
  -1   7   8 166.577 17.7169   4
  -1   7   8 168.573 17.5687   2
   0  -7  -8 1265.91 128.531   6
   0  -7  -8 1223.89 130.535   5
   0  -7  -8 1339.02 130.812   1
   0   7   8 1277.22 128.804   4
   0   7   8 1285.26 130.004   1
   0   7   8 1338.23 128.848   2
   0   7   8 1177.73 130.580   5
  -1  -7  -8 1635.95 153.123   5
  -1  -7  -8 1552.74 153.575   1
  -1  -7  -8 1680.96 150.763   3
   1   7   8 1679.86 152.325   1
   1   7   8 1594.72 151.327   4
   1   7   8 1004.97 150.764   3
   1   7   8 1684.97 151.340   2
   1   7   8 1144.49 152.359   5
  -2  -7  -8 216.561 20.7661   3
  -2  -7  -8 186.223 27.2376   1
  -2  -7  -8 237.196 24.0137   5
   2   7   8 191.928 21.2826   4
   2   7   8 154.104 22.9736   5
   2   7   8 204.515 22.6588   1
   2   7   8 202.806 21.1668   2
   2   7   8 196.898 20.8830   3
   3   7   8 -2.3071 2.04556   3
   3   7   8 3.00068 2.36328   2
   3   7   8 0.73187 0.88039   6
   3   7   8 -0.8923 3.43927   4
   4   7   8 21.3538 4.37613   2
   4   7   8 15.3994 2.62649   6
   4   7   8 12.8453 5.11010   4
   5   7   8 6.63088 3.06647   2
   5   7   8 5.10835 2.15519   6
   5   7   8 14.1437 6.03208   4
   6   7   8 230.207 28.0279   5
   6   7   8 136.163 25.1368   4
   4  -8  -8 439.590 57.5050   5
   4  -8  -8 582.362 54.2763   4
  -4   8   8 553.529 54.9112   2
   3  -8  -8 213.122 28.4400   3
   3  -8  -8 236.859 31.9073   5
   3  -8  -8 324.658 28.8226   4
  -3   8   8 327.447 29.4788   2
   2  -8  -8 20.0272 10.2306   5
   2  -8  -8 27.6321 11.5402   1
   2  -8  -8 50.8196 5.90175   4
  -2   8   8 37.8449 10.4491   1
  -2   8   8 40.1266 8.50018   4
  -2   8   8 41.2449 6.66888   2
   1  -8  -8 -1.7445 7.96881   1
   1  -8  -8 3.62886 5.17965   5
   1  -8  -8 -1.6787 1.98994   6
  -1   8   8 2.19189 6.37463   5
  -1   8   8 -2.4415 6.36073   1
  -1   8   8 -2.2297 2.69591   4
  -1   8   8 1.17545 2.33981   2
   0  -8  -8 32.9976 7.68008   5
   0  -8  -8 28.6223 4.86754   6
   0  -8  -8 27.6608 8.75513   1
   0   8   8 34.0179 5.28462   2
   0   8   8 29.6324 5.77532   4
   0   8   8 26.7087 6.80757   1
   0   8   8 20.3222 7.25380   5
  -1  -8  -8 1027.58 95.4722   5
  -1  -8  -8 887.742 95.8259   1
   1   8   8 916.562 93.5246   4
   1   8   8 1001.37 94.5024   1
   1   8   8 702.758 94.9558   5
   1   8   8 986.644 93.5271   2
  -2  -8  -8 1978.18 211.180   1
   2   8   8 2195.22 208.497   3
   2   8   8 2354.30 209.411   1
   2   8   8 1584.75 209.913   5
   2   8   8 2221.95 208.896   2
   3   8   8 1085.08 109.265   2
   3   8   8 1084.82 109.084   3
   3   8   8 1061.84 108.573   6
   4   8   8 108.493 15.0472   4
   4   8   8 118.968 13.0587   2
   4   8   8 114.446 12.0313   6
   5   8   8 2.38958 3.27458   2
   5   8   8 5.00535 5.93630   4
   4  -9  -8 10.2034 3.93875   4
   4  -9  -8 -0.2234 8.84649   5
  -4   9   8 2.31264 5.04107   2
   3  -9  -8 198.078 18.9494   4
   3  -9  -8 119.831 22.8859   5
  -3   9   8 188.911 19.5042   2
   2  -9  -8 150.071 23.1543   5
   2  -9  -8 205.648 19.5956   4
  -2   9   8 167.501 25.6288   1
   1  -9  -8 3.57984 5.63776   5
   1  -9  -8 10.8293 2.76394   6
  -1   9   8 9.61029 7.65227   1
  -1   9   8 6.56461 2.93162   2
   0  -9  -8 311.017 35.4126   5
   0  -9  -8 333.440 32.5607   6
   0   9   8 315.595 35.0467   1
   0   9   8 264.396 35.7301   5
   0   9   8 345.462 32.9502   2
  -1  -9  -8 529.578 49.4312   5
   1   9   8 388.886 49.5119   5
   1   9   8 462.326 47.0696   2
   1   9   8 447.725 48.3288   1
   2   9   8 65.9645 7.01824   6
   2   9   8 55.3935 7.44763   3
   2   9   8 68.3792 8.49560   2
   3   9   8 67.4229 7.48875   6
   3   9   8 67.0418 9.48147   2
   3   9   8 66.7882 8.70663   3
   4   9   8 64.9289 7.54761   6
   4   9   8 64.0927 11.5468   4
   4   9   8 68.3867 9.13226   2
   5   9   8 2.70285 6.65293   4
   5   9   8 -0.6419 3.48500   2
   4 -10  -8 321.643 34.1148   4
   3 -10  -8 178.308 31.1956   5
   3 -10  -8 272.187 26.8295   4
  -3  10   8 288.094 27.3339   2
   2 -10  -8 11.8182 7.95984   5
   2 -10  -8 12.7712 3.52614   4
  -2  10   8 10.3757 3.86242   2
   1 -10  -8 3.28951 6.86657   5
  -1  10   8 3.12262 3.03950   2
   0 -10  -8 26.3216 7.68680   5
   0 -10  -8 20.8256 4.33684   6
   0  10   8 33.7538 5.88469   2
  -1 -10  -8 984.489 93.0357   5
   1  10   8 809.766 91.0996   2
   2  10   8 1184.63 120.465   2
   2  10   8 1188.25 119.719   6
   3  10   8 856.976 91.6380   2
   3  10   8 940.978 90.8961   6
   4  10   8 35.1710 8.13575   4
   4  10   8 57.1926 6.47358   6
   4  10   8 51.9534 7.91454   2
   5  10   8 -0.0244 4.02525   2
   5  10   8 -3.3377 7.26922   4
   3 -11  -8 179.452 18.1447   4
   3 -11  -8 87.8663 23.8594   5
  -3  11   8 175.880 18.4960   2
   2 -11  -8 300.252 39.6340   5
   2 -11  -8 353.272 35.6413   4
  -2  11   8 353.113 35.7895   2
   1 -11  -8 19.3872 8.53700   5
  -1  11   8 31.1860 6.20666   2
   0 -11  -8 53.3290 12.8067   5
   0  11   8 50.8972 8.16850   2
  -1 -11  -8 104.696 15.0129   5
   1  11   8 87.3595 11.5860   2
   2  11   8 0.06549 3.20712   2
   2  11   8 1.64818 2.03560   6
   3  11   8 103.333 13.0520   3
   3  11   8 104.792 12.9117   2
   3  11   8 107.840 11.6397   6
   4  11   8 131.409 15.5133   2
   4  11   8 121.225 17.8527   4
   4  11   8 130.396 14.3657   6
   3 -12  -8 55.6416 16.7669   5
   3 -12  -8 89.4398 12.8999   4
  -3  12   8 92.2803 12.9622   2
   2 -12  -8 -1.7887 9.29622   5
   2 -12  -8 -0.2348 4.14854   4
  -2  12   8 3.07522 4.28768   2
   1 -12  -8 -5.2281 7.81095   5
  -1  12   8 5.97206 4.03905   2
   0 -12  -8 15.1942 7.76978   5
   0  12   8 21.1508 4.76212   2
   1  12   8 235.311 25.7019   2
   2  12   8 733.595 75.2994   2
   3  12   8 328.119 35.7000   6
   3  12   8 360.692 36.8337   2
   4  12   8 14.5602 5.25435   2
   2 -13  -8 306.844 32.1237   4
   2 -13  -8 232.937 36.3296   5
  -2  13   8 314.903 31.7759   2
   1 -13  -8 35.8150 11.1813   5
  -1  13   8 53.5289 9.15599   2
   0 -13  -8 -0.3241 6.87273   5
   0  13   8 5.72025 4.30319   2
   1  13   8 1.58405 4.36474   2
   2  13   8 0.76423 4.31923   2
   2  13   8 -2.5318 2.85764   6
   3  13   8 114.153 14.9946   2
   3  13   8 101.471 12.7526   6
   0  14   8 3.78486 6.40531   2
   1  14   8 79.1814 15.7263   2
   1   7  -9 12.6024 8.87266   3
   0   7  -9 -1.8036 5.12985   6
   0   7  -9 10.0845 7.52850   3
   0  -7   9 2.02836 7.89718   2
  -1   7  -9 20.1244 8.93161   3
  -1   7  -9 10.9346 6.01346   6
   1  -7   9 25.1127 6.65666   4
   1  -7   9 12.7013 8.40205   2
  -2   7  -9 -7.7377 9.14028   3
  -2   7  -9 7.96302 5.85293   6
   2  -7   9 11.3963 7.36745   4
   2  -7   9 5.82778 8.17476   2
   2   6  -9 -1.5331 6.80329   3
   2   6  -9 -3.0541 5.18502   6
  -2  -6   9 2.15897 9.24689   2
   1   6  -9 53.7660 13.9519   3
   1   6  -9 53.0671 10.1615   6
  -1  -6   9 53.9499 12.8026   2
   0   6  -9 18.5852 7.21212   3
   0   6  -9 24.2450 5.50805   6
   0  -6   9 17.9640 6.23109   4
   0  -6   9 30.0050 8.11563   2
  -1   6  -9 43.8079 9.00008   3
  -1   6  -9 29.6273 6.37680   6
   1  -6   9 51.7932 11.4076   2
   1  -6   9 36.8463 7.12613   4
  -2   6  -9 252.886 26.2105   6
  -2   6  -9 248.854 29.5085   3
   2  -6   9 238.031 27.7982   2
   2  -6   9 207.833 26.6412   4
  -3   6  -9 240.667 34.1791   3
   3  -6   9 313.657 32.3123   2
   3  -6   9 277.556 31.8347   4
  -3  -5   9 128.849 20.9327   2
   2   5  -9 311.664 37.3302   3
  -2  -5   9 362.821 38.0263   2
   1   5  -9 135.285 19.4888   3
   1   5  -9 152.963 16.6742   6
  -1  -5   9 136.134 19.0599   2
   0   5  -9 -2.8699 5.02412   3
   0   5  -9 -1.0764 3.70072   6
   0  -5   9 2.79042 5.71456   2
   0  -5   9 0.17799 4.13750   4
  -1   5  -9 0.29409 4.05746   6
  -1   5  -9 7.09696 6.04828   3
   1  -5   9 5.51217 5.25820   4
   1  -5   9 8.77345 5.86822   2
  -2   5  -9 78.3444 11.8525   6
  -2   5  -9 76.4956 14.8278   3
   2  -5   9 73.2614 13.0911   2
   2  -5   9 72.4813 11.7459   4
  -3   5  -9 210.684 27.6954   3
   3  -5   9 214.587 26.0337   4
   3  -5   9 241.755 26.0962   2
  -4   5  -9 401.758 43.7988   3
   4  -5   9 357.221 42.2924   4
   3   4  -9 7.64568 6.19592   3
  -3  -4   9 9.88365 8.27426   2
   2   4  -9 20.7008 5.55994   5
   2   4  -9 17.3422 6.37961   3
  -2  -4   9 19.6012 7.82716   2
   1   4  -9 234.197 22.9796   5
   1   4  -9 202.825 24.9957   3
  -1  -4   9 208.070 22.3873   4
  -1  -4   9 191.821 24.9068   2
   0   4  -9 204.972 20.0329   6
   0   4  -9 160.901 19.6037   4
   0   4  -9 198.392 21.9939   3
   0  -4   9 168.628 21.4876   2
   0  -4   9 177.972 19.8672   4
  -1   4  -9 9.11138 5.49401   3
  -1   4  -9 11.2104 3.69040   6
   1  -4   9 18.3656 4.38064   4
   1  -4   9 9.62650 5.35879   2
  -2   4  -9 273.045 30.8945   6
  -2   4  -9 276.059 33.1963   3
   2  -4   9 314.597 31.7484   4
   2  -4   9 317.199 32.4578   2
  -3   4  -9 299.667 33.2792   3
   3  -4   9 291.652 31.5709   5
   3  -4   9 269.448 33.3180   2
   3  -4   9 296.846 31.9568   4
  -4   4  -9 15.4447 7.04002   3
   4  -4   9 16.7257 7.49944   4
   4   3  -9 12.3684 7.43356   5
  -4  -3   9 29.5178 10.1809   2
   3   3  -9 170.379 21.0053   5
   3   3  -9 176.889 21.4193   3
   2   3  -9 565.821 58.2972   5
   2   3  -9 491.544 58.6976   3
  -2  -3   9 628.044 59.1789   2
   1   3  -9 347.020 39.7007   3
   1   3  -9 403.435 38.8785   5
  -1  -3   9 342.267 39.1894   5
  -1  -3   9 382.462 37.8102   4
  -1  -3   9 364.290 39.6792   2
   0   3  -9 -1.0164 4.36847   3
   0   3  -9 2.34304 2.75356   4
   0   3  -9 -3.4980 3.15197   6
   0  -3   9 3.63993 4.02503   5
   0  -3   9 5.98836 3.24629   4
   0  -3   9 -0.1274 4.55595   2
  -1   3  -9 23.2048 4.09036   6
  -1   3  -9 24.5954 6.05809   3
  -1   3  -9 21.0057 4.44480   4
   1  -3   9 25.6301 7.17721   5
   1  -3   9 26.2748 4.81042   4
   1  -3   9 37.7147 10.0007   2
  -2   3  -9 69.6397 8.59144   6
  -2   3  -9 59.6796 11.8764   3
   2  -3   9 70.8834 12.1530   4
   2  -3   9 78.1434 10.9780   2
   2  -3   9 56.2765 10.0514   5
   2  -3   9 63.7181 18.2119   1
  -3   3  -9 454.799 51.7486   3
   3  -3   9 491.680 51.0059   4
   3  -3   9 513.762 51.0294   2
  -4   3  -9 839.048 86.0727   3
   4  -3   9 772.436 86.0874   5
   4  -3   9 878.293 84.7632   2
   4  -3   9 821.654 85.4485   4
  -5   3  -9 418.314 45.9009   3
   5  -3   9 491.837 47.7867   4
   5  -3   9 347.365 46.0946   5
   4   2  -9 10.4998 6.52077   5
   4   2  -9 13.6230 6.18780   3
  -4  -2   9 14.8027 8.15478   2
   3   2  -9 2.01455 5.22735   5
   3   2  -9 2.58611 4.46425   3
  -3  -2   9 0.06380 5.85662   2
   2   2  -9 93.1085 14.0242   5
   2   2  -9 81.5982 14.6494   3
  -2  -2   9 130.567 15.3786   2
  -2  -2   9 130.821 16.9827   5
   1   2  -9 710.044 70.8704   5
   1   2  -9 647.785 72.7845   3
  -1  -2   9 729.272 71.2486   5
  -1  -2   9 639.259 71.7599   2
  -1  -2   9 701.659 69.6507   4
   0   2  -9 936.026 88.6821   5
   0   2  -9 896.368 89.1211   3
   0   2  -9 900.846 93.6130   1
   0  -2   9 860.303 88.7271   5
   0  -2   9 798.646 88.6722   2
   0  -2   9 837.868 87.8226   4
   0  -2   9 825.329 94.7478   1
  -1   2  -9 4.09855 3.69584   3
  -1   2  -9 4.21216 2.88266   4
  -1   2  -9 2.68074 2.40564   6
   1  -2   9 1.50339 3.66303   2
   1  -2   9 -0.8633 11.6695   1
   1  -2   9 2.32035 2.81822   4
   1  -2   9 2.14967 3.85419   5
  -2   2  -9 186.022 18.9720   2
  -2   2  -9 161.336 17.3997   6
  -2   2  -9 135.103 22.2209   3
   2  -2   9 155.435 29.8747   1
   2  -2   9 197.477 18.5611   4
   2  -2   9 198.979 19.1748   2
   2  -2   9 165.458 27.6522   1
   2  -2   9 114.040 18.4944   5
  -3   2  -9 177.454 21.0867   3
  -3   2  -9 191.821 20.2296   2
   3  -2   9 185.309 20.2583   4
   3  -2   9 161.090 30.8363   1
   3  -2   9 190.381 20.1500   2
   3  -2   9 138.433 20.4586   5
  -4   2  -9 4.48087 5.68174   3
   4  -2   9 4.37311 4.36367   2
   4  -2   9 6.32042 5.66968   4
   4  -2   9 3.20869 6.61283   5
  -5   2  -9 141.937 18.3757   3
   5  -2   9 112.093 18.6687   4
   5  -2   9 109.246 20.0796   5
   4   1  -9 10.1829 6.26249   5
   4   1  -9 8.62781 5.38438   3
  -4  -1   9 17.0647 7.48953   2
   3   1  -9 249.399 27.7969   3
   2   1  -9 572.198 69.7400   5
   2   1  -9 594.290 69.7504   3
  -2  -1   9 870.097 71.4528   5
   1   1  -9 336.110 41.5704   3
   1   1  -9 381.488 41.6990   5
   1   1  -9 383.906 47.5375   1
  -1  -1   9 394.229 41.7267   2
  -1  -1   9 436.836 42.4656   5
  -1  -1   9 449.237 62.0003   1
  -1  -1   9 410.381 40.1816   4
   0   1  -9 1.73706 3.90851   3
   0   1  -9 17.5382 13.4385   1
   0   1  -9 4.00274 4.12446   5
   0   1  -9 1.78018 3.58278   2
   0  -1   9 7.37817 11.7288   1
   0  -1   9 3.86472 3.80500   2
   0  -1   9 1.60265 4.59915   3
   0  -1   9 7.69130 2.68401   4
   0  -1   9 4.31844 4.54747   5
  -1   1  -9 9.05774 2.18104   6
  -1   1  -9 4.00126 3.36326   3
  -1   1  -9 18.6997 15.3368   1
  -1   1  -9 2.71623 2.48554   4
  -1   1  -9 4.57902 3.42917   2
   1  -1   9 6.27270 3.93603   5
   1  -1   9 5.69915 2.68822   4
   1  -1   9 6.19152 3.69669   2
   1  -1   9 0.94617 3.63687   3
   1  -1   9 4.89594 10.5148   1
  -2   1  -9 47.5237 7.86492   2
  -2   1  -9 51.9876 8.70096   3
  -2   1  -9 51.5791 7.58232   4
  -2   1  -9 41.1875 5.51093   6
   2  -1   9 28.6539 7.95213   5
   2  -1   9 46.4364 17.2143   1
   2  -1   9 19.0707 11.7999   1
   2  -1   9 49.1928 7.85423   2
   2  -1   9 50.6788 7.31810   4
  -3   1  -9 724.543 69.2952   3
  -3   1  -9 719.241 68.6124   2
   3  -1   9 611.088 68.8392   5
   3  -1   9 526.289 72.6240   1
   3  -1   9 726.619 68.6166   2
  -4   1  -9 1354.59 136.673   3
   4  -1   9 1308.62 135.697   2
   4  -1   9 1353.02 136.464   4
  -5   1  -9 391.974 41.4361   3
   5  -1   9 374.238 41.4063   4
   5  -1   9 373.937 43.2034   5
   4   0  -9 1.25633 5.33253   5
   4   0  -9 3.23504 4.54163   3
  -4   0   9 5.24869 6.55113   2
   3   0  -9 2.44264 3.69567   3
  -3   0   9 2.69960 5.38861   2
   2   0  -9 217.404 26.8789   3
   2   0  -9 221.473 27.3198   5
  -2   0   9 311.397 29.6432   5
   1   0  -9 1885.99 201.952   1
   1   0  -9 1848.01 199.260   2
   1   0  -9 1815.19 199.571   5
   1   0  -9 1720.62 199.220   3
  -1   0   9 2113.98 198.337   4
  -1   0   9 2123.67 200.118   5
  -1   0   9 1919.30 199.283   2
  -1   0   9 2128.80 200.096   3
  -1   0   9 2165.97 203.232   1
   0   0  -9 1328.81 147.537   2
   0   0  -9 1453.08 147.894   3
   0   0  -9 1493.15 150.950   1
   0   0  -9 1625.47 148.345   5
   0   0   9 1404.69 147.913   3
   0   0   9 1490.93 148.109   5
   0   0   9 1351.17 147.561   2
   0   0   9 1476.51 151.045   1
   0   0   9 1477.25 146.988   4
  -1   0  -9 131.902 13.6435   5
  -1   0  -9 99.9672 12.2151   2
  -1   0  -9 118.681 12.9377   3
  -1   0  -9 127.760 24.0723   1
  -1   0  -9 96.5987 10.7294   6
   1   0   9 103.822 11.4927   4
   1   0   9 101.943 12.0392   2
   1   0   9 83.6169 12.5190   5
   1   0   9 65.9193 12.1871   3
   1   0   9 97.7632 20.4648   1
  -2   0  -9 51.7264 7.64656   2
  -2   0  -9 52.3442 8.25189   3
   2   0   9 54.8837 7.27397   4
   2   0   9 34.7778 11.7590   1
   2   0   9 35.4457 7.90218   3
   2   0   9 37.8883 7.97511   5
   2   0   9 54.3418 7.53360   2
  -3   0  -9 34.8781 8.29477   3
  -3   0  -9 34.5853 7.18240   2
   3   0   9 35.1017 14.3015   1
   3   0   9 28.8437 12.8989   1
   3   0   9 42.8069 7.85775   4
   3   0   9 28.9150 8.57278   5
   3   0   9 43.9244 7.20552   2
  -4   0  -9 67.5505 11.2055   3
  -4   0  -9 56.2067 9.15068   2
   4   0   9 73.4406 9.48982   2
   4   0   9 60.5767 11.1989   4
  -5   0  -9 446.341 46.1581   3
   5   0   9 455.167 48.2772   5
   5   0   9 389.259 46.4704   4
   6   0   9 287.517 36.5843   5
   5  -1  -9 20.8201 7.13570   3
   5  -1  -9 16.0355 8.69065   5
   4  -1  -9 4.70498 4.40604   3
   4  -1  -9 1.61943 5.49305   5
  -4   1   9 6.80256 6.25050   2
   3  -1  -9 234.552 26.0735   3
   3  -1  -9 241.999 28.0573   5
   2  -1  -9 469.651 61.2065   3
   2  -1  -9 480.887 61.8088   5
   2  -1  -9 625.064 66.5657   1
  -2   1   9 704.821 63.6388   5
  -2   1   9 717.574 61.8149   2
   1  -1  -9 299.579 32.9168   2
   1  -1  -9 278.482 33.3731   5
   1  -1  -9 283.266 37.8318   1
   1  -1  -9 266.700 32.7672   3
  -1   1   9 306.513 32.7776   2
  -1   1   9 337.546 34.4726   5
  -1   1   9 343.103 31.5957   4
  -1   1   9 305.364 31.6357   4
  -1   1   9 351.146 34.2581   3
  -1   1   9 304.175 40.2310   1
   0  -1  -9 7.46666 3.61562   2
   0  -1  -9 3.49947 3.52187   3
   0  -1  -9 22.6792 11.3459   1
   0  -1  -9 9.92152 4.87674   5
   0   1   9 0.71815 3.85182   3
   0   1   9 9.79340 2.43222   4
   0   1   9 5.02845 4.76180   5
   0   1   9 3.78671 3.32139   2
   0   1   9 18.2822 11.3182   1
  -1  -1  -9 156.063 16.0391   5
  -1  -1  -9 142.316 24.3152   1
  -1  -1  -9 123.149 13.0178   6
  -1  -1  -9 138.644 14.5521   2
  -1  -1  -9 133.666 14.9105   3
   1   1   9 144.423 13.8552   4
   1   1   9 124.837 14.2263   2
   1   1   9 95.4088 14.8223   5
   1   1   9 87.9565 14.2857   3
  -2  -1  -9 18.4627 3.97873   2
  -2  -1  -9 18.3705 4.07548   3
  -2  -1  -9 9.83314 12.9431   1
   2   1   9 8.23469 3.23649   3
   2   1   9 15.7528 3.47994   2
   2   1   9 13.5465 4.14483   5
   2   1   9 19.6429 9.22296   1
   2   1   9 17.3540 3.37343   4
  -3  -1  -9 574.464 53.7772   3
  -3  -1  -9 539.449 53.1904   2
   3   1   9 396.232 56.9515   1
   3   1   9 577.494 53.6149   4
   3   1   9 494.688 57.3990   1
   3   1   9 473.745 53.8711   5
   3   1   9 534.129 53.2219   2
  -4  -1  -9 1121.30 117.640   2
  -4  -1  -9 1223.96 118.619   3
   4   1   9 1105.53 117.893   2
   4   1   9 1200.76 118.672   4
  -5  -1  -9 380.549 40.4555   3
   5   1   9 371.539 40.8111   4
  -6  -1  -9 50.6951 10.2349   3
   6   1   9 37.9930 12.2681   5
   6   1   9 21.3029 10.1157   4
   5  -2  -9 3.97240 5.49878   3
   5  -2  -9 0.80515 8.28111   5
   4  -2  -9 4.63080 4.04536   3
   4  -2  -9 8.96263 5.91837   5
  -4   2   9 5.44680 5.62759   2
   3  -2  -9 25.0242 5.58836   3
   3  -2  -9 36.3628 9.14957   5
  -3   2   9 43.3195 8.16566   2
   2  -2  -9 610.331 56.2348   2
   2  -2  -9 435.668 56.2611   5
   2  -2  -9 534.625 60.5029   1
   2  -2  -9 406.116 55.3819   3
  -2   2   9 589.043 61.3498   1
  -2   2   9 620.949 58.0842   5
  -2   2   9 603.204 55.8709   2
   1  -2  -9 2674.71 261.526   2
   1  -2  -9 2298.54 261.966   5
   1  -2  -9 2444.09 261.347   3
   1  -2  -9 2238.46 263.440   1
  -1   2   9 2465.34 260.682   4
  -1   2   9 2978.05 262.796   5
  -1   2   9 2786.13 260.665   4
  -1   2   9 2416.18 261.281   2
  -1   2   9 2972.41 262.051   3
   0  -2  -9 1988.39 207.315   2
   0  -2  -9 2233.51 208.354   5
   0  -2  -9 2147.16 207.487   3
   0   2   9 2201.56 207.561   3
   0   2   9 2000.78 208.028   5
   0   2   9 1625.56 207.011   2
   0   2   9 2237.37 210.564   1
   0   2   9 1978.83 206.746   4
  -1  -2  -9 575.146 50.7295   5
  -1  -2  -9 505.941 49.1866   2
  -1  -2  -9 598.266 54.6699   1
  -1  -2  -9 501.369 49.3709   3
   1   2   9 559.919 53.4974   1
   1   2   9 441.644 48.8897   2
   1   2   9 308.676 48.7515   3
   1   2   9 347.441 49.3587   5
   1   2   9 520.815 48.7925   4
  -2  -2  -9 10.2052 12.4128   1
  -2  -2  -9 17.8517 3.52629   2
  -2  -2  -9 18.1388 3.53075   3
   2   2   9 16.0209 3.17771   4
   2   2   9 14.2984 4.21113   5
   2   2   9 15.7434 9.87406   1
   2   2   9 14.6950 3.32621   2
   2   2   9 10.4970 3.19420   3
  -3  -2  -9 13.5906 3.37257   3
  -3  -2  -9 13.0937 3.23936   2
   3   2   9 10.6495 8.95815   1
   3   2   9 9.58908 3.44495   3
   3   2   9 12.3379 3.74756   4
   3   2   9 8.78137 4.27994   5
   3   2   9 14.3770 3.28625   2
   3   2   9 4.52557 10.4182   1
  -4  -2  -9 247.121 26.3672   3
   4   2   9 243.874 26.7902   4
   4   2   9 234.782 25.6805   2
  -5  -2  -9 781.453 80.5360   3
   5   2   9 782.092 81.1655   4
  -6  -2  -9 473.657 50.1210   3
   6   2   9 453.735 51.3949   4
   6   2   9 481.413 53.2851   5
   5  -3  -9 59.8222 17.1410   5
   5  -3  -9 71.2305 13.0108   3
   4  -3  -9 8.45901 6.09800   5
   4  -3  -9 6.60333 4.15053   3
  -4   3   9 6.29718 5.68617   2
   3  -3  -9 161.738 21.7016   5
   3  -3  -9 179.251 20.2569   3
  -3   3   9 203.111 20.5966   2
   2  -3  -9 373.339 42.3301   1
   2  -3  -9 377.727 37.2974   2
   2  -3  -9 257.172 36.4367   3
   2  -3  -9 280.340 37.5714   5
  -2   3   9 399.542 42.8270   1
  -2   3   9 432.929 35.7353   4
  -2   3   9 350.108 36.7532   2
  -2   3   9 372.187 40.0018   5
  -2   3   9 344.028 35.7818   4
   1  -3  -9 68.6177 12.8083   5
   1  -3  -9 95.9229 11.9395   2
   1  -3  -9 66.3062 16.0064   1
   1  -3  -9 89.7967 11.4382   3
  -1   3   9 101.338 9.97912   4
  -1   3   9 111.318 20.0943   1
  -1   3   9 90.7886 14.6947   5
  -1   3   9 97.7867 11.0944   2
  -1   3   9 76.9701 10.1771   4
   0  -3  -9 202.655 28.0557   1
   0  -3  -9 214.678 22.7456   3
   0  -3  -9 208.849 22.6335   2
   0  -3  -9 227.952 24.3435   5
   0   3   9 179.548 22.2239   2
   0   3   9 223.616 23.1269   3
   0   3   9 222.964 21.8882   4
   0   3   9 179.426 28.3174   1
   0   3   9 203.124 24.1976   5
  -1  -3  -9 631.891 58.3500   2
  -1  -3  -9 682.413 62.9255   1
  -1  -3  -9 637.116 58.4370   3
  -1  -3  -9 639.544 59.9074   5
   1   3   9 589.501 57.9809   4
   1   3   9 514.197 58.0193   2
   1   3   9 384.458 57.8962   3
   1   3   9 416.466 58.6546   5
   1   3   9 681.194 62.3790   1
  -2  -3  -9 79.3323 8.79066   2
  -2  -3  -9 77.6445 15.2415   1
  -2  -3  -9 77.3360 8.85375   3
   2   3   9 65.7697 8.41450   2
   2   3   9 68.1175 8.79879   3
   2   3   9 60.5603 12.5411   1
   2   3   9 74.3233 8.82096   4
   2   3   9 57.0621 9.94750   5
  -3  -3  -9 232.070 22.2388   2
  -3  -3  -9 235.661 22.7001   3
   3   3   9 212.740 22.8144   4
   3   3   9 205.222 22.5535   3
   3   3   9 187.689 23.5273   5
   3   3   9 213.224 28.7837   1
   3   3   9 187.156 22.1251   2
   4   3   9 749.037 71.5196   4
   4   3   9 639.865 70.5218   2
  -5  -3  -9 325.199 32.8516   3
   5   3   9 337.105 34.0000   4
   5   3   9 260.336 31.6153   2
  -6  -3  -9 4.68323 4.99531   3
   6   3   9 3.07473 8.44487   5
   6   3   9 6.61468 8.46866   4
   5  -4  -9 7.07950 14.5315   5
   5  -4  -9 0.53669 5.49321   3
   4  -4  -9 1.68013 3.79901   3
   4  -4  -9 1.16661 5.88148   5
  -4   4   9 7.32858 6.65677   2
   3  -4  -9 25.6137 6.99604   5
   3  -4  -9 33.0252 6.87249   3
  -3   4   9 38.5899 7.26166   2
   2  -4  -9 704.398 61.5051   2
   2  -4  -9 473.243 61.9200   5
   2  -4  -9 470.615 60.7455   3
   2  -4  -9 694.621 67.1186   1
  -2   4   9 571.511 60.4229   4
  -2   4   9 594.039 61.0538   2
  -2   4   9 723.561 65.5783   1
   1  -4  -9 2391.09 235.736   3
   1  -4  -9 2489.54 235.917   2
   1  -4  -9 2070.28 236.708   5
   1  -4  -9 2332.08 238.044   1
  -1   4   9 2144.19 235.657   2
  -1   4   9 2419.44 238.438   1
  -1   4   9 2492.40 237.431   5
   0  -4  -9 3105.59 294.038   5
   0  -4  -9 2990.41 292.680   2
   0  -4  -9 2589.88 294.638   1
   0  -4  -9 3061.43 292.667   3
   0   4   9 2596.14 292.265   4
   0   4   9 2608.98 292.479   2
   0   4   9 3242.67 292.859   3
   0   4   9 2888.17 293.797   5
   0   4   9 2864.88 294.818   1
   0   4   9 3034.81 292.290   4
  -1  -4  -9 350.708 38.1743   1
  -1  -4  -9 375.336 32.9821   3
  -1  -4  -9 368.106 33.0492   2
  -1  -4  -9 343.935 34.9158   5
   1   4   9 226.000 33.6596   5
   1   4   9 203.953 32.5688   3
   1   4   9 349.688 37.3407   1
   1   4   9 307.448 32.7667   2
   1   4   9 350.497 32.7670   4
  -2  -4  -9 6.75449 2.18168   3
  -2  -4  -9 2.89813 10.7769   1
  -2  -4  -9 3.41564 4.43349   5
  -2  -4  -9 7.67789 2.47133   2
   2   4   9 6.21478 2.52201   4
   2   4   9 -1.0440 8.10486   1
   2   4   9 4.79228 2.21751   3
   2   4   9 2.98212 3.65747   5
   2   4   9 7.99798 2.37962   2
  -3  -4  -9 67.6044 7.76050   2
  -3  -4  -9 68.3927 8.02645   3
   3   4   9 56.9692 7.60729   2
   3   4   9 61.6823 11.7974   5
   3   4   9 60.3418 8.31999   3
   3   4   9 60.2389 8.69003   4
   3   4   9 34.8092 12.8753   1
  -4  -4  -9 305.812 33.6857   3
   4   4   9 346.731 33.2671   4
   4   4   9 278.626 31.9357   2
  -5  -4  -9 765.139 76.9499   3
   5   4   9 794.862 77.8564   4
   5   4   9 690.585 76.1348   2
  -6  -4  -9 717.970 71.8821   3
   6   4   9 709.156 74.5127   5
   6   4   9 642.697 73.0669   4
   5  -5  -9 177.038 21.7900   3
   4  -5  -9 16.8652 7.20071   3
   4  -5  -9 16.4046 7.29122   5
  -4   5   9 24.3246 7.70883   2
   3  -5  -9 59.9690 8.91335   3
   3  -5  -9 53.9762 8.10868   3
   3  -5  -9 43.5509 10.7813   5
  -3   5   9 49.3815 8.25762   2
   2  -5  -9 96.1639 11.1259   2
   2  -5  -9 95.0846 20.5938   1
   2  -5  -9 68.5272 12.3698   5
   2  -5  -9 63.8815 9.81661   3
  -2   5   9 86.6597 18.9540   1
  -2   5   9 87.2630 10.2227   2
  -2   5   9 77.2048 9.80542   4
   1  -5  -9 15.4987 8.53981   1
   1  -5  -9 6.76129 5.18653   5
   1  -5  -9 13.4728 3.81179   2
   1  -5  -9 18.1960 3.55617   3
  -1   5   9 10.9676 7.52948   1
  -1   5   9 10.7620 6.57892   5
  -1   5   9 5.23229 2.86424   4
  -1   5   9 10.7297 3.49498   2
   0  -5  -9 469.660 55.8534   1
   0  -5  -9 530.069 51.8904   6
   0  -5  -9 526.309 54.4760   5
   0  -5  -9 528.892 52.4763   3
   0  -5  -9 534.017 52.6975   2
   0   5   9 531.264 55.4675   1
   0   5   9 550.717 52.8004   3
   0   5   9 461.666 52.3507   4
   0   5   9 502.208 52.5843   2
   0   5   9 481.710 54.3491   5
  -1  -5  -9 1712.76 176.418   1
  -1  -5  -9 1944.78 173.680   2
  -1  -5  -9 1697.56 175.189   5
  -1  -5  -9 1971.92 173.437   3
   1   5   9 1801.05 175.653   1
   1   5   9 1773.06 173.571   2
   1   5   9 1232.21 174.199   5
   1   5   9 1601.34 173.445   4
  -2  -5  -9 461.403 42.9793   2
  -2  -5  -9 426.524 44.9644   5
  -2  -5  -9 455.727 42.8312   3
  -2  -5  -9 457.818 48.7501   1
   2   5   9 381.160 42.7694   3
   2   5   9 400.434 42.8492   2
   2   5   9 443.427 43.1371   4
   2   5   9 419.212 46.1597   1
   2   5   9 327.218 43.7726   5
  -3  -5  -9 32.2861 5.47685   3
   3   5   9 32.1570 6.68213   4
   3   5   9 51.7863 11.2330   1
   3   5   9 37.1054 6.09786   3
   3   5   9 36.0155 5.33834   2
  -4  -5  -9 301.880 30.5434   3
   4   5   9 271.444 30.0623   2
   4   5   9 295.834 31.3411   4
  -5  -5  -9 110.840 13.1723   3
   5   5   9 90.4947 12.1315   2
   5   5   9 109.682 15.6082   4
   6   5   9 10.2803 8.87265   4
   6   5   9 7.77827 9.04417   5
   4  -6  -9 9.99416 4.40975   3
   4  -6  -9 7.02329 6.76618   5
  -4   6   9 9.11138 5.17359   2
   3  -6  -9 3.39345 3.05855   3
   3  -6  -9 3.87475 5.62945   5
   3  -6  -9 2.45388 2.92709   3
  -3   6   9 7.39323 3.81398   2
  -3   6   9 4.05629 4.24059   4
   2  -6  -9 381.755 45.7390   3
   2  -6  -9 539.055 47.1333   2
   2  -6  -9 491.531 51.0488   1
   2  -6  -9 365.786 48.4319   5
  -2   6   9 469.235 46.1607   2
  -2   6   9 426.138 45.9197   4
  -2   6   9 473.186 49.8839   1
   1  -6  -9 1949.27 180.405   3
   1  -6  -9 1904.21 180.742   2
   1  -6  -9 1814.63 182.924   1
   1  -6  -9 1615.44 182.059   5
   1  -6  -9 1795.68 180.096   6
  -1   6   9 1755.06 180.471   4
  -1   6   9 1843.11 182.630   1
  -1   6   9 1634.36 182.464   5
  -1   6   9 1758.57 180.616   2
   0  -6  -9 2159.65 206.205   6
   0  -6  -9 1949.17 208.933   1
   0  -6  -9 2193.01 206.381   3
   0  -6  -9 2101.85 208.583   5
   0   6   9 1976.25 208.419   5
   0   6   9 1884.89 206.624   4
   0   6   9 2054.18 206.774   2
   0   6   9 2044.66 208.426   1
  -1  -6  -9 167.262 14.8907   2
  -1  -6  -9 154.339 14.0534   3
  -1  -6  -9 113.228 22.1669   1
  -1  -6  -9 124.970 17.4033   5
   1   6   9 86.9080 14.1992   3
   1   6   9 152.563 18.6009   1
   1   6   9 145.368 14.5873   2
   1   6   9 127.074 14.5217   4
   1   6   9 104.467 16.8070   5
  -2  -6  -9 50.2617 9.76816   5
  -2  -6  -9 47.5602 5.55663   3
  -2  -6  -9 34.2506 13.1464   1
   2   6   9 28.1681 8.64891   5
   2   6   9 34.4922 8.68213   1
   2   6   9 46.4744 5.93813   2
   2   6   9 35.9065 5.88302   3
   2   6   9 42.0976 6.60798   4
   2   6   9 33.8244 6.37669   4
  -3  -6  -9 11.8894 2.54191   3
   3   6   9 10.4770 2.70058   2
   3   6   9 9.09280 2.73421   3
   3   6   9 13.6168 3.77985   4
   3   6   9 -3.9193 7.86995   1
  -4  -6  -9 208.747 22.0736   3
   4   6   9 197.637 21.7246   2
   4   6   9 209.979 23.2120   4
   5   6   9 606.862 66.4140   2
   5   6   9 701.599 68.2468   4
   6   6   9 516.448 56.1862   4
   4  -7  -9 20.3989 5.99820   3
   4  -7  -9 14.0868 7.90482   5
  -4   7   9 24.0516 6.02431   2
   3  -7  -9 1.55077 5.88791   5
   3  -7  -9 1.15726 2.87811   3
   2  -7  -9 3.11811 2.68219   6
   2  -7  -9 20.6364 12.6026   1
   2  -7  -9 4.93862 2.60084   3
   2  -7  -9 4.80147 1.82530   3
   2  -7  -9 3.96327 6.29313   5
  -2   7   9 4.32947 3.86483   4
  -2   7   9 12.5702 9.33903   1
  -2   7   9 4.88076 3.14076   2
   1  -7  -9 70.3426 8.42410   6
   1  -7  -9 76.8335 10.0653   2
   1  -7  -9 61.1778 12.9380   5
   1  -7  -9 84.2326 18.6106   1
  -1   7   9 73.9252 14.7962   1
  -1   7   9 65.1430 9.54917   4
  -1   7   9 70.8163 9.23549   2
   0  -7  -9 1055.81 111.518   1
   0  -7  -9 1090.52 111.130   5
   0  -7  -9 1054.29 108.671   6
   0   7   9 1041.88 111.117   5
   0   7   9 1110.53 109.065   2
   0   7   9 1041.85 108.997   4
   0   7   9 1125.29 110.743   1
  -1  -7  -9 2333.28 229.614   5
  -1  -7  -9 2538.20 227.198   3
  -1  -7  -9 2223.52 230.293   1
   1   7   9 1822.78 228.871   5
   1   7   9 2474.49 227.753   2
   1   7   9 1832.76 227.277   3
   1   7   9 2495.93 229.061   1
   1   7   9 2319.75 227.737   4
  -2  -7  -9 637.408 59.3016   3
  -2  -7  -9 554.790 64.4529   1
  -2  -7  -9 671.580 62.0346   5
   2   7   9 495.328 59.3977   3
   2   7   9 581.058 61.0778   1
   2   7   9 597.878 59.6172   2
   2   7   9 710.476 61.3636   4
   2   7   9 428.184 61.0378   5
  -3  -7  -9 12.1732 2.37625   3
   3   7   9 0.39512 5.49617   4
   3   7   9 7.47233 2.56656   3
   3   7   9 4.46626 2.35819   2
   4   7   9 61.9264 8.14553   2
   4   7   9 62.9236 10.4164   4
   5   7   9 14.0350 4.08490   2
   5   7   9 21.6228 6.65866   4
   6   7   9 19.9153 9.97152   4
   4  -8  -9 24.2325 9.93488   5
  -4   8   9 57.4878 9.62123   2
   3  -8  -9 3.11925 6.28231   5
   3  -8  -9 5.80385 3.60971   3
  -3   8   9 0.89867 3.63294   2
   2  -8  -9 132.650 27.0055   1
   2  -8  -9 129.230 19.7387   5
  -2   8   9 155.760 17.6577   4
  -2   8   9 164.171 23.5305   1
   1  -8  -9 856.753 86.4804   6
   1  -8  -9 853.298 90.1637   1
   1  -8  -9 818.918 89.2274   5
  -1   8   9 846.491 89.0635   1
  -1   8   9 888.631 86.9944   2
   0  -8  -9 808.288 83.3073   5
   0  -8  -9 837.520 80.4422   6
   0  -8  -9 766.400 83.8849   1
   0   8   9 807.267 80.9321   2
   0   8   9 780.172 82.5157   1
   0   8   9 769.585 80.9456   4
   0   8   9 781.952 84.0085   5
  -1  -8  -9 72.5448 18.2175   1
  -1  -8  -9 110.058 16.2176   5
   1   8   9 117.062 12.5639   2
   1   8   9 106.788 17.1630   5
   1   8   9 109.244 13.9297   4
   1   8   9 110.717 15.8394   1
  -2  -8  -9 11.0528 5.89560   5
   2   8   9 8.25488 2.44996   3
   2   8   9 10.5015 2.80698   2
   2   8   9 -6.2575 7.29273   1
   3   8   9 5.38901 2.67102   2
   3   8   9 6.38412 3.81055   4
   3   8   9 6.94113 2.69939   3
   4   8   9 58.3095 8.15103   2
   4   8   9 63.5364 10.8920   4
   5   8   9 419.924 43.7125   2
   5   8   9 422.764 45.6155   4
   4  -9  -9 45.0609 13.5468   5
  -4   9   9 65.4431 11.1512   2
   3  -9  -9 2.71766 7.30761   5
  -3   9   9 0.82927 3.88485   2
   2  -9  -9 -1.8635 6.27873   5
  -2   9   9 3.73468 3.20833   2
   1  -9  -9 101.314 12.2749   6
  -1   9   9 113.769 12.7865   2
  -1   9   9 85.4532 20.3651   1
   0  -9  -9 1337.93 140.783   5
   0  -9  -9 1387.61 138.090   6
   0   9   9 1373.82 144.026   1
  -1  -9  -9 1763.06 178.539   5
   1   9   9 1727.03 176.844   2
   2   9   9 705.831 72.8113   2
   2   9   9 692.846 70.8410   3
   3   9   9 19.3910 4.53171   2
   3   9   9 18.4212 3.66687   3
   4   9   9 7.40151 3.36774   2
   4   9   9 3.13466 4.91821   4
   4   9   9 5.97435 1.89636   6
   5   9   9 3.10328 4.01672   2
   5   9   9 7.03303 6.79741   4
   3 -10  -9 34.0173 11.6341   5
   3 -10  -9 67.2089 8.62698   4
  -3  10   9 61.7808 9.64519   2
   2 -10  -9 21.6031 8.62266   5
  -2  10   9 29.2093 6.65743   2
   1 -10  -9 250.859 31.7706   5
  -1  10   9 268.930 27.9573   2
   0 -10  -9 271.421 39.6820   5
   0 -10  -9 244.756 27.0384   6
   0  10   9 259.687 27.3414   2
  -1 -10  -9 6.94775 8.63263   5
   1  10   9 5.69798 3.36008   2
   2  10   9 102.866 12.4127   2
   3  10   9 47.5926 5.69587   6
   3  10   9 47.9926 7.51375   2
   4  10   9 0.52163 5.19102   4
   4  10   9 5.20857 3.27269   2
   5  10   9 118.671 14.4123   2
   5  10   9 99.7020 18.6652   4
   3 -11  -9 4.40561 4.09782   4
   3 -11  -9 1.83003 10.5963   5
  -3  11   9 -1.5435 4.71427   2
   2 -11  -9 7.93140 9.00455   5
  -2  11   9 2.50103 3.88764   2
   1 -11  -9 97.4510 18.7010   5
  -1  11   9 105.460 12.9880   2
   0 -11  -9 764.988 78.9858   5
   0  11   9 725.520 76.2463   2
  -1 -11  -9 1349.78 127.047   5
   1  11   9 1110.49 124.717   2
   2  11   9 479.741 49.8334   2
   3  11   9 5.27193 2.07623   6
   3  11   9 5.15825 3.66503   2
   4  11   9 -7.9050 5.84292   4
   4  11   9 2.90778 3.83587   2
   2 -12  -9 -1.0825 9.97131   5
  -2  12   9 0.15791 4.38875   2
   1 -12  -9 30.3354 11.0046   5
  -1  12   9 64.3070 9.06474   2
   0 -12  -9 16.3099 8.64085   5
   0  12   9 16.1633 4.77259   2
  -1 -12  -9 -0.1848 6.76109   5
   1  12   9 5.03747 4.01848   2
   2  12   9 152.286 17.9442   2
   3  12   9 155.325 16.0788   6
   3  12   9 137.317 17.0364   2
   4  12   9 2.68641 4.60073   2
   4  12   9 4.77677 7.66062   4
   1 -13  -9 36.2306 11.9877   5
  -1  13   9 42.7726 9.35567   2
   0 -13  -9 299.002 33.6545   5
   0  13   9 256.575 29.9406   2
   1  13   9 710.342 73.4205   2
   2  13   9 151.961 18.4144   2
   3  13   9 2.58468 4.98294   2
   0 -14  -9 3.52486 9.87037   5
   1   6 -10 -1.7182 4.83511   6
   0   6 -10 4.48495 7.57037   3
   0   6 -10 7.32580 5.34831   6
   0  -6  10 -1.0134 8.22899   2
  -1   6 -10 38.2512 6.90840   6
  -1   6 -10 14.5423 8.54207   3
   1  -6  10 33.0148 7.43001   4
   1  -6  10 38.5062 10.1308   2
  -2   6 -10 146.784 23.5447   3
  -2   6 -10 152.157 17.6747   6
   2  -6  10 116.657 20.4227   2
   2  -6  10 136.560 18.8495   4
   2   5 -10 35.3278 10.4716   3
  -2  -5  10 22.7433 12.0868   2
   1   5 -10 6.20973 6.12997   3
   1   5 -10 -2.6913 4.15987   6
  -1  -5  10 1.58208 7.44918   2
   0   5 -10 124.733 17.4063   3
   0   5 -10 121.307 14.0761   6
   0  -5  10 99.0325 14.0932   4
   0  -5  10 95.6909 16.8421   2
  -1   5 -10 418.567 42.1249   3
  -1   5 -10 379.375 39.3078   6
   1  -5  10 356.886 40.8573   2
   1  -5  10 345.005 39.5772   4
  -2   5 -10 301.931 33.3975   3
  -2   5 -10 268.083 29.6427   6
   2  -5  10 259.150 30.3818   4
   2  -5  10 272.834 31.6059   2
  -3   5 -10 7.88148 8.90375   3
   3  -5  10 8.31845 6.86465   4
   3  -5  10 8.49520 7.78443   2
  -3  -4  10 223.841 33.5313   2
   2   4 -10 29.6985 7.58089   3
  -2  -4  10 38.3097 9.61807   2
   1   4 -10 10.1835 4.05007   6
   1   4 -10 11.5209 5.84690   3
  -1  -4  10 7.04534 6.57706   2
   0   4 -10 5.12630 5.52326   3
   0   4 -10 3.62797 3.82252   6
   0  -4  10 1.47571 6.00280   2
   0  -4  10 3.84547 3.93707   4
  -1   4 -10 95.5420 13.6485   6
  -1   4 -10 99.3981 15.8981   3
   1  -4  10 91.4080 14.6861   2
  -2   4 -10 389.083 43.3015   3
  -2   4 -10 402.473 40.5838   6
   2  -4  10 388.287 41.3233   4
   2  -4  10 378.086 42.1243   2
   3  -4  10 551.596 60.0935   2
   3  -4  10 592.985 59.8314   4
  -4   4 -10 158.864 25.4382   3
   4  -4  10 171.904 22.5538   4
   3   3 -10 21.1315 11.1876   5
   3   3 -10 24.8407 7.41663   3
  -3  -3  10 16.5864 8.90110   2
   2   3 -10 134.119 19.0534   3
   2   3 -10 149.857 17.9871   5
  -2  -3  10 144.463 19.6367   2
   1   3 -10 73.2844 10.6723   5
   1   3 -10 74.5692 12.1776   3
  -1  -3  10 64.4189 8.58030   4
  -1  -3  10 62.1773 11.7352   2
   0   3 -10 119.945 14.0418   6
   0   3 -10 131.960 16.6850   3
   0  -3  10 115.159 15.8808   2
   0  -3  10 117.957 13.9540   4
  -1   3 -10 462.540 43.7340   6
  -1   3 -10 445.361 45.9200   3
   1  -3  10 259.118 64.0958   1
   1  -3  10 416.828 44.0876   4
   1  -3  10 424.675 45.1280   2
  -2   3 -10 212.065 26.5783   3
  -2   3 -10 220.844 23.7441   6
   2  -3  10 230.223 24.7116   4
   2  -3  10 227.878 25.7594   2
  -3   3 -10 -2.0705 5.72307   3
   3  -3  10 4.09528 6.11610   2
   3  -3  10 3.90140 5.31615   4
  -4   3 -10 64.3065 15.4201   3
   4  -3  10 95.3068 15.2093   2
   4  -3  10 67.1273 13.9836   4
   4  -3  10 63.9618 16.8396   5
   3   2 -10 198.282 24.1672   5
   3   2 -10 201.768 24.0808   3
   2   2 -10 66.9805 11.4278   5
   2   2 -10 55.5937 12.3544   3
  -2  -2  10 78.8344 12.9405   2
   1   2 -10 0.36427 4.28272   3
   1   2 -10 4.43066 4.30855   5
  -1  -2  10 2.68193 2.46791   4
  -1  -2  10 6.74692 5.14670   2
  -1  -2  10 4.54343 5.64009   5
   0   2 -10 39.0913 9.30840   3
   0   2 -10 41.0973 6.30905   6
   0   2 -10 41.7137 8.28764   5
   0  -2  10 33.4521 6.35902   4
   0  -2  10 36.5367 9.24238   5
   0  -2  10 28.6119 6.52061   2
  -1   2 -10 94.0835 13.8307   3
  -1   2 -10 78.3910 11.1023   4
  -1   2 -10 89.4603 10.5354   6
   1  -2  10 88.2152 12.5761   5
   1  -2  10 84.2541 11.0320   4
   1  -2  10 97.1815 12.9114   2
  -2   2 -10 850.877 84.0640   6
  -2   2 -10 803.353 85.8896   3
   2  -2  10 1076.90 88.1958   2
   2  -2  10 625.327 84.8536   5
  -3   2 -10 1043.65 117.022   3
   3  -2  10 1169.31 116.456   2
   3  -2  10 1205.99 116.311   4
  -4   2 -10 275.973 32.7172   3
   4  -2  10 276.990 33.3854   5
   4  -2  10 296.531 31.9831   4
   4  -2  10 299.203 31.3673   2
  -5   2 -10 13.9809 12.9529   3
   5  -2  10 2.65232 8.38377   5
   5  -2  10 5.87932 12.3913   4
   4   1 -10 -3.7738 6.12641   3
   4   1 -10 -4.4283 6.77381   5
  -4  -1  10 5.02908 8.29354   2
   3   1 -10 78.0746 13.7139   3
   3   1 -10 72.4148 13.9895   5
  -3  -1  10 142.088 15.8160   2
   2   1 -10 436.328 51.4003   3
   2   1 -10 429.125 51.4395   5
  -2  -1  10 544.775 54.2219   5
  -2  -1  10 557.087 51.9059   2
   1   1 -10 228.680 26.7264   3
   1   1 -10 242.606 26.7045   5
  -1  -1  10 254.971 27.7341   5
  -1  -1  10 244.521 24.8321   4
  -1  -1  10 230.189 26.5803   2
   0   1 -10 66.2387 9.84103   5
   0   1 -10 42.3142 17.3804   1
   0  -1  10 55.9071 7.68134   4
   0  -1  10 57.9590 10.7001   5
  -1   1 -10 203.325 26.4225   3
  -1   1 -10 211.981 36.5459   1
  -1   1 -10 215.341 21.9664   6
   1  -1  10 218.982 22.4997   4
   1  -1  10 199.215 23.6864   5
   1  -1  10 157.111 32.3590   1
   1  -1  10 230.472 23.5429   2
  -2   1 -10 91.2027 9.57687   6
  -2   1 -10 91.0377 13.3200   3
   2  -1  10 106.507 12.4554   2
   2  -1  10 93.6046 11.3912   4
   2  -1  10 52.6087 12.2609   5
   2  -1  10 63.6559 17.7425   1
  -3   1 -10 56.7206 11.7801   3
  -3   1 -10 51.8044 10.9432   2
   3  -1  10 68.3281 10.4803   4
   3  -1  10 47.7597 12.0440   5
   3  -1  10 76.0538 10.7618   2
   3  -1  10 38.7529 16.4837   1
  -4   1 -10 312.915 34.6680   3
   4  -1  10 297.848 33.2937   2
   4  -1  10 323.083 33.9753   4
  -5   1 -10 155.617 19.8066   3
   5  -1  10 125.107 19.7526   4
   5  -1  10 130.965 21.8084   5
   4   0 -10 155.320 21.1676   3
   4   0 -10 136.671 21.8378   5
  -4   0  10 237.855 22.9235   2
   3   0 -10 211.552 25.7103   5
   3   0 -10 225.045 24.9746   3
   2   0 -10 57.1834 11.3927   5
   2   0 -10 54.6143 10.9361   3
  -2   0  10 91.3615 11.7712   2
   1   0 -10 2.96868 4.30431   5
   1   0 -10 -1.2608 19.8218   1
   1   0 -10 4.41113 3.95632   3
  -1   0  10 -4.6096 5.45001   5
  -1   0  10 4.15953 2.18456   4
   0   0 -10 3.05345 4.17826   5
   0   0 -10 0.06187 19.9182   1
   0   0 -10 2.49045 3.46966   3
   0   0  10 15.0852 2.84143   4
   0   0  10 9.87557 5.05121   5
   0   0  10 8.00759 4.06116   2
   0   0  10 19.9843 12.6571   1
  -1   0 -10 195.674 20.5261   6
  -1   0 -10 226.668 23.1194   5
  -1   0 -10 198.083 33.1219   1
  -1   0 -10 206.034 22.6872   3
  -1   0 -10 207.132 22.8175   2
   1   0  10 189.699 21.8075   2
   1   0  10 170.599 30.5947   1
   1   0  10 205.296 21.1346   4
   1   0  10 167.657 22.3068   5
  -2   0 -10 1049.14 105.741   3
  -2   0 -10 1119.52 105.215   2
   2   0  10 1223.10 105.278   2
   2   0  10 1195.48 104.952   4
   2   0  10 892.576 108.561   1
   2   0  10 695.068 104.921   5
  -3   0 -10 1470.55 145.705   2
  -3   0 -10 1552.14 146.398   3
   3   0  10 1683.88 145.879   2
   3   0  10 1169.91 145.981   5
   3   0  10 1646.04 145.912   4
   3   0  10 1059.01 148.796   1
  -4   0 -10 362.519 39.6502   3
   4   0  10 384.343 39.2636   4
   4   0  10 351.252 38.4972   2
  -5   0 -10 39.7852 8.13364   3
   5   0  10 48.8752 11.5661   5
   5   0  10 61.1986 12.3836   4
   4  -1 -10 7.63808 6.56506   5
   4  -1 -10 2.30242 5.00039   3
  -4   1  10 12.9604 7.67691   2
   3  -1 -10 190.053 23.4800   5
   3  -1 -10 200.019 22.6769   3
   2  -1 -10 763.753 98.2596   5
  -2   1  10 1158.09 98.5049   2
   1  -1 -10 422.335 47.6702   5
   1  -1 -10 427.889 47.0485   3
   1  -1 -10 390.775 52.6151   1
  -1   1  10 475.303 45.8542   4
  -1   1  10 412.592 46.9466   2
  -1   1  10 453.867 45.9020   4
  -1   1  10 462.250 54.9973   1
  -1   1  10 479.266 48.4752   5
  -1   1  10 522.252 49.1684   3
   0  -1 -10 33.3298 13.7205   1
   0  -1 -10 18.8981 5.34242   2
   0  -1 -10 25.6891 7.38870   5
   0  -1 -10 20.9817 4.56842   3
   0   1  10 16.8380 4.20109   2
   0   1  10 19.3089 5.70845   5
   0   1  10 29.7887 5.59733   3
   0   1  10 23.5134 4.38772   4
   0   1  10 17.9773 12.7423   1
  -1  -1 -10 128.480 14.2591   5
  -1  -1 -10 101.123 10.6863   6
  -1  -1 -10 97.3919 19.0415   1
  -1  -1 -10 108.938 12.7583   2
  -1  -1 -10 106.221 13.1178   3
   1   1  10 102.530 12.1713   2
   1   1  10 112.825 11.6504   4
   1   1  10 78.0338 13.2566   5
   1   1  10 70.0171 12.6361   3
   1   1  10 99.0544 22.3295   1
  -2  -1 -10 4.95616 4.04560   2
  -2  -1 -10 1.70352 3.70089   3
  -2  -1 -10 -4.1800 14.3811   1
   2   1  10 5.45554 3.23838   4
   2   1  10 0.15338 4.20597   5
   2   1  10 3.89914 3.41224   2
   2   1  10 19.1836 12.4596   1
  -3  -1 -10 316.428 34.1003   3
  -3  -1 -10 273.316 30.5093   2
   3   1  10 321.863 30.6801   2
   3   1  10 239.746 38.2576   1
   3   1  10 300.373 33.6234   4
   3   1  10 251.695 32.2901   5
  -4  -1 -10 890.028 90.8412   3
   4   1  10 848.593 90.1921   2
   4   1  10 909.176 90.6625   4
  -5  -1 -10 365.084 38.4903   3
   5   1  10 338.026 38.7327   4
   4  -2 -10 139.768 21.2134   5
   4  -2 -10 134.883 19.5449   3
  -4   2  10 229.311 21.1927   2
   3  -2 -10 178.429 21.8915   5
   3  -2 -10 174.276 20.4979   3
   2  -2 -10 35.0389 9.82245   5
   2  -2 -10 28.9682 5.93884   3
  -2   2  10 37.0537 8.95127   2
   1  -2 -10 61.9486 23.1950   1
   1  -2 -10 79.8150 12.8281   5
   1  -2 -10 70.8800 11.4975   3
  -1   2  10 75.5791 17.6271   1
  -1   2  10 82.8970 11.3160   2
  -1   2  10 92.4499 10.0038   4
  -1   2  10 76.9926 14.7367   5
  -1   2  10 102.356 9.59120   4
   0  -2 -10 132.913 14.0908   3
   0  -2 -10 113.367 23.8247   1
   0  -2 -10 110.311 14.0147   2
   0  -2 -10 129.995 15.1789   5
   0   2  10 92.3669 13.2424   2
   0   2  10 100.982 15.1664   5
   0   2  10 122.648 14.7149   3
   0   2  10 115.556 12.5480   4
  -1  -2 -10 118.183 14.1250   5
  -1  -2 -10 102.093 12.4383   2
  -1  -2 -10 100.241 10.8557   6
  -1  -2 -10 91.5911 18.0260   1
  -1  -2 -10 100.814 12.6567   3
   1   2  10 102.861 11.4682   4
   1   2  10 101.037 21.7914   1
   1   2  10 77.1749 13.2194   5
   1   2  10 74.9478 12.3017   3
   1   2  10 132.447 12.1809   2
  -2  -2 -10 913.080 83.7970   3
  -2  -2 -10 862.791 83.4561   2
  -2  -2 -10 963.419 89.7859   1
   2   2  10 925.799 83.2904   4
   2   2  10 611.262 83.1041   3
   2   2  10 877.760 87.5338   1
   2   2  10 810.199 83.2184   2
   2   2  10 620.567 83.6192   5
  -3  -2 -10 1455.63 143.599   2
  -3  -2 -10 1583.91 144.167   3
   3   2  10 1440.74 143.565   2
   3   2  10 1444.17 144.636   4
   3   2  10 1133.44 146.566   1
  -4  -2 -10 453.802 47.3562   3
  -4  -2 -10 437.899 46.5076   2
   4   2  10 461.345 47.4375   4
   4   2  10 446.550 46.6657   2
  -5  -2 -10 6.44538 4.66963   3
   5   2  10 4.73481 6.13213   4
   6   2  10 3.57293 12.3631   5
   4  -3 -10 40.5880 11.8145   5
   4  -3 -10 21.1173 6.02554   3
  -4   3  10 62.4550 10.7972   2
   3  -3 -10 291.934 32.3991   3
   3  -3 -10 285.853 32.7137   5
   2  -3 -10 930.696 108.517   5
   2  -3 -10 1036.91 107.685   3
  -2   3  10 1197.93 107.800   2
   1  -3 -10 978.439 104.509   5
   1  -3 -10 865.832 106.751   1
   1  -3 -10 1059.57 103.509   3
   1  -3 -10 1240.79 105.946   2
  -1   3  10 1086.93 105.224   5
  -1   3  10 936.624 107.836   1
  -1   3  10 1086.26 102.701   4
  -1   3  10 989.522 102.871   4
  -1   3  10 880.370 103.276   2
   0  -3 -10 77.4317 10.8864   2
   0  -3 -10 93.5765 10.8547   3
   0  -3 -10 85.7122 12.4456   5
   0  -3 -10 77.9839 16.5476   1
   0   3  10 86.8056 12.8887   5
   0   3  10 78.2253 9.45847   4
   0   3  10 86.7546 11.7437   3
   0   3  10 68.7973 10.0636   2
   0   3  10 107.770 22.6268   1
  -1  -3 -10 2.80271 3.22288   2
  -1  -3 -10 5.61197 2.98147   3
  -1  -3 -10 4.71217 4.59171   5
  -1  -3 -10 5.33774 12.7637   1
   1   3  10 3.82237 2.20167   4
   1   3  10 4.97293 2.52695   2
   1   3  10 2.06810 2.84954   3
   1   3  10 2.53236 11.1876   1
   1   3  10 3.89622 4.22517   5
  -2  -3 -10 145.992 14.6032   3
  -2  -3 -10 129.667 14.3009   2
  -2  -3 -10 139.797 27.4919   1
   2   3  10 101.083 14.1321   3
   2   3  10 120.420 13.8551   2
   2   3  10 142.558 14.1180   4
   2   3  10 94.3214 15.2365   5
   2   3  10 129.984 23.0828   1
  -3  -3 -10 648.052 60.8997   3
  -3  -3 -10 602.370 60.4188   2
   3   3  10 653.520 60.9463   4
   3   3  10 521.998 60.2785   2
   3   3  10 501.597 65.1809   1
  -4  -3 -10 1273.26 125.029   3
   4   3  10 1272.25 125.191   4
   4   3  10 1137.19 124.409   2
  -5  -3 -10 715.972 75.3271   3
   5   3  10 742.489 75.8972   4
  -6  -3 -10 23.0595 9.58168   3
   6   3  10 57.7503 16.9150   4
   6   3  10 59.8806 16.8003   5
   4  -4 -10 95.6234 17.6278   5
   4  -4 -10 104.890 14.8806   3
  -4   4  10 141.815 15.9700   2
   3  -4 -10 61.4232 13.0739   5
   3  -4 -10 68.1089 10.8832   3
  -3   4  10 94.0167 11.5069   2
   2  -4 -10 0.69946 3.42065   3
   2  -4 -10 -9.8617 13.2879   1
  -2   4  10 5.76380 4.03450   2
  -2   4  10 6.83133 2.32259   4
  -2   4  10 -2.1589 2.83297   4
   1  -4 -10 254.878 37.1312   1
   1  -4 -10 329.749 32.3732   2
   1  -4 -10 261.188 32.2039   5
   1  -4 -10 298.323 30.7309   3
  -1   4  10 291.647 37.4191   1
  -1   4  10 277.950 30.5662   2
  -1   4  10 291.535 33.9235   5
  -1   4  10 326.863 29.8669   4
  -1   4  10 254.698 29.9932   4
   0  -4 -10 482.876 53.1432   2
   0  -4 -10 553.822 53.1903   3
   0  -4 -10 578.314 54.8410   5
   0  -4 -10 446.078 57.2161   1
   0   4  10 597.129 53.5196   3
   0   4  10 476.953 52.6146   4
   0   4  10 528.059 57.8247   1
   0   4  10 503.659 54.6216   5
   0   4  10 450.904 52.8636   2
   0   4  10 520.359 52.5580   4
  -1  -4 -10 5.29041 4.83413   5
  -1  -4 -10 5.34377 2.89611   2
  -1  -4 -10 6.00312 2.69546   3
  -1  -4 -10 -0.4764 11.6639   1
   1   4  10 3.56989 4.38763   5
   1   4  10 6.35580 10.6077   1
   1   4  10 1.41836 2.30469   2
   1   4  10 22.5327 5.30153   3
   1   4  10 1.17355 2.12287   4
  -2  -4 -10 646.551 56.1997   3
  -2  -4 -10 561.385 58.1241   5
  -2  -4 -10 654.087 63.0801   1
  -2  -4 -10 600.038 56.1000   2
   2   4  10 573.002 60.3594   1
   2   4  10 447.998 55.7858   3
   2   4  10 512.638 55.8478   2
   2   4  10 574.580 56.0280   4
   2   4  10 389.591 56.5727   5
  -3  -4 -10 963.631 92.7854   2
  -3  -4 -10 1037.97 93.1127   3
   3   4  10 803.051 92.8255   3
   3   4  10 820.790 92.6432   2
   3   4  10 877.836 100.251   1
   3   4  10 962.640 93.2456   4
  -4  -4 -10 264.315 26.1855   3
   4   4  10 253.199 26.5982   4
   4   4  10 202.679 25.2361   2
  -5  -4 -10 24.2808 5.31435   3
   5   4  10 20.0739 5.79005   2
   5   4  10 9.09505 6.30546   4
  -6  -4 -10 4.64510 5.78951   3
   6   4  10 5.63571 11.0981   4
   4  -5 -10 6.83218 7.17459   5
   4  -5 -10 14.8898 5.05960   3
  -4   5  10 25.1372 6.37792   2
   3  -5 -10 317.796 40.2658   5
   3  -5 -10 408.038 39.9025   3
   3  -5 -10 329.878 38.3447   3
  -3   5  10 409.351 38.7892   2
   2  -5 -10 1139.64 116.349   3
   2  -5 -10 1240.50 120.473   1
   2  -5 -10 1038.86 118.060   5
  -2   5  10 1097.69 115.958   4
  -2   5  10 1135.07 116.528   2
  -2   5  10 1245.46 120.824   1
   1  -5 -10 1191.47 126.722   1
   1  -5 -10 1430.12 123.577   3
   1  -5 -10 1106.68 125.293   2
   1  -5 -10 1196.49 124.999   5
  -1   5  10 1263.58 126.769   1
  -1   5  10 1178.59 123.472   2
  -1   5  10 1139.92 123.111   4
   0  -5 -10 36.2216 4.66174   6
   0  -5 -10 35.0685 9.62869   5
   0  -5 -10 42.4721 6.54877   3
   0  -5 -10 37.5286 7.03864   2
   0  -5 -10 23.0829 11.9152   1
   0   5  10 44.2437 11.3581   1
   0   5  10 36.3178 6.26054   2
   0   5  10 38.5752 7.92668   3
   0   5  10 23.4282 7.59003   5
   0   5  10 28.7077 6.04050   4
  -1  -5 -10 80.8487 9.58985   2
  -1  -5 -10 74.7522 16.2394   1
  -1  -5 -10 85.5346 12.4947   5
  -1  -5 -10 91.4101 9.12780   3
   1   5  10 85.3612 9.03548   4
   1   5  10 58.3085 12.8375   1
   1   5  10 65.1407 9.10780   4
   1   5  10 52.9379 9.29969   3
   1   5  10 51.9101 11.7932   5
   1   5  10 78.6524 9.09232   2
  -2  -5 -10 119.183 12.3423   2
  -2  -5 -10 98.6254 19.2815   1
  -2  -5 -10 111.172 15.4628   5
  -2  -5 -10 124.187 12.0667   3
   2   5  10 70.5816 13.9274   5
   2   5  10 108.487 11.9389   2
   2   5  10 126.028 20.6495   1
   2   5  10 116.319 12.3055   4
   2   5  10 76.8466 12.0156   3
  -3  -5 -10 720.018 65.2449   3
   3   5  10 586.338 65.0872   3
   3   5  10 619.723 66.1334   4
   3   5  10 617.271 64.9814   2
  -4  -5 -10 1457.85 134.399   3
   4   5  10 1131.64 133.736   2
   4   5  10 1377.83 134.697   4
  -5  -5 -10 867.057 84.9100   3
   5   5  10 885.707 85.8188   4
   5   5  10 733.106 84.1342   2
   6   5  10 41.9193 13.6646   4
   4  -6 -10 12.4117 5.21979   3
   4  -6 -10 11.8523 8.40596   5
  -4   6  10 25.7539 6.48035   2
   3  -6 -10 8.95055 4.00782   3
   3  -6 -10 8.28506 6.68305   5
  -3   6  10 21.0657 5.14960   2
   2  -6 -10 13.9970 13.6095   1
   2  -6 -10 50.2945 7.61014   3
   2  -6 -10 20.9357 7.42601   5
  -2   6  10 24.6665 12.1946   1
  -2   6  10 34.6335 5.70607   4
  -2   6  10 43.7277 8.49110   2
   1  -6 -10 678.263 67.6768   6
   1  -6 -10 645.047 70.2549   5
   1  -6 -10 627.413 72.1189   1
   1  -6 -10 760.709 68.2363   3
  -1   6  10 630.213 68.1521   4
  -1   6  10 664.998 68.3787   2
  -1   6  10 647.347 71.6230   1
   0  -6 -10 1313.98 132.042   6
   0  -6 -10 1323.20 132.963   2
   0  -6 -10 1380.11 132.436   3
   0  -6 -10 1424.50 134.879   5
   0  -6 -10 1173.56 135.595   1
   0   6  10 1307.94 135.197   5
   0   6  10 1160.28 132.534   4
   0   6  10 1269.19 135.089   1
   0   6  10 1434.58 132.760   3
   0   6  10 1287.80 132.735   2
  -1  -6 -10 46.7740 14.6178   1
  -1  -6 -10 54.4354 10.7243   5
  -1  -6 -10 59.5899 6.43724   3
  -1  -6 -10 52.0195 7.52646   2
   1   6  10 28.6250 10.4066   1
   1   6  10 40.5976 7.14001   4
   1   6  10 44.4877 8.51087   3
   1   6  10 51.1705 6.85775   2
   1   6  10 44.0033 10.7635   5
  -2  -6 -10 174.906 17.0656   3
  -2  -6 -10 171.393 17.5587   2
  -2  -6 -10 189.687 35.1960   1
  -2  -6 -10 155.225 20.3122   5
   2   6  10 159.006 17.2668   2
   2   6  10 135.965 17.1652   3
   2   6  10 128.695 22.8261   1
   2   6  10 165.235 17.5725   4
  -3  -6 -10 363.185 36.0135   3
   3   6  10 346.523 35.9875   2
   3   6  10 316.583 36.0297   3
   3   6  10 361.616 37.1914   4
   4   6  10 48.2817 9.66164   4
   4   6  10 33.7575 6.68840   2
  -5  -6 -10 65.3488 10.0923   3
   5   6  10 55.3143 9.31129   2
   5   6  10 69.9477 13.3652   4
   4  -7 -10 0.28574 8.00845   5
  -4   7  10 9.98373 5.76590   2
   3  -7 -10 253.917 27.9088   3
   3  -7 -10 232.265 30.9942   5
  -3   7  10 295.309 28.4605   2
   2  -7 -10 933.469 95.8287   1
   2  -7 -10 727.397 92.5990   5
   2  -7 -10 1039.73 90.6377   3
  -2   7  10 939.688 91.1379   2
  -2   7  10 791.021 90.7558   4
  -2   7  10 918.367 94.6398   1
   1  -7 -10 756.404 73.5453   3
   1  -7 -10 718.306 78.1770   1
   1  -7 -10 732.181 73.5249   6
   1  -7 -10 790.459 80.7413   5
  -1   7  10 706.531 76.8823   1
  -1   7  10 729.011 74.1703   2
  -1   7  10 643.167 74.0288   4
   0  -7 -10 78.5730 9.82938   6
   0  -7 -10 73.3915 14.3874   5
   0  -7 -10 64.3073 16.6593   1
   0  -7 -10 87.0472 9.03633   3
   0   7  10 74.2534 16.7702   1
   0   7  10 73.8572 10.4946   4
   0   7  10 90.1876 10.3680   2
  -1  -7 -10 3.72219 13.0375   1
  -1  -7 -10 19.2757 6.77244   5
  -1  -7 -10 23.1491 3.51375   3
   1   7  10 4.56341 7.69462   1
   1   7  10 14.6493 3.46261   3
   1   7  10 21.4643 4.67987   2
   1   7  10 16.8613 4.04695   4
  -2  -7 -10 23.7443 7.00777   5
  -2  -7 -10 29.4426 4.40671   3
   2   7  10 11.0313 10.5901   1
   2   7  10 24.3328 4.97628   2
   2   7  10 32.1679 6.17159   4
   2   7  10 25.1875 5.31203   3
  -3  -7 -10 482.016 47.3299   3
   3   7  10 451.897 47.4295   2
   3   7  10 420.540 47.3774   3
   3   7  10 490.630 48.0854   4
   4   7  10 1110.33 115.439   2
   4   7  10 1165.51 116.350   4
   5   7  10 464.448 46.9165   4
   5   7  10 407.401 44.8659   2
   4  -8 -10 -2.9397 9.89058   5
  -4   8  10 0.09002 5.38345   2
   3  -8 -10 -1.3018 6.86469   5
  -3   8  10 2.08269 4.13855   2
   2  -8 -10 101.718 17.0747   5
  -2   8  10 88.3431 17.0785   1
  -2   8  10 112.231 12.6925   2
  -2   8  10 71.5679 14.9303   4
   1  -8 -10 1113.89 115.446   6
   1  -8 -10 1186.27 118.800   5
  -1   8  10 1086.30 116.662   4
  -1   8  10 1100.75 118.406   1
  -1   8  10 1215.31 116.611   2
   0  -8 -10 1315.41 120.464   5
   0  -8 -10 1167.76 116.787   6
   0   8  10 1099.96 119.230   1
   0   8  10 1041.34 117.656   2
  -1  -8 -10 254.534 29.3495   5
   1   8  10 263.671 25.7436   3
   1   8  10 239.067 26.0770   2
   1   8  10 213.408 32.0111   1
  -2  -8 -10 12.5141 2.28839   3
   2   8  10 9.29480 2.85188   2
   2   8  10 10.7405 3.37710   3
   3   8  10 67.1135 10.1582   4
   3   8  10 66.8541 8.77575   2
   3   8  10 55.4447 8.80238   3
   4   8  10 3.38654 5.04047   4
   5   8  10 162.938 21.1331   4
   5   8  10 155.209 19.0441   2
   3  -9 -10 102.262 20.5110   5
  -3   9  10 151.058 16.2426   2
   2  -9 -10 401.765 49.1577   5
  -2   9  10 476.249 46.1026   2
   1  -9 -10 324.321 38.8264   5
   1  -9 -10 318.855 34.6359   6
  -1   9  10 354.160 35.2205   2
   0  -9 -10 17.0482 8.49371   5
   0  -9 -10 15.2230 3.76996   6
   0   9  10 27.5315 6.18854   2
  -1  -9 -10 13.8321 12.2577   5
   1   9  10 36.7369 6.01948   2
  -2  -9 -10 2.95231 6.12181   5
   2   9  10 3.56183 2.42066   3
   2   9  10 2.91792 2.59301   2
   3   9  10 173.780 18.5370   4
   3   9  10 137.245 17.5471   3
   3   9  10 162.271 17.3518   2
   4   9  10 591.147 61.0621   4
   4   9  10 575.256 60.0008   2
   5   9  10 247.270 26.2945   2
   5   9  10 229.218 29.0918   4
   3 -10 -10 -1.4491 9.01952   5
  -3  10  10 5.04733 4.93633   2
   2 -10 -10 151.293 23.5680   5
  -2  10  10 159.474 18.2380   2
   1 -10 -10 976.654 102.044   5
  -1  10  10 960.898 98.8742   2
   0 -10 -10 838.369 92.0242   6
   0 -10 -10 952.557 95.6009   5
   0  10  10 930.828 92.5164   2
  -1 -10 -10 454.205 47.7364   5
   1  10  10 407.586 44.5454   2
   2  10  10 4.86196 2.97217   2
   3  10  10 1.61126 2.90566   2
   4  10  10 10.2378 6.41518   4
   4  10  10 20.6506 4.94875   2
   3 -11 -10 28.0156 13.9450   5
  -3  11  10 31.4926 7.05413   2
   2 -11 -10 133.381 24.6858   5
  -2  11  10 165.890 18.3016   2
   1 -11 -10 64.4348 18.2562   5
  -1  11  10 79.0859 10.7875   2
   0 -11 -10 0.19615 8.79686   5
   0  11  10 1.16007 3.76258   2
  -1 -11 -10 109.386 18.2249   5
   1  11  10 104.966 13.3419   2
   2  11  10 37.2822 6.95459   2
   3  11  10 18.1237 4.42511   2
   4  11  10 190.728 23.5440   4
   4  11  10 186.476 21.2622   2
   2 -12 -10 95.3401 23.1898   5
  -2  12  10 127.023 15.4175   2
   1 -12 -10 433.229 52.4654   5
  -1  12  10 482.080 48.2213   2
   0 -12 -10 809.745 84.8306   5
   0  12  10 779.920 81.4934   2
  -1 -12 -10 175.827 22.3426   5
   1  12  10 128.704 17.3519   2
   2  12  10 -0.2391 3.67704   2
   3  12  10 2.15004 3.92351   2
   1 -13 -10 -3.4420 11.6799   5
  -1  13  10 0.26273 5.07901   2
   0 -13 -10 18.7208 10.5713   5
   0  13  10 16.3165 5.72026   2
  -1 -13 -10 278.037 31.8873   5
   1  13  10 228.722 27.5696   2
   2  13  10 90.2707 13.0961   2
   3  13  10 -1.4349 6.19311   2
   1   5 -11 -3.4153 4.85279   6
   0   5 -11 29.8758 9.92598   3
   0   5 -11 50.7255 7.61668   6
   0  -5  11 53.0885 11.2197   2
  -1   5 -11 188.385 21.5250   6
   1  -5  11 177.141 21.8129   4
   1  -5  11 190.616 25.2355   2
  -2   5 -11 277.842 38.1077   3
   2  -5  11 206.864 26.6007   2
   2  -5  11 183.037 24.5274   4
   1   4 -11 145.066 20.6636   3
   1   4 -11 146.145 16.9457   6
  -1  -4  11 138.324 20.3239   2
   0   4 -11 374.747 38.6108   6
   0   4 -11 372.547 41.1843   3
   0  -4  11 356.350 40.3122   4
   0  -4  11 366.813 40.6432   2
  -1   4 -11 138.090 19.8308   3
  -1   4 -11 125.572 15.5107   6
   1  -4  11 121.881 16.0215   4
   1  -4  11 115.149 17.9239   2
  -2   4 -11 0.62258 7.23198   3
  -2   4 -11 3.94835 5.95441   6
   2  -4  11 -1.4347 6.93951   2
   2  -4  11 -3.7846 5.27814   4
  -3   4 -11 10.3422 8.76559   3
   3  -4  11 20.8785 8.30313   2
   3  -4  11 23.5927 7.13749   4
   2   3 -11 7.02870 6.10072   3
  -2  -3  11 6.13924 7.81251   2
   1   3 -11 11.9194 6.32861   3
   1   3 -11 26.4975 9.45670   5
  -1  -3  11 17.6996 7.24742   2
   0   3 -11 87.1909 11.2991   6
   0   3 -11 70.3777 14.5920   3
   0  -3  11 73.8369 10.5174   4
   0  -3  11 68.0379 13.9597   2
  -1   3 -11 678.323 67.0894   6
  -1   3 -11 702.633 69.4645   3
   1  -3  11 678.192 68.6632   2
   1  -3  11 558.141 69.4764   4
  -2   3 -11 615.232 64.3892   3
  -2   3 -11 604.440 61.7563   6
   2  -3  11 590.529 62.4963   4
   2  -3  11 608.931 63.4442   2
  -3   3 -11 66.6777 15.7352   3
   3  -3  11 80.8994 14.0433   2
   3  -3  11 82.5992 12.7388   4
   4  -3  11 -0.3378 8.01133   4
   3   2 -11 59.1950 14.2824   3
   3   2 -11 71.4064 15.2767   5
  -3  -2  11 63.7513 15.5260   2
   2   2 -11 1.96209 5.04596   3
   2   2 -11 1.18919 5.69974   5
  -2  -2  11 4.01554 6.42248   2
   1   2 -11 199.015 24.0085   3
   1   2 -11 204.595 23.1928   5
  -1  -2  11 202.072 23.4829   2
   0   2 -11 313.084 30.9897   6
   0   2 -11 293.202 33.0839   3
   0   2 -11 330.122 32.4327   5
   0  -2  11 267.309 32.6671   2
   0  -2  11 271.933 30.9231   4
  -1   2 -11 81.6528 10.3427   6
  -1   2 -11 75.9113 14.4313   3
   1  -2  11 76.5906 13.2173   2
   1  -2  11 78.2319 11.1056   4
  -2   2 -11 38.3867 8.56281   3
  -2   2 -11 31.7405 5.26213   6
   2  -2  11 43.9690 8.91236   4
   2  -2  11 44.4977 10.4025   2
  -3   2 -11 84.2736 16.1617   3
   3  -2  11 109.268 14.7624   2
   3  -2  11 96.2664 13.5070   4
  -4   2 -11 5.80558 7.26063   3
   4  -2  11 11.6535 7.50786   2
   4  -2  11 9.06994 7.78094   5
   4  -2  11 6.42809 6.42739   4
   3   1 -11 -1.4892 6.23427   5
   3   1 -11 3.98161 5.75241   3
  -3  -1  11 0.13714 7.35535   2
   2   1 -11 6.00074 6.33147   5
   2   1 -11 3.63202 4.68801   3
  -2  -1  11 4.70582 5.79300   2
   1   1 -11 5.92536 4.91364   5
   1   1 -11 0.08935 4.35067   3
  -1  -1  11 5.33326 4.95552   2
   0   1 -11 248.365 26.4659   3
   0   1 -11 247.320 26.0231   5
   0  -1  11 228.887 24.1500   4
   0  -1  11 212.073 25.7420   2
   0  -1  11 204.855 26.3707   5
  -1   1 -11 1336.54 130.385   3
  -1   1 -11 1321.18 128.578   6
   1  -1  11 1301.47 129.816   2
   1  -1  11 1136.45 129.711   5
   1  -1  11 1268.02 129.000   4
  -2   1 -11 1018.92 109.498   3
   2  -1  11 783.650 108.686   5
   2  -1  11 1240.56 108.719   4
   2  -1  11 1223.30 109.107   2
  -3   1 -11 154.455 21.4728   3
   3  -1  11 183.352 19.9866   4
   3  -1  11 178.218 24.5772   2
  -4   1 -11 16.2010 6.05889   3
   4  -1  11 16.6529 6.32997   4
   4  -1  11 21.2533 6.75076   2
   5  -1  11 -6.1090 9.18797   5
   3   0 -11 191.744 23.7207   3
   3   0 -11 163.687 23.9881   5
  -3   0  11 252.210 24.8505   2
   2   0 -11 13.8762 5.18935   3
  -2   0  11 22.0549 6.50931   2
   1   0 -11 49.9598 9.76011   5
   1   0 -11 47.7769 9.48328   3
  -1   0  11 49.2424 6.21942   4
  -1   0  11 36.1499 9.23824   5
  -1   0  11 49.9791 9.09116   2
   0   0 -11 178.346 21.0790   3
   0   0 -11 184.609 21.1751   5
   0   0  11 180.441 20.3913   2
   0   0  11 167.962 21.5763   5
   0   0  11 171.439 18.9085   4
  -1   0 -11 4.22986 2.60295   6
  -1   0 -11 5.99063 5.63555   3
  -1   0 -11 10.7065 6.51082   5
  -1   0 -11 0.71984 17.7987   1
   1   0  11 13.5571 6.35364   2
   1   0  11 12.3688 15.3332   1
   1   0  11 15.5977 6.25235   5
   1   0  11 11.2390 3.82043   4
  -2   0 -11 201.622 24.3452   3
   2   0  11 184.013 34.7661   1
   2   0  11 232.496 23.0627   4
   2   0  11 140.265 23.7330   5
   2   0  11 262.164 23.9628   2
  -3   0 -11 407.740 48.1954   3
   3   0  11 454.541 47.5102   4
   3   0  11 495.319 47.6513   2
  -4   0 -11 84.3239 14.4982   3
   4   0  11 97.8736 13.3787   4
   4   0  11 90.0165 13.2063   2
  -5   0 -11 16.4123 7.46324   3
   5   0  11 25.0583 8.21635   4
   5   0  11 27.9554 10.1967   5
   4  -1 -11 50.9094 13.5689   3
   4  -1 -11 58.4515 15.4297   5
  -4   1  11 85.2014 15.4991   2
   3  -1 -11 -1.9097 4.72535   3
   3  -1 -11 1.88052 6.04806   5
  -3   1  11 9.25346 6.58207   2
   2  -1 -11 15.3438 6.24143   5
   2  -1 -11 5.99250 4.34200   3
  -2   1  11 20.0854 5.88945   2
   1  -1 -11 2.48573 4.70133   5
  -1   1  11 -7.3439 8.45827   5
  -1   1  11 1.78213 2.06857   4
  -1   1  11 2.14365 2.52066   4
  -1   1  11 0.92750 3.80558   2
   0  -1 -11 466.625 46.6996   3
   0  -1 -11 442.487 54.0731   1
   0  -1 -11 494.682 47.3890   5
   0   1  11 447.594 45.3374   4
   0   1  11 382.126 47.6133   2
   0   1  11 433.495 54.4683   1
   0   1  11 419.641 47.2647   5
  -1  -1 -11 1389.57 139.509   3
  -1  -1 -11 1593.23 140.408   5
  -1  -1 -11 1453.73 144.331   1
  -1  -1 -11 1357.79 137.885   6
   1   1  11 1318.76 138.957   2
   1   1  11 1358.86 143.048   1
   1   1  11 1086.73 139.257   5
   1   1  11 1397.81 138.497   4
   2   1  11 1367.42 146.775   1
   2   1  11 1643.35 142.981   2
   2   1  11 933.849 142.861   5
   2   1  11 1681.37 142.734   4
  -3  -1 -11 314.462 38.5485   2
  -3  -1 -11 310.922 35.7120   3
   3   1  11 330.781 34.9143   4
   3   1  11 347.079 34.9281   2
  -4  -1 -11 19.4666 6.02653   3
   4   1  11 24.7253 6.02474   4
   4   1  11 16.9019 5.61806   2
  -5  -1 -11 -2.0766 5.41809   3
   5   1  11 0.24997 6.35131   4
   4  -2 -11 93.4178 17.3834   5
   3  -2 -11 281.758 34.3282   5
   3  -2 -11 325.514 33.3947   3
   2  -2 -11 120.670 15.3370   3
   2  -2 -11 110.548 16.2816   5
  -2   2  11 128.372 15.2420   2
   1  -2 -11 5.81350 5.02387   5
   1  -2 -11 -0.3207 3.29422   3
   1  -2 -11 -0.1418 15.6484   1
  -1   2  11 -0.1117 3.56187   2
  -1   2  11 -0.9102 1.89602   4
  -1   2  11 -3.2229 2.45514   4
   0  -2 -11 56.9277 9.64961   3
   0  -2 -11 44.3135 16.0171   1
   0  -2 -11 59.9764 10.9437   5
   0   2  11 58.4237 7.33307   4
   0   2  11 61.0369 17.8348   1
   0   2  11 56.8810 11.7369   5
   0   2  11 51.6519 11.2426   3
   0   2  11 48.1636 8.92508   2
  -1  -2 -11 120.209 15.3989   5
  -1  -2 -11 109.582 13.7927   3
  -1  -2 -11 99.9107 10.3676   6
  -1  -2 -11 78.7380 19.5233   1
   1   2  11 104.177 11.6775   4
   1   2  11 63.9026 13.4828   3
   1   2  11 90.7434 14.5872   5
   1   2  11 80.7165 18.0602   1
   1   2  11 100.252 12.3621   2
  -2  -2 -11 537.050 57.7558   3
  -2  -2 -11 599.464 66.7673   1
   2   2  11 585.969 56.9990   4
   2   2  11 534.326 57.0865   2
   2   2  11 518.536 62.6433   1
  -3  -2 -11 852.918 99.7947   2
  -3  -2 -11 1049.71 100.536   3
   3   2  11 1004.58 99.9717   4
   3   2  11 1009.49 99.8463   2
  -4  -2 -11 312.773 34.3842   3
   4   2  11 323.527 33.6113   2
   4   2  11 310.738 34.1620   4
  -5  -2 -11 1.24784 4.71165   3
   5   2  11 -1.4967 5.78503   4
   4  -3 -11 27.1771 9.64998   5
   4  -3 -11 21.4150 6.91802   3
  -4   3  11 31.8484 8.49952   2
   3  -3 -11 -0.5644 6.12371   5
   3  -3 -11 -0.9057 4.39380   3
  -3   3  11 -0.5232 5.26028   2
   2  -3 -11 72.5979 12.9789   5
   2  -3 -11 76.6032 11.2628   3
  -2   3  11 75.8663 11.2629   2
   1  -3 -11 7.43507 14.3644   1
   1  -3 -11 22.0676 4.63862   3
   1  -3 -11 19.8088 6.34119   5
  -1   3  11 15.1298 4.77949   4
  -1   3  11 22.3014 6.57160   2
  -1   3  11 20.4254 15.8511   1
  -1   3  11 23.9082 4.24648   4
   0  -3 -11 261.069 27.9425   5
   0  -3 -11 210.854 34.8502   1
   0  -3 -11 260.351 26.5336   3
   0   3  11 281.494 27.2500   3
   0   3  11 197.807 25.8931   2
   0   3  11 254.918 37.0865   1
   0   3  11 243.285 25.3823   4
   0   3  11 225.647 28.0575   5
  -1  -3 -11 1483.40 132.988   1
  -1  -3 -11 1514.13 129.669   5
  -1  -3 -11 1326.52 128.017   3
   1   3  11 1102.97 127.468   2
   1   3  11 969.861 128.202   5
   1   3  11 1424.78 132.174   1
   1   3  11 1290.84 127.291   4
   1   3  11 1005.86 127.486   3
  -2  -3 -11 1515.08 137.203   3
  -2  -3 -11 1361.28 137.004   2
  -2  -3 -11 1559.87 143.157   1
   2   3  11 1462.25 136.636   4
   2   3  11 1226.72 136.539   2
   2   3  11 880.820 136.583   3
   2   3  11 1474.64 140.937   1
  -3  -3 -11 236.645 27.0693   2
   3   3  11 243.843 26.7675   2
   3   3  11 270.885 27.2412   4
  -4  -3 -11 5.45484 4.36232   3
   4   3  11 10.5663 4.20102   2
   4   3  11 11.2959 4.79482   4
  -5  -3 -11 -1.2538 4.32550   3
   5   3  11 -2.7894 5.66262   4
   4  -4 -11 167.484 25.8048   5
   4  -4 -11 154.532 22.5788   3
  -4   4  11 255.810 23.7157   2
   3  -4 -11 384.299 49.1744   5
   3  -4 -11 427.462 47.6896   3
  -3   4  11 557.393 48.3272   2
   2  -4 -11 279.100 38.1312   5
   2  -4 -11 351.976 36.9604   3
  -2   4  11 396.836 35.6866   4
  -2   4  11 318.329 36.9165   2
  -2   4  11 389.707 36.3251   4
   1  -4 -11 -0.1274 3.03836   3
   1  -4 -11 0.63184 4.98883   5
   1  -4 -11 20.8265 15.1854   1
  -1   4  11 -1.6755 13.8153   1
  -1   4  11 -1.1666 2.13838   4
  -1   4  11 0.98298 2.88673   4
   0  -4 -11 33.9652 15.7323   1
   0  -4 -11 28.3675 6.80319   3
   0  -4 -11 22.8526 6.47795   5
   0   4  11 28.6031 5.96820   2
   0   4  11 20.7284 4.18669   4
   0   4  11 26.4166 13.8301   1
   0   4  11 28.8277 5.80137   3
   0   4  11 30.8573 5.08278   4
  -1  -4 -11 189.677 31.8972   1
  -1  -4 -11 227.467 23.3307   5
  -1  -4 -11 189.666 20.4523   3
   1   4  11 190.643 19.6879   4
   1   4  11 219.169 30.3643   1
   1   4  11 163.281 19.8572   2
   1   4  11 168.653 24.9478   5
   1   4  11 145.715 20.2069   3
  -2  -4 -11 1029.71 95.3387   1
  -2  -4 -11 935.099 88.5678   5
  -2  -4 -11 839.669 86.2458   2
  -2  -4 -11 968.732 86.3453   3
   2   4  11 859.033 85.9312   4
   2   4  11 757.157 85.8279   2
   2   4  11 558.806 85.6576   3
   2   4  11 865.918 90.7146   1
  -3  -4 -11 1470.47 147.369   2
  -3  -4 -11 1625.42 147.744   3
   3   4  11 1220.47 147.106   2
   3   4  11 1497.86 147.568   4
  -4  -4 -11 696.190 67.2129   3
   4   4  11 578.836 66.4639   2
   4   4  11 676.395 67.3059   4
  -5  -4 -11 7.72220 4.33928   3
   5   4  11 4.90171 5.87651   4
   4  -5 -11 2.86942 5.54130   3
   4  -5 -11 9.71751 8.68099   5
  -4   5  11 16.3738 7.06891   2
   3  -5 -11 17.9641 7.79209   5
   3  -5 -11 9.62813 6.52099   3
  -3   5  11 23.2957 6.04667   2
   2  -5 -11 234.304 25.6518   3
   2  -5 -11 175.052 27.2648   5
  -2   5  11 258.663 25.9363   4
  -2   5  11 211.657 25.7243   2
  -2   5  11 289.578 24.6319   4
   1  -5 -11 253.100 24.7634   3
   1  -5 -11 154.157 34.6972   1
  -1   5  11 211.564 24.2133   4
  -1   5  11 199.473 34.4610   1
  -1   5  11 248.557 23.8543   4
   0  -5 -11 58.9375 17.8278   1
   0  -5 -11 100.758 11.6977   3
   0  -5 -11 89.0350 10.0775   6
   0  -5 -11 101.522 14.4788   5
   0   5  11 79.9345 16.5388   1
   0   5  11 99.8700 10.7674   4
   0   5  11 110.359 13.0330   3
   0   5  11 83.8265 11.2484   4
   0   5  11 83.5765 11.2031   2
  -1  -5 -11 850.015 86.5167   1
  -1  -5 -11 904.094 83.1107   5
  -1  -5 -11 872.656 80.7281   3
   1   5  11 666.751 80.5233   3
   1   5  11 741.972 80.5890   2
   1   5  11 712.922 80.4436   4
   1   5  11 823.338 80.4809   4
   1   5  11 762.768 84.6669   1
  -2  -5 -11 853.259 75.7024   2
  -2  -5 -11 815.696 73.7962   3
  -2  -5 -11 773.987 76.5308   5
   2   5  11 758.373 73.7341   4
   2   5  11 491.700 73.3360   3
   2   5  11 705.507 78.1505   1
   2   5  11 660.054 73.5535   2
  -3  -5 -11 63.2168 11.0482   2
  -3  -5 -11 85.0084 10.5774   3
   3   5  11 74.2141 9.90286   2
   3   5  11 68.3739 10.7934   4
  -4  -5 -11 80.2844 10.6169   3
   4   5  11 48.2326 9.41337   2
   4   5  11 92.6487 11.7512   4
  -5  -5 -11 26.9644 5.75378   3
   5   5  11 34.1642 7.91658   4
   5   5  11 30.1456 9.13295   2
   4  -6 -11 178.165 28.7616   5
  -4   6  11 255.163 25.8115   2
   3  -6 -11 475.113 50.0935   3
  -3   6  11 485.740 50.3876   2
   2  -6 -11 358.642 33.0705   3
   2  -6 -11 272.225 35.2205   5
  -2   6  11 314.334 35.2116   4
  -2   6  11 292.660 33.0457   2
   1  -6 -11 12.3222 2.78823   6
   1  -6 -11 8.91500 6.40661   5
   1  -6 -11 12.4976 3.64336   3
   1  -6 -11 13.8637 15.7692   1
  -1   6  11 9.70996 4.01530   2
  -1   6  11 11.1131 12.0021   1
  -1   6  11 2.34613 3.84790   4
   0  -6 -11 71.6513 8.36361   6
   0  -6 -11 78.8494 13.5698   5
   0  -6 -11 60.6385 17.9581   1
   0  -6 -11 74.2207 9.38375   3
   0   6  11 86.6975 11.0866   3
   0   6  11 74.6166 9.65315   2
   0   6  11 50.7877 14.1331   1
   0   6  11 65.7839 9.88133   4
  -1  -6 -11 45.5861 19.2525   1
  -1  -6 -11 107.048 15.3866   5
  -1  -6 -11 108.578 10.9569   3
   1   6  11 82.2970 11.6711   3
   1   6  11 60.7878 15.8170   1
   1   6  11 91.1204 11.1677   2
   1   6  11 100.326 11.1862   4
   1   6  11 85.6358 11.5354   4
  -2  -6 -11 1110.58 97.3781   3
   2   6  11 688.176 97.0730   3
   2   6  11 1055.47 97.6590   4
   2   6  11 979.449 97.4536   2
  -3  -6 -11 1778.97 162.699   3
   3   6  11 1571.75 162.576   2
   3   6  11 1405.55 162.525   3
   3   6  11 1667.06 162.981   4
  -4  -6 -11 630.533 61.5951   3
   4   6  11 632.880 62.2059   4
   4   6  11 530.359 61.1549   2
  -5  -6 -11 42.5532 9.07060   3
   5   6  11 48.9495 9.04259   4
   5   6  11 43.6848 9.61072   2
  -4   7  11 -2.4363 6.50431   2
   3  -7 -11 68.6600 12.0424   3
   3  -7 -11 53.0105 14.5668   5
  -3   7  11 64.6746 10.7493   2
   2  -7 -11 455.103 55.7341   5
   2  -7 -11 597.639 53.3387   3
  -2   7  11 489.348 53.5542   2
   1  -7 -11 377.953 39.1517   6
   1  -7 -11 276.996 48.6015   1
   1  -7 -11 430.168 42.8254   5
   1  -7 -11 426.436 39.4162   3
  -1   7  11 366.766 45.8010   1
  -1   7  11 338.127 39.9218   4
  -1   7  11 392.494 39.9759   2
   0  -7 -11 4.90796 5.95026   5
   0  -7 -11 -2.5531 22.9743   1
   0  -7 -11 5.26977 2.13234   3
   0  -7 -11 4.58039 3.57335   6
   0   7  11 3.23575 4.41165   2
   0   7  11 0.90637 10.0190   1
   0   7  11 4.71257 3.66896   4
  -1  -7 -11 225.991 21.7582   3
   1   7  11 205.063 23.0982   3
   1   7  11 190.330 30.8851   1
   1   7  11 191.945 23.5423   2
  -2  -7 -11 212.156 26.5478   5
  -2  -7 -11 236.785 22.4704   3
   2   7  11 250.295 23.9700   4
   2   7  11 218.563 23.0407   2
   2   7  11 151.119 22.5403   3
  -3  -7 -11 4.57599 2.73817   3
   3   7  11 -2.1226 3.49047   3
   3   7  11 3.32453 4.20862   4
   3   7  11 1.09580 3.85992   2
  -4  -7 -11 213.066 22.7712   3
   4   7  11 198.737 24.0024   4
   5   7  11 134.121 19.8142   2
   5   7  11 170.322 20.6232   4
   3  -8 -11 298.033 38.3989   5
  -3   8  11 353.663 35.4122   2
   2  -8 -11 184.784 25.7159   5
  -2   8  11 201.185 21.9451   2
   1  -8 -11 17.7497 3.71432   6
   1  -8 -11 14.7725 7.35727   5
  -1   8  11 14.9066 4.29680   2
   0  -8 -11 -3.1360 5.94480   5
   0  -8 -11 2.00262 2.54425   6
   0   8  11 -1.1057 2.68247   2
  -1  -8 -11 123.107 17.5602   5
  -1  -8 -11 106.753 11.6401   3
   1   8  11 111.518 12.8733   3
   1   8  11 99.9210 12.6917   2
  -2  -8 -11 651.948 66.2970   5
  -2  -8 -11 684.006 62.7382   3
   2   8  11 403.055 62.6720   3
   2   8  11 652.281 63.3200   2
   2   8  11 701.017 63.6286   4
  -3  -8 -11 1315.06 123.734   3
   3   8  11 1299.17 124.470   4
   3   8  11 1061.67 123.694   3
   3   8  11 1208.65 123.945   2
   4   8  11 374.801 40.4936   2
   4   8  11 403.489 41.8024   4
   5   8  11 99.8947 16.0901   4
   5   8  11 82.7541 13.3204   2
   3  -9 -11 91.0644 20.0597   5
  -3   9  11 112.182 14.5709   2
   2  -9 -11 606.806 67.9259   5
  -2   9  11 644.181 64.8286   2
   1  -9 -11 355.181 41.5203   6
   1  -9 -11 419.045 45.4156   5
  -1   9  11 418.663 41.8102   2
   0  -9 -11 86.7002 16.1105   5
   0  -9 -11 77.6989 10.4456   6
   0   9  11 85.1674 10.7091   2
  -1  -9 -11 36.6929 10.0566   5
   1   9  11 62.4399 7.79391   2
  -2  -9 -11 15.1354 8.10606   5
   2   9  11 7.58407 3.28956   2
   3   9  11 57.3787 10.3744   4
   3   9  11 46.8230 8.19884   2
   4   9  11 346.255 36.9296   4
   4   9  11 329.250 35.5706   2
   5   9  11 240.340 31.3188   4
   3 -10 -11 121.160 25.2940   5
  -3  10  11 169.833 19.1089   2
   2 -10 -11 81.3095 18.6953   5
  -2  10  11 78.2642 11.7585   2
   1 -10 -11 2.17441 8.17058   5
  -1  10  11 -0.5970 3.78152   2
   0 -10 -11 28.3142 10.1259   5
   0  10  11 34.3469 6.95637   2
  -1 -10 -11 16.9053 8.21961   5
   1  10  11 13.4484 3.83641   2
   2  10  11 247.828 26.5744   2
   3  10  11 671.895 66.0699   4
   3  10  11 600.868 65.3520   2
   4  10  11 292.317 31.3317   4
   4  10  11 258.531 29.4138   2
   2 -11 -11 416.061 52.1931   5
  -2  11  11 473.787 47.3681   2
   1 -11 -11 538.277 57.4592   5
  -1  11  11 474.020 52.5926   2
   0 -11 -11 64.1211 17.6405   5
   0  11  11 72.4533 10.3197   2
  -1 -11 -11 -2.4429 7.87338   5
   1  11  11 3.83664 3.46723   2
   2  11  11 7.66877 3.67528   2
   3  11  11 78.4025 11.0073   2
   4  11  11 315.237 33.1239   4
   4  11  11 246.207 29.6625   2
   2 -12 -11 -2.2841 13.2755   5
  -2  12  11 3.06493 5.75030   2
   1 -12 -11 6.89841 11.8461   5
  -1  12  11 8.28839 5.10170   2
   0 -12 -11 99.5847 20.9574   5
   0  12  11 96.5813 13.4136   2
  -1 -12 -11 7.17038 9.17141   5
   1  12  11 15.6847 4.80737   2
   2  12  11 78.1080 11.2134   2
   3  12  11 233.894 25.8831   2
   1 -13 -11 323.581 46.2129   5
  -1  13  11 406.812 42.3888   2
   0 -13 -11 11.0088 11.4079   5
   0  13  11 14.7601 5.72434   2
  -1 -13 -11 16.4357 10.3686   5
   1  13  11 7.52668 5.04806   2
   2  13  11 0.66746 4.65947   2
   0   4 -12 254.680 28.4906   6
   0  -4  12 272.293 33.3200   2
  -1   4 -12 184.661 24.5476   6
  -1   4 -12 204.842 26.9778   3
   1  -4  12 145.335 21.3595   4
   1  -4  12 194.966 23.7640   2
   2  -4  12 1.03504 8.38923   2
   2  -4  12 -1.2427 6.19056   4
   1   3 -12 174.998 22.6892   3
   1   3 -12 158.164 18.5319   6
  -1  -3  12 146.260 22.4242   2
   0   3 -12 18.0809 5.33279   6
   0   3 -12 19.3741 8.62215   3
   0  -3  12 31.4669 8.92316   2
  -1   3 -12 6.13650 7.38817   3
  -1   3 -12 12.9350 5.84783   6
   1  -3  12 14.0751 7.68744   2
   1  -3  12 13.1025 5.40807   4
  -2   3 -12 8.69466 7.77576   3
   2  -3  12 17.0924 7.39672   2
   2  -3  12 4.03150 5.46360   4
   3  -3  12 9.43214 8.10570   2
   3  -3  12 13.7080 6.73854   4
   2   2 -12 9.63578 6.91189   3
  -2  -2  12 17.3393 8.96648   2
   1   2 -12 117.536 16.8062   5
   1   2 -12 106.889 17.9293   3
  -1  -2  12 115.394 17.1509   2
   0   2 -12 781.364 80.0596   3
   0  -2  12 754.336 78.0288   4
   0  -2  12 761.552 79.6191   2
  -1   2 -12 430.621 45.0275   6
  -1   2 -12 445.642 47.6030   3
   1  -2  12 435.512 46.0826   4
   1  -2  12 438.368 46.9760   2
  -2   2 -12 19.2544 6.91462   3
   2  -2  12 18.7357 5.52900   4
   2  -2  12 30.0807 7.60168   2
  -3   2 -12 1.65043 7.13043   3
   3  -2  12 -0.4502 5.15777   4
   3  -2  12 -4.1087 6.41714   2
   2   1 -12 105.519 16.4233   5
   2   1 -12 108.751 16.6145   3
  -2  -1  12 112.855 17.0765   2
   1   1 -12 129.988 17.7690   3
   1   1 -12 122.596 17.3659   5
  -1  -1  12 123.864 16.9025   2
   0   1 -12 6.81431 6.57652   3
   0   1 -12 11.3795 3.97441   6
   0   1 -12 13.3327 6.90151   5
   0  -1  12 9.19205 6.42291   2
   0  -1  12 14.8532 4.12388   4
  -1   1 -12 87.6967 11.2330   6
  -1   1 -12 85.7632 15.7135   3
   1  -1  12 100.145 14.3393   2
   1  -1  12 94.5712 12.4013   4
  -2   1 -12 111.892 16.1921   3
   2  -1  12 95.5937 14.1809   2
   2  -1  12 98.2234 13.1915   4
  -3   1 -12 -2.5558 5.92836   3
   3  -1  12 -1.0013 5.57383   2
   3  -1  12 3.46747 4.57326   4
  -4   1 -12 153.877 23.9882   3
   4  -1  12 182.510 22.3704   4
   4  -1  12 201.497 25.2314   2
   3   0 -12 0.85681 6.17586   3
   3   0 -12 -3.0540 6.71402   5
  -3   0  12 -4.2531 7.37836   2
   2   0 -12 3.84430 5.05616   3
   2   0 -12 4.93287 6.24653   5
  -2   0  12 5.18594 6.29265   2
   1   0 -12 415.600 44.0782   3
   1   0 -12 407.038 44.4175   5
  -1   0  12 405.137 43.8137   2
   0   0 -12 1114.23 111.763   3
   0   0 -12 1214.57 112.091   5
   0   0  12 934.507 111.295   2
   0   0  12 1107.42 114.297   5
   0   0  12 1070.66 110.257   4
  -1   0 -12 925.423 89.8807   3
  -1   0 -12 891.756 87.7683   6
   1   0  12 833.142 89.1732   2
   1   0  12 872.456 88.3848   4
   1   0  12 813.492 90.0719   5
  -2   0 -12 82.0508 14.4414   3
   2   0  12 99.4368 12.2596   4
   2   0  12 92.6358 13.0552   2
  -3   0 -12 2.71746 5.29491   3
   3   0  12 11.3381 4.70183   4
   3   0  12 4.95998 5.06733   2
  -4   0 -12 0.57855 6.34004   3
   4   0  12 5.24357 6.59976   2
   4   0  12 -3.4588 5.27177   4
   3  -1 -12 -0.0215 5.51779   3
   3  -1 -12 2.48096 6.43364   5
  -3   1  12 -2.6390 6.69366   2
   2  -1 -12 25.5835 6.18045   3
   2  -1 -12 36.7965 10.4184   5
  -2   1  12 35.4174 7.44807   2
   1  -1 -12 90.0344 13.7561   3
  -1   1  12 89.6029 10.2514   4
  -1   1  12 86.7405 13.4588   2
   0  -1 -12 18.4095 6.84586   3
   0  -1 -12 29.5404 8.17101   5
   0   1  12 46.2716 6.80100   4
   0   1  12 40.6452 9.31195   2
  -1  -1 -12 361.210 35.2043   5
  -1  -1 -12 295.607 34.0221   3
  -1  -1 -12 301.023 31.3343   6
  -1  -1 -12 297.061 47.9604   1
   1   1  12 331.207 32.3219   4
   1   1  12 198.840 46.0624   1
   1   1  12 284.074 33.0018   2
  -2  -1 -12 368.763 40.3732   3
   2   1  12 391.878 39.5260   2
   2   1  12 260.081 49.8780   1
   2   1  12 407.364 39.2402   4
  -3  -1 -12 18.7511 6.22445   3
   3   1  12 26.9529 6.18497   2
   3   1  12 24.8451 5.41902   4
  -4  -1 -12 82.0020 14.5724   3
   4   1  12 83.6276 17.2493   2
   4   1  12 81.3288 12.7639   4
   3  -2 -12 3.87741 6.38687   5
   3  -2 -12 7.67707 5.40709   3
  -3   2  12 8.49765 6.22168   2
   2  -2 -12 8.74419 4.53469   3
   2  -2 -12 6.28694 5.76260   5
  -2   2  12 6.38402 5.04795   2
   1  -2 -12 468.244 51.9282   5
   1  -2 -12 520.204 50.4101   3
  -1   2  12 428.043 50.0531   2
  -1   2  12 493.843 48.7308   4
   0  -2 -12 1207.99 130.154   1
   0  -2 -12 1343.53 125.825   5
   0   2  12 1228.26 123.654   4
   0   2  12 1104.01 124.360   2
  -1  -2 -12 1401.08 125.777   5
  -1  -2 -12 1275.42 130.501   1
   1   2  12 1075.91 123.852   2
   1   2  12 1141.75 128.936   1
   1   2  12 1194.70 123.428   4
  -2  -2 -12 122.889 15.3344   3
   2   2  12 40.4533 19.3176   1
   2   2  12 117.164 14.2664   2
  -3  -2 -12 -2.2005 4.17227   3
   3   2  12 1.36865 3.78320   4
  -4  -2 -12 2.89109 5.22356   3
   4   2  12 7.58591 4.88635   4
   4   2  12 11.1247 5.41190   2
  -5  -2 -12 122.570 19.7699   3
   5   2  12 152.602 20.8355   4
   3  -3 -12 9.48709 5.33081   3
   3  -3 -12 8.18976 7.18649   5
  -3   3  12 19.9196 6.91372   2
   2  -3 -12 24.8413 7.16686   5
   2  -3 -12 13.9098 4.89350   3
  -2   3  12 20.3825 5.94345   2
   1  -3 -12 1.09491 4.54136   3
   1  -3 -12 3.22435 5.95585   5
  -1   3  12 -0.8156 5.34619   4
  -1   3  12 6.09329 4.22599   2
  -1   3  12 2.80753 2.44114   4
   0  -3 -12 153.616 20.1834   5
   0  -3 -12 145.842 17.6958   3
   0  -3 -12 104.453 24.3786   1
   0   3  12 135.370 15.9368   4
   0   3  12 140.507 16.8450   2
   0   3  12 88.9325 23.4999   1
   0   3  12 156.067 15.6552   4
  -1  -3 -12 629.200 65.5119   3
  -1  -3 -12 725.181 67.2915   5
  -1  -3 -12 603.610 73.3271   1
   1   3  12 645.677 72.1780   1
   1   3  12 546.620 64.9358   2
   1   3  12 627.501 64.6449   4
   2   3  12 956.082 114.186   1
  -3  -3 -12 205.601 23.4647   3
   3   3  12 190.104 23.1441   2
   3   3  12 216.600 22.7098   4
  -4  -3 -12 17.2061 5.22070   3
   4   3  12 13.5427 5.30456   4
   4   3  12 11.0583 4.89255   2
  -5  -3 -12 23.4999 6.85709   3
   5   3  12 28.5721 7.72085   4
   3  -4 -12 29.2481 6.74321   3
   3  -4 -12 31.5014 9.09729   5
  -3   4  12 33.9313 7.30445   2
   2  -4 -12 1.38324 5.40910   5
  -2   4  12 -1.1426 4.04804   2
   1  -4 -12 391.093 36.4609   3
   1  -4 -12 346.279 38.0527   5
   1  -4 -12 240.587 51.9074   1
  -1   4  12 354.577 35.5235   4
  -1   4  12 356.699 35.1486   4
  -1   4  12 284.567 36.0058   2
   0  -4 -12 1355.27 123.913   3
   0   4  12 1224.58 129.161   1
   0   4  12 1167.19 123.029   4
   0   4  12 975.062 123.312   2
   0   4  12 1381.54 124.204   3
   0   4  12 1184.51 122.926   4
  -1  -4 -12 755.693 83.6113   5
  -1  -4 -12 749.822 84.4173   1
  -1  -4 -12 797.443 77.5528   3
   1   4  12 660.649 76.4926   3
   1   4  12 770.243 82.7464   1
   1   4  12 710.108 76.7888   2
   1   4  12 780.748 76.0732   4
  -2  -4 -12 55.4950 14.2301   5
  -2  -4 -12 49.4463 9.89383   3
  -3  -4 -12 32.3878 8.34042   3
   3   4  12 27.1640 5.88687   2
   3   4  12 35.3695 7.37016   4
  -4  -4 -12 2.91231 4.12163   3
   4   4  12 4.62455 4.42875   4
   4   4  12 7.14657 4.12125   2
  -5  -4 -12 33.7489 7.21954   3
   5   4  12 36.3986 8.63497   4
   3  -5 -12 41.3445 10.1853   3
   3  -5 -12 35.6634 10.0857   5
  -3   5  12 58.0996 10.4800   2
   2  -5 -12 1.38392 5.56843   5
   2  -5 -12 0.31897 3.81749   3
  -2   5  12 0.13536 4.01829   2
  -2   5  12 2.74989 2.66263   4
   1  -5 -12 48.2348 11.7845   5
   1  -5 -12 36.0028 21.8228   1
   1  -5 -12 47.1871 8.87034   3
  -1   5  12 53.9156 7.07042   4
  -1   5  12 36.9058 21.4131   1
  -1   5  12 37.2190 8.31385   2
  -1   5  12 45.8038 8.69009   4
   0  -5 -12 115.969 12.4914   6
   0  -5 -12 125.755 17.8874   5
   0  -5 -12 37.8233 20.4998   1
   0  -5 -12 125.878 14.6086   3
   0   5  12 121.990 13.2677   4
   0   5  12 80.1189 20.3021   1
   0   5  12 104.755 13.8233   4
   0   5  12 145.831 16.2740   3
   0   5  12 105.734 14.0076   2
  -1  -5 -12 1155.00 114.778   3
  -1  -5 -12 1443.59 119.098   5
   1   5  12 1003.84 114.664   2
   1   5  12 1115.24 114.385   4
   1   5  12 1071.83 119.555   1
   1   5  12 983.756 114.611   3
  -2  -5 -12 1573.66 156.413   5
  -2  -5 -12 1538.60 154.010   3
   2   5  12 1438.72 154.191   4
   3   5  12 393.744 41.3792   4
  -4  -5 -12 0.82564 3.58068   3
   4   5  12 -0.1673 4.58079   2
   4   5  12 -0.1535 4.35471   4
  -5  -5 -12 0.29105 4.33456   3
   5   5  12 -9.5228 5.85942   4
   3  -6 -12 91.2723 18.0992   5
   3  -6 -12 135.571 18.4563   3
  -3   6  12 98.9208 14.7885   2
   2  -6 -12 27.9498 8.07955   5
   2  -6 -12 23.7906 5.21412   3
  -2   6  12 25.7247 4.31547   4
  -2   6  12 24.1441 5.83109   2
   1  -6 -12 256.782 21.9614   3
   1  -6 -12 180.317 20.6950   6
   1  -6 -12 212.057 24.7358   5
   1  -6 -12 75.0076 29.5138   1
  -1   6  12 190.609 21.8314   4
  -1   6  12 216.754 20.9447   4
  -1   6  12 172.962 21.6229   2
  -1   6  12 139.947 34.2023   1
   0  -6 -12 548.786 57.4018   6
   0  -6 -12 627.963 60.4515   5
   0  -6 -12 579.060 57.6300   3
   0   6  12 661.834 58.4346   3
   0   6  12 572.935 57.2947   4
   0   6  12 467.747 63.7825   1
   0   6  12 480.487 57.4991   4
   0   6  12 507.011 57.6825   2
  -1  -6 -12 375.786 39.2270   5
  -1  -6 -12 354.542 35.5014   3
   1   6  12 312.144 35.8748   3
   1   6  12 337.480 35.4031   4
   1   6  12 312.985 35.5916   2
  -2  -6 -12 1.58548 7.71557   5
  -2  -6 -12 4.79122 3.41362   3
   2   6  12 3.68867 3.71680   4
   2   6  12 4.85692 3.64230   2
   2   6  12 0.62735 3.79898   3
  -3  -6 -12 120.391 14.1582   3
   3   6  12 108.605 13.7860   2
   3   6  12 118.601 14.5652   4
  -4  -6 -12 38.0877 8.00850   3
   4   6  12 27.1659 6.41796   4
   4   6  12 30.6346 7.32671   2
  -5  -6 -12 22.2362 5.65051   3
   5   6  12 28.5659 7.94398   4
   3  -7 -12 37.1661 10.8269   5
  -3   7  12 49.4888 10.4528   2
   2  -7 -12 -1.7415 6.54484   5
   2  -7 -12 5.66647 4.05216   3
  -2   7  12 0.75117 4.18660   2
   1  -7 -12 9.44595 3.57124   3
   1  -7 -12 10.5684 7.14552   5
   1  -7 -12 7.60740 3.69901   6
  -1   7  12 4.98177 5.25759   4
  -1   7  12 7.69271 4.10067   2
   0  -7 -12 166.133 20.4920   6
   0  -7 -12 185.924 19.6789   3
   0  -7 -12 216.089 24.4287   5
   0   7  12 164.317 20.2101   2
  -1  -7 -12 1296.68 126.407   5
  -1  -7 -12 1242.89 123.228   3
   1   7  12 1089.36 123.579   2
   1   7  12 1238.92 123.609   3
  -2  -7 -12 1482.40 158.505   5
  -2  -7 -12 1612.49 155.643   3
   2   7  12 1590.87 156.026   4
   2   7  12 1462.33 155.882   2
  -3  -7 -12 407.380 40.4124   3
   3   7  12 395.520 40.9762   4
   3   7  12 358.421 40.3637   2
  -4  -7 -12 72.0431 9.70911   3
   4   7  12 54.1922 11.1337   4
   4   7  12 56.2355 9.33247   2
  -5  -7 -12 -4.4629 3.97363   3
   5   7  12 -3.6965 7.46786   4
   3  -8 -12 152.854 26.3713   5
  -3   8  12 205.451 21.9451   2
   2  -8 -12 57.9991 14.0582   5
  -2   8  12 54.2949 9.74099   2
   1  -8 -12 10.7963 2.84379   3
   1  -8 -12 8.12723 7.19025   5
  -1   8  12 11.4048 4.39955   2
   0  -8 -12 195.694 24.3684   5
   0  -8 -12 177.638 18.8517   3
   0   8  12 171.101 20.1252   2
  -1  -8 -12 55.9123 7.31850   3
  -1  -8 -12 51.0064 14.6247   5
   1   8  12 58.0795 8.97734   2
  -2  -8 -12 67.7006 7.84010   3
  -2  -8 -12 38.2754 11.1843   5
   2   8  12 65.9464 9.83234   4
   2   8  12 33.1363 9.64721   3
   2   8  12 60.9566 9.00492   2
  -3  -8 -12 315.481 32.0200   3
   3   8  12 279.407 32.2335   2
   3   8  12 320.652 33.0971   4
  -4  -8 -12 137.614 15.3034   3
   4   8  12 124.259 17.0043   4
   4   8  12 117.596 15.1076   2
   3  -9 -12 12.3012 12.3014   5
  -3   9  12 21.0449 6.81223   2
   2  -9 -12 2.45788 8.75235   5
  -2   9  12 -2.7137 4.46891   2
   1  -9 -12 -2.9971 7.68153   5
  -1   9  12 -0.5079 3.70374   2
   0  -9 -12 209.218 26.6274   5
   0   9  12 184.888 21.5939   2
  -1  -9 -12 696.325 73.0204   5
   1   9  12 659.432 69.5798   2
  -2  -9 -12 1113.05 120.560   5
   2   9  12 1101.28 117.535   2
   2   9  12 1251.31 117.873   4
   3   9  12 317.377 35.4477   2
   3   9  12 357.098 36.3608   4
   4   9  12 41.0828 8.05294   4
   4   9  12 35.6272 7.94393   2
   2 -10 -12 164.561 24.7239   5
  -2  10  12 142.109 18.3946   2
   1 -10 -12 2.91481 8.95577   5
  -1  10  12 5.13803 4.29405   2
   0 -10 -12 27.1408 10.4482   5
   0  10  12 37.1222 7.44815   2
  -1 -10 -12 3.75481 8.63808   5
   1  10  12 17.0679 4.67986   2
  -2 -10 -12 155.807 22.7170   5
   2  10  12 124.088 16.1774   2
   3  10  12 359.049 40.3437   2
   3  10  12 413.367 41.4250   4
   4  10  12 194.417 23.0565   4
   4  10  12 173.379 20.7611   2
   2 -11 -12 3.35582 12.5573   5
  -2  11  12 10.4776 6.04797   2
   1 -11 -12 6.73208 10.4666   5
  -1  11  12 15.1504 5.35258   2
   0 -11 -12 22.6989 11.0214   5
   0  11  12 31.4647 6.22968   2
  -1 -11 -12 368.263 42.5663   5
   1  11  12 345.622 37.7896   2
   2  11  12 550.104 57.0867   2
   3  11  12 184.764 22.2681   4
   3  11  12 174.286 20.6959   2
   1 -12 -12 7.21251 12.4000   5
  -1  12  12 0.49391 5.24436   2
   0 -12 -12 -1.9812 10.4379   5
   0  12  12 7.34086 4.85565   2
  -1 -12 -12 15.1139 11.2634   5
   1  12  12 11.2313 4.79976   2
   2  12  12 121.278 15.4039   2
   0 -13 -12 0.31442 12.6685   5
  -1 -13 -12 133.885 25.7191   5
   1  -3  13 5.94012 10.6011   2
   1   2 -13 0.92264 9.42126   3
   1   2 -13 -2.8869 4.79787   6
   0   2 -13 10.0589 7.32939   3
   0   2 -13 12.9360 5.30824   6
   0  -2  13 15.5706 8.32790   2
  -1   2 -13 1.33762 6.70979   3
   1  -2  13 -0.9571 4.66119   4
   1  -2  13 1.64597 6.63702   2
  -2   2 -13 35.6242 9.54817   3
   2  -2  13 41.0192 9.39278   2
   2  -2  13 43.5224 7.65245   4
   1   1 -13 483.434 50.5324   5
   1   1 -13 474.512 50.9799   3
  -1  -1  13 445.857 50.2509   2
   0   1 -13 200.701 24.0472   3
   0   1 -13 206.068 23.6975   5
   0   1 -13 179.766 21.5330   6
   0  -1  13 164.108 23.5204   2
  -1   1 -13 -5.0520 5.25194   3
   1  -1  13 -0.6364 4.19375   4
   1  -1  13 -1.9248 5.76036   2
  -2   1 -13 -3.4929 6.19222   3
   2  -1  13 6.19595 4.72767   4
   2  -1  13 2.79673 5.87339   2
  -3   1 -13 -1.9016 7.47612   3
   3  -1  13 5.80865 7.30668   2
   3  -1  13 4.50449 6.06901   4
   2   0 -13 33.9624 8.66542   3
   2   0 -13 30.5513 9.57299   5
  -2   0  13 53.0230 10.4982   2
   1   0 -13 2.31635 6.43475   3
   1   0 -13 3.33469 7.17224   5
  -1   0  13 5.60869 6.77348   2
   0   0 -13 109.371 15.9240   3
   0   0 -13 93.6092 11.9373   6
   0   0  13 95.8018 12.2314   4
   0   0  13 95.1767 15.3300   2
  -1   0 -13 63.8018 12.0934   3
   1   0  13 47.2395 9.60100   4
   1   0  13 36.8445 8.05488   2
  -2   0 -13 16.8097 6.38176   3
   2   0  13 25.6716 5.42813   4
   2   0  13 22.8586 6.35327   2
  -3   0 -13 232.600 32.7239   3
   3   0  13 308.140 31.4484   2
   3   0  13 299.641 30.9207   4
   4   0  13 216.023 34.0063   2
   4   0  13 225.931 28.7124   4
   2  -1 -13 327.584 36.8719   5
   2  -1 -13 320.673 36.0950   3
  -2   1  13 316.926 36.3172   2
   1  -1 -13 639.181 63.1519   3
   1  -1 -13 617.929 63.7363   5
  -1   1  13 542.581 62.9545   2
   0  -1 -13 499.707 50.6891   3
   0  -1 -13 503.400 51.5345   5
   0   1  13 415.034 50.0939   2
   0   1  13 480.715 48.8502   4
  -1  -1 -13 7.28084 4.33601   6
  -1  -1 -13 10.0509 5.54083   3
  -1  -1 -13 11.7636 11.5899   5
   1   1  13 7.91804 4.86265   2
   1   1  13 8.09616 4.32760   4
  -2  -1 -13 1.63472 5.35277   3
   2   1  13 1.40581 4.48868   2
   2   1  13 -0.7521 3.78251   4
  -3  -1 -13 13.9820 6.99464   3
   3   1  13 23.5498 6.32677   2
   3   1  13 24.9041 5.85019   4
  -4  -1 -13 268.402 36.1773   3
   4   1  13 336.943 34.8740   4
   4   1  13 327.836 34.6055   2
   3  -2 -13 15.1226 7.15319   3
   3  -2 -13 33.5038 9.88104   5
  -3   2  13 12.7956 8.34944   2
   2  -2 -13 7.27639 5.75500   3
   2  -2 -13 14.0133 8.03588   5
  -2   2  13 16.5616 7.15787   2
   1  -2 -13 50.2534 12.1965   3
   1  -2 -13 53.9991 13.9450   5
  -1   2  13 67.6666 11.3294   2
   0  -2 -13 270.384 29.9718   3
   0  -2 -13 273.958 31.1737   5
   0   2  13 272.689 27.9975   4
   0   2  13 240.183 29.2155   2
  -1  -2 -13 298.829 32.1807   3
  -1  -2 -13 330.898 33.7294   5
   1   2  13 278.125 30.5034   4
   1   2  13 251.400 31.2120   2
  -2  -2 -13 -3.6398 4.67242   3
   2   2  13 -3.0473 3.42118   4
   2   2  13 0.57576 3.95351   2
  -3  -2 -13 122.722 17.6334   3
   3   2  13 135.545 15.9423   4
   3   2  13 125.580 16.0998   2
  -4  -2 -13 126.715 19.4216   3
   4   2  13 129.472 17.6037   4
   4   2  13 134.046 17.4486   2
   3  -3 -13 5.94997 8.29378   5
   3  -3 -13 13.9168 6.45553   3
  -3   3  13 29.6755 8.24566   2
   2  -3 -13 301.886 35.9762   5
   2  -3 -13 332.044 34.5165   3
  -2   3  13 306.623 34.5979   2
   1  -3 -13 819.287 87.0002   5
   1  -3 -13 910.339 85.8723   3
  -1   3  13 758.697 85.5760   2
  -1   3  13 836.615 84.3047   4
   0  -3 -13 497.220 50.2808   5
   0  -3 -13 494.102 48.8191   3
   0   3  13 395.260 48.0885   2
   0   3  13 450.671 47.2343   4
  -1  -3 -13 4.27601 5.01238   3
  -1  -3 -13 7.09454 7.38658   5
   1   3  13 10.3000 3.80064   4
   1   3  13 3.07119 21.7624   1
   1   3  13 13.7178 4.57844   2
  -2  -3 -13 -0.5003 4.51488   3
   2   3  13 2.03224 3.75720   2
   2   3  13 2.24958 3.54809   4
  -3  -3 -13 74.0463 13.3088   3
   3   3  13 79.0143 11.0913   2
   3   3  13 84.7444 11.4083   4
  -4  -3 -13 223.751 27.0874   3
   4   3  13 232.393 25.8439   2
   4   3  13 227.073 26.0468   4
   3  -4 -13 12.3530 6.19816   3
   3  -4 -13 14.3883 9.13195   5
  -3   4  13 15.3755 7.39962   2
   2  -4 -13 2.59481 4.88747   3
   2  -4 -13 7.20949 7.07248   5
  -2   4  13 11.3062 5.87581   2
   1  -4 -13 65.4069 16.0092   5
   1  -4 -13 77.7127 14.7513   3
  -1   4  13 97.3291 13.3105   2
  -1   4  13 101.209 10.8997   4
   0  -4 -13 604.067 85.0952   1
   0  -4 -13 726.996 70.9385   5
   0  -4 -13 754.741 69.4998   3
   0   4  13 685.192 67.9884   4
   0   4  13 639.632 68.3172   4
   0   4  13 552.534 68.5682   2
  -1  -4 -13 828.483 76.9995   5
  -1  -4 -13 772.035 75.4803   3
   1   4  13 713.496 74.0322   4
   1   4  13 589.344 74.3065   2
  -2  -4 -13 62.6942 10.9558   3
   2   4  13 66.0487 9.49084   4
   2   4  13 63.9190 9.59008   2
  -3  -4 -13 42.1282 9.48103   3
   3   4  13 25.9854 5.41368   4
   3   4  13 23.5000 5.62201   2
  -4  -4 -13 4.66808 5.30009   3
   4   4  13 15.4775 5.50861   4
   4   4  13 9.65710 5.09866   2
  -5  -4 -13 0.07012 10.7680   3
   3  -5 -13 10.5655 8.85367   5
   3  -5 -13 10.9956 6.01082   3
  -3   5  13 2.57226 6.46477   2
   2  -5 -13 325.775 31.2006   3
   2  -5 -13 261.230 33.4455   5
  -2   5  13 257.403 31.0686   2
   1  -5 -13 620.901 65.7331   5
   1  -5 -13 718.559 63.8923   3
  -1   5  13 503.187 63.4307   2
  -1   5  13 611.700 62.6361   4
   0  -5 -13 286.953 27.4137   3
   0  -5 -13 264.176 30.1507   5
   0   5  13 224.379 26.7401   2
   0   5  13 263.040 30.8175   3
   0   5  13 249.696 25.8990   4
   0   5  13 135.099 34.6265   1
   0   5  13 219.699 26.4962   4
  -1  -5 -13 2.13590 7.80802   5
  -1  -5 -13 2.89942 4.46759   3
   1   5  13 3.12809 4.42321   4
   1   5  13 8.04080 4.26218   2
  -2  -5 -13 17.4738 6.27278   3
  -2  -5 -13 25.1178 9.05760   5
   2   5  13 15.2970 4.72464   2
   2   5  13 15.1135 4.36412   4
  -3  -5 -13 19.0166 5.03721   3
   3   5  13 19.2287 4.87045   4
   3   5  13 13.4803 4.67746   2
  -4  -5 -13 212.183 23.1948   3
   4   5  13 201.645 23.1933   4
   4   5  13 179.869 22.1335   2
  -5  -5 -13 673.228 70.7071   3
   3  -6 -13 3.75688 9.50010   5
  -3   6  13 -1.7162 6.06249   2
   2  -6 -13 16.8555 5.53245   3
   2  -6 -13 8.09589 7.67942   5
  -2   6  13 17.7804 5.90728   2
   1  -6 -13 167.410 18.3612   3
   1  -6 -13 139.440 21.3902   5
  -1   6  13 127.195 18.0549   2
  -1   6  13 158.852 16.8447   4
   0  -6 -13 1314.15 122.278   5
   0  -6 -13 1255.20 119.697   3
   0   6  13 1174.02 119.189   4
   0   6  13 958.056 119.527   2
  -1  -6 -13 1044.31 103.304   3
  -1  -6 -13 1149.25 106.308   5
   1   6  13 849.896 103.174   2
   1   6  13 995.965 103.467   3
   1   6  13 1028.37 103.227   4
  -2  -6 -13 182.255 19.3807   3
  -2  -6 -13 191.637 23.7621   5
   2   6  13 163.425 18.9725   4
   2   6  13 141.335 18.8251   2
  -3  -6 -13 0.89810 3.67705   3
   3   6  13 0.52407 3.74696   4
   3   6  13 4.81643 3.64379   2
  -4  -6 -13 -2.6562 4.11900   3
   4   6  13 -0.0336 4.37261   2
   4   6  13 1.73471 5.04197   4
  -3   7  13 -0.1811 6.31688   2
   2  -7 -13 126.496 19.6162   5
  -2   7  13 113.877 15.6442   2
   1  -7 -13 282.197 28.2448   3
   1  -7 -13 257.403 31.8204   5
  -1   7  13 274.028 27.6981   4
  -1   7  13 222.491 28.4116   2
   0  -7 -13 95.2905 12.0015   3
   0  -7 -13 82.7359 17.8656   5
   0   7  13 87.4492 12.6936   2
  -1  -7 -13 42.0455 7.42334   3
  -1  -7 -13 21.6400 9.93327   5
   1   7  13 26.7283 8.36275   3
   1   7  13 36.8612 5.86812   4
   1   7  13 18.6107 5.30418   2
  -2  -7 -13 113.760 13.0658   3
  -2  -7 -13 101.360 18.7614   5
   2   7  13 99.3472 13.1702   2
   2   7  13 106.425 13.3861   4
   3   7  13 2.87894 3.74231   2
   3   7  13 5.53121 4.33931   4
  -4  -7 -13 175.031 18.7990   3
   4   7  13 132.443 18.1725   2
   4   7  13 169.906 19.7429   4
   2  -8 -13 -4.6557 8.02949   5
  -2   8  13 7.69616 5.35217   2
   1  -8 -13 296.531 33.9771   5
  -1   8  13 251.391 29.6866   2
   0  -8 -13 992.657 94.5673   5
   0  -8 -13 872.709 90.3038   3
   0   8  13 811.602 91.1141   2
  -1  -8 -13 1236.58 117.645   5
  -1  -8 -13 1103.99 113.545   3
   1   8  13 1002.88 114.175   2
   1   8  13 1146.86 114.145   4
  -2  -8 -13 224.538 23.0476   3
  -2  -8 -13 213.363 28.4670   5
   2   8  13 189.160 23.4796   2
   2   8  13 230.720 24.0137   4
  -3  -8 -13 29.9519 7.03094   3
   3   8  13 36.7765 6.65528   4
   3   8  13 28.8850 7.15540   2
  -4  -8 -13 0.74732 3.74962   3
   4   8  13 -5.4055 5.44633   4
   4   8  13 0.46047 4.40508   2
   2  -9 -13 2.44609 9.60440   5
  -2   9  13 17.1855 6.21503   2
   1  -9 -13 91.7756 19.1574   5
  -1   9  13 93.3378 13.1455   2
   0  -9 -13 3.11375 9.78042   5
   0   9  13 -0.4914 4.27252   2
  -1  -9 -13 114.142 20.4903   5
   1   9  13 106.281 14.0753   2
  -2  -9 -13 259.869 27.0007   3
  -2  -9 -13 227.652 32.1343   5
   2   9  13 264.648 27.7835   4
   2   9  13 247.986 27.3311   2
   3   9  13 40.1510 8.06947   2
   3   9  13 40.0214 7.47069   4
   4   9  13 19.0748 7.09056   4
   4   9  13 15.3928 5.40228   2
   2 -10 -13 6.22348 14.5098   5
  -2  10  13 -1.0260 5.55918   2
   1 -10 -13 183.384 26.9430   5
  -1  10  13 164.410 20.4386   2
   0 -10 -13 654.209 67.8235   5
   0  10  13 573.491 63.4028   2
  -1 -10 -13 878.602 93.9560   5
  -2 -10 -13 169.085 26.1842   5
   2  10  13 175.681 20.0049   4
   2  10  13 156.727 19.1614   2
   3  10  13 2.01249 4.06372   2
   3  10  13 1.87897 5.24533   4
   1 -11 -13 0.42724 11.9705   5
  -1  11  13 2.61269 5.41963   2
   0 -11 -13 20.3231 11.9029   5
   0  11  13 15.7442 5.77292   2
  -1 -11 -13 153.703 25.5254   5
   1  11  13 131.044 16.9064   2
   2  11  13 310.557 33.6573   2
   3  11  13 149.474 19.3459   4
   3  11  13 108.996 15.4188   2
   0 -12 -13 346.823 47.6078   5
   0  12  13 408.450 42.0247   2
  -1 -12 -13 337.947 42.6266   5
   1  12  13 317.601 35.3683   2
   2  12  13 51.0770 12.2155   2
   0   1 -14 1.96923 11.0990   3
  -1   1 -14 96.4868 17.9436   3
   1  -1  14 94.0755 16.7420   2
   2  -1  14 353.609 37.9882   4
   2  -1  14 351.307 39.5493   2
   1   0 -14 44.1185 9.59564   3
   1   0 -14 39.7470 10.4651   5
   0   0 -14 2.77055 6.09313   3
   0   0 -14 0.50598 7.59895   5
   0   0  14 0.48694 6.55584   2
  -1   0 -14 2.67784 6.23271   3
   1   0  14 2.95334 6.41813   2
   1   0  14 0.59634 4.59544   4
  -2   0 -14 16.8124 8.45706   3
   2   0  14 18.5813 6.08002   4
   2   0  14 17.1312 7.57405   2
   3   0  14 315.253 35.7201   4
   3   0  14 332.339 36.4219   2
   1  -1 -14 61.4923 14.0242   3
   1  -1 -14 58.6595 14.7297   5
  -1   1  14 62.4776 12.6784   2
   0  -1 -14 11.5930 6.18151   3
   0  -1 -14 16.7510 7.73854   5
   0   1  14 20.0789 6.91226   2
  -1  -1 -14 72.5188 13.2265   3
   1   1  14 67.6261 10.1003   4
   1   1  14 48.8628 11.1030   2
  -2  -1 -14 275.815 32.5041   3
   2   1  14 287.678 30.2303   4
   2   1  14 266.782 30.8894   2
  -3  -1 -14 159.254 24.5428   3
   3   1  14 181.627 21.6770   4
   3   1  14 182.004 21.7805   2
   2  -2 -14 282.142 32.9763   3
   2  -2 -14 248.547 34.1424   5
  -2   2  14 329.747 34.3930   2
   1  -2 -14 109.024 18.4804   5
   1  -2 -14 122.935 16.7757   3
  -1   2  14 106.130 17.0767   2
   0  -2 -14 -3.0483 5.15854   3
   0  -2 -14 4.98938 6.64968   5
   0   2  14 0.42366 5.22290   2
   0   2  14 1.71149 3.77238   4
  -1  -2 -14 -0.6703 5.06623   3
  -1  -2 -14 -2.7571 7.15366   5
   1   2  14 2.87057 4.95364   2
   1   2  14 1.37378 3.88688   4
  -2  -2 -14 123.082 18.4997   3
   2   2  14 129.015 15.9546   4
   2   2  14 131.940 16.7864   2
  -3  -2 -14 384.982 45.5030   3
   3   2  14 417.333 43.9186   4
   3   2  14 432.849 44.1027   2
   4   2  14 719.344 75.7190   2
   2  -3 -14 27.2296 10.5707   5
   2  -3 -14 25.3339 7.80053   3
  -2   3  14 48.4036 9.90408   2
   1  -3 -14 234.132 24.9359   3
   1  -3 -14 202.929 26.6877   5
  -1   3  14 186.675 24.4224   2
   0  -3 -14 163.649 19.2729   3
   0  -3 -14 155.419 20.8398   5
   0   3  14 128.898 18.3690   2
   0   3  14 152.389 16.9978   4
  -1  -3 -14 10.1592 7.56126   5
  -1  -3 -14 4.40726 5.12909   3
   1   3  14 7.91094 4.93341   2
   1   3  14 6.96451 4.05856   4
  -2  -3 -14 171.409 20.7871   3
   2   3  14 158.208 19.1040   2
   2   3  14 150.923 18.5195   4
  -3  -3 -14 85.7141 15.5651   3
   3   3  14 76.2514 12.4938   2
   3   3  14 77.3724 12.4713   4
  -4  -3 -14 -0.3808 7.57893   3
   4   3  14 7.18034 7.25830   2
   4   3  14 7.33914 6.92679   4
   2  -4 -14 284.787 37.9735   5
   2  -4 -14 361.115 35.5680   3
  -2   4  14 306.125 35.7311   2
   1  -4 -14 66.1871 16.0611   5
   1  -4 -14 66.9231 13.1291   3
  -1   4  14 76.5391 12.8394   2
   0  -4 -14 4.23294 5.08754   3
   0  -4 -14 0.40713 6.97816   5
   0   4  14 -0.5697 4.61620   2
   0   4  14 -0.5546 3.40813   4
  -1  -4 -14 1.52703 4.66619   3
  -1  -4 -14 4.19004 7.17537   5
   1   4  14 -0.1406 3.40218   4
   1   4  14 2.46652 4.12233   2
  -2  -4 -14 146.065 18.9318   3
   2   4  14 154.708 17.2818   4
   2   4  14 140.645 17.5366   2
  -3  -4 -14 433.519 45.6537   3
   3   4  14 393.479 44.3914   2
   3   4  14 437.051 44.4959   4
  -4  -4 -14 1008.69 102.311   3
   4   4  14 995.092 101.500   4
   4   4  14 956.789 101.119   2
   2  -5 -14 56.3313 12.7400   3
   2  -5 -14 44.6006 12.4748   5
  -2   5  14 75.8884 12.8048   2
   1  -5 -14 572.620 64.9344   5
   1  -5 -14 680.518 62.9821   3
  -1   5  14 503.777 62.5550   2
  -1   5  14 649.297 62.6097   4
   0  -5 -14 330.710 35.7812   3
   0  -5 -14 322.790 36.8510   5
   0   5  14 272.877 33.9692   2
   0   5  14 333.392 33.1562   4
  -1  -5 -14 5.59266 4.91403   3
  -1  -5 -14 2.98072 7.48961   5
   1   5  14 9.32506 3.92672   4
   1   5  14 3.51767 4.24871   2
  -2  -5 -14 26.7295 6.28680   3
   2   5  14 30.4257 5.71753   4
   2   5  14 27.4922 6.09834   2
  -3  -5 -14 8.27012 5.75488   3
   3   5  14 5.85216 4.71378   4
   3   5  14 10.0636 4.98930   2
  -4  -5 -14 13.9712 6.87525   3
   4   5  14 22.1078 7.18849   4
   4   5  14 21.4561 6.59344   2
   2  -6 -14 208.835 27.2050   3
   2  -6 -14 171.199 25.6214   5
  -2   6  14 167.508 22.1057   2
   1  -6 -14 65.6248 14.7459   3
   1  -6 -14 33.1443 11.2654   5
  -1   6  14 64.8185 11.6401   2
  -1   6  14 69.6015 9.48087   4
   0  -6 -14 4.04177 5.10077   3
   0  -6 -14 -0.4173 8.01983   5
   0   6  14 10.3271 5.01588   2
  -1  -6 -14 10.2042 4.77679   3
  -1  -6 -14 3.16671 7.83859   5
   1   6  14 5.58429 4.29261   2
   1   6  14 1.78157 3.56487   4
  -2  -6 -14 68.4387 16.0222   5
  -2  -6 -14 70.5954 10.9553   3
   2   6  14 44.6602 9.41525   2
   2   6  14 55.3696 9.54550   4
  -3  -6 -14 533.454 50.3476   3
   3   6  14 484.794 49.9101   4
   3   6  14 409.712 49.5303   2
  -4  -6 -14 660.233 63.6268   3
   4   6  14 633.389 63.6272   4
   4   6  14 524.255 62.6177   2
   2  -7 -14 186.392 27.4003   5
  -2   7  14 186.004 22.8924   2
   1  -7 -14 700.148 72.3647   5
  -1   7  14 735.424 70.8512   4
  -1   7  14 577.706 69.2213   2
   0  -7 -14 527.567 54.9502   5
   0  -7 -14 499.665 51.1430   3
   0   7  14 425.107 51.3964   2
   0   7  14 515.404 50.9409   4
  -1  -7 -14 40.6247 8.75937   3
  -1  -7 -14 50.3782 11.5553   5
   1   7  14 48.8998 8.55666   4
   1   7  14 43.2601 8.85481   2
  -2  -7 -14 -5.1790 7.99471   5
  -2  -7 -14 3.95482 3.99512   3
   2   7  14 5.41209 4.01491   4
   2   7  14 -1.0784 3.88883   2
  -3  -7 -14 3.96675 4.37850   3
   3   7  14 3.58496 4.92965   4
   3   7  14 -1.5460 4.19906   2
  -4  -7 -14 94.9923 14.3647   3
   4   7  14 80.0975 13.4109   2
   4   7  14 110.803 16.8273   4
   2  -8 -14 66.4853 20.0657   5
  -2   8  14 80.3343 13.9900   2
   1  -8 -14 3.74442 9.87216   5
  -1   8  14 6.33259 4.70177   4
  -1   8  14 4.32890 5.71458   2
   0  -8 -14 32.6366 11.4863   5
   0   8  14 41.7361 9.72486   2
   0   8  14 49.0742 8.96938   4
  -1  -8 -14 47.6915 9.20914   3
  -1  -8 -14 54.5338 15.5440   5
   1   8  14 57.5688 9.22712   4
   1   8  14 41.3631 9.13563   2
  -2  -8 -14 6.58014 3.73513   3
  -2  -8 -14 14.5520 9.39751   5
   2   8  14 6.69941 4.15048   2
   2   8  14 8.96769 4.44797   4
  -3  -8 -14 268.016 27.1645   3
   3   8  14 254.076 27.8692   4
   3   8  14 222.097 27.1431   2
  -4  -8 -14 266.565 27.6905   3
   4   8  14 220.818 27.1827   2
   1  -9 -14 552.701 59.0832   5
  -1   9  14 489.844 54.7363   2
   0  -9 -14 641.268 66.6823   5
   0   9  14 635.009 62.2109   4
   0   9  14 533.009 62.5156   2
  -1  -9 -14 43.8163 12.4054   5
   1   9  14 59.9475 9.94378   2
   1   9  14 62.9094 10.0561   4
  -2  -9 -14 0.57760 9.82068   5
   2   9  14 2.49357 4.65378   4
   2   9  14 -1.5807 3.84253   2
   3   9  14 7.29466 5.64396   4
   3   9  14 3.20611 4.92416   2
   1 -10 -14 10.9357 12.9071   5
  -1  10  14 4.83693 6.48717   2
   0 -10 -14 93.7072 22.3091   5
   0  10  14 84.3079 13.0740   2
  -1 -10 -14 177.423 26.9033   5
   1  10  14 174.789 19.8129   4
   1  10  14 148.568 19.3226   2
  -2 -10 -14 6.97394 11.5503   5
   2  10  14 0.39109 4.35098   2
   2  10  14 5.99633 5.31549   4
   3  10  14 57.1871 12.2460   4
   3  10  14 53.4061 10.3108   2
   0 -11 -14 323.176 43.4608   5
   0  11  14 329.447 37.0334   2
  -1 -11 -14 23.5816 14.2391   5
   1  11  14 20.9223 6.39046   2
   2  11  14 -0.4261 5.18951   2
   2  11  14 1.26118 6.14263   4
   0  -1 -15 6.63451 9.03580   5
   0  -1 -15 -3.5543 7.14228   3
  -1  -1 -15 85.3106 17.1465   3
   1   1  15 81.1850 15.8285   2
  -2  -1 -15 393.715 44.5137   3
   2   1  15 384.430 40.5529   4
   2   1  15 356.968 41.4295   2
   1  -2 -15 7.37053 8.97081   5
   1  -2 -15 -1.2734 6.56370   3
   0  -2 -15 93.2825 15.8870   3
   0  -2 -15 91.0747 17.3610   5
   0   2  15 81.9565 14.6933   2
  -1  -2 -15 258.830 29.5556   3
   1   2  15 239.756 26.9922   4
   1   2  15 236.450 28.6782   2
  -2  -2 -15 117.052 19.7484   3
   2   2  15 117.103 17.2584   2
   2   2  15 116.697 16.1054   4
  -3  -2 -15 -0.9658 10.2986   3
   1  -3 -15 8.54806 8.79424   5
   1  -3 -15 0.44256 6.17178   3
  -1   3  15 -8.3954 10.3696   2
   0  -3 -15 14.2526 8.67740   5
   0  -3 -15 10.8327 6.39688   3
   0   3  15 11.4716 6.42553   2
  -1  -3 -15 202.465 25.5738   3
  -1  -3 -15 224.615 28.0146   5
   1   3  15 220.718 23.2026   4
   1   3  15 181.963 24.2108   2
  -2  -3 -15 490.842 50.5780   3
   2   3  15 465.554 48.5983   4
   2   3  15 433.880 49.2083   2
  -3  -3 -15 756.383 80.0801   3
   3   3  15 753.450 78.6783   2
   3   3  15 765.978 78.6248   4
   1  -4 -15 25.2388 10.2192   5
   1  -4 -15 19.2670 6.86658   3
  -1   4  15 31.4806 8.25507   2
   0  -4 -15 48.4178 11.8553   3
   0  -4 -15 44.4611 10.8685   5
   0   4  15 46.8007 9.02034   2
  -1  -4 -15 146.004 21.5465   5
  -1  -4 -15 129.313 18.5306   3
   1   4  15 140.764 16.0266   4
   1   4  15 109.697 17.1184   2
  -2  -4 -15 26.4368 7.97664   3
   2   4  15 27.1963 6.18320   4
   2   4  15 16.7628 6.71147   2
  -3  -4 -15 17.3395 8.39155   3
   3   4  15 17.2942 7.04440   2
   3   4  15 24.5652 6.90810   4
   1  -5 -15 -3.3703 8.81715   5
   1  -5 -15 -3.5183 5.92198   3
  -1   5  15 7.92645 6.76023   2
   0  -5 -15 8.66320 8.61971   5
   0  -5 -15 6.69931 5.83449   3
   0   5  15 9.70228 4.47647   4
   0   5  15 3.41769 5.46043   2
  -1  -5 -15 208.836 26.5670   5
  -1  -5 -15 190.049 23.1302   3
   1   5  15 194.974 21.2526   4
   1   5  15 162.746 22.1072   2
  -2  -5 -15 668.413 66.6748   3
   2   5  15 666.311 65.5788   4
   2   5  15 567.131 65.7619   2
  -3  -5 -15 731.790 74.3035   3
   3   5  15 612.522 73.0957   2
   3   5  15 781.106 73.3743   4
   1  -6 -15 63.5421 16.0907   3
   1  -6 -15 73.2667 17.5948   5
  -1   6  15 58.8178 12.7907   2
   0  -6 -15 -0.1676 5.42596   3
   0  -6 -15 -0.2702 8.43832   5
   0   6  15 4.56537 4.37181   4
   0   6  15 0.43355 5.09981   2
  -1  -6 -15 18.6981 9.88358   5
  -1  -6 -15 9.27896 5.74765   3
   1   6  15 13.3032 5.67458   2
   1   6  15 13.8836 4.89749   4
  -2  -6 -15 9.30699 5.95281   3
   2   6  15 4.88902 5.35088   2
   2   6  15 3.74671 4.94108   4
  -3  -6 -15 99.0013 15.3414   3
   3   6  15 72.3553 13.0641   2
   3   6  15 82.2897 13.9297   4
   1  -7 -15 10.9392 10.4041   5
  -1   7  15 3.75603 6.56240   2
   0  -7 -15 1.29839 8.63340   5
   0   7  15 -0.0336 4.21603   4
   0   7  15 3.94566 5.34261   2
  -1  -7 -15 127.386 20.3204   3
  -1  -7 -15 124.309 20.8567   5
   1   7  15 91.8342 14.9128   2
   1   7  15 116.471 14.5413   4
  -2  -7 -15 643.113 62.8484   5
  -2  -7 -15 569.516 57.9896   3
   2   7  15 558.428 57.6942   4
   2   7  15 456.082 57.6251   2
  -3  -7 -15 378.537 39.7695   3
   3   7  15 394.999 39.7374   4
   3   7  15 325.564 39.2368   2
   1  -8 -15 214.444 39.3466   5
  -1   8  15 178.562 27.0044   2
   0  -8 -15 0.07287 9.36300   5
   0   8  15 1.64160 5.48984   2
   0   8  15 1.50050 4.51149   4
  -1  -8 -15 1.81405 9.50318   5
   1   8  15 1.62884 5.00547   2
   1   8  15 -1.9443 4.41657   4
  -2  -8 -15 9.99355 11.5632   5
   2   8  15 3.42833 5.16463   4
   2   8  15 4.83752 5.55493   2
   3   8  15 225.321 24.9187   4
   3   8  15 190.105 23.8470   2
   0  -9 -15 6.01759 10.9645   5
   0   9  15 14.7359 6.30453   2
   0   9  15 7.05543 5.15445   4
  -1  -9 -15 16.8909 11.7772   5
   1   9  15 25.0835 6.22675   4
   1   9  15 30.3853 6.75073   2
  -2  -9 -15 233.115 33.4439   5
   2   9  15 210.413 25.7586   2
   2   9  15 237.569 26.0335   4
   0  10  15 -6.3912 5.18640   4
  -1 -10 -15 -3.2432 23.7291   5
   1  10  15 1.95745 5.37236   4
   1  10  15 -5.5776 5.88635   2
   2  10  15 43.3292 8.66839   4
   2  10  15 45.3045 10.4514   2
   0  -4 -16 201.093 25.6799   3
  -1  -4 -16 503.540 54.2625   3
  -1  -4 -16 524.096 56.7987   5
   1   4  16 462.377 52.3674   4
   1   4  16 520.031 55.9531   2
  -2  -4 -16 513.895 54.7778   3
   2   4  16 492.859 52.8417   4
   0  -5 -16 41.9325 12.6854   5
   0  -5 -16 38.6376 9.12521   3
  -1  -5 -16 5.12014 7.22893   3
  -1  -5 -16 9.23031 11.6673   5
   1   5  16 7.25524 5.54932   4
   1   5  16 6.80607 7.66932   2
  -2  -5 -16 23.6544 8.92020   3
   2   5  16 44.5729 9.78030   2
   2   5  16 46.0701 8.05053   4
   0  -6 -16 191.952 29.5747   5
  -1  -6 -16 643.990 64.2275   5
  -1  -6 -16 596.571 60.3403   3
   1   6  16 455.795 60.1137   2
   1   6  16 582.885 59.1250   4
  -2  -6 -16 349.531 38.8876   3
   2   6  16 341.372 37.3706   4
   0  -7 -16 -5.3104 16.2411   5
  -1  -7 -16 2.59021 13.0279   5
   1   7  16 3.75853 5.51960   4
   1   7  16 3.44889 9.10723   2
   2   7  16 177.563 22.2853   4
   2   7  16 185.944 23.5115   2
   1   8  16 404.536 43.1282   4
   0   0   0    0.00    0.00   0

 _exptl_absorpt_process_details
)
 SADABS 2016/2: Krause, L., Herbst-Irmer, R., Sheldrick G.M. & Stalke D.,
 J. Appl. Cryst. 48 (2015) 3-10
)
 _exptl_absorpt_correction_type   multi-scan
 _exptl_absorpt_correction_T_max  0.7465
 _exptl_absorpt_correction_T_min  0.3803
 _exptl_special_details
)
 The following wavelength and cell were deduced by SADABS from the
 direction cosines etc. They are given here for emergency use only:
 CELL 0.71092    4.524    9.325   10.624   65.357   81.085   85.779
)

;
_shelx_hkl_checksum              68686
loop_
_space_group_symop_operation_xyz
'x, y, z'
'-x, -y, -z'
loop_
_atom_site_label
_atom_site_type_symbol
_atom_site_fract_x
_atom_site_fract_y
_atom_site_fract_z
_atom_site_U_iso_or_equiv
_atom_site_adp_type
_atom_site_occupancy
_atom_site_site_symmetry_order
_atom_site_calc_flag
_atom_site_refinement_flags_posn
_atom_site_refinement_flags_adp
C1 C 0.9567(8) 0.1599(4) 0.6824(4) 0.0269(7) Uani 1 1 d . .
H1 H 0.953815 0.071338 0.660380 0.032 Uiso 1 1 calc R U
C2 C 1.1258(8) 0.1561(4) 0.7816(4) 0.0262(7) Uani 1 1 d . .
H2 H 1.229787 0.061493 0.830452 0.031 Uiso 1 1 calc R U
C3 C 0.9876(7) 0.4080(4) 0.7465(3) 0.0235(6) Uani 1 1 d . .
H3 H 0.994311 0.496244 0.768758 0.028 Uiso 1 1 calc R U
C4 C 0.8114(7) 0.4178(4) 0.6484(3) 0.0216(6) Uani 1 1 d . .
H4 H 0.702029 0.511613 0.602947 0.026 Uiso 1 1 calc R U
N1 N 0.7962(6) 0.2907(3) 0.6173(3) 0.0173(5) Uani 1 1 d . .
N2 N 1.1489(7) 0.2799(3) 0.8115(3) 0.0216(5) Uani 1 1 d . .
I1 I 0.50881(5) 0.21522(3) 0.29105(2) 0.02503(10) Uani 1 1 d . .
I2 I 0.34536(5) 0.25042(3) 0.04255(2) 0.02147(9) Uani 1 1 d . .
O1 O 0.6335(7) 0.2974(3) 0.5255(3) 0.0315(6) Uani 1 1 d . .
loop_
_atom_site_aniso_label
_atom_site_aniso_U_11
_atom_site_aniso_U_22
_atom_site_aniso_U_33
_atom_site_aniso_U_23
_atom_site_aniso_U_13
_atom_site_aniso_U_12
C1 0.0315(17) 0.0236(16) 0.0295(16) -0.0138(13) -0.0075(13) 0.0001(13)
C2 0.0264(16) 0.0238(15) 0.0277(16) -0.0089(13) -0.0090(13) 0.0042(12)
C3 0.0245(15) 0.0259(15) 0.0236(14) -0.0126(12) -0.0056(12) -0.0011(12)
C4 0.0254(15) 0.0214(14) 0.0199(13) -0.0093(11) -0.0068(11) 0.0013(11)
N1 0.0180(12) 0.0187(12) 0.0142(10) -0.0054(9) -0.0026(9) -0.0015(9)
N2 0.0222(13) 0.0230(13) 0.0212(12) -0.0086(10) -0.0103(10) 0.0024(10)
I1 0.02727(15) 0.02937(15) 0.02427(14) -0.01523(10) -0.01047(9) 0.00505(9)
I2 0.02142(14) 0.02421(14) 0.02076(13) -0.01039(9) -0.00610(9) 0.00149(9)
O1 0.0392(15) 0.0333(14) 0.0308(13) -0.0170(11) -0.0211(11) 0.0047(11)
loop_
_atom_type_symbol
_atom_type_description
_atom_type_scat_dispersion_real
_atom_type_scat_dispersion_imag
_atom_type_scat_source
C C 0.0033 0.0016 'International Tables Vol C Tables 4.2.6.8 and 6.1.1.4'
H H 0.0000 0.0000 'International Tables Vol C Tables 4.2.6.8 and 6.1.1.4'
N N 0.0061 0.0033 'International Tables Vol C Tables 4.2.6.8 and 6.1.1.4'
I I -0.4742 1.8119 'International Tables Vol C Tables 4.2.6.8 and 6.1.1.4'
O O 0.0106 0.0060 'International Tables Vol C Tables 4.2.6.8 and 6.1.1.4'
loop_
_geom_angle_atom_site_label_1
_geom_angle_atom_site_label_2
_geom_angle_atom_site_label_3
_geom_angle
N1 C1 C2 119.3(3)
N1 C1 H1 120.4
C2 C1 H1 120.4
N2 C2 C1 122.7(3)
N2 C2 H2 118.7
C1 C2 H2 118.7
N2 C3 C4 122.7(3)
N2 C3 H3 118.6
C4 C3 H3 118.6
N1 C4 C3 119.1(3)
N1 C4 H4 120.4
C3 C4 H4 120.4
O1 N1 C1 120.9(3)
O1 N1 C4 120.1(3)
C1 N1 C4 119.0(3)
C2 N2 C3 117.1(3)
loop_
_geom_bond_atom_site_label_1
_geom_bond_atom_site_label_2
_geom_bond_distance
C1 N1 1.347(4)
C1 C2 1.383(5)
C1 H1 0.9500
C2 N2 1.335(5)
C2 H2 0.9500
C3 N2 1.333(4)
C3 C4 1.378(4)
C3 H3 0.9500
C4 N1 1.366(4)
C4 H4 0.9500
N1 O1 1.290(3)
I1 I2 2.7340(3)
loop_
_geom_torsion_atom_site_label_1
_geom_torsion_atom_site_label_2
_geom_torsion_atom_site_label_3
_geom_torsion_atom_site_label_4
_geom_torsion
N1 C1 C2 N2 -3.3(6)
N2 C3 C4 N1 1.1(5)
C2 C1 N1 O1 -179.2(3)
C2 C1 N1 C4 1.8(5)
C3 C4 N1 O1 -179.8(3)
C3 C4 N1 C1 -0.8(5)
C1 C2 N2 C3 3.5(6)
C4 C3 N2 C2 -2.4(5)
