#------------------------------------------------------------------------------
#$Date: 2019-11-04 17:31:25 +0200 (Mon, 04 Nov 2019) $
#$Revision: 223165 $
#$URL: file:///home/coder/svn-repositories/cod/cif/1/55/27/1552733.cif $
#------------------------------------------------------------------------------
#
# This file is available in the Crystallography Open Database (COD),
# http://www.crystallography.net/
#
# All data on this site have been placed in the public domain by the
# contributors.
#
data_1552733
loop_
_publ_author_name
'Durka, Krzysztof'
'G\'orski, Bartosz'
'B\/locki, Krzysztof'
'Urban, Mateusz'
'Wo\'zniak, Krzysztof'
'Barbasiewicz, Micha\/l'
'Luli\'nski, Sergiusz'
_publ_section_title
;
 Experimental and Theoretical Insights into Molecular and Solid-State
 Properties of Isomeric Bis(salicylaldehydes).
;
_journal_issue                   40
_journal_name_full               'The journal of physical chemistry. A'
_journal_page_first              8674
_journal_page_last               8689
_journal_paper_doi               10.1021/acs.jpca.9b07360
_journal_volume                  123
_journal_year                    2019
_chemical_formula_moiety         'C8 H6 O4'
_chemical_formula_sum            'C8 H6 O4'
_chemical_formula_weight         166.13
_chemical_melting_point          187
_chemical_name_common            4,6-dihydroxyisophthalaldehyde
_chemical_name_systematic
;
 4,6-dihydroxybenzene-1,3-dicarbaldehyde
;
_space_group_crystal_system      triclinic
_space_group_IT_number           2
_space_group_name_Hall           '-P 1'
_space_group_name_H-M_alt        'P -1'
_atom_sites_solution_hydrogens   mixed
_audit_creation_method           SHELXL-2013
_cell_angle_alpha                78.758(5)
_cell_angle_beta                 76.136(5)
_cell_angle_gamma                84.789(5)
_cell_formula_units_Z            4
_cell_length_a                   7.4756(4)
_cell_length_b                   8.2973(5)
_cell_length_c                   11.9343(7)
_cell_measurement_reflns_used    5208
_cell_measurement_temperature    100(2)
_cell_measurement_theta_max      65.4700
_cell_measurement_theta_min      5.4090
_cell_volume                     704.14(7)
_computing_cell_refinement
;
CrysAlisPro, Agilent Technologies,
Version 1.171.37.33 (release 27-03-2014 CrysAlis171 .NET)
(compiled Mar 27 2014,17:12:48)
;
_computing_data_collection
;
CrysAlisPro, Agilent Technologies,
Version 1.171.37.33 (release 27-03-2014 CrysAlis171 .NET)
(compiled Mar 27 2014,17:12:48)
;
_computing_data_reduction
;
CrysAlisPro, Agilent Technologies,
Version 1.171.37.33 (release 27-03-2014 CrysAlis171 .NET)
(compiled Mar 27 2014,17:12:48)
;
_diffrn_ambient_environment      air
_diffrn_ambient_temperature      100(2)
_diffrn_detector                 'CCD plate'
_diffrn_detector_area_resol_mean 10.4391
_diffrn_detector_type            Atlas
_diffrn_measured_fraction_theta_full 0.951
_diffrn_measured_fraction_theta_max 0.993
_diffrn_measurement_device       'four-circle diffractometer'
_diffrn_measurement_device_type  'SuperNova, Dual, Cu at zero, Atlas'
_diffrn_radiation_monochromator  mirror
_diffrn_radiation_probe          x-ray
_diffrn_radiation_type           CuK\a
_diffrn_radiation_wavelength     1.54178
_diffrn_reflns_av_R_equivalents  0.0128
_diffrn_reflns_av_unetI/netI     0.0101
_diffrn_reflns_Laue_measured_fraction_full 0.951
_diffrn_reflns_Laue_measured_fraction_max 0.993
_diffrn_reflns_limit_h_max       8
_diffrn_reflns_limit_h_min       -8
_diffrn_reflns_limit_k_max       9
_diffrn_reflns_limit_k_min       -9
_diffrn_reflns_limit_l_max       13
_diffrn_reflns_limit_l_min       -14
_diffrn_reflns_number            8615
_diffrn_reflns_point_group_measured_fraction_full 0.951
_diffrn_reflns_point_group_measured_fraction_max 0.993
_diffrn_reflns_theta_full        67.679
_diffrn_reflns_theta_max         65.505
_diffrn_reflns_theta_min         3.878
_diffrn_source                   'sealed X-ray tube'
_diffrn_source_type              'SuperNova (Cu) X-ray Source'
_exptl_absorpt_coefficient_mu    1.102
_exptl_absorpt_correction_T_max  1.00000
_exptl_absorpt_correction_T_min  0.85892
_exptl_absorpt_correction_type   multi-scan
_exptl_absorpt_process_details
;
CrysAlisPro, Agilent Technologies,
Version 1.171.37.33 (release 27-03-2014 CrysAlis171 .NET)
(compiled Mar 27 2014,17:12:48)
Empirical absorption correction using spherical harmonics,
 implemented in SCALE3 ABSPACK scaling algorithm.
;
_exptl_crystal_colour            colourles
_exptl_crystal_density_diffrn    1.567
_exptl_crystal_description       block
_exptl_crystal_F_000             344
_exptl_crystal_size_max          0.052
_exptl_crystal_size_mid          0.030
_exptl_crystal_size_min          0.019
_refine_diff_density_max         0.181
_refine_diff_density_min         -0.238
_refine_diff_density_rms         0.048
_refine_ls_extinction_method     none
_refine_ls_goodness_of_fit_ref   1.050
_refine_ls_hydrogen_treatment    mixed
_refine_ls_matrix_type           full
_refine_ls_number_parameters     233
_refine_ls_number_reflns         2409
_refine_ls_number_restraints     0
_refine_ls_restrained_S_all      1.050
_refine_ls_R_factor_all          0.0337
_refine_ls_R_factor_gt           0.0320
_refine_ls_shift/su_max          0.000
_refine_ls_shift/su_mean         0.000
_refine_ls_structure_factor_coef Fsqd
_refine_ls_weighting_details
'w=1/[\s^2^(Fo^2^)+(0.0573P)^2^+0.1840P] where P=(Fo^2^+2Fc^2^)/3'
_refine_ls_weighting_scheme      calc
_refine_ls_wR_factor_gt          0.0885
_refine_ls_wR_factor_ref         0.0907
_reflns_Friedel_coverage         0.000
_reflns_number_gt                2269
_reflns_number_total             2409
_reflns_threshold_expression     'I > 2\s(I)'
_cod_data_source_file            jp9b07360_si_002.cif
_cod_data_source_block           2
_cod_database_code               1552733
_shelx_space_group_comment
;
The symmetry employed for this shelxl refinement is uniquely defined
by the following loop, which should always be used as a source of
symmetry information in preference to the above space-group names.
They are only intended as comments.
;
_shelxl_version_number           2013-4
_shelx_res_file
;
TITL 1 in P-1
CELL  1.54178   7.4756   8.2973  11.9343   78.758   76.136   84.789
ZERR     4.00   0.0004   0.0005   0.0007    0.005    0.005    0.005
LATT   1
SFAC  C    H    O
UNIT  32 24 16
MERG   2
FMAP   2
PLAN   10
ACTA
BOND   $H
L.S.  14
TEMP  -173.00
WGHT    0.057300    0.184000
FVAR       0.25628
H5A   2    0.450180    0.664981   -0.039482    11.00000    0.05765
H6A   2    0.127777    1.365818   -0.020660    11.00000    0.05980
H2A   2    0.855176    0.936585    0.458557    11.00000    0.06506
H1A   2    0.141659    0.626921    0.461754    11.00000    0.06457
MOLE    1
O1    3    0.228023    0.698159    0.414552    11.00000    0.02852    0.03021 =
         0.01992   -0.00132   -0.00816   -0.00808
O4    3    0.078999    0.487845    0.604724    11.00000    0.02361    0.02725 =
         0.02356   -0.00524   -0.00362   -0.00650
O2    3    0.772860    0.934328    0.412552    11.00000    0.02559    0.02805 =
         0.02109   -0.00088    0.00013   -0.01014
O3    3    0.897489    0.868346    0.607561    11.00000    0.02342    0.02940 =
         0.02925   -0.00312   -0.00418   -0.00769
C4    1    0.629336    0.753885    0.589273    11.00000    0.02028    0.01812 =
         0.01936   -0.00436   -0.00189   -0.00009
C6    1    0.498344    0.816956    0.416563    11.00000    0.02803    0.02291 =
         0.01417   -0.00187   -0.00162   -0.00285
AFIX  43
H6    2    0.501974    0.874860    0.339145    11.00000   -1.20000
AFIX   0
C2    1    0.348543    0.627150    0.588977    11.00000    0.02058    0.01692 =
         0.01742   -0.00476   -0.00078    0.00048
C3    1    0.485519    0.650842    0.644448    11.00000    0.02186    0.01736 =
         0.01589   -0.00381   -0.00176    0.00162
AFIX  43
H3    2    0.480465    0.594776    0.722480    11.00000   -1.20000
AFIX   0
C1    1    0.355626    0.713857    0.473000    11.00000    0.02316    0.01935 =
         0.01836   -0.00571   -0.00371   -0.00060
C8    1    0.205108    0.513670    0.648187    11.00000    0.02289    0.01955 =
         0.01746   -0.00516   -0.00111   -0.00051
AFIX  43
H8    2    0.208415    0.455969    0.724733    11.00000   -1.20000
AFIX   0
C5    1    0.635503    0.836202    0.472062    11.00000    0.02221    0.01758 =
         0.01918   -0.00487    0.00147   -0.00234
C7    1    0.768217    0.777361    0.650297    11.00000    0.02236    0.02229 =
         0.02276   -0.00410   -0.00285   -0.00050
AFIX  43
H7    2    0.758729    0.718807    0.728124    11.00000   -1.20000
AFIX   0
MOLE    2
O8    3    0.340929    0.539976    0.099718    11.00000    0.02720    0.01986 =
         0.02591   -0.00317   -0.00267    0.00192
O5    3    0.456503    0.771260   -0.085659    11.00000    0.02450    0.02106 =
         0.01976   -0.00423   -0.00042    0.00170
O7    3   -0.044168    1.358023    0.115157    11.00000    0.03069    0.01867 =
         0.02893   -0.00559   -0.00686    0.00204
O6    3    0.214248    1.307452   -0.071497    11.00000    0.03184    0.01721 =
         0.02270    0.00048   -0.00431    0.00047
C12   1    0.099842    1.096138    0.093970    11.00000    0.01776    0.02019 =
         0.01821   -0.00402   -0.00634   -0.00211
C14   1    0.332083    1.037958   -0.076592    11.00000    0.02135    0.02347 =
         0.01480   -0.00120   -0.00324   -0.00297
AFIX  43
H14   2    0.407404    1.074659   -0.152082    11.00000   -1.20000
AFIX   0
C10   1    0.228826    0.817374    0.087457    11.00000    0.01740    0.01972 =
         0.01785   -0.00226   -0.00546   -0.00258
C15   1    0.237473    0.646470    0.143344    11.00000    0.01990    0.02104 =
         0.01950   -0.00248   -0.00387   -0.00169
AFIX  43
H15   2    0.158390    0.614623    0.218311    11.00000   -1.20000
AFIX   0
C11   1    0.110901    0.930853    0.144440    11.00000    0.01637    0.02165 =
         0.01675   -0.00293   -0.00453   -0.00244
AFIX  43
H11   2    0.035802    0.894257    0.220021    11.00000   -1.20000
AFIX   0
C13   1    0.215032    1.149264   -0.018342    11.00000    0.02147    0.01833 =
         0.01878   -0.00081   -0.00888   -0.00208
C9    1    0.340129    0.873786   -0.025679    11.00000    0.01719    0.02160 =
         0.01778   -0.00495   -0.00561   -0.00003
C16   1   -0.028954    1.209751    0.154229    11.00000    0.02164    0.02154 =
         0.02116   -0.00491   -0.00720   -0.00041
AFIX  43
H16   2   -0.105997    1.167605    0.227990    11.00000   -1.20000
AFIX   0
HKLF    4

REM  1 in P-1
REM R1 =  0.0320 for    2269 Fo > 4sig(Fo)  and  0.0337 for all    2409 data
REM    233 parameters refined using      0 restraints

END

WGHT      0.0556      0.1902

REM Highest difference peak  0.181,  deepest hole -0.238,  1-sigma level  0.048
Q1    1   0.1391  1.1131  0.0464  11.00000  0.05    0.18
Q2    1   0.6272  0.8044  0.5461  11.00000  0.05    0.16
Q3    1   0.2599  0.8395  0.0396  11.00000  0.05    0.16
Q4    1   0.2163  0.7418  0.1036  11.00000  0.05    0.15
Q5    1   0.3795  0.6357  0.5297  11.00000  0.05    0.14
Q6    1   0.1232  1.0440  0.1281  11.00000  0.05    0.14
Q7    1   0.0670  1.1395  0.1225  11.00000  0.05    0.13
Q8    1   0.3417  0.6814  0.5417  11.00000  0.05    0.13
Q9    1   0.2826  0.5966  0.6191  11.00000  0.05    0.12
Q10   1   0.0622  1.0274  0.1060  11.00000  0.05    0.12
;
_shelx_res_checksum              9677
_shelx_hkl_file
;
   0   0   1    0.09    0.01
   0   0   1    0.09    0.02
   0   0   1    0.09    0.01
   0   0   2  463.13    1.02
   0   0   2  464.20    0.90
   0   0   2  476.13    1.14
   0   0   3    1.40    0.08
   0   0   3    1.48    0.07
   0   0  -3    1.54    0.08
   0   0   3    1.49    0.07
   0   0   3    1.49    0.07
   0   0   4  601.62    1.91
   0   0   4  598.59    1.69
   0   0   5    2.42    0.12
   0   0   5    2.44    0.11
   0   0   5    2.23    0.14
   0   0  -5    2.48    0.14
   0   0  -6  160.83    1.26
   0   0   6  160.51    1.31
   0   0  -6  163.90    1.14
   0   0   7    0.08    0.04
   0   0  -7    0.09    0.04
   0   0  -8    4.65    0.27
   0   0  -8    4.35    0.15
   0   0   8    4.43    0.15
   0   0   8    4.26    0.14
   0   0   8    4.52    0.28
   0   0  -8    4.30    0.14
   0   0   9    0.69    0.07
   0   0   9    0.56    0.06
   0   0  -9    0.56    0.06
   0   0  -9    0.53    0.06
   0   0 -10   11.91    0.26
   0   0 -10   11.48    0.27
   0   0  10   11.76    0.27
   0   0  10   12.53    0.26
   0   0 -11    0.27    0.05
   0   0  11    0.31    0.04
   0   0  11    0.29    0.05
   0   0  11    0.33    0.05
   0   0 -11    0.32    0.05
   0   0  11    0.44    0.05
   0   0 -12   23.59    0.35
   0   0  12   24.29    0.32
   0   0 -12   24.67    0.34
   0   0  12   24.50    0.36
   0   0 -13    0.24    0.04
   0   0  13    0.24    0.04
   0   0 -13    0.22    0.03
   0   0 -13    0.34    0.04
   0   1 -13    1.76    0.08
   0   1 -13    1.82    0.08
   0  -1  13    1.84    0.08
   0  -1  12   12.60    0.23
   0  -1  12   12.80    0.26
   0   1 -12   12.43    0.25
   0   1 -12   13.37    0.23
   0  -1  11    0.02    0.03
   0   1 -11    0.03    0.03
   0   1 -11    0.03    0.02
   0  -1  11    0.01    0.03
   0  -1  11    0.02    0.02
   0   1 -10    0.17    0.05
   0   1 -10    0.23    0.04
   0  -1  10    0.28    0.05
   0  -1  10    0.24    0.04
   0   1  -9   -0.01    0.03
   0  -1   9   -0.03    0.03
   0  -1   9    0.00    0.03
   0   1  -9    0.02    0.03
   0  -1   9    0.02    0.03
   0   1  -8    5.46    0.17
   0  -1   8    5.76    0.18
   0  -1   8    5.49    0.16
   0   1  -8    5.51    0.16
   0  -1   8    5.46    0.17
   0   1  -7    2.94    0.20
   0   1  -7    2.78    0.17
   0  -1   7    3.00    0.21
   0   1  -7    2.78    0.19
   0  -1   6   11.43    0.33
   0  -1   6   10.95    0.37
   0   1  -6   10.93    0.34
   0  -1   5   32.40    0.56
   0   1  -5   31.66    0.51
   0  -1   5   32.66    0.50
   0  -1   5   32.88    0.45
   0  -1   4   83.24    0.70
   0  -1   4   80.41    0.78
   0   1  -4   80.92    0.71
   0  -1   4   81.51    0.64
   0  -1   4   83.89    0.51
   0  -1   3    8.90    0.23
   0   1  -3    9.01    0.21
   0  -1   3    9.13    0.15
   0  -1   3    9.11    0.19
   0  -1   3    9.14    0.21
   0  -1   2    9.26    0.18
   0  -1   2    9.05    0.20
   0  -1   2    9.15    0.13
   0   1  -1   70.13    0.40
   0  -1   1   69.64    0.31
   0   1   0    1.36    0.03
   0  -1   0    1.34    0.05
   0  -1   0    1.32    0.05
   0  -1   0    1.27    0.05
   0  -1   0    1.41    0.04
   0  -1   0    1.31    0.05
   0  -1   0    1.30    0.05
   0   1   0    1.31    0.05
   0  -1  -1    0.84    0.04
   0  -1  -1    0.83    0.03
   0   1   1    0.85    0.04
   0  -1  -1    0.85    0.04
   0   1   1    0.85    0.04
   0  -1  -2   56.21    0.22
   0   1   2   55.88    0.40
   0   1   2   56.70    0.35
   0  -1  -2   56.90    0.27
   0  -1  -2   56.56    0.37
   0   1   3    0.25    0.04
   0  -1  -3    0.25    0.03
   0  -1  -3    0.31    0.04
   0  -1  -3    0.30    0.03
   0   1   3    0.28    0.04
   0  -1  -4    0.09    0.02
   0   1   4    0.10    0.04
   0  -1  -4    0.05    0.03
   0  -1  -4    0.06    0.02
   0   1   5  109.34    0.80
   0  -1  -5  109.57    0.89
   0   1   5  109.71    0.92
   0   1   5  110.94    0.80
   0  -1  -5  111.68    0.73
   0   1   6   10.18    0.27
   0   1   6    9.73    0.26
   0  -1  -6    9.49    0.30
   0   1   6    9.72    0.31
   0  -1  -7   26.85    0.56
   0  -1  -7   27.11    0.57
   0   1   7   28.22    0.61
   0   1   8    3.08    0.22
   0  -1  -8    3.11    0.21
   0  -1  -8    3.21    0.22
   0  -1  -9    3.28    0.14
   0   1   9    3.34    0.14
   0  -1  -9    3.26    0.13
   0   1   9    3.55    0.13
   0  -1 -10    0.04    0.03
   0   1  10    0.06    0.03
   0  -1 -10    0.08    0.04
   0   1  10    0.07    0.03
   0   1  11    0.32    0.05
   0  -1 -11    0.37    0.05
   0  -1 -11    0.30    0.05
   0   1  12    1.67    0.09
   0  -1 -12    1.54    0.08
   0  -1 -12    1.47    0.09
   0  -1 -12    1.76    0.10
   0   1  13    3.44    0.12
   0  -1 -13    3.47    0.12
   0  -1 -13    3.71    0.12
   0  -1 -13    3.68    0.12
   0   2 -12    5.10    0.15
   0  -2  12    5.23    0.14
   0  -2  12    5.42    0.16
   0   2 -11    0.07    0.03
   0  -2  11    0.06    0.03
   0  -2  11    0.07    0.03
   0  -2  11    0.04    0.03
   0  -2  10    0.73    0.08
   0  -2  10    0.76    0.07
   0   2 -10    0.77    0.06
   0   2 -10    0.77    0.08
   0   2  -9    0.08    0.03
   0  -2   9    0.05    0.04
   0   2  -9    0.09    0.04
   0  -2   9    0.07    0.04
   0  -2   9    0.09    0.03
   0  -2   8    4.76    0.17
   0   2  -8    4.72    0.17
   0  -2   8    4.45    0.16
   0  -2   8    4.63    0.16
   0   2  -8    4.61    0.16
   0  -2   7    0.02    0.03
   0   2  -7    0.12    0.05
   0  -2   7    0.18    0.05
   0  -2   7   -0.01    0.07
   0   2  -7    0.09    0.05
   0   2  -7    0.00    0.02
   0  -2   7    0.05    0.03
   0  -2   7    0.05    0.03
   0  -2   6    6.50    0.31
   0   2  -6    6.15    0.27
   0  -2   6    6.34    0.27
   0   2  -6    5.96    0.25
   0  -2   5    1.99    0.16
   0   2  -5    2.11    0.14
   0   2  -5    1.98    0.13
   0  -2   5    2.25    0.15
   0  -2   4    0.83    0.08
   0  -2   4    0.66    0.09
   0   2  -4    0.63    0.07
   0   2  -4    0.60    0.07
   0  -2   3    3.05    0.16
   0  -2   3    3.41    0.10
   0   2  -3    3.31    0.13
   0   2  -3    3.11    0.14
   0  -2   3    3.11    0.14
   0   2  -2    1.87    0.08
   0  -2   2    1.84    0.07
   0  -2   2    1.76    0.10
   0  -2   2    1.82    0.11
   0   2  -2    1.81    0.10
   0  -2   1    0.32    0.05
   0  -2   1    0.15    0.04
   0  -2   1    0.28    0.03
   0  -2   1    0.26    0.04
   0   2  -1    0.27    0.03
   0   2  -1    0.27    0.04
   0  -2   0   75.57    0.50
   0   2   0   75.57    0.27
   0  -2   0   74.74    0.50
   0  -2   0   74.23    0.45
   0  -2   0   76.13    0.49
   0   2   0   76.33    0.51
   0  -2   0   74.85    0.52
   0   2   1    3.59    0.11
   0   2   1    3.45    0.12
   0  -2  -1    3.55    0.11
   0  -2  -1    3.45    0.10
   0  -2  -1    3.38    0.09
   0  -2  -1    3.42    0.12
   0  -2  -1    3.48    0.11
   0  -2  -1    3.58    0.12
   0  -2  -2   96.30    0.45
   0   2   2   95.62    0.64
   0  -2  -2   97.82    0.42
   0  -2  -2   95.60    0.68
   0  -2  -2   99.50    0.63
   0   2   2   97.81    0.56
   0  -2  -2   97.03    0.57
   0  -2  -2   95.99    0.57
   0   2   3    6.06    0.15
   0   2   3    5.77    0.18
   0  -2  -3    5.88    0.11
   0  -2  -3    5.99    0.16
   0  -2  -3    5.93    0.13
   0  -2  -3    5.68    0.15
   0  -2  -3    5.72    0.19
   0  -2  -4   15.97    0.35
   0  -2  -4   16.20    0.29
   0   2   4   15.89    0.32
   0  -2  -4   16.83    0.29
   0   2   4   16.71    0.28
   0   2   5    0.15    0.05
   0  -2  -5    0.19    0.05
   0   2   5    0.21    0.04
   0  -2  -5    0.09    0.03
   0   2   6    3.11    0.17
   0   2   6    3.13    0.18
   0  -2  -6    3.20    0.19
   0  -2  -6    3.21    0.17
   0  -2  -7    0.34    0.07
   0   2   7    0.21    0.06
   0   2   7    0.37    0.06
   0   2   7    0.28    0.06
   0  -2  -7    0.38    0.08
   0  -2  -8    2.72    0.19
   0  -2  -8    3.12    0.22
   0  -2  -8    3.01    0.12
   0   2   8    2.97    0.22
   0  -2  -8    2.96    0.12
   0  -2  -9    0.29    0.05
   0   2   9    0.28    0.05
   0  -2  -9    0.34    0.05
   0  -2 -10    6.85    0.21
   0  -2 -10    6.72    0.20
   0   2  10    7.15    0.21
   0  -2 -11    0.01    0.03
   0  -2 -11    0.02    0.03
   0  -2 -12    0.36    0.05
   0  -2 -12    0.37    0.05
   0  -2 -13    0.12    0.03
   0  -2 -13    0.12    0.03
   0   2  13    0.11    0.03
   0  -2 -13    0.11    0.03
   0  -3  12    0.34    0.04
   0   3 -11    0.02    0.03
   0  -3  11    0.07    0.03
   0  -3  11    0.04    0.03
   0  -3  11    0.02    0.03
   0  -3  10    4.01    0.15
   0   3 -10    3.93    0.16
   0  -3  10    4.10    0.15
   0  -3  10    4.03    0.15
   0  -3   9   -0.02    0.03
   0  -3   9   -0.02    0.04
   0   3  -9    0.02    0.03
   0  -3   9    0.02    0.03
   0  -3   8    7.08    0.21
   0  -3   8    7.59    0.21
   0   3  -8    7.53    0.20
   0  -3   8    7.06    0.20
   0   3  -8    7.28    0.22
   0   3  -7    2.19    0.12
   0  -3   7    2.10    0.11
   0   3  -7    2.12    0.11
   0  -3   7    2.22    0.11
   0  -3   7    2.04    0.11
   0   3  -6    0.01    0.04
   0  -3   6   -0.01    0.04
   0  -3   6    0.04    0.03
   0  -3   6    0.05    0.04
   0   3  -6    0.06    0.03
   0  -3   5    0.07    0.04
   0  -3   5    0.00    0.04
   0  -3   5    0.01    0.03
   0   3  -5    0.03    0.04
   0   3  -4    0.00    0.05
   0   3  -4    0.00    0.02
   0  -3   4    0.13    0.05
   0  -3   4    0.07    0.05
   0  -3   4    0.02    0.03
   0   3  -3   28.16    0.48
   0   3  -3   29.00    0.40
   0  -3   3   27.91    0.50
   0  -3   2   28.39    0.36
   0   3  -2   27.70    0.44
   0  -3   2   27.42    0.45
   0  -3   2   27.30    0.41
   0   3  -2   28.72    0.34
   0  -3   1    7.94    0.20
   0  -3   1    7.21    0.21
   0   3  -1    7.62    0.22
   0  -3   1    7.54    0.23
   0  -3   1    7.53    0.19
   0  -3   0   21.45    0.30
   0   3   0   21.32    0.34
   0  -3   0   21.06    0.35
   0  -3   0   20.53    0.33
   0  -3  -1   36.01    0.44
   0  -3  -1   37.63    0.44
   0   3   1   34.51    0.46
   0  -3  -1   36.89    0.39
   0   3   1   36.76    0.43
   0  -3  -1   35.94    0.45
   0  -3  -1   35.50    0.38
   0   3   2    4.18    0.16
   0  -3  -2    4.29    0.12
   0   3   2    4.39    0.15
   0  -3  -2    4.49    0.16
   0  -3  -2    4.26    0.15
   0  -3  -2    4.30    0.17
   0   3   3   13.28    0.31
   0   3   3   14.59    0.28
   0  -3  -3   13.91    0.28
   0  -3  -3   13.75    0.33
   0  -3  -3   15.31    0.31
   0  -3  -3   14.44    0.28
   0  -3  -4    0.96    0.10
   0   3   4    1.10    0.08
   0  -3  -4    1.19    0.10
   0  -3  -4    1.07    0.08
   0   3   4    0.83    0.09
   0   3   5   38.29    0.51
   0  -3  -5   38.96    0.51
   0  -3  -5   37.41    0.64
   0   3   5   36.63    0.59
   0   3   6    5.15    0.24
   0  -3  -6    5.48    0.27
   0   3   7    0.54    0.09
   0  -3  -7    0.46    0.10
   0   3   7    0.46    0.08
   0  -3  -8    1.42    0.09
   0   3   8    1.43    0.09
   0  -3  -8    1.46    0.09
   0   3   9    0.43    0.06
   0  -3  -9    0.49    0.06
   0  -3  -9    0.47    0.06
   0  -3 -10    3.67    0.15
   0   3  10    3.56    0.15
   0  -3 -10    3.66    0.15
   0  -3 -11   19.74    0.33
   0  -3 -11   19.59    0.34
   0   3  11   20.20    0.35
   0  -3 -11   19.79    0.34
   0  -3 -12    1.83    0.10
   0  -3 -12    1.63    0.10
   0   3  12    1.70    0.10
   0  -3 -12    1.52    0.09
   0  -3 -13    1.30    0.07
   0  -3 -13    1.18    0.07
   0   3  13    1.24    0.07
   0  -4  11   16.88    0.24
   0   4 -11   16.60    0.25
   0  -4  10    0.10    0.03
   0  -4  10    0.14    0.03
   0   4 -10    0.11    0.03
   0  -4   9    0.36    0.05
   0  -4   9    0.47    0.06
   0   4  -9    0.33    0.06
   0  -4   8   21.93    0.36
   0  -4   8   21.81    0.36
   0   4  -8   21.87    0.38
   0   4  -7   15.69    0.32
   0  -4   7   15.80    0.30
   0  -4   7   15.00    0.30
   0   4  -6    7.68    0.22
   0  -4   6    7.96    0.21
   0  -4   6    8.09    0.21
   0  -4   5    2.13    0.10
   0  -4   4    0.43    0.08
   0   4  -4    0.40    0.08
   0   4  -3    5.56    0.25
   0  -4   3    6.04    0.27
   0   4  -2    0.15    0.05
   0  -4   2    0.22    0.05
   0   4  -1   41.78    0.60
   0  -4   1   41.00    0.62
   0   4   0    3.94    0.18
   0  -4   0    4.36    0.18
   0  -4   0    4.24    0.16
   0  -4   0    4.02    0.19
   0  -4  -1    0.12    0.04
   0   4   1    0.26    0.06
   0  -4  -1    0.27    0.05
   0  -4  -1    0.27    0.05
   0   4   1    0.25    0.05
   0  -4  -2    4.01    0.18
   0   4   2    3.85    0.19
   0   4   2    4.02    0.17
   0  -4  -2    4.23    0.18
   0  -4  -2    4.02    0.19
   0  -4  -3   11.46    0.30
   0  -4  -3   11.10    0.34
   0   4   3   10.89    0.32
   0   4   3   10.87    0.28
   0   4   4   25.92    0.52
   0  -4  -4   27.01    0.46
   0  -4  -4   27.33    0.51
   0   4   4   25.97    0.45
   0  -4  -4   26.73    0.56
   0  -4  -5    7.90    0.29
   0  -4  -5    7.63    0.32
   0   4   5    7.08    0.29
   0   4   6    2.07    0.17
   0  -4  -6    2.13    0.18
   0  -4  -6    1.86    0.16
   0  -4  -7    4.80    0.16
   0  -4  -7    4.83    0.27
   0   4   7    4.92    0.16
   0  -4  -7    4.79    0.15
   0  -4  -7    4.97    0.15
   0  -4  -8    0.26    0.04
   0  -4  -8    0.20    0.04
   0   4   8    0.25    0.05
   0  -4  -8    0.23    0.04
   0  -4  -9    1.79    0.11
   0   4   9    1.91    0.11
   0  -4  -9    1.86    0.10
   0  -4  -9    1.85    0.11
   0  -4 -10    0.82    0.07
   0  -4 -10    0.72    0.07
   0  -4 -10    0.69    0.07
   0   4  10    0.76    0.08
   0  -4 -11    5.74    0.18
   0  -4 -11    5.40    0.18
   0   4  11    5.64    0.19
   0  -4 -11    5.78    0.18
   0  -4 -12    1.82    0.10
   0  -4 -12    1.91    0.10
   0   4  12    1.79    0.10
   0  -4 -13    0.54    0.05
   0  -4 -13    0.57    0.05
   0   4  13    0.57    0.05
   0   5 -10    1.00    0.07
   0  -5  10    1.17    0.06
   0  -5   9    1.60    0.08
   0   5  -9    1.69    0.10
   0  -5   9    1.73    0.09
   0  -5   8    1.32    0.09
   0   5  -8    1.24    0.09
   0  -5   8    1.29    0.08
   0  -5   8    1.28    0.08
   0   5  -7    9.41    0.25
   0  -5   7    9.75    0.25
   0   5  -6    0.85    0.08
   0  -5   6    0.99    0.08
   0  -5   5    0.68    0.07
   0  -5   4    2.01    0.10
   0  -5   3   23.76    0.61
   0  -5   3   23.84    0.34
   0   5  -2    3.80    0.22
   0  -5   2    3.89    0.24
   0  -5   1    0.19    0.06
   0   5  -1    0.11    0.04
   0   5   0   23.63    0.54
   0  -5   0   23.16    0.52
   0   5   0   22.76    0.50
   0   5   1   19.94    0.49
   0  -5  -1   20.14    0.47
   0   5   1   19.93    0.45
   0   5   2   10.86    0.36
   0  -5  -2   10.70    0.34
   0   5   2   10.67    0.33
   0  -5  -3    0.89    0.12
   0  -5  -3    1.08    0.11
   0   5   3    1.01    0.12
   0   5   3    1.14    0.11
   0   5   4    0.28    0.07
   0  -5  -4    0.33    0.09
   0  -5  -5   11.45    0.43
   0   5   5   12.15    0.42
   0  -5  -6    3.11    0.13
   0  -5  -6    3.19    0.13
   0   5   6    3.19    0.13
   0  -5  -6    2.92    0.12
   0  -5  -7   10.55    0.23
   0   5   7   10.59    0.24
   0  -5  -7   10.45    0.25
   0  -5  -7   10.88    0.24
   0  -5  -8   -0.02    0.03
   0  -5  -8    0.05    0.03
   0  -5  -8   -0.02    0.03
   0  -5  -9    0.31    0.05
   0  -5  -9    0.26    0.05
   0   5   9    0.30    0.06
   0   5  10   -0.01    0.03
   0  -5 -10    0.01    0.03
   0  -5 -10    0.04    0.03
   0  -5 -11    5.13    0.16
   0  -5 -11    4.92    0.17
   0   5  11    4.84    0.17
   0   5  12    0.79    0.06
   0  -5 -12    0.87    0.06
   0  -5 -12    0.80    0.06
   0   6  -9    0.01    0.02
   0   6  -8    0.59    0.06
   0  -6   8    0.51    0.05
   0  -6   7    1.84    0.10
   0   6  -7    1.60    0.10
   0  -6   6    0.13    0.04
   0   6  -6    0.18    0.04
   0  -6   5    0.40    0.06
   0  -6   4    0.01    0.03
   0  -6   3   16.60    0.31
   0  -6   2    6.06    0.18
   0  -6   1    3.15    0.13
   0   6  -1    3.12    0.13
   0  -6   0   15.90    0.28
   0  -6   0   15.36    0.29
   0  -6  -1    8.98    0.36
   0  -6  -1    9.50    0.21
   0  -6  -1    9.69    0.22
   0   6   1    9.22    0.36
   0  -6  -1    9.52    0.22
   0  -6  -2    0.63    0.06
   0   6   2    0.37    0.08
   0  -6  -2    0.62    0.06
   0  -6  -2    0.60    0.06
   0  -6  -2    0.36    0.08
   0  -6  -2    0.65    0.06
   0  -6  -3    2.56    0.12
   0  -6  -3    2.44    0.11
   0  -6  -3    2.37    0.12
   0   6   3    2.45    0.11
   0  -6  -4    1.77    0.10
   0  -6  -4    1.93    0.11
   0  -6  -4    1.76    0.10
   0   6   4    1.79    0.10
   0  -6  -5    0.43    0.05
   0  -6  -5    0.50    0.06
   0  -6  -5    0.43    0.05
   0  -6  -5    0.54    0.07
   0  -6  -6    7.01    0.21
   0  -6  -6    6.68    0.20
   0  -6  -6    6.15    0.19
   0  -6  -6    6.50    0.19
   0   6   7    0.03    0.03
   0  -6  -7    0.09    0.04
   0  -6  -7    0.06    0.04
   0  -6  -7    0.07    0.03
   0  -6  -7    0.03    0.03
   0  -6  -8   14.23    0.28
   0  -6  -8   14.43    0.30
   0  -6  -8   14.15    0.30
   0   6   8   14.25    0.29
   0  -6  -8   14.30    0.28
   0  -6  -9    0.10    0.03
   0  -6  -9    0.21    0.04
   0  -6  -9    0.12    0.04
   0   6   9    0.24    0.05
   0  -6  -9    0.15    0.05
   0  -6 -10    0.01    0.02
   0  -6 -10    0.05    0.03
   0   6  10    0.04    0.03
   0   6  10    0.02    0.03
   0  -6 -10    0.02    0.03
   0  -6 -11    0.13    0.03
   0   6  11    0.08    0.03
   0   6  11    0.07    0.03
   0   6  12    1.36    0.07
   0  -6 -12    1.26    0.07
   0  -7   7    5.46    0.15
   0   7  -7    5.11    0.15
   0  -7   6    0.10    0.03
   0   7  -6    0.06    0.03
   0  -7   5    7.57    0.20
   0  -7   4   31.14    0.43
   0  -7   3   44.41    0.52
   0  -7   2    1.80    0.11
   0  -7   1   18.55    0.33
   0   7   0   19.66    0.33
   0  -7   0   19.27    0.34
   0  -7  -1   14.79    0.29
   0  -7  -2   12.87    0.27
   0  -7  -2   12.33    0.26
   0   7   3   95.78    0.71
   0  -7  -3   94.97    0.76
   0  -7  -3   94.22    0.73
   0  -7  -4   72.59    0.68
   0   7   4   72.62    0.64
   0  -7  -4   72.97    0.64
   0  -7  -4   72.74    0.68
   0  -7  -5   19.46    0.36
   0  -7  -5   19.78    0.33
   0  -7  -5   19.84    0.36
   0   7   5   20.03    0.35
   0   7   6    0.15    0.05
   0  -7  -6    0.11    0.04
   0  -7  -6    0.09    0.04
   0  -7  -6    0.19    0.06
   0   7   7   16.59    0.32
   0  -7  -7   16.77    0.30
   0  -7  -7   16.00    0.32
   0  -7  -7   16.91    0.29
   0  -7  -7   16.50    0.33
   0   7   8    1.15    0.09
   0  -7  -8    1.10    0.08
   0  -7  -8    1.04    0.08
   0  -7  -8    1.01    0.08
   0  -7  -8    1.18    0.09
   0   7   9   22.70    0.33
   0  -7  -9   22.58    0.34
   0  -7  -9   21.82    0.35
   0  -7  -9   22.10    0.31
   0  -7  -9   22.67    0.32
   0   7   9   22.16    0.35
   0  -7 -10    0.46    0.05
   0   7  10    0.46    0.05
   0   7  10    0.51    0.06
   0  -7 -10    0.35    0.04
   0  -7 -10    0.48    0.05
   0  -7 -11    0.77    0.06
   0   7  11    0.84    0.06
   0   8  -5    1.08    0.07
   0  -8   5    1.29    0.07
   0  -8   4    3.84    0.14
   0  -8   3    0.47    0.06
   0  -8   2    0.12    0.04
   0  -8   1    9.89    0.24
   0  -8   0    0.08    0.04
   0  -8  -1    1.60    0.10
   0  -8  -2    0.09    0.04
   0   8   2    0.14    0.04
   0  -8  -2    0.15    0.04
   0  -8  -3   35.05    0.44
   0  -8  -3   35.31    0.46
   0   8   4    1.16    0.08
   0  -8  -4    1.01    0.09
   0  -8  -5    9.40    0.22
   0   8   5    9.55    0.23
   0  -8  -5    9.41    0.24
   0   8   6    1.39    0.09
   0  -8  -6    1.36    0.09
   0  -8  -6    1.32    0.10
   0  -8  -7    1.55    0.10
   0  -8  -7    1.46    0.08
   0   8   7    1.50    0.09
   0  -8  -7    1.40    0.09
   0  -8  -8    0.86    0.07
   0  -8  -8    0.77    0.06
   0  -8  -8    0.87    0.07
   0   8   8    0.92    0.07
   0  -8  -9    0.97    0.07
   0  -8  -9    0.93    0.07
   0  -8  -9    0.94    0.06
   0   8   9    0.95    0.07
   0  -9   2   15.33    0.24
   0  -9   1   21.79    0.30
   0  -9   0    0.44    0.05
   0  -9  -1    0.83    0.07
   0  -9  -2    1.58    0.09
   0  -9  -3    6.28    0.17
   0  -9  -3    6.53    0.18
   0  -9  -4    0.32    0.04
   0   9   4    0.29    0.04
   0  -9  -4    0.29    0.05
   0  -9  -5    4.09    0.13
   0   9   5    3.99    0.13
   0  -9  -5    4.22    0.14
   0   9   6    0.21    0.03
   0  -9  -6    0.31    0.04
   0  -9  -6    0.32    0.04
   0  -9  -7    0.07    0.03
  -1   9   6    3.28    0.11
   1  -9  -6    3.20    0.10
   1  -9  -5    0.82    0.06
  -1   9   5    0.78    0.06
  -1   9   5    0.86    0.06
  -1   9   4    0.35    0.05
   1  -9  -4    0.33    0.04
   1  -9  -3    0.33    0.04
  -1   9   3    0.32    0.04
  -1   9   2    6.83    0.18
   1  -9  -2    7.25    0.18
  -1   9   1    0.61    0.06
   1  -9  -1    0.61    0.06
  -1   9   0    0.23    0.04
   1  -9   0    0.29    0.04
   1  -9   1   13.27    0.23
   1  -9   2   14.30    0.22
   1  -8  -8    3.67    0.12
  -1   8   8    3.90    0.13
   1  -8  -8    3.78    0.13
   1  -8  -7    0.42    0.05
   1  -8  -7    0.48    0.06
  -1   8   7    0.43    0.05
  -1   8   6    1.62    0.10
   1  -8  -6    1.53    0.09
   1  -8  -6    1.61    0.10
  -1   8   5    2.58    0.12
   1  -8  -5    2.60    0.12
   1  -8  -5    2.62    0.13
   1  -8  -4    0.93    0.08
  -1   8   4    0.97    0.08
   1  -8  -4    0.88    0.07
   1  -8  -3    2.02    0.12
   1  -8  -3    2.11    0.11
  -1   8   3    2.26    0.11
   1  -8  -2    8.44    0.22
  -1   8   2    8.52    0.23
   1  -8  -2    8.67    0.23
   1  -8  -1    0.72    0.07
  -1   8   1    0.68    0.07
  -1   8   0    3.87    0.15
   1  -8   0    3.43    0.14
  -1   8  -1    3.70    0.15
   1  -8   1    3.70    0.14
  -1   8  -2    1.84    0.10
   1  -8   2    1.71    0.10
  -1   8  -3    0.30    0.04
   1  -8   3    0.35    0.05
   1  -8   4    0.73    0.06
  -1   8  -5    0.21    0.04
   1  -8   5    0.19    0.03
   1  -7 -10    0.53    0.05
  -1   7  10    0.51    0.05
   1  -7 -10    0.53    0.05
  -1   7  10    0.50    0.05
  -1   7   9    7.04    0.19
   1  -7  -9    6.77    0.17
   1  -7  -9    7.20    0.19
   1  -7  -8    3.36    0.13
   1  -7  -8    3.50    0.14
  -1   7   8    3.41    0.14
   1  -7  -8    3.47    0.14
   1  -7  -7   17.37    0.31
  -1   7   7   17.43    0.33
   1  -7  -7   16.93    0.32
   1  -7  -7   17.49    0.33
   1  -7  -6    0.00    0.04
   1  -7  -6    0.06    0.05
  -1   7   6    0.03    0.04
   1  -7  -5    0.60    0.07
  -1   7   5    0.53    0.06
   1  -7  -5    0.43    0.06
   1  -7  -5    0.51    0.07
   1  -7  -4    1.26    0.09
  -1   7   4    1.33    0.10
   1  -7  -4    1.27    0.09
   1  -7  -4    1.27    0.10
   1  -7  -3   10.83    0.27
   1  -7  -3   11.34    0.25
   1  -7  -3   11.23    0.25
  -1   7   3   11.20    0.25
  -1   7   2   10.61    0.24
   1  -7  -2   10.72    0.25
   1  -7  -2   10.85    0.25
   1  -7  -2   10.48    0.26
   1  -7  -1    0.17    0.05
   1  -7  -1    0.11    0.04
   1  -7  -1    0.11    0.04
   1  -7   0    4.62    0.18
  -1   7   0    4.87    0.18
   1  -7   0    5.06    0.17
   1  -7   1   -0.01    0.03
  -1   7  -1    0.02    0.03
  -1   7  -2   22.36    0.37
   1  -7   2   22.26    0.36
  -1   7  -3    5.18    0.18
   1  -7   3    5.21    0.18
  -1   7  -4   16.68    0.30
   1  -7   4   16.06    0.30
   1  -7   5    4.06    0.15
  -1   7  -5    4.18    0.15
   1  -7   6    2.36    0.11
  -1   7  -6    2.15    0.11
   1  -7   7    0.21    0.03
  -1   7  -7    0.22    0.03
   1  -6 -11    0.00    0.02
  -1   6  11   -0.01    0.02
  -1   6  11   -0.03    0.02
  -1   6  10    0.31    0.04
   1  -6 -10    0.26    0.04
   1  -6 -10    0.24    0.05
  -1   6  10    0.24    0.04
   1  -6  -9    1.97    0.11
  -1   6   9    1.91    0.11
   1  -6  -9    1.99    0.11
  -1   6   9    1.92    0.11
  -1   6   8    0.66    0.07
   1  -6  -8    0.68    0.07
  -1   6   8    0.56    0.07
   1  -6  -8    0.62    0.07
   1  -6  -8    0.61    0.07
   1  -6  -7    8.28    0.23
  -1   6   7    8.72    0.22
   1  -6  -7    8.06    0.22
  -1   6   7    8.19    0.23
   1  -6  -7    7.94    0.23
  -1   6   6    4.48    0.17
   1  -6  -6    4.62    0.17
   1  -6  -6    4.35    0.17
   1  -6  -6    4.48    0.16
   1  -6  -5    0.79    0.08
  -1   6   5    0.81    0.08
   1  -6  -5    0.77    0.07
   1  -6  -5    0.73    0.07
  -1   6   4    1.55    0.10
   1  -6  -4    1.52    0.10
   1  -6  -4    1.53    0.10
   1  -6  -4    1.40    0.09
  -1   6   3    3.63    0.14
   1  -6  -3    3.61    0.15
   1  -6  -3    3.61    0.13
   1  -6  -3    3.69    0.15
   1  -6  -3    3.72    0.14
   1  -6  -2    0.10    0.04
  -1   6   2    0.13    0.03
   1  -6  -2    0.09    0.03
   1  -6  -2    0.08    0.03
   1  -6  -2    0.14    0.03
   1  -6  -1    4.33    0.15
   1  -6  -1    4.45    0.15
  -1   6   1    4.33    0.15
   1  -6  -1    4.36    0.15
   1  -6   0    1.48    0.09
   1  -6   0    1.58    0.10
  -1   6  -1    0.77    0.07
   1  -6   1    0.85    0.07
   1  -6   1    0.82    0.07
   1  -6   2    3.53    0.14
   1  -6   2    3.48    0.15
  -1   6  -2    3.25    0.14
  -1   6  -3    1.28    0.09
   1  -6   3    1.29    0.09
  -1   6  -4    0.14    0.04
   1  -6   4    0.27    0.05
   1  -6   5    0.04    0.03
  -1   6  -5    0.07    0.04
  -1   6  -6    0.13    0.04
   1  -6   6    0.12    0.04
  -1   6  -6    0.11    0.04
  -1   6  -7    1.49    0.09
  -1   6  -7    1.43    0.09
   1  -6   7    1.58    0.09
  -1   6  -8    0.36    0.05
   1  -6   8    0.34    0.04
  -1   6  -9    6.76    0.15
  -1   5  12    0.21    0.03
   1  -5 -12    0.25    0.04
   1  -5 -11    2.96    0.13
  -1   5  11    3.02    0.12
   1  -5 -11    3.11    0.11
  -1   5  10    3.18    0.13
   1  -5 -10    3.28    0.13
  -1   5  10    3.32    0.14
   1  -5 -10    3.21    0.14
   1  -5  -9    0.33    0.05
   1  -5  -9    0.39    0.06
  -1   5   9    0.45    0.06
  -1   5   9    0.35    0.06
   1  -5  -8    0.06    0.04
  -1   5   8    0.10    0.04
   1  -5  -8    0.05    0.03
   1  -5  -7    0.11    0.04
  -1   5   7    0.13    0.04
   1  -5  -7    0.04    0.02
   1  -5  -6   13.59    0.28
   1  -5  -6   13.59    0.27
  -1   5   6   13.54    0.27
   1  -5  -5    0.07    0.03
   1  -5  -5    0.06    0.03
  -1   5   5    0.09    0.03
   1  -5  -4    5.20    0.28
   1  -5  -4    4.89    0.25
  -1   5   4    5.07    0.26
  -1   5   4    4.77    0.26
  -1   5   3    2.28    0.17
  -1   5   3    2.32    0.18
   1  -5  -3    2.49    0.18
  -1   5   2    5.74    0.26
  -1   5   2    5.22    0.25
   1  -5  -2    5.81    0.27
   1  -5  -1    6.85    0.29
  -1   5   1    6.27    0.28
  -1   5   1    6.44    0.28
   1  -5   0    5.25    0.26
  -1   5   0    4.61    0.24
  -1   5   0    5.13    0.25
  -1   5  -1    2.85    0.19
   1  -5   1    2.41    0.18
   1  -5   2    4.79    0.26
  -1   5  -2    4.95    0.26
  -1   5  -3   11.83    0.25
   1  -5   3   11.47    0.25
   1  -5   3   11.75    0.23
  -1   5  -4    0.69    0.06
   1  -5   4    0.64    0.06
   1  -5   5    1.03    0.08
   1  -5   5    1.08    0.08
  -1   5  -5    1.13    0.09
  -1   5  -6    0.29    0.05
   1  -5   6    0.30    0.05
   1  -5   6    0.25    0.04
   1  -5   7    8.60    0.22
   1  -5   7    8.73    0.22
  -1   5  -7    8.86    0.23
  -1   5  -8    0.46    0.06
   1  -5   8    0.56    0.06
  -1   5  -8    0.54    0.06
   1  -5   8    0.43    0.05
  -1   5  -9    0.27    0.04
  -1   5  -9    0.36    0.04
   1  -5   9    0.33    0.04
   1  -5   9    0.33    0.04
  -1   5 -10    2.26    0.09
  -1   4  12    4.88    0.15
   1  -4 -12    4.93    0.15
   1  -4 -12    5.16    0.14
  -1   4  11    1.74    0.10
   1  -4 -11    1.86    0.10
   1  -4 -11    1.69    0.10
   1  -4 -10    6.87    0.21
   1  -4 -10    6.97    0.19
  -1   4  10    6.83    0.21
  -1   4   9    0.13    0.04
   1  -4  -9    0.17    0.04
   1  -4  -9    0.14    0.04
   1  -4  -8    0.12    0.04
   1  -4  -8    0.11    0.03
   1  -4  -8    0.13    0.03
  -1   4   8    0.11    0.04
   1  -4  -7    0.13    0.04
  -1   4   7    0.10    0.03
   1  -4  -7    0.02    0.03
   1  -4  -7    0.07    0.02
  -1   4   6    4.55    0.15
  -1   4   6    3.91    0.24
   1  -4  -6    4.08    0.26
   1  -4  -6    4.25    0.14
   1  -4  -5    3.04    0.21
   1  -4  -5    2.90    0.18
  -1   4   5    2.67    0.19
  -1   4   5    3.14    0.19
  -1   4   4   22.30    0.48
   1  -4  -4   22.50    0.52
  -1   4   4   21.55    0.47
   1  -4  -4   22.65    0.48
  -1   4   3   34.69    0.58
   1  -4  -3   34.56    0.59
  -1   4   3   34.83    0.58
   1  -4  -2   21.56    0.38
   1  -4  -2   21.58    0.43
  -1   4   2   20.27    0.41
  -1   4   2   20.40    0.43
   1  -4  -2   19.72    0.42
   1  -4  -1    8.21    0.27
   1  -4  -1    8.31    0.25
  -1   4   1    7.68    0.26
  -1   4   1    8.05    0.27
  -1   4   0    0.66    0.08
   1  -4   0    0.81    0.10
   1  -4   0    0.78    0.09
   1  -4   0    0.70    0.09
  -1   4   0    0.70    0.08
  -1   4  -1    0.00    0.03
   1  -4   1    0.04    0.04
   1  -4   1    0.02    0.03
   1  -4   1   -0.01    0.03
   1  -4   2   10.50    0.33
   1  -4   2   10.53    0.31
  -1   4  -2    9.96    0.32
  -1   4  -3    4.03    0.21
   1  -4   3    4.47    0.23
   1  -4   4   10.25    0.37
  -1   4  -4    9.85    0.35
   1  -4   5    0.80    0.07
   1  -4   5    0.79    0.06
  -1   4  -5    0.77    0.07
   1  -4   5    0.67    0.10
  -1   4  -5    0.61    0.09
   1  -4   6    2.15    0.11
   1  -4   6    2.26    0.11
  -1   4  -6    2.30    0.12
  -1   4  -7   23.74    0.38
   1  -4   7   24.55    0.38
   1  -4   7   24.47    0.37
   1  -4   8   25.67    0.38
  -1   4  -8   25.10    0.40
  -1   4  -8   26.18    0.39
   1  -4   8   24.81    0.39
   1  -4   9    8.52    0.21
  -1   4  -9    7.65    0.21
   1  -4   9    7.99    0.22
  -1   4  -9    8.55    0.22
   1  -4  10   10.33    0.22
  -1   4 -10   10.53    0.23
   1  -4  10   10.35    0.23
  -1   4 -11    0.34    0.04
   1  -4  11    0.38    0.04
   1  -3 -13    0.98    0.06
   1  -3 -13    0.97    0.06
   1  -3 -12    0.37    0.05
   1  -3 -12    0.34    0.04
  -1   3  12    0.35    0.04
   1  -3 -11    1.56    0.09
  -1   3  11    1.56    0.10
   1  -3 -11    1.64    0.10
   1  -3 -11    1.49    0.10
   1  -3 -10   32.69    0.43
  -1   3  10   33.18    0.46
   1  -3 -10   32.56    0.45
  -1   3   9  110.75    0.83
   1  -3  -9  111.46    0.82
   1  -3  -9  110.04    0.79
   1  -3  -8   16.42    0.30
  -1   3   8   16.56    0.31
   1  -3  -8   16.91    0.29
   1  -3  -7  106.80    1.35
   1  -3  -7  103.15    0.71
  -1   3   7  102.66    1.23
  -1   3   7  104.98    0.73
   1  -3  -7  104.80    0.69
  -1   3   7  105.71    1.21
   1  -3  -6   25.11    0.61
   1  -3  -6   25.66    0.53
  -1   3   6   24.67    0.55
  -1   3   6   25.73    0.53
  -1   3   5   43.83    0.65
  -1   3   5   43.23    0.64
   1  -3  -5   43.16    0.72
   1  -3  -5   44.11    0.64
  -1   3   4   56.90    0.68
   1  -3  -4   56.15    0.75
  -1   3   4   55.61    0.68
   1  -3  -4   57.21    0.68
  -1   3   3  212.52    1.23
   1  -3  -3  217.02    1.04
   1  -3  -3  211.40    1.24
  -1   3   3  213.27    1.25
   1  -3  -3  218.57    1.10
  -1   3   2   12.55    0.28
  -1   3   2   12.80    0.30
   1  -3  -2   12.47    0.24
   1  -3  -2   13.23    0.26
   1  -3  -2   12.48    0.29
   1  -3  -2   13.19    0.30
  -1   3   1    0.01    0.03
   1  -3  -1    0.02    0.03
   1  -3  -1    0.05    0.02
   1  -3  -1    0.04    0.03
   1  -3  -1    0.02    0.04
   1  -3  -1    0.01    0.03
  -1   3   1    0.03    0.03
   1  -3   0    0.64    0.05
   1  -3   0    0.73    0.08
   1  -3   0    0.55    0.07
  -1   3   0    0.69    0.07
   1  -3   0    0.61    0.05
   1  -3   0    0.52    0.07
  -1   3  -1   12.15    0.29
   1  -3   1   12.27    0.30
   1  -3   1   12.21    0.29
   1  -3   1   13.00    0.30
   1  -3   2  185.84    1.23
  -1   3  -2  184.33    1.16
   1  -3   2  182.99    1.11
  -1   3  -3   15.89    0.36
   1  -3   3   17.14    0.38
   1  -3   3   16.58    0.34
   1  -3   4  150.74    1.35
  -1   3  -4  149.12    1.16
   1  -3   5    0.60    0.09
   1  -3   5    0.52    0.09
  -1   3  -5    0.36    0.07
   1  -3   6   12.98    0.42
  -1   3  -6   12.76    0.39
   1  -3   6   13.48    0.48
   1  -3   7   29.56    0.39
  -1   3  -7   28.55    0.40
   1  -3   7   28.56    0.39
  -1   3  -7   29.59    0.40
   1  -3   7   28.48    0.37
  -1   3  -8   63.75    0.61
   1  -3   8   63.75    0.60
   1  -3   8   62.44    0.61
  -1   3  -8   61.99    0.61
   1  -3   8   64.43    0.58
   1  -3   9   39.96    0.49
  -1   3  -9   40.33    0.49
   1  -3   9   38.71    0.49
  -1   3  -9   39.33    0.49
   1  -3  10    0.18    0.04
  -1   3 -10    0.15    0.04
  -1   3 -10    0.17    0.03
   1  -3  10    0.11    0.03
   1  -3  11    0.98    0.07
  -1   3 -11    1.03    0.07
  -1   3 -11    0.90    0.07
   1  -3  12    2.66    0.10
   1  -3  12    2.50    0.10
  -1   3 -12    2.48    0.09
   1  -2 -13    3.29    0.11
   1  -2 -13    3.04    0.10
   1  -2 -12    6.69    0.18
   1  -2 -12    7.10    0.17
   1  -2 -11    0.46    0.06
  -1   2  11    0.48    0.06
   1  -2 -11    0.52    0.05
   1  -2 -11    0.49    0.06
  -1   2  10   18.52    0.34
   1  -2 -10   17.98    0.31
   1  -2 -10   18.34    0.30
   1  -2 -10   17.60    0.33
  -1   2   9    3.43    0.15
   1  -2  -9    3.56    0.14
   1  -2  -9    3.69    0.14
   1  -2  -9    3.55    0.15
   1  -2  -8    0.67    0.06
   1  -2  -8    0.79    0.07
  -1   2   8    0.80    0.07
   1  -2  -8    0.71    0.06
   1  -2  -7   16.22    0.45
  -1   2   7   16.95    0.47
   1  -2  -7   16.82    0.50
  -1   2   7   17.15    0.48
  -1   2   6  102.34    1.04
  -1   2   6  104.78    1.08
  -1   2   5   39.87    0.59
  -1   2   5   38.81    0.57
   1  -2  -5   40.21    0.55
  -1   2   4    0.05    0.03
  -1   2   4    0.10    0.04
   1  -2  -3   65.77    0.52
   1  -2  -3   67.32    0.54
  -1   2   3   64.53    0.62
  -1   2   3   65.55    0.59
   1  -2  -3   67.89    0.64
   1  -2  -2  937.90    2.33
   1  -2  -2  954.08    1.95
  -1   2   2  928.86    2.01
   1  -2  -2  947.06    1.56
   1  -2  -2  937.25    2.21
  -1   2   2  925.60    2.18
   1  -2  -1  629.42    0.86
   1  -2  -1  634.36    1.59
  -1   2   1  631.03    1.57
   1  -2  -1  632.82    1.71
   1  -2  -1  638.04    1.20
   1  -2  -1  634.26    1.81
   1  -2  -1  637.31    1.59
  -1   2   1  634.21    1.69
   1  -2   0  378.13    1.01
   1  -2   0  377.55    0.82
  -1   2   0  375.45    1.28
   1  -2   0  375.84    1.26
   1  -2   0  377.08    1.31
   1  -2   0  376.42    1.34
   1  -2   1   44.77    0.27
  -1   2  -1   45.17    0.28
   1  -2   1   45.74    0.46
   1  -2   1   44.74    0.46
   1  -2   1   45.65    0.47
  -1   2  -1   46.14    0.46
  -1   2  -2  227.94    1.06
   1  -2   2  225.40    1.06
  -1   2  -2  231.79    0.83
   1  -2   2  226.37    1.15
   1  -2   2  226.46    1.07
   1  -2   2  230.18    1.16
  -1   2  -3   58.66    0.52
   1  -2   3   57.65    0.65
   1  -2   3   57.14    0.58
  -1   2  -3   57.70    0.57
   1  -2   3   57.37    0.56
   1  -2   4  200.49    1.19
  -1   2  -4  197.86    1.12
   1  -2   4  193.86    1.35
   1  -2   4  204.84    1.09
   1  -2   5   27.54    0.49
  -1   2  -5   28.60    0.48
  -1   2  -5   27.60    0.46
   1  -2   5   27.41    0.56
   1  -2   6    0.77    0.09
  -1   2  -6    0.66    0.08
  -1   2  -6    0.43    0.08
   1  -2   6    0.75    0.11
  -1   2  -7   -0.04    0.05
   1  -2   7    0.05    0.05
   1  -2   8   17.68    0.31
  -1   2  -8   17.15    0.31
   1  -2   8   17.58    0.31
  -1   2  -8   17.40    0.31
  -1   2  -9    3.74    0.15
   1  -2   9    3.75    0.15
  -1   2  -9    3.62    0.15
   1  -2   9    3.60    0.15
   1  -2  10    3.26    0.14
  -1   2 -10    3.52    0.15
  -1   2 -10    3.42    0.15
   1  -2  10    3.26    0.15
   1  -2  11   12.99    0.28
  -1   2 -11   12.92    0.27
  -1   2 -11   13.32    0.27
   1  -2  12   -0.02    0.03
   1  -2  12    0.04    0.03
  -1   2 -12    0.04    0.02
  -1   2 -12    0.04    0.02
   1  -1 -13    1.47    0.07
   1  -1 -13    1.20    0.07
   1  -1 -12    1.17    0.07
  -1   1  12    1.09    0.08
   1  -1 -12    1.31    0.08
  -1   1  12    1.31    0.08
   1  -1 -11    0.55    0.06
  -1   1  11    0.37    0.06
   1  -1 -11    0.43    0.05
  -1   1  11    0.50    0.06
   1  -1 -11    0.48    0.06
   1  -1 -10    3.23    0.15
  -1   1  10    3.22    0.14
   1  -1 -10    3.39    0.13
   1  -1  -9    2.24    0.11
  -1   1   9    2.48    0.12
   1  -1  -9    2.50    0.12
  -1   1   9    2.36    0.11
  -1   1   8    0.64    0.06
  -1   1   8    0.64    0.06
   1  -1  -8    0.64    0.06
  -1   1   8    0.62    0.06
   1  -1  -8    0.60    0.06
  -1   1   7   18.07    0.47
  -1   1   7   17.74    0.50
   1  -1  -7   18.14    0.49
  -1   1   6   44.55    0.66
   1  -1  -6   44.84    0.68
  -1   1   6   43.80    0.69
  -1   1   5    4.56    0.20
  -1   1   5    4.50    0.19
   1  -1  -5    4.76    0.18
   1  -1  -5    4.30    0.19
  -1   1   4   39.56    0.50
  -1   1   4   37.98    0.49
   1  -1  -4   38.91    0.50
   1  -1  -4   39.05    0.46
  -1   1   4   38.40    0.50
  -1   1   3   10.07    0.23
  -1   1   3   10.07    0.17
  -1   1   3    9.93    0.21
   1  -1  -3    9.92    0.21
   1  -1  -3   10.01    0.22
   1  -1  -2   48.55    0.41
   1  -1  -2   47.50    0.40
  -1   1   2   48.70    0.39
   1  -1  -2   48.37    0.43
  -1   1   2   49.30    0.44
  -1   1   1    0.44    0.03
   1  -1  -1    0.43    0.04
   1  -1  -1    0.41    0.04
  -1   1   1    0.43    0.03
  -1   1   1    0.46    0.04
   1  -1  -1    0.51    0.04
  -1   1   0    0.04    0.02
  -1   1   0    0.08    0.03
   1  -1   0    0.02    0.02
   1  -1   0    0.07    0.03
  -1   1  -1    0.94    0.05
   1  -1   1    0.97    0.06
   1  -1   1    0.99    0.06
   1  -1   1    0.87    0.05
  -1   1  -2   15.42    0.22
   1  -1   2   15.56    0.25
   1  -1   2   15.61    0.22
   1  -1   2   15.78    0.24
  -1   1  -2   14.75    0.21
   1  -1   2   15.60    0.25
   1  -1   3   60.27    0.56
  -1   1  -3   60.23    0.51
   1  -1   3   58.49    0.50
  -1   1  -3   58.71    0.46
   1  -1   3   57.94    0.53
   1  -1   3   57.63    0.47
  -1   1  -3   57.98    0.30
  -1   1  -4   31.76    0.30
   1  -1   4   32.74    0.48
   1  -1   4   32.01    0.40
  -1   1  -4   32.32    0.38
   1  -1   4   33.34    0.40
  -1   1  -4   33.28    0.44
   1  -1   5   12.20    0.27
  -1   1  -5   11.35    0.30
  -1   1  -5   11.51    0.26
   1  -1   5   11.90    0.27
   1  -1   5   11.49    0.32
  -1   1  -6   26.54    0.51
   1  -1   6   26.10    0.55
  -1   1  -6   27.17    0.43
  -1   1  -7    1.37    0.13
   1  -1   7    1.59    0.15
   1  -1   8    0.41    0.05
  -1   1  -8    0.40    0.05
  -1   1  -8    0.46    0.05
   1  -1   8    0.40    0.05
  -1   1  -9    0.08    0.04
   1  -1   9    0.07    0.04
   1  -1   9    0.11    0.04
  -1   1  -9    0.07    0.03
   1  -1  10    0.55    0.07
   1  -1  10    0.48    0.06
  -1   1 -10    0.48    0.06
  -1   1 -10    0.46    0.06
  -1   1 -11   11.87    0.27
   1  -1  11   11.80    0.27
  -1   1 -11   12.05    0.26
  -1   1 -12    0.10    0.03
   1  -1  12    0.08    0.03
  -1   1 -12    0.13    0.03
  -1   1 -12    0.10    0.03
   1  -1  13    3.30    0.12
  -1   1 -13    3.03    0.10
  -1   1 -13    3.39    0.11
  -1   1 -13    2.81    0.10
   1  -1  13    3.07    0.10
   1   0 -13    0.92    0.06
  -1   0  12    2.51    0.11
   1   0 -12    2.82    0.12
   1   0 -12    2.66    0.11
  -1   0  12    2.77    0.12
  -1   0  12    2.79    0.10
  -1   0  11    1.97    0.10
  -1   0  11    1.90    0.11
   1   0 -11    2.00    0.11
  -1   0  11    1.94    0.11
  -1   0  11    2.01    0.10
  -1   0  10    0.00    0.03
  -1   0  10    0.02    0.03
  -1   0  10   -0.01    0.03
   1   0 -10    0.03    0.04
  -1   0  10    0.04    0.04
  -1   0   9    1.70    0.10
   1   0  -9    1.89    0.10
  -1   0   9    1.44    0.09
  -1   0   9    1.66    0.10
   1   0  -9    1.68    0.10
  -1   0   8    3.20    0.13
  -1   0   8    3.12    0.13
   1   0  -8    3.17    0.13
   1   0  -8    2.93    0.12
  -1   0   7    0.09    0.06
  -1   0   7    0.21    0.06
   1   0  -7    0.18    0.05
  -1   0   6   13.99    0.40
   1   0  -6   13.98    0.40
   1   0  -6   14.21    0.37
  -1   0   6   13.87    0.37
   1   0  -5    8.73    0.27
  -1   0   5    8.22    0.28
   1   0  -5    8.38    0.27
  -1   0   5    8.54    0.26
  -1   0   4   97.58    0.80
  -1   0   4   99.86    0.56
  -1   0   4   99.47    0.82
   1   0  -4   97.39    0.82
  -1   0   3   14.99    0.19
  -1   0   3   15.47    0.27
   1   0  -3   15.02    0.28
  -1   0   3   15.28    0.28
   1   0  -2   16.80    0.25
   1   0  -2   17.30    0.26
  -1   0   2   17.03    0.20
  -1   0   2   17.37    0.26
  -1   0   2   16.70    0.23
  -1   0   2   16.92    0.25
  -1   0   1   51.24    0.26
  -1   0   1   50.19    0.37
   1   0  -1   50.87    0.37
   1   0  -1   52.45    0.29
  -1   0   1   51.42    0.37
  -1   0   1   52.70    0.34
  -1   0   1   51.04    0.30
  -1   0   0    0.27    0.03
  -1   0   0    0.28    0.03
  -1   0   0    0.31    0.02
   1   0   0    0.25    0.02
  -1   0   0    0.28    0.02
  -1   0   0    0.26    0.02
  -1   0   0    0.29    0.03
   1   0   1    6.85    0.11
  -1   0  -1    6.65    0.12
  -1   0  -1    6.35    0.12
  -1   0  -1    6.56    0.10
  -1   0  -1    6.69    0.08
  -1   0  -1    6.43    0.07
   1   0   1    6.81    0.09
   1   0   1    6.25    0.12
  -1   0  -1    6.34    0.12
   1   0   1    6.77    0.09
   1   0   2   77.27    0.44
  -1   0  -2   77.37    0.48
  -1   0  -2   76.55    0.31
  -1   0  -2   76.59    0.39
   1   0   2   76.52    0.47
  -1   0  -2   75.96    0.38
   1   0   2   77.49    0.31
   1   0   2   76.41    0.41
  -1   0  -3    6.60    0.11
  -1   0  -3    6.28    0.11
   1   0   3    6.32    0.15
   1   0   3    6.44    0.12
  -1   0  -3    6.51    0.14
  -1   0  -3    6.38    0.16
   1   0   3    6.39    0.16
   1   0   3    6.37    0.14
   1   0   3    6.50    0.09
  -1   0  -4    3.52    0.12
  -1   0  -4    3.28    0.10
   1   0   4    3.23    0.13
   1   0   4    3.34    0.14
  -1   0  -4    3.47    0.14
   1   0   4    3.53    0.09
  -1   0  -4    3.41    0.07
   1   0   4    3.49    0.11
   1   0   5   76.99    0.68
  -1   0  -5   83.07    0.68
  -1   0  -5   76.40    0.75
   1   0   5   77.73    0.77
  -1   0  -5   78.65    0.57
   1   0   5   81.00    0.61
  -1   0  -6   53.24    0.62
   1   0   6   52.43    0.62
   1   0   7   44.80    0.75
  -1   0  -7   44.96    0.72
   1   0   8   29.28    0.68
  -1   0  -8   28.31    0.64
  -1   0  -9    1.06    0.08
   1   0   9    1.06    0.08
   1   0   9    1.13    0.08
  -1   0  -9    1.14    0.08
  -1   0 -10    0.06    0.03
   1   0  10    0.02    0.03
   1   0  10    0.06    0.03
  -1   0 -10   -0.02    0.03
  -1   0 -11    2.48    0.12
  -1   0 -11    2.27    0.12
   1   0  11    2.46    0.13
  -1   0 -11    2.66    0.12
  -1   0 -12    1.18    0.08
  -1   0 -12    1.30    0.09
   1   0  12    1.33    0.09
  -1   0 -12    1.23    0.08
   1   0  13    1.76    0.08
  -1   0 -13    1.84    0.08
   1   0  13    2.10    0.10
  -1   0 -13    1.86    0.09
  -1   0 -13    1.93    0.09
  -1  -1  12    0.64    0.05
  -1  -1  12    0.61    0.06
   1   1 -12    0.59    0.06
   1   1 -12    0.59    0.05
   1   1 -11    0.05    0.03
  -1  -1  11    0.06    0.03
  -1  -1  11    0.04    0.03
  -1  -1  11    0.04    0.03
  -1  -1  11    0.01    0.03
   1   1 -10    1.85    0.11
  -1  -1  10    1.76    0.11
  -1  -1  10    1.96    0.11
  -1  -1  10    2.00    0.11
  -1  -1  10    1.93    0.12
  -1  -1   9    8.65    0.22
  -1  -1   9    8.30    0.22
  -1  -1   9    8.43    0.24
  -1  -1   9    8.66    0.23
   1   1  -9    8.70    0.23
  -1  -1   8    0.03    0.03
  -1  -1   8    0.00    0.02
   1   1  -8    0.04    0.03
  -1  -1   8    0.02    0.03
  -1  -1   7    2.23    0.19
   1   1  -7    2.09    0.17
   1   1  -7    2.24    0.18
   1   1  -6    2.57    0.18
   1   1  -6    2.51    0.18
  -1  -1   6    2.35    0.18
  -1  -1   6    2.71    0.17
  -1  -1   5   64.82    0.76
  -1  -1   5   63.22    0.81
   1   1  -5   61.94    0.78
   1   1  -5   62.99    0.78
  -1  -1   5   65.05    0.78
  -1  -1   4   31.18    0.48
   1   1  -4   31.23    0.49
  -1  -1   4   31.73    0.51
  -1  -1   4   31.59    0.49
   1   1  -4   31.28    0.50
   1   1  -3   81.03    0.69
  -1  -1   3   80.88    0.71
  -1  -1   3   81.12    0.69
  -1  -1   3   78.92    0.69
  -1  -1   2   36.00    0.41
   1   1  -2   35.72    0.40
  -1  -1   2   35.04    0.40
  -1  -1   1   26.18    0.31
  -1  -1   1   26.88    0.28
  -1  -1   1   26.12    0.33
   1   1  -1   27.12    0.29
  -1  -1   1   26.35    0.30
  -1  -1   1   26.75    0.30
   1   1   0    2.15    0.07
  -1  -1   0    2.09    0.07
  -1  -1   0    2.08    0.08
   1   1   0    2.14    0.07
  -1  -1   0    2.03    0.08
   1   1   0    2.10    0.05
  -1  -1  -1    0.62    0.05
   1   1   1    0.63    0.04
  -1  -1  -1    0.65    0.03
   1   1   1    0.64    0.03
   1   1   1    0.60    0.04
   1   1   1    0.67    0.03
   1   1   2    0.21    0.01
  -1  -1  -2    0.20    0.03
  -1  -1  -2    0.22    0.03
   1   1   2    0.21    0.03
   1   1   2    0.21    0.04
  -1  -1  -2    0.22    0.04
  -1  -1  -2    0.22    0.03
  -1  -1  -3   50.25    0.47
  -1  -1  -3   50.03    0.40
   1   1   3   49.26    0.44
  -1  -1  -3   48.80    0.42
  -1  -1  -3   49.48    0.45
   1   1   3   50.02    0.45
  -1  -1  -4    0.14    0.04
   1   1   4   -0.01    0.03
  -1  -1  -4   -0.01    0.02
   1   1   4    0.10    0.04
  -1  -1  -4    0.03    0.03
  -1  -1  -4    0.01    0.02
   1   1   5   24.85    0.42
  -1  -1  -5   24.24    0.42
  -1  -1  -5   26.23    0.43
  -1  -1  -5   26.32    0.36
  -1  -1  -5   26.51    0.36
   1   1   5   25.12    0.40
   1   1   6    5.76    0.23
   1   1   6    5.92    0.22
  -1  -1  -6    6.14    0.20
  -1  -1  -6    5.37    0.22
  -1  -1  -6    6.14    0.23
   1   1   7   24.66    0.54
  -1  -1  -7   25.90    0.52
   1   1   7   23.98    0.47
  -1  -1  -7   25.81    0.54
   1   1   8    5.05    0.28
  -1  -1  -8    5.01    0.26
  -1  -1  -9    0.46    0.05
   1   1   9    0.45    0.05
   1   1   9    0.46    0.06
   1   1   9    0.54    0.05
  -1  -1  -9    0.52    0.06
  -1  -1 -10    2.25    0.11
  -1  -1 -10    2.19    0.12
  -1  -1 -10    2.23    0.12
   1   1  10    2.38    0.12
  -1  -1 -11    1.23    0.09
  -1  -1 -11    1.10    0.08
  -1  -1 -11    1.25    0.09
   1   1  11    1.21    0.09
   1   1  12    2.86    0.13
  -1  -1 -12    2.91    0.13
  -1  -1 -12    2.86    0.13
  -1  -1 -13    0.52    0.05
   1   1  13    0.52    0.05
  -1  -1 -13    0.61    0.06
  -1  -1 -13    0.52    0.05
   1   2 -12    0.88    0.06
   1   2 -12    0.81    0.06
  -1  -2  12    0.88    0.06
  -1  -2  12    0.85    0.06
  -1  -2  11    0.24    0.04
  -1  -2  11    0.27    0.04
   1   2 -11    0.20    0.04
  -1  -2  11    0.25    0.04
  -1  -2  10    5.98    0.19
  -1  -2  10    5.73    0.18
  -1  -2  10    5.77    0.18
  -1  -2  10    5.45    0.18
   1   2 -10    5.68    0.19
  -1  -2   9    2.13    0.12
  -1  -2   9    2.13    0.12
   1   2  -9    2.02    0.12
  -1  -2   9    2.20    0.12
  -1  -2   9    2.12    0.12
  -1  -2   8    3.59    0.15
   1   2  -8    3.64    0.15
  -1  -2   8    3.90    0.15
  -1  -2   8    3.66    0.15
  -1  -2   7    5.75    0.18
  -1  -2   7    5.63    0.17
  -1  -2   7    5.71    0.18
  -1  -2   7    5.64    0.17
   1   2  -7    5.75    0.18
  -1  -2   6    0.08    0.04
  -1  -2   6    0.02    0.05
   1   2  -6    0.01    0.04
   1   2  -6    0.03    0.04
   1   2  -6    0.05    0.05
   1   2  -5    0.10    0.05
   1   2  -5    0.16    0.05
  -1  -2   5    0.13    0.04
  -1  -2   5    0.03    0.05
   1   2  -4   19.33    0.40
  -1  -2   4   20.33    0.46
  -1  -2   4   19.89    0.43
   1   2  -3    1.30    0.10
  -1  -2   3    1.41    0.11
  -1  -2   3    1.17    0.10
  -1  -2   2   11.18    0.27
  -1  -2   2   11.62    0.27
   1   2  -2   11.94    0.25
  -1  -2   2   11.39    0.28
  -1  -2   1    0.10    0.04
  -1  -2   1    0.14    0.04
   1   2  -1    0.11    0.03
   1   2  -1    0.26    0.04
  -1  -2   1    0.14    0.05
  -1  -2   1    0.13    0.04
   1   2   0   29.54    0.31
  -1  -2   0   29.34    0.33
   1   2   0   29.49    0.30
  -1  -2   0   29.45    0.37
  -1  -2   0   29.40    0.36
   1   2   1    9.45    0.16
  -1  -2  -1    9.74    0.21
  -1  -2  -1    9.21    0.16
   1   2   1    9.69    0.20
  -1  -2  -1    9.65    0.21
  -1  -2  -1    9.04    0.21
  -1  -2  -2   21.48    0.22
   1   2   2   21.43    0.14
  -1  -2  -2   21.85    0.31
   1   2   2   21.21    0.30
   1   2   2   22.61    0.22
  -1  -2  -2   22.16    0.32
  -1  -2  -2   22.10    0.34
  -1  -2  -2   23.04    0.34
  -1  -2  -3   27.75    0.24
  -1  -2  -3   27.53    0.41
  -1  -2  -3   26.27    0.34
  -1  -2  -3   26.71    0.35
  -1  -2  -3   27.34    0.40
   1   2   3   26.72    0.37
   1   2   3   27.66    0.24
  -1  -2  -4    1.87    0.07
  -1  -2  -4    1.69    0.10
  -1  -2  -4    1.71    0.12
   1   2   4    1.58    0.10
  -1  -2  -4    1.89    0.08
   1   2   4    1.60    0.10
   1   2   4    1.75    0.07
  -1  -2  -4    1.88    0.10
  -1  -2  -5    4.02    0.17
  -1  -2  -5    3.94    0.19
   1   2   5    4.35    0.18
  -1  -2  -5    4.20    0.15
   1   2   5    3.85    0.17
  -1  -2  -6    2.90    0.18
  -1  -2  -6    2.49    0.15
   1   2   6    2.78    0.16
   1   2   6    2.69    0.16
  -1  -2  -7   18.46    0.45
  -1  -2  -7   18.81    0.48
   1   2   7   19.61    0.46
   1   2   7   19.00    0.48
  -1  -2  -8    0.47    0.09
  -1  -2  -8    0.36    0.07
   1   2   8    0.45    0.09
   1   2   8    0.34    0.06
  -1  -2  -9    0.74    0.07
   1   2   9    0.63    0.06
  -1  -2  -9    0.77    0.06
   1   2   9    0.80    0.08
  -1  -2  -9    0.72    0.06
   1   2  10    3.86    0.14
  -1  -2 -10    3.91    0.15
  -1  -2 -10    3.90    0.14
   1   2  10    4.02    0.16
  -1  -2 -10    3.73    0.15
   1   2  11    1.05    0.08
  -1  -2 -11    1.19    0.09
  -1  -2 -11    1.10    0.08
   1   2  11    1.11    0.09
  -1  -2 -12    0.29    0.05
  -1  -2 -12    0.21    0.04
  -1  -2 -12    0.26    0.04
  -1  -2 -13    1.10    0.07
  -1  -2 -13    1.19    0.08
  -1  -2 -13    1.25    0.07
  -1  -3  11    1.17    0.07
  -1  -3  11    1.04    0.07
   1   3 -11    1.08    0.07
  -1  -3  11    1.11    0.07
  -1  -3  10    0.20    0.04
   1   3 -10    0.14    0.04
  -1  -3  10    0.14    0.04
  -1  -3  10    0.16    0.04
  -1  -3   9   16.68    0.31
   1   3  -9   16.69    0.33
  -1  -3   9   16.46    0.32
  -1  -3   9   16.71    0.31
  -1  -3   8    0.07    0.04
  -1  -3   8   -0.02    0.03
  -1  -3   8   -0.05    0.03
   1   3  -8    0.15    0.04
  -1  -3   8    0.02    0.03
  -1  -3   7    1.34    0.09
  -1  -3   7    1.37    0.09
   1   3  -7    1.41    0.10
  -1  -3   7    1.31    0.09
  -1  -3   7    1.37    0.09
  -1  -3   6    0.43    0.05
   1   3  -6    0.40    0.08
  -1  -3   6    0.53    0.06
  -1  -3   6    0.46    0.05
  -1  -3   6    0.43    0.05
   1   3  -6    0.49    0.06
  -1  -3   5   23.87    0.58
  -1  -3   5   23.09    0.61
  -1  -3   5   23.05    0.58
   1   3  -5   24.79    0.55
   1   3  -5   22.36    0.52
   1   3  -4    0.00    0.04
   1   3  -4    0.09    0.05
  -1  -3   4   -0.02    0.04
  -1  -3   4    0.01    0.03
   1   3  -3    3.35    0.18
  -1  -3   3    3.49    0.19
   1   3  -3    3.38    0.16
  -1  -3   3    3.37    0.18
   1   3  -2    3.93    0.15
   1   3  -2    3.49    0.16
  -1  -3   2    3.50    0.17
  -1  -3   2    3.51    0.17
   1   3  -1   86.73    0.73
  -1  -3   1   87.01    0.83
  -1  -3   1   85.71    0.77
   1   3   0    2.28    0.09
  -1  -3   0    2.13    0.12
  -1  -3   0    1.90    0.11
   1   3   0    2.24    0.11
  -1  -3   0    1.93    0.12
  -1  -3   0    2.03    0.11
  -1  -3  -1   72.85    0.70
  -1  -3  -1   71.09    0.58
   1   3   1   72.18    0.67
   1   3   1   72.95    0.48
  -1  -3  -1   72.54    0.70
   1   3   1   73.30    0.57
  -1  -3  -1   72.53    0.65
  -1  -3  -2    0.55    0.05
   1   3   2    0.40    0.06
  -1  -3  -2    0.41    0.06
   1   3   2    0.41    0.05
  -1  -3  -2    0.33    0.06
  -1  -3  -2    0.33    0.06
  -1  -3  -2    0.32    0.06
   1   3   3   24.16    0.30
   1   3   3   23.50    0.40
  -1  -3  -3   23.40    0.44
  -1  -3  -3   24.00    0.42
  -1  -3  -3   24.24    0.40
  -1  -3  -3   24.15    0.31
  -1  -3  -4    3.04    0.17
  -1  -3  -4    2.95    0.14
  -1  -3  -4    3.10    0.13
   1   3   4    2.95    0.16
  -1  -3  -4    3.16    0.17
  -1  -3  -5   54.27    0.77
  -1  -3  -5   55.33    0.63
   1   3   5   53.48    0.70
  -1  -3  -6    6.65    0.29
   1   3   6    6.12    0.26
   1   3   6    5.97    0.25
  -1  -3  -6    6.60    0.24
   1   3   7    1.35    0.14
   1   3   7    1.32    0.13
  -1  -3  -7    1.16    0.14
  -1  -3  -7    1.25    0.12
  -1  -3  -8    0.06    0.03
  -1  -3  -8    0.17    0.06
  -1  -3  -8    0.08    0.03
   1   3   8    0.05    0.04
  -1  -3  -8    0.06    0.06
   1   3   8    0.15    0.04
  -1  -3  -9    5.56    0.17
  -1  -3  -9    5.78    0.17
   1   3   9    5.51    0.18
  -1  -3  -9    5.78    0.18
  -1  -3 -10    5.79    0.18
  -1  -3 -10    5.60    0.18
   1   3  10    5.95    0.20
  -1  -3 -10    5.56    0.18
  -1  -3 -11    8.46    0.22
   1   3  11    8.57    0.23
  -1  -3 -11    8.46    0.22
  -1  -3 -11    8.42    0.22
  -1  -3 -12    3.87    0.14
  -1  -3 -12    3.86    0.14
  -1  -3 -12    3.83    0.15
   1   3  12    3.86    0.15
   1   3  13   12.43    0.23
  -1  -3 -13   12.53    0.23
  -1  -3 -13   12.83    0.23
  -1  -4  10    5.09    0.15
   1   4 -10    5.52    0.16
  -1  -4  10    5.43    0.15
  -1  -4  10    5.41    0.15
  -1  -4   9    1.91    0.10
   1   4  -9    1.71    0.10
  -1  -4   9    1.83    0.10
  -1  -4   9    1.79    0.10
  -1  -4   8    1.81    0.10
   1   4  -8    1.85    0.11
  -1  -4   8    1.87    0.11
  -1  -4   8    1.89    0.10
   1   4  -7   19.93    0.36
  -1  -4   7   19.43    0.35
  -1  -4   7   19.96    0.33
   1   4  -6   57.57    0.59
  -1  -4   6   58.27    0.54
  -1  -4   6   56.94    0.57
  -1  -4   6   57.75    0.54
  -1  -4   5  106.61    0.74
  -1  -4   5  104.84    0.69
  -1  -4   4   30.34    0.67
   1   4  -4   31.45    0.64
   1   4  -3    1.50    0.13
  -1  -4   3    1.56    0.14
  -1  -4   3    1.29    0.13
  -1  -4   2    6.59    0.26
   1   4  -2    6.80    0.26
  -1  -4   2    6.34    0.26
   1   4  -1  200.65    1.31
  -1  -4   1  199.62    1.38
  -1  -4   1  202.52    1.33
  -1  -4   0   27.09    0.47
  -1  -4   0   28.85    0.53
  -1  -4   0   27.41    0.47
   1   4   0   28.00    0.46
  -1  -4  -1   84.09    0.90
  -1  -4  -1   81.75    0.80
  -1  -4  -1   82.58    0.78
   1   4   1   84.14    0.86
  -1  -4  -1   84.86    0.88
   1   4   1   82.72    0.75
  -1  -4  -2   11.67    0.30
  -1  -4  -2   12.08    0.33
  -1  -4  -2   11.69    0.28
   1   4   2   11.56    0.27
  -1  -4  -2   11.58    0.33
   1   4   2   11.21    0.32
  -1  -4  -3    4.22    0.22
  -1  -4  -3    4.47    0.20
   1   4   3    4.25    0.20
  -1  -4  -3    4.79    0.22
   1   4   4    7.15    0.27
  -1  -4  -4    7.32    0.28
  -1  -4  -4    7.01    0.29
  -1  -4  -4    7.70    0.27
  -1  -4  -5   14.43    0.41
   1   4   5   13.07    0.38
  -1  -4  -5   13.58    0.43
  -1  -4  -6  135.41    1.44
  -1  -4  -6  139.68    1.37
   1   4   6  135.57    1.32
   1   4   6  135.50    1.32
   1   4   7   18.61    0.52
  -1  -4  -7   17.53    0.52
   1   4   7   17.03    0.50
  -1  -4  -7   18.29    0.56
  -1  -4  -7   17.77    0.28
   1   4   7   18.58    0.30
  -1  -4  -8   15.56    0.28
   1   4   8   15.60    0.30
  -1  -4  -8   15.19    0.28
  -1  -4  -8   15.38    0.28
  -1  -4  -9    1.39    0.09
  -1  -4  -9    1.24    0.09
   1   4   9    1.19    0.09
  -1  -4  -9    1.16    0.08
   1   4  10   35.96    0.48
  -1  -4 -10   36.97    0.46
  -1  -4 -10   35.84    0.46
  -1  -4 -10   37.35    0.46
   1   4  11   40.85    0.50
  -1  -4 -11   41.04    0.48
  -1  -4 -11   41.19    0.49
  -1  -4 -12   21.77    0.33
  -1  -4 -12   21.63    0.32
   1   4  12   21.62    0.34
  -1  -4 -12   21.79    0.34
  -1  -4 -13   15.13    0.24
   1   4  13   15.21    0.25
  -1  -5   9    7.41    0.17
  -1  -5   9    7.85    0.19
   1   5  -9    7.60    0.19
  -1  -5   8    0.14    0.04
  -1  -5   8    0.19    0.04
   1   5  -8    0.18    0.04
  -1  -5   7    3.04    0.12
  -1  -5   7    3.08    0.14
   1   5  -7    2.93    0.14
   1   5  -6   84.59    0.74
  -1  -5   6   85.10    0.73
  -1  -5   5   15.51    0.30
  -1  -5   4   98.40    0.74
  -1  -5   4   95.20    0.74
  -1  -5   3   17.32    0.29
  -1  -5   3   17.33    0.30
   1   5  -2    0.54    0.09
  -1  -5   2    0.65    0.11
   1   5  -1    7.78    0.31
  -1  -5   1    7.61    0.32
   1   5   0   42.50    0.67
  -1  -5   0   45.10    0.76
   1   5   0   45.30    0.76
  -1  -5   0   42.35    0.70
   1   5   1   25.39    0.49
   1   5   1   27.78    0.58
  -1  -5  -1   25.81    0.56
  -1  -5  -1   25.95    0.52
  -1  -5  -1   28.26    0.53
  -1  -5  -2    1.35    0.11
   1   5   2    1.32    0.11
   1   5   2    1.31    0.13
  -1  -5  -2    1.63    0.14
  -1  -5  -2    1.68    0.13
  -1  -5  -3    0.68    0.10
   1   5   3    0.53    0.09
  -1  -5  -4    0.00    0.05
   1   5   4    0.02    0.05
  -1  -5  -5    7.91    0.36
  -1  -5  -5    7.63    0.34
   1   5   5    7.65    0.33
  -1  -5  -6    7.01    0.33
  -1  -5  -6    7.55    0.19
  -1  -5  -6    7.25    0.19
   1   5   6    7.36    0.19
  -1  -5  -6    7.53    0.19
  -1  -5  -7   24.74    0.37
   1   5   7   25.24    0.37
  -1  -5  -7   25.50    0.36
  -1  -5  -7   24.95    0.36
  -1  -5  -8   15.40    0.29
  -1  -5  -8   15.26    0.29
  -1  -5  -8   15.18    0.29
   1   5   8   15.59    0.30
  -1  -5  -8   15.76    0.30
  -1  -5  -9    0.12    0.04
   1   5   9    0.12    0.04
  -1  -5  -9    0.13    0.04
  -1  -5  -9    0.17    0.04
  -1  -5 -10    3.20    0.14
  -1  -5 -10    3.44    0.14
   1   5  10    3.40    0.15
  -1  -5 -11   23.61    0.35
  -1  -5 -11   23.74    0.36
   1   5  11   23.45    0.37
  -1  -5 -12   33.55    0.39
  -1  -5 -12   33.93    0.39
   1   5  12   33.54    0.40
  -1  -5 -13    6.53    0.15
   1   5  13    6.16    0.15
   1   6  -8    9.55    0.21
  -1  -6   8    9.82    0.20
   1   6  -7    0.00    0.03
  -1  -6   7    0.05    0.03
   1   6  -6    5.29    0.18
  -1  -6   6    5.47    0.18
  -1  -6   5   -0.01    0.04
  -1  -6   4    6.50    0.20
  -1  -6   3    3.61    0.15
  -1  -6   3    3.66    0.15
  -1  -6   2    2.49    0.12
  -1  -6   2    2.60    0.12
  -1  -6   1    1.95    0.10
  -1  -6   1    2.11    0.11
  -1  -6   1    2.19    0.11
  -1  -6   0    0.22    0.04
  -1  -6   0    0.19    0.04
  -1  -6   0    0.23    0.04
  -1  -6  -1   28.75    0.37
  -1  -6  -1   28.38    0.37
  -1  -6  -1   27.97    0.38
  -1  -6  -2    9.55    0.21
  -1  -6  -2    9.38    0.22
  -1  -6  -2    9.82    0.22
  -1  -6  -2    9.93    0.22
  -1  -6  -3    3.83    0.14
  -1  -6  -3    3.52    0.14
  -1  -6  -3    3.65    0.14
  -1  -6  -3    3.63    0.13
  -1  -6  -3    3.47    0.14
  -1  -6  -4    0.00    0.02
  -1  -6  -4    0.03    0.02
  -1  -6  -4    0.03    0.03
  -1  -6  -4   -0.02    0.03
  -1  -6  -4   -0.06    0.04
  -1  -6  -5    0.10    0.04
  -1  -6  -5    0.11    0.03
  -1  -6  -5    0.15    0.04
  -1  -6  -5    0.08    0.03
  -1  -6  -6    1.87    0.11
  -1  -6  -6    1.91    0.10
  -1  -6  -6    1.89    0.10
  -1  -6  -6    1.90    0.11
  -1  -6  -7    1.14    0.09
  -1  -6  -7    1.17    0.08
   1   6   7    1.24    0.09
  -1  -6  -7    1.05    0.08
  -1  -6  -8    7.76    0.22
  -1  -6  -8    7.68    0.22
  -1  -6  -8    7.50    0.22
   1   6   8    8.13    0.22
  -1  -6  -9    0.48    0.06
  -1  -6  -9    0.44    0.06
  -1  -6  -9    0.32    0.05
   1   6  10    0.03    0.03
  -1  -6 -10    0.01    0.03
  -1  -6 -10    0.02    0.03
  -1  -6 -11   -0.04    0.03
   1   6  11    0.03    0.03
  -1  -6 -11    0.02    0.03
  -1  -6 -12    0.06    0.02
  -1  -6 -12    0.03    0.02
   1   6  12    0.01    0.02
   1   6  12    0.03    0.02
   1   7  -7   10.18    0.20
  -1  -7   7   10.71    0.20
   1   7  -6    4.36    0.15
  -1  -7   6    4.70    0.15
   1   7  -5    5.13    0.17
  -1  -7   5    5.70    0.18
  -1  -7   4   22.18    0.36
  -1  -7   3   26.23    0.40
  -1  -7   2   20.84    0.36
  -1  -7   2   21.86    0.35
  -1  -7   1   -0.03    0.03
  -1  -7   1    0.03    0.03
  -1  -7   0    1.01    0.08
  -1  -7   0    1.17    0.08
  -1  -7   0    1.02    0.08
  -1  -7  -1    9.52    0.23
  -1  -7  -1   10.27    0.24
  -1  -7  -1    9.88    0.24
  -1  -7  -2    6.25    0.19
  -1  -7  -2    6.11    0.19
  -1  -7  -2    6.13    0.18
  -1  -7  -3    0.42    0.06
  -1  -7  -3    0.38    0.06
  -1  -7  -3    0.40    0.05
  -1  -7  -4    0.76    0.08
  -1  -7  -4    0.89    0.07
  -1  -7  -4    0.82    0.07
  -1  -7  -5    1.12    0.09
   1   7   5    1.29    0.09
  -1  -7  -5    1.06    0.09
  -1  -7  -5    1.11    0.08
  -1  -7  -5    1.11    0.08
  -1  -7  -6    3.35    0.15
   1   7   6    3.23    0.14
  -1  -7  -6    3.25    0.13
  -1  -7  -6    3.28    0.14
  -1  -7  -6    3.10    0.14
  -1  -7  -7    0.84    0.08
  -1  -7  -7    0.95    0.08
  -1  -7  -7    0.70    0.07
  -1  -7  -8    1.20    0.09
  -1  -7  -8    1.13    0.09
  -1  -7  -8    1.16    0.09
  -1  -7  -9   21.28    0.34
  -1  -7  -9   20.73    0.34
  -1  -7  -9   21.68    0.33
   1   7  10    0.86    0.07
  -1  -7 -10    0.95    0.07
   1   7  10    1.01    0.07
  -1  -7 -10    0.90    0.07
  -1  -7 -11    1.47    0.08
   1   7  11    1.60    0.08
   1   7  11    1.63    0.08
  -1  -7 -11    1.56    0.08
   1   8  -5    3.76    0.12
  -1  -8   5    3.82    0.12
   1   8  -4    0.72    0.06
  -1  -8   4    0.85    0.07
  -1  -8   3    0.91    0.07
  -1  -8   2    7.42    0.20
  -1  -8   1   13.72    0.28
  -1  -8   0    1.61    0.10
  -1  -8  -1   13.20    0.28
  -1  -8  -2    5.48    0.18
  -1  -8  -3    0.11    0.04
  -1  -8  -3    0.07    0.03
  -1  -8  -3    0.05    0.03
  -1  -8  -4    0.87    0.07
  -1  -8  -4    0.95    0.09
  -1  -8  -5    0.17    0.05
  -1  -8  -5    0.14    0.04
  -1  -8  -5    0.11    0.03
   1   8   6    5.41    0.17
  -1  -8  -6    5.16    0.16
  -1  -8  -6    5.27    0.16
  -1  -8  -6    5.29    0.18
  -1  -8  -7    1.46    0.10
   1   8   7    1.39    0.09
  -1  -8  -7    1.32    0.08
  -1  -8  -8    0.55    0.05
   1   8   8    0.56    0.06
  -1  -8  -8    0.49    0.06
   1   8   9    0.44    0.05
  -1  -8  -9    0.41    0.05
   1   8  10   15.06    0.23
  -1  -9   2    0.07    0.02
  -1  -9   1    1.91    0.09
  -1  -9   0    0.06    0.03
  -1  -9  -1    0.37    0.05
  -1  -9  -2   -0.03    0.03
  -1  -9  -3    6.29    0.17
  -1  -9  -4    0.43    0.05
  -1  -9  -4    0.42    0.05
  -1  -9  -5    0.22    0.04
  -1  -9  -5    0.28    0.05
  -1  -9  -6    0.53    0.06
  -1  -9  -7    1.73    0.09
  -2   9   4    0.05    0.03
   2  -9  -4    0.11    0.03
  -2   9   3    0.78    0.06
   2  -9  -3    0.75    0.06
   2  -9  -2    1.22    0.07
  -2   9   2    1.29    0.08
  -2   9   1    0.27    0.04
   2  -9  -1    0.29    0.04
  -2   9   0    5.13    0.14
   2  -9   0    4.91    0.13
  -2   9  -1    0.66    0.05
   2  -9   1    0.60    0.05
  -2   8   7    0.50    0.05
   2  -8  -7    0.48    0.05
   2  -8  -6    2.76    0.11
  -2   8   6    2.72    0.11
   2  -8  -5   -0.03    0.03
  -2   8   5    0.04    0.03
   2  -8  -4   -0.02    0.03
  -2   8   4   -0.03    0.04
   2  -8  -3    0.48    0.05
  -2   8   3    0.50    0.06
   2  -8  -3    0.42    0.05
   2  -8  -2    8.41    0.21
  -2   8   2    8.62    0.23
  -2   8   2    8.88    0.21
   2  -8  -2    8.30    0.21
  -2   8   1    0.41    0.06
   2  -8  -1    0.36    0.05
   2  -8  -1    0.33    0.05
  -2   8   1    0.36    0.05
  -2   8   0    0.46    0.06
   2  -8   0    0.45    0.05
  -2   8  -1    0.63    0.07
   2  -8   1    0.63    0.06
   2  -8   2    3.12    0.12
  -2   8  -2    3.15    0.13
  -2   8  -3    1.16    0.08
   2  -8   3    1.11    0.07
  -2   8  -4    0.51    0.05
   2  -8   4    0.49    0.05
   2  -7  -9    0.16    0.03
   2  -7  -9    0.13    0.03
  -2   7   9    0.10    0.03
   2  -7  -8    2.16    0.10
  -2   7   8    2.25    0.11
   2  -7  -8    2.21    0.11
   2  -7  -7    0.00    0.03
   2  -7  -7    0.02    0.03
  -2   7   7    0.00    0.03
   2  -7  -6    1.82    0.11
   2  -7  -6    1.84    0.11
   2  -7  -6    1.93    0.11
  -2   7   6    1.78    0.11
   2  -7  -5    0.08    0.04
   2  -7  -5    0.07    0.04
   2  -7  -5    0.08    0.04
  -2   7   5    0.11    0.04
   2  -7  -4    4.48    0.17
   2  -7  -4    4.78    0.17
   2  -7  -4    4.27    0.17
  -2   7   4    4.72    0.17
  -2   7   3    0.91    0.08
   2  -7  -3    0.92    0.08
   2  -7  -3    0.77    0.08
   2  -7  -3    0.94    0.08
   2  -7  -2   37.47    0.49
  -2   7   2   38.35    0.47
   2  -7  -2   37.08    0.46
   2  -7  -2   37.80    0.47
  -2   7   1   13.34    0.30
   2  -7  -1   13.58    0.29
  -2   7   1   14.07    0.28
   2  -7  -1   13.82    0.28
   2  -7   0   15.43    0.31
  -2   7   0   15.24    0.32
  -2   7   0   15.51    0.29
   2  -7   0   15.17    0.29
   2  -7   1    2.99    0.14
   2  -7   1    3.07    0.13
  -2   7  -1    3.04    0.14
   2  -7   2    0.76    0.08
  -2   7  -2    0.74    0.08
   2  -7   2    0.79    0.07
  -2   7  -3    2.25    0.12
   2  -7   3    2.50    0.12
  -2   7  -4    2.49    0.12
   2  -7   4    2.59    0.12
   2  -7   5    5.32    0.15
  -2   7  -5    5.18    0.17
  -2   7  -6    0.13    0.03
  -2   7  -6    0.13    0.03
  -2   7  -7    1.56    0.08
   2  -6 -10    0.01    0.02
  -2   6  10    0.00    0.02
   2  -6 -10   -0.02    0.03
   2  -6  -9    0.69    0.06
  -2   6   9    0.62    0.06
   2  -6  -9    0.65    0.06
  -2   6   9    0.78    0.07
   2  -6  -8    0.02    0.04
   2  -6  -8    0.03    0.03
  -2   6   8    0.06    0.03
  -2   6   8    0.03    0.03
  -2   6   7    8.26    0.21
   2  -6  -7    8.09    0.23
   2  -6  -7    7.73    0.22
  -2   6   7    7.92    0.22
   2  -6  -7    7.95    0.21
   2  -6  -6    0.73    0.08
   2  -6  -6    0.70    0.07
  -2   6   6    0.78    0.07
  -2   6   6    0.64    0.07
   2  -6  -6    0.72    0.07
   2  -6  -5   56.77    0.61
   2  -6  -5   56.21    0.57
  -2   6   5   54.98    0.58
   2  -6  -5   55.34    0.58
   2  -6  -4    5.82    0.18
  -2   6   4    5.82    0.19
   2  -6  -4    5.66    0.20
   2  -6  -4    5.60    0.18
   2  -6  -3    0.56    0.07
   2  -6  -3    0.60    0.06
  -2   6   3    0.53    0.06
   2  -6  -3    0.63    0.06
  -2   6   2   71.78    0.64
   2  -6  -2   70.37    0.65
   2  -6  -2   71.72    0.61
   2  -6  -2   70.72    0.61
   2  -6  -1   94.03    0.75
  -2   6   1   95.58    0.72
   2  -6  -1   95.84    0.70
   2  -6  -1   94.37    0.72
  -2   6   0   33.79    0.42
   2  -6   0   34.72    0.44
   2  -6   0   33.76    0.44
   2  -6   0   34.03    0.41
   2  -6   1   21.23    0.35
  -2   6  -1   20.76    0.32
   2  -6   1   20.59    0.32
  -2   6  -1   20.19    0.35
   2  -6   2    5.05    0.18
  -2   6  -2    4.54    0.17
   2  -6   2    4.63    0.16
  -2   6  -3    3.23    0.15
   2  -6   3    3.19    0.13
   2  -6   3    3.29    0.15
  -2   6  -4    6.37    0.21
   2  -6   4    6.73    0.19
  -2   6  -5    0.10    0.04
   2  -6   5    0.19    0.04
  -2   6  -6    0.08    0.04
  -2   6  -6    0.07    0.03
   2  -6   7    0.07    0.03
  -2   6  -7    0.02    0.03
  -2   6  -7    0.06    0.03
   2  -6   8    1.15    0.07
  -2   6  -8    1.13    0.07
  -2   5  11    1.99    0.09
   2  -5 -11    2.05    0.09
   2  -5 -10    1.12    0.08
  -2   5  10    1.17    0.08
  -2   5   9   20.04    0.34
  -2   5   9   19.81    0.32
   2  -5  -9   20.26    0.34
   2  -5  -8   13.34    0.29
  -2   5   8   13.50    0.29
  -2   5   8   13.51    0.28
   2  -5  -7    0.04    0.03
   2  -5  -7    0.02    0.03
  -2   5   7    0.04    0.03
  -2   5   7    0.02    0.03
   2  -5  -6    1.95    0.11
  -2   5   6    1.75    0.10
  -2   5   6    1.78    0.11
   2  -5  -6    1.81    0.11
  -2   5   5   40.03    0.47
   2  -5  -5   41.32    0.47
   2  -5  -5   40.46    0.49
  -2   5   5   40.34    0.45
   2  -5  -4    0.87    0.07
   2  -5  -4    0.92    0.08
  -2   5   4    0.97    0.08
   2  -5  -3    3.68    0.13
   2  -5  -3    3.76    0.24
   2  -5  -3    3.85    0.14
   2  -5  -3    3.95    0.15
  -2   5   3    3.97    0.15
   2  -5  -3    4.06    0.14
  -2   5   2    0.12    0.04
   2  -5  -2    0.00    0.04
  -2   5   2    0.00    0.03
   2  -5  -2    0.03    0.02
   2  -5  -2    0.05    0.03
   2  -5  -1   11.34    0.40
  -2   5   1   11.46    0.40
   2  -5   0   13.14    0.43
  -2   5   0   12.54    0.42
   2  -5   0   13.77    0.46
  -2   5  -1    2.93    0.12
   2  -5   1    3.05    0.12
  -2   5  -1    3.09    0.21
   2  -5   1    2.89    0.21
   2  -5   1    3.06    0.22
   2  -5   1    3.12    0.21
   2  -5   2   12.32    0.25
  -2   5  -2   11.95    0.25
   2  -5   2   11.59    0.23
  -2   5  -3   26.82    0.39
   2  -5   3   25.99    0.34
   2  -5   3   26.32    0.37
   2  -5   4    2.87    0.12
   2  -5   4    2.83    0.13
   2  -5   4    2.82    0.12
  -2   5  -4    2.96    0.14
   2  -5   5    3.45    0.14
  -2   5  -5    3.80    0.16
   2  -5   6    5.71    0.18
  -2   5  -6    5.54    0.19
  -2   5  -7    0.74    0.07
   2  -5   7    0.92    0.08
  -2   5  -7    0.84    0.08
   2  -5   8    2.17    0.11
  -2   5  -8    2.03    0.11
  -2   5  -8    2.36    0.12
   2  -5   9    1.78    0.09
  -2   5  -9    1.83    0.10
   2  -5  10    1.94    0.09
  -2   5 -10    1.96    0.09
  -2   4  12    1.36    0.09
   2  -4 -11    0.77    0.06
  -2   4  11    0.73    0.06
   2  -4 -10    0.69    0.06
  -2   4  10    0.63    0.07
   2  -4 -10    0.52    0.06
  -2   4   9    0.59    0.07
   2  -4  -9    0.48    0.06
  -2   4   8   20.40    0.36
   2  -4  -8   20.25    0.35
  -2   4   7   16.53    0.30
  -2   4   7   16.50    0.31
   2  -4  -7   16.25    0.30
   2  -4  -6    5.17    0.17
  -2   4   6    5.18    0.17
  -2   4   6    4.79    0.16
   2  -4  -6    4.88    0.16
   2  -4  -5    0.22    0.06
  -2   4   5    0.10    0.05
   2  -4  -5    0.35    0.07
   2  -4  -5    0.34    0.05
  -2   4   5    0.26    0.04
   2  -4  -5    0.26    0.04
  -2   4   5    0.25    0.04
  -2   4   4  124.75    1.28
   2  -4  -4  124.34    1.29
   2  -4  -4  125.28    1.26
  -2   4   3  170.27    1.45
   2  -4  -3  169.98    1.37
   2  -4  -3  166.01    1.40
   2  -4  -2  224.30    1.42
  -2   4   2  222.53    1.60
  -2   4   1   62.24    0.82
   2  -4  -1   59.94    0.86
   2  -4  -1   62.14    0.82
   2  -4  -1   61.21    0.76
   2  -4   0    4.77    0.23
  -2   4   0    4.47    0.22
  -2   4   0    4.81    0.21
   2  -4   0    4.35    0.21
   2  -4   0    4.65    0.24
   2  -4   1   44.42    0.70
  -2   4  -1   43.60    0.68
   2  -4   1   44.97    0.73
   2  -4   1   43.64    0.69
   2  -4   2   60.71    0.83
   2  -4   2   60.10    0.86
   2  -4   2   60.88    0.84
  -2   4  -2   60.07    0.82
   2  -4   3   72.08    0.94
   2  -4   3   72.73    0.94
  -2   4  -3   72.62    0.92
  -2   4  -4    0.21    0.06
   2  -4   4    0.31    0.07
  -2   4  -5    7.01    0.20
   2  -4   5    6.98    0.19
   2  -4   6   13.62    0.28
  -2   4  -6   14.11    0.29
   2  -4   7    1.60    0.10
  -2   4  -7    1.74    0.10
  -2   4  -7    1.81    0.11
   2  -4   8    2.20    0.12
  -2   4  -8    2.34    0.12
  -2   4  -8    2.18    0.11
  -2   4  -9    8.68    0.23
   2  -4   9    8.51    0.22
   2  -4  10    1.53    0.09
  -2   4 -10    1.57    0.09
  -2   4 -11    0.23    0.03
   2  -4  11    0.21    0.03
   2  -4  11    0.18    0.03
   2  -3 -12    1.65    0.07
  -2   3  12    1.62    0.08
  -2   3  12    1.54    0.08
  -2   3  12    1.36    0.08
   2  -3 -12    1.82    0.09
   2  -3 -11    0.01    0.03
  -2   3  11    0.07    0.03
   2  -3 -11    0.06    0.03
  -2   3  10    3.31    0.14
   2  -3 -10    3.11    0.14
   2  -3  -9    1.91    0.10
  -2   3   9    1.73    0.11
   2  -3  -9    1.74    0.11
  -2   3   8   23.31    0.38
   2  -3  -8   23.76    0.35
   2  -3  -8   24.48    0.34
   2  -3  -8   23.50    0.37
   2  -3  -7    3.81    0.13
   2  -3  -7    3.95    0.15
  -2   3   7    3.94    0.15
   2  -3  -7    3.78    0.14
   2  -3  -6   10.09    0.38
   2  -3  -6    9.92    0.41
  -2   3   6   10.48    0.39
  -2   3   6   10.94    0.41
  -2   3   6   10.55    0.23
   2  -3  -6   10.26    0.22
   2  -3  -5    0.00    0.05
  -2   3   5    0.06    0.05
   2  -3  -5    0.07    0.05
   2  -3  -4    0.13    0.05
   2  -3  -4    0.16    0.05
  -2   3   4    0.11    0.05
   2  -3  -3   48.20    0.68
   2  -3  -3   50.46    0.69
  -2   3   3   49.17    0.70
   2  -3  -3   50.21    0.63
  -2   3   3   52.12    0.62
   2  -3  -2    7.28    0.25
  -2   3   2    7.88    0.27
   2  -3  -2    7.86    0.25
  -2   3   2    7.86    0.23
   2  -3  -2    7.47    0.27
   2  -3  -2    7.32    0.24
   2  -3  -1    3.20    0.18
   2  -3  -1    3.41    0.15
  -2   3   1    3.05    0.17
   2  -3  -1    3.07    0.16
  -2   3   1    3.17    0.14
   2  -3  -1    3.22    0.17
   2  -3   0    0.45    0.07
   2  -3   0    0.37    0.07
  -2   3   0    0.24    0.04
  -2   3   0    0.25    0.06
   2  -3   0    0.41    0.06
  -2   3   0    0.44    0.05
   2  -3   1    0.07    0.04
   2  -3   1    0.14    0.05
   2  -3   1    0.09    0.04
  -2   3  -1    0.07    0.05
   2  -3   2    2.17    0.14
   2  -3   2    1.94    0.14
   2  -3   2    2.16    0.14
  -2   3  -2    1.96    0.13
  -2   3  -3   45.23    0.63
   2  -3   3   47.14    0.68
   2  -3   3   47.38    0.70
   2  -3   3   45.65    0.63
   2  -3   4    0.04    0.04
  -2   3  -4    0.02    0.04
   2  -3   4   -0.07    0.04
  -2   3  -5    3.73    0.20
   2  -3   5    3.76    0.21
   2  -3   6    0.00    0.03
  -2   3  -6    0.00    0.03
  -2   3  -7    0.09    0.03
   2  -3   7    0.02    0.03
   2  -3   7    0.04    0.03
  -2   3  -8    2.85    0.13
   2  -3   8    2.95    0.13
  -2   3  -8    2.89    0.14
   2  -3   8    2.74    0.13
  -2   3  -9   28.93    0.43
   2  -3   9   28.07    0.42
   2  -3   9   29.38    0.41
   2  -3  10    4.95    0.17
  -2   3 -10    5.06    0.17
   2  -3  10    5.12    0.17
   2  -3  11   20.13    0.31
   2  -3  11   19.93    0.31
  -2   3 -11   20.58    0.32
  -2   3 -12    0.03    0.02
   2  -3  12   -0.01    0.02
   2  -3  12   -0.04    0.02
  -2   3 -12   -0.03    0.02
  -2   2  12    4.78    0.16
   2  -2 -12    5.05    0.13
   2  -2 -12    4.74    0.13
   2  -2 -11    3.18    0.13
  -2   2  11    3.00    0.13
  -2   2  11    2.71    0.14
   2  -2 -11    3.15    0.12
   2  -2 -10    6.49    0.18
   2  -2 -10    6.34    0.19
  -2   2  10    6.54    0.19
   2  -2  -9    5.42    0.18
  -2   2   9    5.73    0.19
   2  -2  -9    5.48    0.17
  -2   2   8    3.40    0.14
   2  -2  -8    3.47    0.14
   2  -2  -8    3.42    0.13
   2  -2  -7    7.87    0.20
   2  -2  -7    7.51    0.19
  -2   2   7    7.69    0.20
   2  -2  -6    6.33    0.27
  -2   2   6    6.86    0.31
  -2   2   5    6.95    0.28
   2  -2  -5    6.97    0.25
  -2   2   5    7.19    0.29
   2  -2  -5    6.31    0.24
  -2   2   4    0.12    0.04
   2  -2  -4    0.21    0.05
  -2   2   4    0.20    0.06
   2  -2  -3   26.03    0.47
   2  -2  -3   25.90    0.42
   2  -2  -3   26.95    0.39
  -2   2   3   26.62    0.39
  -2   2   3   25.59    0.46
   2  -2  -2   32.44    0.49
   2  -2  -2   34.41    0.38
  -2   2   2   32.89    0.49
  -2   2   2   34.70    0.39
   2  -2  -2   32.97    0.46
   2  -2  -2   33.31    0.50
   2  -2  -1    8.52    0.24
  -2   2   1    8.54    0.24
   2  -2  -1    8.76    0.17
   2  -2  -1    8.14    0.24
  -2   2   1    8.84    0.18
   2  -2  -1    8.48    0.23
  -2   2   1    8.97    0.17
   2  -2   0    0.51    0.07
   2  -2   0    0.60    0.07
  -2   2   0    0.67    0.05
  -2   2   0    0.48    0.06
   2  -2   0    0.53    0.07
  -2   2   0    0.57    0.05
   2  -2   0    0.65    0.04
   2  -2   1    4.88    0.17
   2  -2   1    4.51    0.17
  -2   2  -1    4.89    0.16
   2  -2   1    4.67    0.18
  -2   2  -1    4.61    0.17
   2  -2   2   11.45    0.28
   2  -2   2   11.83    0.29
   2  -2   2   12.20    0.27
  -2   2  -2   11.58    0.26
   2  -2   3   37.74    0.51
   2  -2   3   37.72    0.55
  -2   2  -3   39.92    0.45
   2  -2   3   39.59    0.50
   2  -2   3   37.21    0.53
  -2   2  -3   38.25    0.49
   2  -2   4    2.14    0.14
  -2   2  -4    2.06    0.12
   2  -2   4    2.14    0.13
   2  -2   4    2.02    0.13
   2  -2   4    2.12    0.14
  -2   2  -4    2.12    0.12
  -2   2  -5   29.71    0.48
   2  -2   5   30.45    0.50
   2  -2   5   30.26    0.53
   2  -2   5   29.27    0.57
  -2   2  -5   29.31    0.49
  -2   2  -6    4.92    0.23
   2  -2   6    5.07    0.26
   2  -2   7    2.55    0.11
  -2   2  -7    2.60    0.18
  -2   2  -7    2.78    0.12
   2  -2   7    2.52    0.21
   2  -2   7    2.60    0.12
   2  -2   8    0.98    0.08
  -2   2  -8    0.97    0.08
   2  -2   8    1.04    0.08
   2  -2   9    4.43    0.16
  -2   2  -9    4.43    0.17
   2  -2   9    4.38    0.17
  -2   2 -10    0.36    0.06
   2  -2  10    0.27    0.05
   2  -2  10    0.29    0.05
   2  -2  11    1.77    0.10
   2  -2  11    1.74    0.10
  -2   2 -11    1.77    0.10
  -2   2 -12    0.07    0.03
  -2   2 -12    0.06    0.03
   2  -2  12    0.04    0.03
   2  -1 -12    0.64    0.05
  -2   1  12    0.63    0.06
   2  -1 -12    0.70    0.06
   2  -1 -11    8.33    0.21
   2  -1 -11    7.85    0.19
  -2   1  11    7.51    0.22
  -2   1  11    8.40    0.20
  -2   1  10    0.14    0.04
  -2   1  10    0.12    0.04
   2  -1 -10    0.12    0.04
  -2   1  10    0.14    0.05
   2  -1 -10    0.12    0.04
   2  -1  -9    1.83    0.11
  -2   1   9    1.81    0.10
   2  -1  -9    1.70    0.10
   2  -1  -8    2.77    0.13
  -2   1   8    2.79    0.12
  -2   1   8    2.80    0.13
  -2   1   8    2.84    0.13
   2  -1  -8    2.58    0.12
  -2   1   7    8.01    0.20
   2  -1  -7    7.87    0.20
   2  -1  -7    7.81    0.19
  -2   1   7    7.70    0.19
  -2   1   7    7.48    0.19
  -2   1   7    7.17    0.34
  -2   1   6    0.23    0.06
   2  -1  -6    0.23    0.06
   2  -1  -6    0.17    0.06
   2  -1  -5   14.20    0.37
  -2   1   5   14.42    0.40
  -2   1   5   14.51    0.37
   2  -1  -5   13.87    0.38
  -2   1   4    0.03    0.04
   2  -1  -4    0.00    0.04
   2  -1  -4    0.09    0.04
  -2   1   4    0.03    0.03
  -2   1   4    0.06    0.04
   2  -1  -3    0.37    0.06
  -2   1   3    0.35    0.06
   2  -1  -3    0.27    0.05
  -2   1   3    0.44    0.05
  -2   1   3    0.40    0.05
  -2   1   3    0.38    0.07
  -2   1   2    8.42    0.17
  -2   1   2    8.30    0.22
   2  -1  -2    8.13    0.22
   2  -1  -2    8.10    0.21
  -2   1   2    8.63    0.21
  -2   1   2    7.74    0.22
   2  -1  -2    8.41    0.21
  -2   1   1    3.58    0.14
  -2   1   1    3.60    0.08
   2  -1  -1    3.53    0.14
   2  -1  -1    3.76    0.14
   2  -1  -1    3.70    0.13
  -2   1   1    3.59    0.10
  -2   1   0   13.77    0.23
   2  -1   0   13.61    0.25
  -2   1   0   14.10    0.14
  -2   1   0   13.49    0.25
   2  -1   0   13.31    0.22
   2  -1   0   13.76    0.26
  -2   1   0   13.74    0.13
   2  -1   0   13.84    0.26
  -2   1  -1    7.09    0.17
   2  -1   1    7.12    0.19
   2  -1   1    7.41    0.20
  -2   1  -1    7.55    0.19
   2  -1   1    7.41    0.17
  -2   1  -2   37.44    0.38
  -2   1  -2   37.16    0.44
   2  -1   2   36.97    0.38
   2  -1   2   37.73    0.36
   2  -1   2   37.45    0.46
   2  -1   2   37.57    0.44
   2  -1   3   18.12    0.32
  -2   1  -3   19.28    0.28
  -2   1  -3   18.41    0.31
  -2   1  -3   17.81    0.33
   2  -1   3   19.10    0.31
   2  -1   3   19.27    0.28
   2  -1   3   19.20    0.35
   2  -1   4    3.79    0.14
  -2   1  -4    3.99    0.14
   2  -1   4    3.53    0.16
   2  -1   4    3.63    0.16
  -2   1  -4    3.52    0.15
   2  -1   4    3.61    0.16
  -2   1  -5    0.46    0.07
   2  -1   5    0.43    0.07
   2  -1   5    0.53    0.07
  -2   1  -6    3.82    0.20
   2  -1   6    3.69    0.21
   2  -1   6    3.69    0.19
  -2   1  -7    6.22    0.28
   2  -1   7    6.32    0.30
  -2   1  -7    5.47    0.26
   2  -1   8    0.68    0.06
   2  -1   8    0.81    0.07
  -2   1  -8    0.72    0.07
   2  -1   9    5.31    0.17
  -2   1  -9    5.53    0.18
   2  -1   9    5.48    0.18
   2  -1  10    0.13    0.04
  -2   1 -10    0.17    0.04
   2  -1  10    0.11    0.04
   2  -1  11    0.49    0.06
  -2   1 -11    0.49    0.06
   2  -1  11    0.40    0.06
  -2   1 -12   -0.01    0.03
  -2   1 -12    0.02    0.03
   2  -1  12    0.00    0.03
  -2   1 -13    0.09    0.03
   2  -1  13    0.02    0.02
   2  -1  13    0.07    0.03
  -2   1 -13    0.07    0.03
   2   0 -12    4.02    0.12
  -2   0  12    4.09    0.12
   2   0 -12    3.96    0.12
  -2   0  12    3.71    0.13
   2   0 -11    0.13    0.03
   2   0 -11    0.15    0.04
  -2   0  11    0.08    0.03
  -2   0  11    0.14    0.04
  -2   0  11    0.14    0.04
   2   0 -10    0.14    0.04
   2   0 -10    0.12    0.04
  -2   0  10    0.13    0.03
  -2   0  10    0.14    0.04
  -2   0  10    0.17    0.04
  -2   0  10    0.12    0.04
   2   0  -9    0.05    0.03
   2   0  -9    0.05    0.03
  -2   0   9    0.02    0.04
  -2   0   9    0.06    0.03
  -2   0   9    0.07    0.04
  -2   0   9    0.05    0.03
   2   0  -8    4.46    0.16
  -2   0   8    4.28    0.16
  -2   0   8    4.33    0.16
  -2   0   8    4.42    0.16
  -2   0   8    4.38    0.15
   2   0  -7    0.77    0.07
  -2   0   7    0.83    0.06
  -2   0   7    0.76    0.06
  -2   0   7    0.72    0.06
  -2   0   6    4.13    0.24
  -2   0   6    4.31    0.23
   2   0  -6    4.79    0.25
   2   0  -6    3.89    0.22
   2   0  -5    0.41    0.07
  -2   0   5    0.46    0.08
   2   0  -5    0.41    0.07
  -2   0   5    0.33    0.06
  -2   0   4    1.00    0.10
  -2   0   4    0.84    0.09
   2   0  -4    0.69    0.09
   2   0  -4    0.94    0.09
  -2   0   3    5.82    0.18
  -2   0   3    5.26    0.20
   2   0  -3    5.37    0.20
   2   0  -3    5.61    0.20
  -2   0   3    5.74    0.17
   2   0  -2   14.82    0.30
   2   0  -2   15.03    0.29
  -2   0   2   15.23    0.23
   2   0  -2   15.03    0.23
  -2   0   2   15.63    0.20
  -2   0   2   14.22    0.29
  -2   0   2   14.21    0.29
  -2   0   2   14.74    0.27
  -2   0   1    1.55    0.09
   2   0  -1    1.55    0.09
  -2   0   1    1.70    0.09
  -2   0   1    1.68    0.09
   2   0  -1    1.73    0.08
  -2   0   1    1.64    0.06
  -2   0   1    1.49    0.07
  -2   0   1    1.64    0.09
   2   0  -1    1.68    0.09
  -2   0   0   65.53    0.54
   2   0   0   66.06    0.53
  -2   0   0   67.49    0.45
   2   0   0   67.05    0.51
  -2   0   0   65.79    0.48
  -2   0   0   64.94    0.48
  -2   0   0   66.38    0.43
   2   0   0   65.59    0.49
  -2   0  -1    3.90    0.11
   2   0   1    3.96    0.11
   2   0   1    3.97    0.13
  -2   0  -1    3.96    0.10
  -2   0  -1    3.83    0.10
  -2   0  -1    3.84    0.10
   2   0   1    3.65    0.12
  -2   0  -1    4.00    0.13
  -2   0  -1    3.63    0.13
   2   0   2   83.01    0.56
  -2   0  -2   81.41    0.50
  -2   0  -2   81.80    0.42
   2   0   2   83.26    0.42
   2   0   2   81.72    0.61
  -2   0  -2   82.87    0.63
   2   0   2   83.88    0.43
  -2   0  -2   82.03    0.59
   2   0   3   45.82    0.30
   2   0   3   45.45    0.43
  -2   0  -3   45.67    0.49
   2   0   3   44.31    0.49
   2   0   3   45.05    0.41
  -2   0  -3   44.80    0.44
  -2   0  -3   44.50    0.50
  -2   0  -3   45.83    0.30
   2   0   4   11.48    0.25
   2   0   4   11.80    0.24
   2   0   4   11.16    0.27
  -2   0  -4   11.52    0.27
  -2   0  -4   11.92    0.21
  -2   0  -4   11.89    0.22
  -2   0  -4   11.07    0.27
   2   0   5    6.48    0.22
  -2   0  -5    6.37    0.23
   2   0   5    5.99    0.22
  -2   0  -5    6.28    0.22
   2   0   6    0.53    0.07
  -2   0  -6    0.61    0.08
   2   0   6    0.48    0.08
  -2   0  -6    0.43    0.07
   2   0   7    0.12    0.05
  -2   0  -7    0.25    0.06
  -2   0  -7    0.45    0.08
   2   0   7    0.53    0.09
  -2   0  -8    3.00    0.12
  -2   0  -8    3.14    0.22
   2   0   8    3.23    0.13
  -2   0  -8    2.92    0.19
   2   0   8    2.87    0.21
   2   0   9    0.05    0.03
  -2   0  -9    0.05    0.03
   2   0   9    0.01    0.03
   2   0  10    1.03    0.08
   2   0  10    1.10    0.09
  -2   0 -10    0.97    0.08
   2   0  11    1.21    0.08
  -2   0 -11    1.18    0.09
   2   0  11    1.29    0.09
  -2   0 -11    1.18    0.09
  -2   0 -12    1.81    0.10
   2   0  12    1.58    0.10
  -2   0 -12    1.57    0.10
  -2   0 -13    0.09    0.03
  -2   0 -13    0.12    0.03
   2   0  13    0.06    0.03
   2   1 -12    0.88    0.06
  -2  -1  12    0.87    0.06
   2   1 -12    0.88    0.06
   2   1 -11    0.14    0.04
   2   1 -11    0.15    0.03
  -2  -1  11    0.20    0.04
  -2  -1  11    0.09    0.03
  -2  -1  11    0.14    0.04
  -2  -1  11    0.11    0.03
   2   1 -10   26.86    0.39
  -2  -1  10   27.15    0.37
  -2  -1  10   26.74    0.42
  -2  -1  10   26.90    0.38
   2   1 -10   26.76    0.37
  -2  -1  10   27.41    0.40
   2   1  -9    0.22    0.05
  -2  -1   9    0.15    0.05
  -2  -1   9    0.19    0.04
  -2  -1   9    0.15    0.04
  -2  -1   9    0.26    0.05
   2   1  -8    7.79    0.22
  -2  -1   8    7.63    0.23
  -2  -1   8    7.43    0.20
  -2  -1   8    7.84    0.22
  -2  -1   8    7.41    0.21
   2   1  -7    7.42    0.20
  -2  -1   7    7.42    0.19
  -2  -1   7    7.34    0.22
  -2  -1   7    7.43    0.20
  -2  -1   7    7.67    0.20
  -2  -1   6    0.29    0.07
   2   1  -6    0.14    0.05
   2   1  -6    0.29    0.08
  -2  -1   6    0.23    0.07
   2   1  -5    1.89    0.15
  -2  -1   5    2.08    0.16
   2   1  -5    2.21    0.17
  -2  -1   5    1.99    0.16
  -2  -1   4   26.09    0.51
   2   1  -4   25.93    0.50
  -2  -1   4   26.41    0.49
   2   1  -4   25.65    0.50
  -2  -1   3  155.40    1.14
  -2  -1   3  155.60    1.04
   2   1  -3  154.68    1.13
  -2  -1   2   54.80    0.48
  -2  -1   2   52.19    0.60
   2   1  -2   53.38    0.58
  -2  -1   2   52.81    0.61
  -2  -1   2   52.71    0.52
   2   1  -2   53.01    0.60
  -2  -1   1  220.12    1.05
   2   1  -1  217.54    1.07
   2   1  -1  222.99    0.66
  -2  -1   1  216.87    1.11
  -2  -1   1  219.94    1.11
  -2  -1   1  215.41    0.97
   2   1  -1  221.45    1.09
  -2  -1   0   30.16    0.37
  -2  -1   0   31.06    0.39
  -2  -1   0   30.89    0.38
   2   1   0   30.98    0.37
  -2  -1   0   29.81    0.37
   2   1   0   31.35    0.38
  -2  -1   0   29.35    0.36
   2   1   0   30.44    0.29
  -2  -1  -1  350.46    1.27
  -2  -1  -1  351.41    1.23
  -2  -1  -1  352.89    1.22
   2   1   1  352.20    1.11
  -2  -1  -1  351.59    1.28
   2   1   1  353.41    1.12
   2   1   2  589.03    1.29
  -2  -1  -2  584.98    1.70
  -2  -1  -2  584.42    1.64
  -2  -1  -2  582.48    1.63
   2   1   2  587.86    1.59
  -2  -1  -2  588.66    1.73
   2   1   2  588.71    1.24
  -2  -1  -2  586.76    1.62
   2   1   3  976.35    1.58
  -2  -1  -3  979.03    2.34
  -2  -1  -3 1000.00    2.09
  -2  -1  -3  990.24    2.37
   2   1   3  998.24    2.29
  -2  -1  -3  991.70    2.31
  -2  -1  -3  993.47    2.37
   2   1   3  995.31    1.93
  -2  -1  -4   78.50    0.66
   2   1   4   78.50    0.46
  -2  -1  -4   77.94    0.69
  -2  -1  -4   77.69    0.57
  -2  -1  -4   78.21    0.72
   2   1   4   77.68    0.64
   2   1   5    8.43    0.24
  -2  -1  -5    8.85    0.27
  -2  -1  -5    8.88    0.24
  -2  -1  -5    8.60    0.25
   2   1   5    8.31    0.25
  -2  -1  -6   24.07    0.49
  -2  -1  -6   25.37    0.45
   2   1   6   22.86    0.45
  -2  -1  -6   24.42    0.45
   2   1   6   23.48    0.46
  -2  -1  -6   24.05    0.45
  -2  -1  -7   79.93    0.88
   2   1   7   77.07    0.91
  -2  -1  -7   78.37    0.97
   2   1   8    4.45    0.26
  -2  -1  -8    4.93    0.27
   2   1   8    4.43    0.24
  -2  -1  -9    3.58    0.14
   2   1   9    3.54    0.14
  -2  -1  -9    3.77    0.14
   2   1   9    3.55    0.14
  -2  -1 -10    0.38    0.05
  -2  -1 -10    0.34    0.05
   2   1  10    0.40    0.06
   2   1  11    6.64    0.20
  -2  -1 -11    6.93    0.20
  -2  -1 -11    6.75    0.20
  -2  -1 -12    1.58    0.10
   2   1  12    1.46    0.09
  -2  -1 -12    1.49    0.10
  -2  -1 -12    1.69    0.10
  -2  -1 -13    4.63    0.14
   2   1  13    4.48    0.14
  -2  -1 -13    4.42    0.14
  -2  -1 -14    0.88    0.06
   2   2 -11    0.29    0.04
  -2  -2  11    0.33    0.04
  -2  -2  11    0.31    0.04
  -2  -2  11    0.37    0.05
   2   2 -11    0.41    0.04
  -2  -2  11    0.34    0.04
   2   2 -10    4.16    0.15
   2   2 -10    3.99    0.14
  -2  -2  10    4.12    0.15
  -2  -2  10    4.11    0.15
  -2  -2  10    4.08    0.15
  -2  -2  10    4.13    0.15
   2   2  -9    4.51    0.17
  -2  -2   9    4.56    0.17
  -2  -2   9    4.43    0.16
  -2  -2   9    4.62    0.16
  -2  -2   9    4.58    0.17
   2   2  -8    0.28    0.05
  -2  -2   8    0.28    0.05
  -2  -2   8    0.27    0.05
  -2  -2   8    0.26    0.05
  -2  -2   8    0.28    0.05
   2   2  -7    1.42    0.09
  -2  -2   7    1.27    0.09
  -2  -2   7    1.37    0.09
  -2  -2   7    1.33    0.09
  -2  -2   7    1.39    0.09
  -2  -2   6    0.84    0.12
  -2  -2   6    0.67    0.06
  -2  -2   6    0.66    0.06
  -2  -2   6    0.92    0.07
  -2  -2   6    0.62    0.06
   2   2  -6    0.65    0.06
   2   2  -5    2.50    0.19
  -2  -2   5    2.07    0.18
   2   2  -5    2.53    0.18
  -2  -2   5    2.61    0.20
   2   2  -4    1.66    0.14
  -2  -2   4    1.69    0.15
   2   2  -4    1.55    0.13
  -2  -2   4    1.35    0.13
  -2  -2   4    1.75    0.14
   2   2  -3   27.54    0.52
   2   2  -3   27.93    0.49
  -2  -2   3   27.32    0.53
  -2  -2   3   27.25    0.50
  -2  -2   3   27.34    0.50
  -2  -2   2    7.58    0.22
   2   2  -2    7.66    0.25
   2   2  -2    6.41    0.22
  -2  -2   2    7.50    0.24
  -2  -2   2    6.71    0.24
  -2  -2   1   72.96    0.73
   2   2  -1   71.96    0.66
   2   2  -1   71.80    0.69
  -2  -2   1   71.09    0.74
  -2  -2   1   70.50    0.66
  -2  -2   1   72.56    0.66
   2   2   0    0.85    0.05
  -2  -2   0    0.66    0.07
  -2  -2   0    0.86    0.08
   2   2   0    0.76    0.07
  -2  -2   0    0.76    0.07
   2   2   0    0.91    0.07
  -2  -2   0    0.87    0.07
   2   2   1    2.76    0.10
  -2  -2  -1    2.66    0.13
   2   2   1    2.86    0.09
   2   2   1    2.76    0.11
   2   2   1    2.85    0.10
  -2  -2  -1    2.74    0.13
  -2  -2  -1    2.49    0.13
  -2  -2  -1    2.62    0.09
  -2  -2  -2    6.30    0.20
   2   2   2    6.48    0.13
  -2  -2  -2    6.07    0.20
   2   2   2    6.16    0.17
   2   2   2    6.34    0.17
  -2  -2  -2    6.04    0.20
   2   2   2    6.34    0.11
  -2  -2  -2    6.41    0.11
   2   2   3    0.13    0.03
  -2  -2  -3    0.05    0.04
   2   2   3    0.21    0.04
  -2  -2  -3    0.14    0.05
  -2  -2  -3    0.18    0.05
  -2  -2  -4   30.66    0.46
  -2  -2  -4   30.34    0.48
   2   2   4   30.11    0.46
  -2  -2  -4   31.46    0.47
  -2  -2  -4   31.01    0.50
  -2  -2  -4   29.52    0.42
   2   2   4   30.28    0.43
  -2  -2  -5   32.72    0.47
  -2  -2  -5   32.98    0.56
  -2  -2  -5   31.81    0.52
  -2  -2  -5   31.31    0.53
   2   2   5   31.58    0.51
   2   2   5   31.67    0.48
  -2  -2  -5   33.49    0.51
  -2  -2  -6    0.70    0.09
  -2  -2  -6    0.74    0.09
  -2  -2  -6    0.73    0.08
   2   2   6    0.66    0.09
   2   2   6    0.76    0.09
   2   2   7   16.68    0.44
  -2  -2  -7   16.43    0.45
  -2  -2  -7   16.32    0.44
   2   2   7   16.04    0.43
  -2  -2  -8   12.57    0.42
   2   2   8   12.49    0.42
   2   2   8   11.32    0.39
  -2  -2  -9    0.70    0.06
   2   2   9    0.62    0.06
   2   2   9    0.62    0.06
  -2  -2  -9    0.61    0.06
  -2  -2 -10    0.03    0.03
  -2  -2 -10    0.03    0.03
   2   2  10    0.04    0.03
   2   2  10    0.09    0.04
  -2  -2 -10    0.00    0.03
  -2  -2 -11    0.42    0.05
  -2  -2 -11    0.35    0.05
   2   2  11    0.36    0.05
   2   2  11    0.38    0.05
  -2  -2 -11    0.30    0.05
  -2  -2 -12    3.28    0.13
   2   2  12    3.13    0.13
   2   2  12    3.09    0.13
  -2  -2 -12    3.05    0.13
  -2  -2 -12    3.36    0.13
  -2  -2 -13    0.05    0.03
  -2  -2 -13    0.10    0.03
  -2  -2 -13    0.05    0.02
  -2  -2 -14    0.63    0.05
  -2  -3  11    8.64    0.17
  -2  -3  11    8.64    0.17
  -2  -3  10    1.92    0.10
   2   3 -10    1.88    0.09
  -2  -3  10    1.75    0.09
   2   3 -10    1.88    0.10
  -2  -3  10    1.87    0.10
  -2  -3  10    1.92    0.10
   2   3  -9    6.29    0.19
  -2  -3   9    6.38    0.19
  -2  -3   9    6.28    0.19
  -2  -3   9    6.47    0.19
  -2  -3   9    6.33    0.19
   2   3  -8   14.63    0.30
  -2  -3   8   14.76    0.30
  -2  -3   8   14.80    0.29
  -2  -3   8   15.02    0.31
  -2  -3   8   14.14    0.30
  -2  -3   7   49.95    0.52
  -2  -3   7   48.93    0.55
   2   3  -7   50.08    0.55
  -2  -3   7   48.55    0.54
  -2  -3   7   49.51    0.54
  -2  -3   6   71.05    0.60
  -2  -3   6   69.97    0.62
  -2  -3   6   70.79    0.64
   2   3  -6   71.23    0.63
  -2  -3   6   70.95    0.62
  -2  -3   5   93.96    0.65
  -2  -3   5   94.43    0.71
   2   3  -5   94.99    1.15
   2   3  -5   95.47    0.69
  -2  -3   5   93.20    0.68
  -2  -3   5   95.49    1.27
  -2  -3   5   92.09    0.66
   2   3  -4    7.91    0.31
  -2  -3   4    6.70    0.31
   2   3  -4    6.85    0.29
  -2  -3   4    7.11    0.31
   2   3  -4    7.71    0.33
   2   3  -3    0.40    0.07
   2   3  -3    0.37    0.07
   2   3  -3    0.43    0.08
  -2  -3   3    0.49    0.08
  -2  -3   3    0.42    0.08
   2   3  -2   67.71    0.75
  -2  -3   2   67.46    0.84
   2   3  -2   64.56    0.73
   2   3  -2   64.52    0.80
  -2  -3   2   66.56    0.79
   2   3  -1   97.65    0.90
  -2  -3   1   98.50    1.00
   2   3  -1   97.28    0.82
   2   3  -1   96.77    0.82
  -2  -3   1   95.04    0.91
  -2  -3   1   96.50    0.86
  -2  -3   0   49.89    0.56
   2   3   0   52.01    0.59
  -2  -3   0   48.80    0.67
   2   3   0   51.15    0.54
  -2  -3   0   51.09    0.65
   2   3   0   52.17    0.57
  -2  -3   0   49.63    0.64
   2   3   1   18.74    0.31
  -2  -3  -1   17.17    0.38
  -2  -3  -1   17.86    0.38
   2   3   1   18.77    0.29
   2   3   1   18.50    0.32
   2   3   1   18.70    0.35
   2   3   1   18.97    0.30
  -2  -3  -1   16.72    0.37
  -2  -3  -1   18.74    0.31
  -2  -3  -2    0.87    0.09
  -2  -3  -2    0.90    0.10
   2   3   2    0.68    0.07
   2   3   2    0.85    0.08
  -2  -3  -2    0.93    0.09
  -2  -3  -3    0.22    0.06
  -2  -3  -3    0.24    0.06
   2   3   3    0.15    0.05
   2   3   3    0.21    0.05
  -2  -3  -3    0.27    0.06
  -2  -3  -4   46.12    0.67
  -2  -3  -4   45.94    0.68
   2   3   4   46.08    0.62
  -2  -3  -4   46.07    0.62
   2   3   4   47.31    0.60
  -2  -3  -5   36.81    0.63
   2   3   5   35.60    0.59
   2   3   5   34.59    0.56
  -2  -3  -5   36.78    0.57
  -2  -3  -5   35.96    0.63
  -2  -3  -6   88.58    0.96
  -2  -3  -6   88.27    1.05
   2   3   6   87.61    0.99
  -2  -3  -7    6.56    0.32
  -2  -3  -7    6.08    0.30
   2   3   7    6.13    0.29
  -2  -3  -7    6.10    0.28
   2   3   7    5.99    0.28
  -2  -3  -8    0.76    0.06
  -2  -3  -8    0.70    0.06
  -2  -3  -8    0.81    0.06
  -2  -3  -8    0.82    0.11
  -2  -3  -8    0.91    0.13
  -2  -3  -9   35.75    0.44
  -2  -3  -9   35.19    0.43
  -2  -3  -9   36.11    0.43
   2   3   9   35.30    0.45
   2   3  10   56.36    0.59
  -2  -3 -10   57.21    0.57
  -2  -3 -10   56.30    0.55
   2   3  11   36.79    0.48
  -2  -3 -11   36.97    0.47
  -2  -3 -11   36.21    0.44
  -2  -3 -12   25.89    0.36
  -2  -3 -12   23.43    0.34
   2   3  12   24.37    0.37
  -2  -3 -12   25.00    0.37
  -2  -3 -13    0.01    0.02
  -2  -3 -13   -0.01    0.02
   2   3  13    0.01    0.03
   2   4 -10    4.62    0.13
  -2  -4  10    4.78    0.13
   2   4  -9    8.36    0.18
  -2  -4   9    7.59    0.19
  -2  -4   9    8.08    0.19
   2   4  -9    7.51    0.20
  -2  -4   9    7.73    0.20
  -2  -4   9    7.85    0.19
   2   4  -8    0.07    0.04
  -2  -4   8    0.04    0.03
  -2  -4   8    0.03    0.03
  -2  -4   8    0.04    0.03
  -2  -4   8    0.10    0.03
   2   4  -7   13.13    0.29
  -2  -4   7   12.85    0.28
  -2  -4   7   12.98    0.28
  -2  -4   7   12.81    0.27
  -2  -4   7   13.38    0.27
   2   4  -6    0.28    0.05
  -2  -4   6    0.20    0.04
  -2  -4   6    0.32    0.05
  -2  -4   6    0.26    0.05
  -2  -4   5    4.02    0.15
   2   4  -5    4.17    0.16
  -2  -4   5    4.17    0.16
  -2  -4   5    4.18    0.14
  -2  -4   4    0.13    0.03
  -2  -4   4    0.16    0.03
  -2  -4   4    0.07    0.03
  -2  -4   4    0.14    0.04
  -2  -4   3    0.67    0.10
   2   4  -3    0.91    0.12
  -2  -4   3    0.87    0.12
   2   4  -3    0.74    0.10
   2   4  -2    0.12    0.05
   2   4  -2    0.02    0.04
  -2  -4   2    0.02    0.04
  -2  -4   2    0.03    0.04
   2   4  -1   26.69    0.53
  -2  -4   1   26.88    0.60
   2   4  -1   26.09    0.49
  -2  -4   1   26.04    0.54
  -2  -4   1   25.61    0.51
   2   4   0    0.30    0.05
  -2  -4   0    0.39    0.08
  -2  -4   0    0.32    0.06
   2   4   0    0.32    0.06
  -2  -4   0    0.28    0.06
  -2  -4   0    0.35    0.07
  -2  -4  -1   76.32    0.87
  -2  -4  -1   77.20    0.93
   2   4   1   77.50    0.72
   2   4   1   76.55    0.85
  -2  -4  -1   74.45    0.90
  -2  -4  -1   78.00    0.75
  -2  -4  -2    2.29    0.15
  -2  -4  -2    2.19    0.16
   2   4   2    2.36    0.13
   2   4   2    2.18    0.15
  -2  -4  -2    2.21    0.16
  -2  -4  -3    1.25    0.12
  -2  -4  -3    1.30    0.13
   2   4   3    1.36    0.11
  -2  -4  -3    1.42    0.13
   2   4   3    1.10    0.11
  -2  -4  -4    5.65    0.27
   2   4   4    5.52    0.24
  -2  -4  -4    5.85    0.25
   2   4   4    5.34    0.24
  -2  -4  -5    6.13    0.29
   2   4   5    5.68    0.26
  -2  -4  -5    6.09    0.26
   2   4   5    5.55    0.25
  -2  -4  -6    2.19    0.18
  -2  -4  -6    2.05    0.18
   2   4   6    1.78    0.16
   2   4   6    1.88    0.16
  -2  -4  -7   22.85    0.34
  -2  -4  -7   24.33    0.63
  -2  -4  -7   23.71    0.64
   2   4   7   22.79    0.58
   2   4   7   22.79    0.57
  -2  -4  -7   22.91    0.32
  -2  -4  -8    1.70    0.10
  -2  -4  -8    1.85    0.10
   2   4   8    1.91    0.11
  -2  -4  -8    1.63    0.10
  -2  -4  -8    1.83    0.10
  -2  -4  -9    0.02    0.03
  -2  -4  -9    0.04    0.03
   2   4   9    0.08    0.04
  -2  -4  -9    0.06    0.03
  -2  -4 -10    0.03    0.03
  -2  -4 -10    0.02    0.03
   2   4  10    0.04    0.03
  -2  -4 -10    0.03    0.03
  -2  -4 -11    2.54    0.12
  -2  -4 -11    2.53    0.12
   2   4  11    2.45    0.13
  -2  -4 -11    2.63    0.13
  -2  -4 -12    0.02    0.03
   2   4  12   -0.01    0.03
  -2  -4 -12    0.02    0.03
  -2  -4 -13   23.88    0.30
   2   4  13   23.03    0.31
  -2  -4 -13   23.71    0.31
   2   5  -9   29.78    0.33
  -2  -5   9   28.76    0.30
   2   5  -8    5.19    0.16
  -2  -5   8    5.33    0.15
  -2  -5   8    5.17    0.16
   2   5  -7    3.63    0.15
  -2  -5   7    3.52    0.14
  -2  -5   7    3.36    0.14
  -2  -5   7    3.63    0.13
   2   5  -6    1.98    0.11
  -2  -5   6    1.89    0.11
  -2  -5   6    2.03    0.10
  -2  -5   6    1.87    0.11
  -2  -5   5   75.56    0.67
   2   5  -5   73.93    0.68
  -2  -5   5   73.62    0.68
  -2  -5   4    5.23    0.18
  -2  -5   4    5.11    0.17
  -2  -5   3   16.50    0.30
  -2  -5   3   16.73    0.30
  -2  -5   3   16.53    0.31
   2   5  -2    0.09    0.04
  -2  -5   2    0.09    0.03
  -2  -5   2    0.01    0.04
  -2  -5   2    0.10    0.03
  -2  -5   2    0.08    0.03
   2   5  -1    1.63    0.15
  -2  -5   1    1.63    0.15
  -2  -5   1    1.64    0.16
  -2  -5   0   27.04    0.65
  -2  -5   0   25.23    0.58
   2   5   0   26.40    0.53
   2   5   0   25.80    0.59
  -2  -5   0   24.18    0.54
  -2  -5  -1    0.70    0.10
  -2  -5  -1    0.69    0.10
   2   5   1    0.60    0.10
  -2  -5  -1    0.72    0.11
  -2  -5  -2   23.05    0.54
  -2  -5  -2   24.32    0.59
   2   5   2   23.43    0.55
  -2  -5  -2   24.16    0.59
  -2  -5  -3    0.75    0.10
  -2  -5  -3    0.76    0.11
   2   5   3    0.70    0.09
  -2  -5  -3    0.67    0.10
   2   5   3    0.59    0.09
  -2  -5  -4    0.21    0.07
  -2  -5  -4    0.25    0.07
   2   5   4    0.18    0.06
  -2  -5  -5    0.15    0.07
  -2  -5  -5    0.14    0.03
   2   5   5    0.15    0.05
  -2  -5  -5    0.13    0.03
  -2  -5  -5    0.05    0.06
  -2  -5  -6    1.28    0.08
   2   5   6    1.36    0.08
  -2  -5  -6    1.40    0.09
  -2  -5  -6    1.42    0.09
  -2  -5  -7   20.74    0.34
  -2  -5  -7   20.82    0.33
   2   5   7   21.38    0.34
  -2  -5  -7   20.08    0.33
  -2  -5  -8    0.29    0.05
  -2  -5  -8    0.33    0.05
   2   5   8    0.24    0.05
  -2  -5  -8    0.26    0.04
  -2  -5  -8    0.24    0.04
  -2  -5  -9    4.34    0.15
  -2  -5  -9    4.21    0.16
  -2  -5  -9    4.11    0.16
   2   5   9    3.97    0.16
  -2  -5  -9    4.13    0.15
  -2  -5 -10    2.04    0.11
   2   5  10    2.09    0.12
  -2  -5 -10    2.07    0.11
   2   5  11    6.35    0.19
  -2  -5 -11    6.32    0.19
  -2  -5 -12   18.71    0.29
   2   5  12   18.55    0.31
   2   5  13    5.91    0.15
  -2  -5 -13    5.98    0.15
   2   6  -8    1.37    0.07
  -2  -6   8    1.42    0.07
   2   6  -7    1.15    0.08
  -2  -6   7    1.18    0.08
   2   6  -6    3.15    0.13
  -2  -6   6    3.20    0.14
   2   6  -5    0.15    0.04
  -2  -6   5    0.17    0.04
  -2  -6   5    0.06    0.04
  -2  -6   4   10.14    0.25
  -2  -6   4   10.26    0.25
  -2  -6   3    0.60    0.07
  -2  -6   3    0.59    0.07
  -2  -6   3    0.59    0.07
  -2  -6   2    1.71    0.10
  -2  -6   2    1.88    0.11
  -2  -6   2    1.77    0.11
  -2  -6   1    1.89    0.11
  -2  -6   1    1.79    0.10
  -2  -6   1    1.83    0.11
  -2  -6   0   19.48    0.33
  -2  -6   0   20.15    0.32
  -2  -6   0   20.19    0.34
  -2  -6  -1    1.28    0.09
  -2  -6  -1    1.49    0.10
  -2  -6  -1    1.38    0.08
  -2  -6  -1    1.62    0.10
  -2  -6  -2    1.89    0.11
  -2  -6  -2    1.81    0.10
  -2  -6  -2    1.64    0.09
  -2  -6  -2    1.65    0.09
  -2  -6  -3    0.08    0.03
  -2  -6  -3    0.10    0.04
  -2  -6  -3    0.11    0.04
  -2  -6  -3    0.09    0.03
  -2  -6  -4    0.63    0.06
  -2  -6  -4    0.69    0.07
  -2  -6  -4    0.64    0.06
  -2  -6  -4    0.53    0.06
  -2  -6  -5    1.82    0.11
  -2  -6  -5    1.72    0.10
  -2  -6  -5    1.79    0.10
  -2  -6  -5    1.76    0.10
  -2  -6  -6    0.40    0.05
  -2  -6  -6    0.30    0.05
  -2  -6  -6    0.42    0.06
  -2  -6  -6    0.39    0.05
  -2  -6  -7    0.28    0.05
  -2  -6  -7    0.27    0.05
  -2  -6  -7    0.24    0.05
  -2  -6  -7    0.24    0.05
  -2  -6  -8    5.06    0.18
  -2  -6  -8    5.28    0.18
   2   6   8    5.35    0.18
  -2  -6  -8    5.21    0.18
  -2  -6  -9    3.12    0.14
  -2  -6  -9    3.45    0.14
   2   6   9    3.05    0.14
   2   6  10    4.06    0.15
  -2  -6 -10    3.87    0.15
   2   6  11    0.62    0.06
  -2  -6 -11    0.56    0.06
   2   6  12    0.26    0.04
  -2  -6 -12    0.17    0.03
   2   7  -6    4.18    0.13
  -2  -7   6    4.38    0.14
   2   7  -5    0.20    0.04
  -2  -7   5    0.28    0.04
   2   7  -4    0.24    0.04
  -2  -7   4    0.38    0.05
  -2  -7   3    4.08    0.15
  -2  -7   3    4.05    0.16
  -2  -7   2    3.29    0.14
  -2  -7   2    3.07    0.14
  -2  -7   2    2.97    0.14
  -2  -7   1    1.26    0.09
  -2  -7   1    1.26    0.09
  -2  -7   1    1.20    0.09
  -2  -7   0    1.69    0.11
  -2  -7   0    1.85    0.11
  -2  -7   0    1.76    0.11
  -2  -7  -1   14.77    0.31
  -2  -7  -1   15.38    0.29
  -2  -7  -1   15.44    0.31
  -2  -7  -2    0.07    0.04
  -2  -7  -2    0.07    0.04
  -2  -7  -2    0.03    0.03
  -2  -7  -3    2.94    0.13
  -2  -7  -3    2.74    0.13
  -2  -7  -4    0.05    0.04
  -2  -7  -4    0.05    0.04
  -2  -7  -5    0.05    0.04
  -2  -7  -5    0.06    0.03
  -2  -7  -5    0.05    0.03
  -2  -7  -6    0.53    0.07
  -2  -7  -6    0.54    0.06
  -2  -7  -6    0.39    0.06
  -2  -7  -6    0.48    0.06
  -2  -7  -7    0.03    0.03
  -2  -7  -7    0.05    0.03
  -2  -7  -7    0.13    0.05
  -2  -7  -7    0.10    0.04
  -2  -7  -8    3.13    0.14
  -2  -7  -8    3.02    0.14
  -2  -7  -9   -0.01    0.03
  -2  -7  -9    0.01    0.03
   2   7  10    2.42    0.10
  -2  -7 -10    2.25    0.10
  -2  -7 -10    2.34    0.11
   2   7  11    0.32    0.04
  -2  -7 -11    0.38    0.04
   2   8  -4    1.75    0.09
  -2  -8   4    1.74    0.09
   2   8  -3   -0.02    0.02
  -2  -8   3    0.06    0.03
  -2  -8   2    0.15    0.04
  -2  -8   1    0.03    0.03
  -2  -8   1   -0.01    0.03
  -2  -8   0   10.28    0.24
  -2  -8   0   10.66    0.25
  -2  -8   0   10.57    0.25
  -2  -8  -1    3.62    0.15
  -2  -8  -1    3.88    0.15
  -2  -8  -1    3.87    0.15
  -2  -8  -2   21.74    0.34
  -2  -8  -2   22.28    0.36
  -2  -8  -3    0.03    0.03
  -2  -8  -3    0.03    0.03
  -2  -8  -4   11.84    0.26
  -2  -8  -4   12.12    0.26
  -2  -8  -5   28.56    0.41
  -2  -8  -5   29.48    0.41
  -2  -8  -6   78.53    0.68
  -2  -8  -6   79.29    0.65
  -2  -8  -7   19.63    0.33
  -2  -8  -7   19.69    0.32
  -2  -8  -8    2.62    0.12
  -2  -8  -8    2.66    0.12
   2   8   8    2.76    0.11
  -2  -8  -9    0.30    0.05
  -2  -8  -9    0.24    0.04
   2   8   9    0.35    0.04
  -2  -8 -10   11.85    0.21
   2   8  10   11.87    0.20
  -2  -9   1    0.29    0.04
  -2  -9   0    1.14    0.07
  -2  -9  -1    0.11    0.03
  -2  -9  -1    0.06    0.03
  -2  -9  -2    0.72    0.06
  -2  -9  -3    0.27    0.04
  -2  -9  -4    0.94    0.07
  -2  -9  -4    0.87    0.07
  -2  -9  -5    1.54    0.09
  -2  -9  -5    1.57    0.08
  -2  -9  -6    2.31    0.10
  -2  -9  -6    2.11    0.10
  -2  -9  -7    2.73    0.11
  -2  -9  -7    2.58    0.10
  -3   8   6    9.24    0.18
   3  -8  -6    9.14    0.17
  -3   8   5    3.86    0.13
   3  -8  -5    3.72    0.12
  -3   8   5    3.91    0.13
  -3   8   4   11.81    0.24
  -3   8   4   12.19    0.23
   3  -8  -4   11.72    0.22
  -3   8   3    1.65    0.10
   3  -8  -3    1.40    0.08
  -3   8   3    1.40    0.08
   3  -8  -3    1.63    0.08
  -3   8   2    0.01    0.03
   3  -8  -2    0.06    0.03
  -3   8   2    0.08    0.03
   3  -8  -2    0.01    0.02
  -3   8   1    2.97    0.13
   3  -8  -1    2.78    0.12
  -3   8   1    2.99    0.12
   3  -8  -1    2.93    0.11
   3  -8   0    3.76    0.14
  -3   8   0    3.88    0.13
   3  -8   0    4.05    0.13
  -3   8   0    3.71    0.14
   3  -8   1    0.02    0.02
  -3   8  -1    0.10    0.03
  -3   8  -2    2.60    0.11
  -3   8  -3    0.84    0.06
  -3   8  -4    0.36    0.04
   3  -7  -8    0.19    0.03
  -3   7   8    0.08    0.02
  -3   7   7    6.85    0.17
   3  -7  -7    6.92    0.17
   3  -7  -7    6.92    0.17
  -3   7   6    4.32    0.15
   3  -7  -6    4.55    0.15
   3  -7  -6    4.69    0.15
   3  -7  -5    4.25    0.15
  -3   7   5    4.07    0.15
   3  -7  -4    2.61    0.11
  -3   7   4    2.49    0.12
   3  -7  -4    2.61    0.12
   3  -7  -3    8.61    0.22
  -3   7   3    8.75    0.23
   3  -7  -3    8.42    0.21
  -3   7   2    1.66    0.10
   3  -7  -2    1.58    0.09
   3  -7  -2    1.52    0.10
  -3   7   1    0.07    0.04
   3  -7  -1    0.01    0.03
   3  -7  -1   -0.01    0.03
  -3   7   1    0.06    0.04
  -3   7   0    1.94    0.12
  -3   7   0    2.08    0.11
   3  -7   0    1.93    0.10
   3  -7   0    1.90    0.11
  -3   7  -1   15.91    0.32
   3  -7   1   15.57    0.31
  -3   7  -1   16.69    0.29
   3  -7   1   16.40    0.28
   3  -7   2    0.17    0.04
  -3   7  -2    0.18    0.04
  -3   7  -2    0.19    0.04
  -3   7  -3    3.59    0.15
  -3   7  -4    1.21    0.09
  -3   7  -5    0.09    0.03
  -3   7  -6    1.10    0.07
  -3   6   9    1.20    0.07
   3  -6  -9    0.99    0.07
  -3   6   9    0.90    0.07
   3  -6  -9    1.09    0.07
  -3   6   8    4.53    0.14
  -3   6   8    4.54    0.14
   3  -6  -8    4.32    0.14
   3  -6  -8    4.66    0.15
  -3   6   7    8.05    0.20
  -3   6   7    8.07    0.21
   3  -6  -7    8.65    0.21
   3  -6  -7    8.64    0.21
  -3   6   6   26.04    0.36
   3  -6  -6   25.82    0.37
   3  -6  -6   26.82    0.38
  -3   6   5    5.52    0.19
   3  -6  -5    5.53    0.18
   3  -6  -5    5.52    0.18
   3  -6  -4   98.49    0.72
  -3   6   4   96.03    0.77
   3  -6  -4   96.83    0.73
   3  -6  -4   99.41    0.74
  -3   6   3   43.05    0.52
   3  -6  -3   43.24    0.48
   3  -6  -3   43.43    0.49
   3  -6  -3   44.75    0.49
   3  -6  -2    0.07    0.03
  -3   6   2    0.06    0.04
   3  -6  -2    0.06    0.03
   3  -6  -1    0.10    0.04
   3  -6  -1    0.10    0.03
  -3   6   1    0.11    0.04
  -3   6   0   16.36    0.32
   3  -6   0   16.57    0.31
  -3   6   0   16.46    0.31
   3  -6   0   16.79    0.29
   3  -6   1   50.74    0.55
  -3   6  -1   50.56    0.53
   3  -6   1   52.21    0.50
  -3   6  -1   50.87    0.57
   3  -6   2    0.00    0.03
  -3   6  -2    0.00    0.04
  -3   6  -2   -0.01    0.03
   3  -6   3    2.18    0.12
  -3   6  -3    2.02    0.11
  -3   6  -3    1.93    0.12
   3  -6   4    1.66    0.11
   3  -6   4    1.79    0.10
  -3   6  -4    1.79    0.11
   3  -6   5   23.79    0.35
  -3   6  -5   23.15    0.38
   3  -6   6    7.78    0.19
  -3   6  -6    7.62    0.21
   3  -6   7   12.61    0.24
  -3   6  -7   12.95    0.26
   3  -6   8    0.73    0.05
  -3   6  -8    0.71    0.06
  -3   5  10    4.16    0.13
   3  -5 -10    4.04    0.13
  -3   5  10    3.87    0.13
   3  -5 -10    4.21    0.13
  -3   5   9    2.15    0.10
   3  -5  -9    2.11    0.10
  -3   5   8    2.46    0.12
   3  -5  -8    2.47    0.12
  -3   5   7    0.83    0.07
  -3   5   7    0.82    0.07
   3  -5  -7    0.79    0.07
   3  -5  -6    0.05    0.03
  -3   5   6    0.01    0.03
  -3   5   6    0.06    0.04
  -3   5   5   11.50    0.25
  -3   5   5   11.11    0.26
   3  -5  -5   11.78    0.26
   3  -5  -4   -0.01    0.03
   3  -5  -4    0.01    0.03
  -3   5   4   -0.04    0.04
   3  -5  -4    0.07    0.03
  -3   5   4    0.02    0.03
  -3   5   3    3.31    0.14
   3  -5  -3    3.43    0.13
   3  -5  -3    3.28    0.13
   3  -5  -2    0.19    0.04
   3  -5  -2    0.20    0.04
  -3   5   2    0.21    0.04
  -3   5   1    0.71    0.07
   3  -5  -1    0.73    0.06
   3  -5  -1    0.69    0.06
   3  -5   0    0.67    0.06
  -3   5   0    0.63    0.06
   3  -5   0    0.68    0.06
   3  -5   0    0.72    0.06
   3  -5   1    3.79    0.14
   3  -5   1    3.60    0.13
  -3   5  -1    3.61    0.14
  -3   5  -1    3.59    0.15
  -3   5  -2    1.73    0.11
   3  -5   2    1.96    0.11
  -3   5  -2    1.76    0.10
   3  -5   3    1.58    0.10
  -3   5  -3    1.48    0.10
  -3   5  -3    1.51    0.09
   3  -5   3    1.48    0.09
   3  -5   4    0.76    0.07
  -3   5  -4    0.58    0.06
   3  -5   4    0.69    0.07
  -3   5  -4    0.69    0.07
   3  -5   5    0.60    0.07
   3  -5   5    0.57    0.06
  -3   5  -5    0.52    0.07
  -3   5  -6    0.06    0.04
   3  -5   6    0.11    0.04
   3  -5   7    1.00    0.08
  -3   5  -7    1.02    0.08
   3  -5   8    2.64    0.12
  -3   5  -8    2.78    0.13
  -3   5  -9    1.83    0.09
   3  -5   9    1.73    0.09
   3  -5  10    3.80    0.11
  -3   5 -10    4.00    0.12
  -3   4  11    0.08    0.02
  -3   4  11    0.10    0.03
  -3   4  10    0.38    0.05
  -3   4  10    0.41    0.05
   3  -4 -10    0.46    0.05
   3  -4  -9    3.71    0.14
  -3   4   9    3.50    0.14
   3  -4  -8    0.19    0.04
  -3   4   8    0.19    0.05
   3  -4  -7   13.48    0.25
   3  -4  -7   13.16    0.27
   3  -4  -6    0.06    0.02
   3  -4  -6    0.03    0.03
  -3   4   6    0.11    0.04
  -3   4   6    0.11    0.04
   3  -4  -5    0.13    0.03
  -3   4   5    0.11    0.03
  -3   4   5    0.10    0.03
   3  -4  -5    0.16    0.03
   3  -4  -5    0.10    0.03
   3  -4  -4    1.53    0.08
   3  -4  -4    1.68    0.09
  -3   4   4    1.71    0.09
  -3   4   4    1.56    0.09
   3  -4  -3   13.78    0.45
   3  -4  -3   13.68    0.24
  -3   4   3   13.17    0.24
  -3   4   3   14.00    0.26
   3  -4  -2    1.68    0.16
   3  -4  -2    1.38    0.13
  -3   4   2    1.65    0.16
   3  -4  -2    1.51    0.16
  -3   4   1    4.21    0.24
   3  -4  -1    4.01    0.25
   3  -4  -1    3.78    0.22
   3  -4  -1    4.26    0.24
   3  -4   0    1.72    0.15
  -3   4   0    1.56    0.15
   3  -4   0    1.51    0.14
   3  -4   0    1.79    0.17
   3  -4   1    3.67    0.22
   3  -4   1    3.79    0.23
  -3   4  -1    3.58    0.22
   3  -4   1    3.51    0.23
   3  -4   2    5.20    0.26
   3  -4   2    5.08    0.27
  -3   4  -2    5.42    0.27
   3  -4   2    5.39    0.29
   3  -4   3   12.00    0.23
   3  -4   3   12.17    0.40
   3  -4   3   11.09    0.42
  -3   4  -3   11.46    0.39
   3  -4   3   12.11    0.44
   3  -4   3   12.20    0.23
  -3   4  -3   11.64    0.23
  -3   4  -3   12.16    0.25
   3  -4   4    1.43    0.08
  -3   4  -4    1.44    0.09
   3  -4   4    1.56    0.09
  -3   4  -4    1.60    0.10
   3  -4   5    2.69    0.12
  -3   4  -5    2.67    0.12
  -3   4  -5    2.57    0.13
   3  -4   6    7.73    0.21
  -3   4  -6    7.59    0.22
   3  -4   7    2.78    0.13
  -3   4  -7    2.65    0.13
  -3   4  -8    0.13    0.04
   3  -4   8    0.10    0.04
   3  -4   9    2.31    0.12
  -3   4  -9    2.33    0.12
  -3   4 -10    0.25    0.04
   3  -4  10    0.36    0.05
  -3   4 -11    1.51    0.07
   3  -4  11    1.78    0.08
  -3   4 -11    1.76    0.08
   3  -3 -11    0.18    0.03
  -3   3  11    0.12    0.03
  -3   3  11    0.11    0.03
   3  -3 -10    6.35    0.16
  -3   3  10    5.90    0.19
  -3   3  10    6.15    0.18
  -3   3  10    5.99    0.19
   3  -3  -9    6.72    0.19
  -3   3   9    6.71    0.20
   3  -3  -9    6.52    0.18
  -3   3   8    4.26    0.16
   3  -3  -8    4.48    0.15
   3  -3  -8    4.43    0.16
   3  -3  -7   20.31    0.33
   3  -3  -7   19.66    0.32
  -3   3   7   19.67    0.35
   3  -3  -6    0.04    0.03
   3  -3  -6    0.01    0.03
  -3   3   6    0.05    0.04
   3  -3  -5    0.91    0.07
  -3   3   5    0.97    0.07
   3  -3  -5    0.91    0.06
  -3   3   4    0.03    0.04
   3  -3  -4    0.05    0.05
  -3   3   4    0.08    0.06
   3  -3  -3    8.64    0.33
   3  -3  -3    8.36    0.31
  -3   3   3    9.36    0.35
  -3   3   3    8.94    0.32
   3  -3  -2    1.91    0.15
   3  -3  -2    1.83    0.14
  -3   3   2    2.06    0.16
   3  -3  -2    2.14    0.17
  -3   3   1    1.02    0.12
   3  -3  -1    0.95    0.10
   3  -3  -1    1.06    0.12
   3  -3  -1    0.95    0.10
   3  -3   0    1.37    0.12
  -3   3   0    1.29    0.13
   3  -3   0    1.35    0.13
   3  -3   0    1.47    0.12
   3  -3   1    0.50    0.08
   3  -3   1    0.46    0.08
   3  -3   1    0.31    0.07
  -3   3  -1    0.35    0.07
   3  -3   2    2.15    0.15
   3  -3   2    2.05    0.16
  -3   3  -2    1.73    0.14
   3  -3   2    2.10    0.16
  -3   3  -2    2.15    0.15
   3  -3   3    0.35    0.06
   3  -3   3    0.38    0.07
  -3   3  -3    0.29    0.06
   3  -3   3    0.33    0.08
  -3   3  -3    0.42    0.08
   3  -3   4   12.83    0.41
  -3   3  -4   11.76    0.35
   3  -3   4   12.07    0.40
  -3   3  -4   12.12    0.39
   3  -3   4   12.98    0.37
   3  -3   5   18.91    0.30
   3  -3   5   18.26    0.51
  -3   3  -5   18.31    0.51
  -3   3  -5   19.01    0.31
   3  -3   6    3.44    0.14
  -3   3  -6    3.36    0.12
  -3   3  -6    3.27    0.13
  -3   3  -6    3.38    0.14
   3  -3   7    8.11    0.22
  -3   3  -7    8.26    0.23
   3  -3   7    8.58    0.22
   3  -3   8    5.81    0.19
  -3   3  -8    5.86    0.19
   3  -3   8    5.84    0.18
  -3   3  -9   12.06    0.28
   3  -3   9   11.72    0.27
   3  -3   9   12.22    0.26
   3  -3  10   20.31    0.34
   3  -3  10   20.67    0.33
  -3   3 -10   20.05    0.34
   3  -3  11   17.45    0.29
  -3   3 -11   17.55    0.29
   3  -3  11   17.31    0.27
  -3   3 -12    4.09    0.12
  -3   3 -12    3.95    0.12
  -3   2  11    2.48    0.12
   3  -2 -11    2.38    0.09
  -3   2  11    2.40    0.11
   3  -2 -11    2.47    0.10
   3  -2 -10    6.36    0.17
  -3   2  10    6.07    0.20
  -3   2  10    6.41    0.18
  -3   2  10    6.23    0.19
   3  -2 -10    6.23    0.18
   3  -2  -9    0.88    0.07
   3  -2  -9    0.89    0.07
  -3   2   9    0.97    0.08
  -3   2   9    0.98    0.09
   3  -2  -8   19.65    0.33
  -3   2   8   19.29    0.34
   3  -2  -8   19.22    0.32
   3  -2  -7   69.19    0.60
  -3   2   7   67.53    0.63
   3  -2  -7   68.15    0.59
   3  -2  -6   98.81    0.68
   3  -2  -6   98.09    0.68
  -3   2   6   98.41    0.73
  -3   2   5   46.48    0.84
   3  -2  -5   48.87    0.85
  -3   2   5   46.91    0.85
  -3   2   4    7.65    0.32
   3  -2  -4    7.22    0.29
  -3   2   4    7.96    0.33
   3  -2  -4    7.60    0.32
  -3   2   3   32.96    0.60
   3  -2  -3   34.31    0.63
  -3   2   3   33.26    0.62
   3  -2  -3   32.25    0.58
  -3   2   3   33.79    0.57
  -3   2   2   42.57    0.63
   3  -2  -2   45.22    0.67
  -3   2   2   43.61    0.67
   3  -2  -2   43.09    0.65
  -3   2   2   44.77    0.65
   3  -2  -1  127.62    1.07
  -3   2   1  130.24    1.10
   3  -2  -1  127.75    1.10
   3  -2   0   17.09    0.37
  -3   2   0   15.80    0.37
   3  -2   0   16.19    0.37
   3  -2   0   16.91    0.40
  -3   2   0   17.47    0.34
   3  -2   1    5.42    0.22
  -3   2  -1    5.92    0.21
  -3   2  -1    5.49    0.21
   3  -2   1    5.48    0.23
   3  -2   1    6.02    0.21
   3  -2   2   -0.01    0.03
   3  -2   2   -0.01    0.03
  -3   2  -2    0.01    0.04
  -3   2  -2    0.04    0.03
   3  -2   2    0.07    0.05
   3  -2   3    2.21    0.13
   3  -2   3    1.98    0.14
  -3   2  -3    1.90    0.12
   3  -2   3    2.06    0.15
  -3   2  -3    1.81    0.13
   3  -2   4   15.58    0.41
   3  -2   4   15.28    0.41
  -3   2  -4   15.17    0.41
   3  -2   5   39.87    0.68
   3  -2   5   37.81    0.68
  -3   2  -5   39.16    0.70
   3  -2   6   24.70    0.57
  -3   2  -6   25.50    0.60
   3  -2   7   17.00    0.30
   3  -2   7   17.49    0.30
  -3   2  -7   17.88    0.28
  -3   2  -7   17.30    0.31
  -3   2  -7   17.61    0.29
   3  -2   8    1.97    0.11
   3  -2   8    1.86    0.11
  -3   2  -8    1.80    0.11
   3  -2   9   10.10    0.24
  -3   2  -9   10.13    0.25
   3  -2   9    9.96    0.25
   3  -2  10   20.23    0.34
  -3   2 -10   19.78    0.35
   3  -2  10   20.05    0.35
   3  -2  11   32.15    0.41
  -3   2 -11   32.27    0.42
   3  -2  11   31.33    0.41
  -3   2 -12    1.90    0.09
   3  -2  12    1.84    0.09
  -3   2 -12    2.05    0.10
  -3   2 -12    1.99    0.10
   3  -2  12    1.75    0.09
  -3   1  11    4.03    0.14
   3  -1 -11    3.66    0.12
   3  -1 -11    3.88    0.12
   3  -1 -10    9.42    0.21
  -3   1  10    9.67    0.25
   3  -1 -10    9.58    0.22
  -3   1  10    9.32    0.23
  -3   1  10    9.81    0.22
   3  -1  -9    0.38    0.05
   3  -1  -9    0.30    0.05
  -3   1   9    0.39    0.05
  -3   1   9    0.35    0.06
  -3   1   9    0.28    0.05
   3  -1  -8    6.04    0.19
  -3   1   8    5.99    0.21
  -3   1   8    6.00    0.18
  -3   1   8    5.45    0.19
   3  -1  -8    5.71    0.18
  -3   1   8    5.47    0.17
   3  -1  -7    9.59    0.22
  -3   1   7    8.88    0.22
  -3   1   7    9.32    0.23
  -3   1   7    9.45    0.23
   3  -1  -7    9.14    0.22
   3  -1  -6    1.14    0.07
   3  -1  -6    1.10    0.07
  -3   1   6    1.11    0.08
  -3   1   6    1.16    0.08
  -3   1   6    1.05    0.07
  -3   1   5    1.26    0.14
   3  -1  -5    1.09    0.13
   3  -1  -5    0.99    0.12
  -3   1   4    1.37    0.14
   3  -1  -4    1.17    0.12
  -3   1   4    1.42    0.14
   3  -1  -4    0.98    0.11
   3  -1  -3   17.04    0.41
  -3   1   3   17.76    0.44
   3  -1  -3   17.76    0.40
  -3   1   3   18.00    0.43
  -3   1   3   18.75    0.40
  -3   1   2   19.19    0.41
   3  -1  -2   18.48    0.41
  -3   1   2   19.70    0.42
   3  -1  -2   19.30    0.38
   3  -1  -2   19.69    0.38
  -3   1   2   19.79    0.40
  -3   1   1    7.56    0.24
   3  -1  -1    7.93    0.23
   3  -1  -1    7.64    0.25
  -3   1   1    7.56    0.23
   3  -1  -1    7.88    0.24
  -3   1   1    7.60    0.25
  -3   1   0   21.34    0.35
   3  -1   0   23.24    0.39
   3  -1   0   21.36    0.40
  -3   1   0   21.56    0.38
   3  -1   0   21.93    0.36
   3  -1   0   22.39    0.41
  -3   1   0   22.84    0.38
  -3   1   0   22.14    0.42
   3  -1   1   70.14    0.64
  -3   1  -1   69.81    0.55
  -3   1  -1   68.52    0.64
   3  -1   1   67.30    0.72
   3  -1   1   67.66    0.70
  -3   1  -1   67.89    0.73
   3  -1   2    8.10    0.21
   3  -1   2    7.28    0.25
   3  -1   2    7.48    0.23
  -3   1  -2    7.61    0.21
  -3   1  -2    7.50    0.24
  -3   1  -2    7.15    0.24
   3  -1   3    1.90    0.10
   3  -1   3    1.83    0.12
  -3   1  -3    1.87    0.10
  -3   1  -3    2.12    0.13
  -3   1  -3    1.74    0.13
   3  -1   3    1.82    0.13
   3  -1   4   15.78    0.36
   3  -1   4   15.74    0.39
  -3   1  -4   16.03    0.40
  -3   1  -4   15.71    0.35
   3  -1   5   31.10    0.54
   3  -1   5   31.61    0.58
  -3   1  -5   31.34    0.55
  -3   1  -5   32.50    0.60
   3  -1   6    1.91    0.16
  -3   1  -6    1.78    0.14
  -3   1  -6    1.60    0.15
  -3   1  -7    5.13    0.26
   3  -1   7    5.36    0.27
  -3   1  -7    5.60    0.15
  -3   1  -7    5.69    0.29
  -3   1  -8    0.68    0.06
   3  -1   8    0.49    0.06
  -3   1  -8    0.48    0.05
  -3   1  -8    0.65    0.06
   3  -1   8    0.53    0.06
  -3   1  -9    9.85    0.23
  -3   1  -9    9.90    0.24
   3  -1   9    9.61    0.23
   3  -1   9   10.45    0.26
   3  -1  10    0.92    0.08
  -3   1 -10    0.92    0.08
   3  -1  10    0.90    0.08
  -3   1 -11    6.82    0.20
   3  -1  11    6.76    0.19
  -3   1 -11    6.34    0.19
   3  -1  11    6.54    0.20
  -3   1 -12    0.63    0.06
   3  -1  12    0.55    0.05
  -3   1 -12    0.63    0.06
  -3   1 -12    0.63    0.06
   3  -1  12    0.57    0.06
  -3   1 -13    0.11    0.03
  -3   1 -13    0.13    0.03
   3  -1  13    0.18    0.03
   3   0 -11    0.12    0.03
  -3   0  11    0.12    0.03
   3   0 -11    0.09    0.03
  -3   0  11    0.10    0.03
   3   0 -10    2.12    0.10
  -3   0  10    1.88    0.11
  -3   0  10    2.06    0.09
  -3   0  10    1.99    0.10
   3   0 -10    1.98    0.10
   3   0  -9    0.17    0.04
   3   0  -9    0.30    0.05
  -3   0   9    0.22    0.04
  -3   0   9    0.32    0.06
  -3   0   9    0.26    0.05
  -3   0   9    0.20    0.04
  -3   0   9    0.26    0.05
   3   0  -8    2.61    0.12
  -3   0   8    2.77    0.13
  -3   0   8    2.74    0.12
  -3   0   8    2.55    0.14
  -3   0   8    2.83    0.13
   3   0  -8    2.83    0.13
  -3   0   8    2.73    0.13
   3   0  -7    4.25    0.15
  -3   0   7    4.40    0.15
  -3   0   7    4.49    0.18
   3   0  -7    4.44    0.16
  -3   0   7    4.54    0.16
  -3   0   7    4.29    0.17
  -3   0   7    4.34    0.16
   3   0  -6    5.21    0.16
   3   0  -6    5.24    0.16
  -3   0   6    5.44    0.19
  -3   0   6    5.12    0.15
  -3   0   6    5.21    0.16
  -3   0   6    5.17    0.17
  -3   0   6    4.98    0.16
   3   0  -5    0.33    0.07
  -3   0   5    0.23    0.07
   3   0  -5    0.13    0.05
  -3   0   5    0.27    0.07
  -3   0   4    7.93    0.31
   3   0  -4    7.60    0.30
   3   0  -4    8.09    0.31
  -3   0   4    8.31    0.31
  -3   0   3   45.70    0.61
   3   0  -3   42.66    0.66
   3   0  -3   42.56    0.64
  -3   0   3   45.91    0.65
  -3   0   3   43.72    0.67
  -3   0   2    0.72    0.08
   3   0  -2    0.79    0.09
  -3   0   2    0.98    0.09
   3   0  -2    0.76    0.09
  -3   0   2    0.74    0.08
  -3   0   2    0.67    0.08
  -3   0   1    0.03    0.03
  -3   0   1   -0.01    0.03
   3   0  -1    0.03    0.04
  -3   0   1    0.03    0.03
   3   0  -1    0.05    0.03
  -3   0   1    0.04    0.04
  -3   0   1    0.01    0.03
   3   0  -1    0.06    0.04
   3   0   0    1.37    0.10
  -3   0   0    1.47    0.09
  -3   0   0    1.42    0.08
  -3   0   0    1.27    0.09
   3   0   0    1.22    0.09
   3   0   0    1.59    0.10
  -3   0   0    1.67    0.10
  -3   0   0    1.47    0.11
   3   0   1   27.80    0.36
   3   0   1   25.40    0.40
  -3   0  -1   27.05    0.34
  -3   0  -1   26.56    0.31
  -3   0  -1   25.59    0.34
   3   0   1   25.82    0.40
  -3   0  -1   24.61    0.43
  -3   0  -1   26.47    0.35
  -3   0  -1   24.97    0.42
   3   0   2   27.03    0.32
   3   0   2   25.92    0.40
  -3   0  -2   26.84    0.32
  -3   0  -2   26.59    0.32
   3   0   2   25.52    0.42
  -3   0  -2   25.87    0.44
  -3   0  -2   25.31    0.42
  -3   0  -3   37.30    0.51
   3   0   3   37.76    0.47
  -3   0  -3   39.31    0.43
  -3   0  -3   37.33    0.55
   3   0   3   37.71    0.54
  -3   0  -4    7.54    0.21
  -3   0  -4    6.70    0.25
   3   0   4    6.72    0.24
   3   0   4    7.22    0.21
  -3   0  -4    6.75    0.22
   3   0   5   34.52    0.58
   3   0   5   36.65    0.50
  -3   0  -5   35.95    0.59
  -3   0  -5   35.47    0.60
  -3   0  -6    2.04    0.15
   3   0   6    2.05    0.16
  -3   0  -6    1.91    0.16
  -3   0  -7    0.49    0.09
   3   0   7    0.38    0.08
  -3   0  -7    0.31    0.07
  -3   0  -8   -0.03    0.03
   3   0   8    0.01    0.02
  -3   0  -8   -0.01    0.02
  -3   0  -8   -0.02    0.03
   3   0   8    0.03    0.03
   3   0   9    0.30    0.04
  -3   0  -9    0.28    0.05
  -3   0  -9    0.26    0.04
   3   0   9    0.32    0.05
  -3   0 -10    2.18    0.12
   3   0  10    2.38    0.11
  -3   0 -10    2.32    0.11
   3   0  10    2.31    0.13
  -3   0 -10    2.22    0.12
  -3   0 -11    0.99    0.08
   3   0  11    0.99    0.08
  -3   0 -11    0.90    0.08
  -3   0 -11    0.92    0.08
  -3   0 -12    1.64    0.10
  -3   0 -12    1.53    0.09
   3   0  12    1.64    0.10
  -3   0 -13    0.45    0.05
  -3   0 -13    0.46    0.05
   3   0  13    0.36    0.05
   3   1 -11    4.64    0.13
   3   1 -11    4.86    0.13
  -3  -1  11    4.85    0.14
  -3  -1  11    4.86    0.12
  -3  -1  11    4.71    0.14
   3   1 -10    0.73    0.06
  -3  -1  10    0.74    0.06
  -3  -1  10    0.67    0.07
  -3  -1  10    0.71    0.06
  -3  -1  10    0.73    0.06
   3   1 -10    0.76    0.06
  -3  -1   9    7.03    0.21
   3   1  -9    7.59    0.20
   3   1  -9    7.28    0.20
  -3  -1   9    7.26    0.19
  -3  -1   9    7.22    0.22
  -3  -1   9    7.06    0.20
   3   1  -8   71.76    0.63
   3   1  -8   70.04    0.62
  -3  -1   8   70.35    0.70
  -3  -1   8   71.44    0.62
  -3  -1   8   70.53    0.64
  -3  -1   8   70.36    0.66
   3   1  -7   79.02    0.64
  -3  -1   7   78.88    0.64
  -3  -1   7   79.22    0.74
   3   1  -7   80.19    0.66
  -3  -1   7   79.02    0.66
  -3  -1   7   79.45    0.68
  -3  -1   7   79.02    0.68
   3   1  -6   30.76    0.38
  -3  -1   6   30.80    0.38
  -3  -1   6   31.71    0.45
   3   1  -6   30.39    0.39
  -3  -1   6   30.06    0.39
  -3  -1   6   31.84    0.42
  -3  -1   6   31.36    0.41
  -3  -1   5    6.19    0.31
   3   1  -5    6.81    0.32
  -3  -1   5    6.56    0.33
   3   1  -5    6.53    0.31
  -3  -1   4    4.81    0.26
   3   1  -4    4.77    0.25
  -3  -1   4    5.68    0.28
   3   1  -4    5.12    0.26
   3   1  -3  181.63    1.40
  -3  -1   3  185.53    1.46
  -3  -1   3  183.91    1.41
   3   1  -2   10.88    0.32
  -3  -1   2   10.71    0.32
  -3  -1   2   11.22    0.32
   3   1  -2   10.79    0.31
  -3  -1   1  173.70    1.18
   3   1  -1  175.15    1.18
  -3  -1   1  176.89    1.20
  -3  -1   1  177.83    1.17
   3   1  -1  175.34    1.19
  -3  -1   1  177.34    1.04
  -3  -1   0   -0.01    0.04
   3   1   0    0.07    0.04
  -3  -1   0    0.01    0.03
  -3  -1   0    0.03    0.03
   3   1   0    0.03    0.04
  -3  -1   0    0.02    0.03
  -3  -1   0    0.05    0.04
  -3  -1  -1    2.79    0.15
   3   1   1    2.96    0.14
  -3  -1  -1    3.14    0.14
  -3  -1  -1    2.94    0.14
   3   1   1    3.17    0.13
  -3  -1  -1    3.00    0.15
   3   1   2    0.00    0.03
  -3  -1  -2    0.12    0.04
  -3  -1  -2    0.06    0.03
   3   1   2    0.09    0.04
  -3  -1  -2    0.03    0.04
  -3  -1  -2    0.05    0.04
  -3  -1  -3   59.27    0.66
  -3  -1  -3   63.89    0.64
   3   1   3   60.33    0.66
  -3  -1  -3   58.49    0.69
  -3  -1  -3   58.23    0.70
   3   1   3   63.27    0.55
  -3  -1  -4  211.24    1.22
  -3  -1  -4  204.60    1.25
   3   1   4  209.64    1.31
  -3  -1  -4  206.46    1.37
  -3  -1  -4  202.38    1.33
  -3  -1  -5   10.28    0.30
  -3  -1  -5   10.03    0.32
   3   1   5    9.47    0.30
  -3  -1  -5    9.61    0.30
  -3  -1  -5    9.36    0.31
   3   1   5    9.50    0.26
   3   1   6   25.77    0.48
  -3  -1  -6   25.03    0.53
  -3  -1  -6   25.79    0.55
   3   1   6   25.16    0.53
  -3  -1  -6   24.66    0.52
  -3  -1  -6   26.48    0.55
  -3  -1  -7    0.64    0.10
   3   1   7    0.78    0.10
  -3  -1  -7    0.84    0.11
   3   1   7    0.76    0.10
  -3  -1  -7    0.96    0.11
  -3  -1  -8  184.96    0.94
  -3  -1  -8  185.10    0.94
   3   1   8  185.55    0.97
  -3  -1  -8  182.06    0.93
  -3  -1  -8  180.32    0.93
  -3  -1  -9   12.17    0.26
  -3  -1  -9   11.65    0.25
   3   1   9   12.03    0.26
  -3  -1  -9   11.46    0.25
  -3  -1 -10  135.33    0.89
   3   1  10  136.78    0.88
  -3  -1 -10  137.14    0.89
   3   1  10  135.19    0.92
  -3  -1 -11    3.39    0.15
  -3  -1 -11    3.49    0.15
   3   1  11    3.42    0.15
  -3  -1 -12    1.01    0.08
   3   1  12    1.05    0.08
  -3  -1 -12    0.99    0.08
  -3  -1 -13    2.67    0.11
  -3  -1 -13    2.72    0.11
   3   1  13    2.63    0.11
  -3  -2  10    2.36    0.11
   3   2 -10    2.34    0.10
  -3  -2  10    2.44    0.10
  -3  -2  10    2.23    0.10
   3   2 -10    2.36    0.10
  -3  -2  10    2.31    0.11
   3   2  -9    4.51    0.15
   3   2  -9    4.54    0.15
  -3  -2   9    4.72    0.16
  -3  -2   9    4.42    0.17
  -3  -2   9    4.52    0.16
  -3  -2   9    4.62    0.16
   3   2  -8    3.35    0.14
   3   2  -8    3.15    0.13
  -3  -2   8    3.16    0.14
  -3  -2   8    3.19    0.15
  -3  -2   8    3.21    0.14
  -3  -2   8    3.09    0.14
   3   2  -7    5.13    0.17
   3   2  -7    4.93    0.16
  -3  -2   7    5.06    0.17
  -3  -2   7    5.04    0.19
  -3  -2   7    5.10    0.18
  -3  -2   7    4.89    0.17
  -3  -2   6    4.90    0.18
   3   2  -6    4.91    0.16
  -3  -2   6    4.87    0.16
  -3  -2   6    4.95    0.17
  -3  -2   6    5.04    0.16
  -3  -2   6    4.87    0.17
  -3  -2   5    1.18    0.08
  -3  -2   5    1.19    0.09
  -3  -2   5    1.28    0.08
  -3  -2   5    1.20    0.08
  -3  -2   5    1.24    0.08
   3   2  -4    0.38    0.07
   3   2  -4    0.34    0.07
  -3  -2   4    0.32    0.07
   3   2  -3   16.70    0.45
  -3  -2   3   16.51    0.46
   3   2  -3   15.98    0.43
   3   2  -2    1.92    0.14
  -3  -2   2    1.96    0.15
   3   2  -2    2.05    0.15
   3   2  -1   94.27    0.91
  -3  -2   1   92.80    0.94
   3   2  -1   94.36    0.92
  -3  -2   1   95.42    0.87
   3   2   0    1.30    0.10
  -3  -2   0    1.32    0.11
   3   2   0    1.23    0.11
  -3  -2   0    1.34    0.11
  -3  -2   0    1.20    0.11
  -3  -2  -1    0.65    0.08
  -3  -2  -1    0.64    0.08
   3   2   1    0.68    0.07
   3   2   1    0.71    0.08
   3   2   1    0.63    0.06
  -3  -2  -1    0.67    0.08
   3   2   2    0.15    0.03
  -3  -2  -2    0.21    0.05
  -3  -2  -2    0.18    0.05
   3   2   2    0.17    0.04
  -3  -2  -2    0.21    0.06
  -3  -2  -3    1.99    0.13
  -3  -2  -3    2.06    0.14
   3   2   3    2.02    0.13
  -3  -2  -3    1.96    0.14
   3   2   3    2.10    0.10
   3   2   4   13.54    0.34
  -3  -2  -4   13.83    0.36
  -3  -2  -4   13.52    0.36
   3   2   4   13.74    0.29
  -3  -2  -5   43.92    0.68
   3   2   5   43.13    0.65
  -3  -2  -5   44.92    0.69
  -3  -2  -5   43.08    0.65
   3   2   5   43.46    0.57
   3   2   6    1.47    0.12
  -3  -2  -6    1.68    0.15
  -3  -2  -6    1.63    0.14
   3   2   6    1.46    0.14
  -3  -2  -6    1.47    0.13
   3   2   7    0.17    0.05
  -3  -2  -7    0.22    0.06
  -3  -2  -7    0.20    0.07
  -3  -2  -7    0.42    0.08
   3   2   7    0.22    0.07
  -3  -2  -8    2.87    0.12
  -3  -2  -8    2.70    0.23
  -3  -2  -8    2.85    0.12
   3   2   8    2.65    0.20
  -3  -2  -8    2.62    0.11
   3   2   8    2.70    0.12
  -3  -2  -9    3.69    0.14
   3   2   9    3.78    0.15
  -3  -2  -9    3.78    0.14
  -3  -2 -10    5.05    0.18
  -3  -2 -10    5.20    0.17
   3   2  10    5.35    0.18
  -3  -2 -11    1.38    0.10
   3   2  11    1.55    0.10
  -3  -2 -11    1.35    0.09
   3   2  11    1.46    0.09
  -3  -2 -12    1.74    0.10
   3   2  12    1.88    0.10
  -3  -2 -12    1.76    0.10
   3   2  12    1.65    0.09
  -3  -2 -13    0.40    0.05
  -3  -2 -13    0.35    0.04
   3   2  13    0.38    0.04
   3   3 -10    0.13    0.03
  -3  -3  10    0.08    0.02
  -3  -3  10    0.12    0.03
  -3  -3  10    0.10    0.02
  -3  -3  10    0.09    0.03
   3   3  -9    0.76    0.06
   3   3  -9    0.98    0.07
  -3  -3   9    0.92    0.07
  -3  -3   9    0.82    0.07
  -3  -3   9    0.89    0.07
  -3  -3   9    0.84    0.07
   3   3  -8    2.67    0.12
   3   3  -8    2.78    0.12
  -3  -3   8    2.50    0.12
  -3  -3   8    2.51    0.13
  -3  -3   8    2.44    0.12
  -3  -3   8    2.46    0.12
   3   3  -7   29.33    0.41
   3   3  -7   29.48    0.38
  -3  -3   7   28.41    0.40
  -3  -3   7   28.28    0.44
  -3  -3   7   28.08    0.41
  -3  -3   7   29.32    0.42
  -3  -3   6    6.56    0.21
  -3  -3   6    6.36    0.19
  -3  -3   6    6.45    0.19
   3   3  -6    6.63    0.19
  -3  -3   6    6.28    0.19
   3   3  -5   30.82    0.40
  -3  -3   5   30.81    0.39
  -3  -3   5   30.13    0.43
  -3  -3   5   29.51    0.40
  -3  -3   5   30.68    0.41
  -3  -3   4    0.06    0.03
  -3  -3   4    0.06    0.03
  -3  -3   4    0.05    0.03
   3   3  -3   -0.01    0.03
   3   3  -3    0.10    0.04
  -3  -3   3    0.05    0.04
   3   3  -2    1.34    0.13
  -3  -3   2    1.44    0.14
   3   3  -2    1.55    0.14
  -3  -3   2    1.39    0.12
  -3  -3   2    1.31    0.13
   3   3  -1   25.35    0.51
   3   3  -1   25.65    0.47
  -3  -3   1   26.41    0.56
   3   3  -1   25.63    0.51
  -3  -3   1   25.78    0.52
  -3  -3   1   25.62    0.49
  -3  -3   0    0.13    0.03
   3   3   0    0.28    0.05
  -3  -3   0    0.23    0.06
   3   3   0    0.17    0.04
   3   3   0    0.20    0.05
  -3  -3   0    0.17    0.05
  -3  -3   0    0.22    0.06
   3   3   1    3.87    0.17
  -3  -3  -1    3.46    0.20
  -3  -3  -1    3.50    0.19
   3   3   1    3.55    0.18
   3   3   1    3.88    0.16
  -3  -3  -1    3.58    0.19
  -3  -3  -2    0.02    0.04
   3   3   2   -0.03    0.04
  -3  -3  -2   -0.01    0.03
   3   3   2    0.01    0.03
   3   3   2   -0.09    0.03
  -3  -3  -2    0.05    0.04
  -3  -3  -3    0.65    0.09
  -3  -3  -3    0.60    0.08
   3   3   3    0.66    0.08
  -3  -3  -3    0.62    0.09
   3   3   3    0.65    0.07
  -3  -3  -4    0.78    0.10
  -3  -3  -4    0.73    0.09
   3   3   4    0.71    0.08
   3   3   4    0.72    0.09
  -3  -3  -5    0.81    0.11
   3   3   5    0.67    0.09
  -3  -3  -5    0.84    0.10
   3   3   5    0.73    0.08
  -3  -3  -6   10.80    0.40
   3   3   6   10.64    0.36
  -3  -3  -6   11.36    0.38
   3   3   6   10.86    0.34
   3   3   7    3.35    0.21
  -3  -3  -7    3.66    0.25
   3   3   7    3.96    0.24
  -3  -3  -8    2.30    0.11
  -3  -3  -8    2.17    0.10
  -3  -3  -9    0.12    0.03
  -3  -3  -9    0.09    0.03
  -3  -3  -9    0.13    0.03
  -3  -3 -10   21.87    0.37
  -3  -3 -10   22.82    0.34
  -3  -3 -10   22.55    0.35
  -3  -3 -11   12.64    0.28
   3   3  11   12.56    0.28
  -3  -3 -11   13.04    0.27
  -3  -3 -11   12.69    0.25
  -3  -3 -12    8.42    0.22
   3   3  12    8.22    0.21
  -3  -3 -12    8.04    0.20
  -3  -3 -12    8.23    0.19
   3   3  13    7.70    0.18
  -3  -3 -13    8.07    0.19
  -3  -3 -13    7.69    0.18
   3   4  -9    0.25    0.03
  -3  -4   9    0.15    0.03
  -3  -4   9    0.19    0.03
  -3  -4   9    0.17    0.03
  -3  -4   9    0.23    0.03
   3   4  -8    1.66    0.09
  -3  -4   8    1.83    0.10
  -3  -4   8    1.73    0.09
  -3  -4   8    1.58    0.09
  -3  -4   8    1.66    0.09
   3   4  -7    0.06    0.03
  -3  -4   7    0.11    0.03
  -3  -4   7    0.07    0.03
  -3  -4   7    0.05    0.03
  -3  -4   7    0.08    0.03
   3   4  -6   17.67    0.32
  -3  -4   6   16.85    0.33
  -3  -4   6   17.42    0.31
  -3  -4   6   16.62    0.32
  -3  -4   6   17.38    0.31
   3   4  -5    0.55    0.06
  -3  -4   5    0.36    0.06
  -3  -4   5    0.47    0.06
  -3  -4   5    0.39    0.05
  -3  -4   5    0.44    0.06
  -3  -4   4    1.02    0.07
  -3  -4   4    0.96    0.08
  -3  -4   4    0.99    0.08
  -3  -4   3    1.69    0.09
  -3  -4   3    2.06    0.11
  -3  -4   3    1.76    0.09
  -3  -4   3    1.87    0.11
  -3  -4   2   18.83    0.31
   3   4  -2   18.76    0.52
   3   4  -2   18.03    0.47
  -3  -4   2   19.00    0.55
  -3  -4   2   18.76    0.33
  -3  -4   2   18.98    0.32
   3   4  -1    2.39    0.17
  -3  -4   1    2.53    0.20
   3   4  -1    2.30    0.16
   3   4  -1    2.64    0.17
  -3  -4   1    2.37    0.19
  -3  -4   1    2.24    0.16
  -3  -4   0    8.67    0.36
  -3  -4   0    8.98    0.35
   3   4   0    8.87    0.30
   3   4   0    8.98    0.31
  -3  -4   0    8.82    0.34
  -3  -4  -1    1.85    0.16
  -3  -4  -1    2.06    0.17
   3   4   1    1.84    0.14
   3   4   1    1.82    0.14
  -3  -4  -1    1.84    0.16
  -3  -4  -2    7.56    0.31
  -3  -4  -2    7.34    0.32
   3   4   2    7.04    0.26
  -3  -4  -2    7.34    0.31
   3   4   2    6.75    0.25
  -3  -4  -3    1.08    0.12
  -3  -4  -3    1.00    0.12
   3   4   3    0.88    0.09
  -3  -4  -3    1.15    0.13
   3   4   3    1.04    0.10
  -3  -4  -4    3.89    0.24
   3   4   4    3.62    0.20
  -3  -4  -4    3.91    0.23
   3   4   4    3.62    0.20
   3   4   5    0.06    0.04
  -3  -4  -5    0.05    0.05
   3   4   5    0.01    0.04
  -3  -4  -5    0.06    0.04
  -3  -4  -6   10.08    0.23
  -3  -4  -6   10.24    0.41
   3   4   6    9.65    0.37
  -3  -4  -6    9.68    0.38
  -3  -4  -7    2.73    0.13
  -3  -4  -7    2.73    0.12
  -3  -4  -7    2.75    0.12
  -3  -4  -8    4.51    0.17
  -3  -4  -8    4.55    0.15
  -3  -4  -8    4.49    0.16
  -3  -4  -9   10.81    0.26
  -3  -4  -9   10.67    0.24
  -3  -4 -10    1.60    0.11
   3   4  10    1.78    0.11
  -3  -4 -10    1.72    0.10
  -3  -4 -10    1.70    0.10
  -3  -4 -11    0.04    0.03
  -3  -4 -11   -0.02    0.04
   3   4  11    0.07    0.04
  -3  -4 -11    0.02    0.03
  -3  -4 -12    0.08    0.03
   3   4  12    0.06    0.03
  -3  -4 -12    0.11    0.03
  -3  -4 -12    0.15    0.03
  -3  -4 -13   14.51    0.24
   3   4  13   14.05    0.24
  -3  -4 -13   13.80    0.23
  -3  -4 -13   14.23    0.23
   3   5  -8    8.54    0.17
  -3  -5   8    8.26    0.17
  -3  -5   8    8.67    0.18
  -3  -5   8    8.30    0.18
  -3  -5   7    1.36    0.09
   3   5  -7    1.42    0.08
  -3  -5   7    1.43    0.09
  -3  -5   7    1.50    0.08
   3   5  -6    0.16    0.04
  -3  -5   6    0.15    0.03
  -3  -5   6    0.13    0.04
  -3  -5   6    0.07    0.03
   3   5  -5    1.82    0.11
  -3  -5   5    1.61    0.09
  -3  -5   5    1.60    0.11
  -3  -5   5    1.63    0.10
  -3  -5   4   79.93    0.72
  -3  -5   4   80.99    0.69
  -3  -5   3   52.55    0.58
  -3  -5   3   53.10    0.54
  -3  -5   3   52.40    0.59
  -3  -5   2   61.81    0.61
  -3  -5   2   61.56    0.56
  -3  -5   2   62.23    0.61
  -3  -5   1   30.41    0.42
  -3  -5   1   30.73    0.44
  -3  -5   1   30.50    0.41
  -3  -5   0   17.55    0.32
  -3  -5   0   17.69    0.31
  -3  -5   0   17.44    0.31
  -3  -5  -1   10.23    0.23
  -3  -5  -1   10.23    0.40
  -3  -5  -1   10.28    0.43
  -3  -5  -1    9.83    0.41
   3   5   1   10.76    0.38
  -3  -5  -1   10.13    0.24
  -3  -5  -1   10.42    0.23
  -3  -5  -2   69.13    1.03
  -3  -5  -2   70.36    0.60
  -3  -5  -2   70.27    1.08
  -3  -5  -2   70.53    0.59
   3   5   2   67.67    0.92
  -3  -5  -2   69.79    0.62
  -3  -5  -3   24.03    0.36
  -3  -5  -3   23.68    0.35
  -3  -5  -3   23.43    0.60
  -3  -5  -3   24.51    0.65
  -3  -5  -3   24.43    0.63
   3   5   3   23.23    0.55
  -3  -5  -3   24.00    0.34
  -3  -5  -4    5.80    0.18
  -3  -5  -4    5.67    0.18
  -3  -5  -4    5.77    0.17
  -3  -5  -4    5.54    0.30
   3   5   4    5.45    0.27
  -3  -5  -4    5.62    0.17
  -3  -5  -5    1.29    0.09
  -3  -5  -5    1.37    0.09
  -3  -5  -5    1.29    0.09
  -3  -5  -6    4.93    0.17
  -3  -5  -6    5.01    0.16
  -3  -5  -6    4.95    0.17
  -3  -5  -7    0.38    0.05
  -3  -5  -7    0.36    0.05
  -3  -5  -7    0.35    0.05
  -3  -5  -8   34.04    0.47
  -3  -5  -8   34.11    0.43
  -3  -5  -8   34.59    0.45
  -3  -5  -9   14.42    0.31
  -3  -5  -9   14.37    0.28
   3   5   9   14.09    0.30
  -3  -5  -9   14.24    0.29
  -3  -5 -10    8.83    0.24
   3   5  10    8.50    0.23
  -3  -5 -10    8.47    0.22
  -3  -5 -11    2.48    0.12
   3   5  11    2.44    0.12
  -3  -5 -11    2.21    0.11
  -3  -5 -12   12.02    0.24
   3   5  12   11.78    0.24
   3   5  13   12.53    0.22
  -3  -5 -13   12.59    0.20
  -3  -6   7    1.07    0.07
   3   6  -6    4.33    0.14
  -3  -6   6    4.22    0.14
  -3  -6   6    4.15    0.14
   3   6  -5    0.84    0.07
  -3  -6   5    0.96    0.08
  -3  -6   5    0.84    0.07
   3   6  -4   12.96    0.27
  -3  -6   4   12.89    0.27
  -3  -6   4   12.22    0.28
  -3  -6   3    8.27    0.23
  -3  -6   3    8.21    0.22
  -3  -6   3    8.45    0.24
  -3  -6   2    0.12    0.04
  -3  -6   2    0.11    0.04
  -3  -6   2    0.08    0.04
  -3  -6   1    6.86    0.21
  -3  -6   1    6.98    0.21
  -3  -6   0    8.69    0.24
  -3  -6   0    8.05    0.24
  -3  -6   0    8.53    0.23
  -3  -6  -1    2.50    0.13
  -3  -6  -1    2.67    0.13
  -3  -6  -1    2.62    0.13
  -3  -6  -2    0.06    0.04
  -3  -6  -2    0.05    0.02
  -3  -6  -2    0.03    0.03
  -3  -6  -2    0.00    0.03
  -3  -6  -3    0.00    0.03
  -3  -6  -3   -0.02    0.03
  -3  -6  -3    0.00    0.03
  -3  -6  -3    0.00    0.03
  -3  -6  -3    0.01    0.03
  -3  -6  -4   11.79    0.28
  -3  -6  -4   11.64    0.26
  -3  -6  -4   11.69    0.26
  -3  -6  -4   11.67    0.28
  -3  -6  -5    1.89    0.11
  -3  -6  -5    1.88    0.11
  -3  -6  -5    1.87    0.11
  -3  -6  -6    0.55    0.07
  -3  -6  -6    0.48    0.06
  -3  -6  -6    0.43    0.06
  -3  -6  -7    0.06    0.03
  -3  -6  -7    0.08    0.04
  -3  -6  -7    0.05    0.03
  -3  -6  -8    6.29    0.20
  -3  -6  -8    6.40    0.20
   3   6   8    6.35    0.19
  -3  -6  -8    6.30    0.20
  -3  -6  -9    1.23    0.09
  -3  -6  -9    1.40    0.09
   3   6   9    1.27    0.09
  -3  -6  -9    1.45    0.10
  -3  -6 -10    2.97    0.13
  -3  -6 -10    3.05    0.13
   3   6  10    3.21    0.14
  -3  -6 -10    2.79    0.13
  -3  -6 -11    0.63    0.06
   3   6  11    0.69    0.06
  -3  -6 -11    0.63    0.06
   3   6  12    0.14    0.03
  -3  -6 -12    0.20    0.03
  -3  -7   5    2.46    0.10
  -3  -7   5    2.55    0.10
  -3  -7   4    1.49    0.09
  -3  -7   4    1.65    0.09
  -3  -7   3    1.51    0.10
  -3  -7   3    1.61    0.09
  -3  -7   2    2.91    0.14
  -3  -7   2    3.05    0.13
  -3  -7   2    3.04    0.15
  -3  -7   1    0.86    0.08
  -3  -7   1    0.84    0.07
  -3  -7   1    0.96    0.09
  -3  -7   0    0.82    0.08
  -3  -7   0    0.90    0.08
  -3  -7  -1    1.80    0.11
  -3  -7  -1    1.95    0.12
  -3  -7  -2    0.45    0.06
  -3  -7  -2    0.55    0.07
  -3  -7  -3    0.67    0.07
  -3  -7  -3    0.65    0.07
  -3  -7  -3    0.58    0.07
  -3  -7  -4    0.09    0.04
  -3  -7  -4    0.10    0.04
  -3  -7  -5    0.05    0.04
  -3  -7  -5   -0.02    0.04
  -3  -7  -5   -0.02    0.04
  -3  -7  -6    0.20    0.05
  -3  -7  -6    0.22    0.05
  -3  -7  -6    0.19    0.05
  -3  -7  -7    0.47    0.06
  -3  -7  -7    0.43    0.06
  -3  -7  -7    0.56    0.07
  -3  -7  -8    0.10    0.04
  -3  -7  -8    0.11    0.04
  -3  -7  -8    0.08    0.04
  -3  -7  -9    0.17    0.04
  -3  -7  -9    0.22    0.04
  -3  -7  -9    0.23    0.04
  -3  -7 -10    0.10    0.03
   3   7  10    0.05    0.03
  -3  -7 -10    0.03    0.03
   3   7  11    1.01    0.06
  -3  -7 -11    1.04    0.07
  -3  -8   3    0.02    0.02
  -3  -8   3    0.03    0.02
  -3  -8   2    0.08    0.03
  -3  -8   2    0.10    0.03
  -3  -8   1   -0.01    0.04
  -3  -8   1    0.01    0.03
  -3  -8   0    1.03    0.08
  -3  -8   0    1.15    0.09
  -3  -8  -1    0.23    0.05
  -3  -8  -1    0.22    0.05
  -3  -8  -2   13.37    0.28
  -3  -8  -3    0.42    0.06
  -3  -8  -4    2.21    0.11
  -3  -8  -4    2.27    0.12
  -3  -8  -5    7.58    0.20
  -3  -8  -5    7.74    0.21
  -3  -8  -6   20.81    0.34
  -3  -8  -6   21.41    0.34
  -3  -8  -7   12.76    0.26
  -3  -8  -7   12.60    0.25
  -3  -8  -8    0.70    0.07
  -3  -8  -8    0.58    0.06
  -3  -8  -9    0.21    0.04
  -3  -8  -9    0.20    0.04
  -3  -9  -1   19.13    0.28
  -3  -9  -2    0.16    0.04
  -3  -9  -3    2.94    0.12
  -3  -9  -4    2.20    0.10
  -3  -9  -5    4.20    0.13
  -3  -9  -5    4.45    0.14
  -3  -9  -6   -0.01    0.03
  -3  -9  -6    0.06    0.03
  -3  -9  -7    3.48    0.12
  -3  -9  -7    3.24    0.11
  -4   8   3    4.85    0.13
  -4   8   3    5.25    0.14
   4  -8  -2    7.59    0.17
  -4   8   2    7.46    0.17
   4  -8  -1    6.47    0.16
  -4   8   1    6.63    0.16
  -4   8   1    6.68    0.17
   4  -8   0    3.44    0.12
  -4   8   0    3.51    0.11
  -4   8   0    3.54    0.12
  -4   8  -1    0.54    0.05
  -4   8  -1    0.53    0.05
  -4   8  -2    1.07    0.07
  -4   7   6    0.82    0.06
   4  -7  -6    0.86    0.06
  -4   7   5    3.45    0.12
  -4   7   5    3.50    0.12
   4  -7  -5    3.40    0.11
  -4   7   4    0.84    0.07
   4  -7  -4    0.81    0.06
  -4   7   4    0.94    0.07
   4  -7  -4    0.95    0.06
  -4   7   3    0.85    0.07
   4  -7  -3    0.97    0.07
  -4   7   3    0.95    0.07
   4  -7  -3    0.98    0.07
  -4   7   2    0.57    0.06
   4  -7  -2    0.66    0.06
  -4   7   2    0.63    0.06
  -4   7   1    0.03    0.03
   4  -7  -1    0.09    0.04
  -4   7   1    0.03    0.03
   4  -7   0    5.39    0.17
  -4   7   0    5.75    0.18
  -4   7   0    5.40    0.18
   4  -7   1    0.27    0.05
  -4   7  -1    0.29    0.05
  -4   7  -1    0.27    0.05
   4  -7   2    1.22    0.08
  -4   7  -2    1.10    0.07
  -4   7  -2    1.14    0.08
   4  -7   3    0.56    0.06
  -4   7  -3    0.73    0.06
  -4   7  -3    0.64    0.06
  -4   7  -4    2.03    0.10
  -4   7  -5    3.32    0.12
  -4   6   7    0.01    0.02
   4  -6  -7    0.01    0.02
  -4   6   6    1.15    0.07
  -4   6   6    1.15    0.08
   4  -6  -6    1.09    0.07
   4  -6  -5    3.93    0.13
  -4   6   5    3.64    0.14
   4  -6  -5    3.95    0.14
   4  -6  -4    0.70    0.06
  -4   6   4    0.70    0.07
   4  -6  -4    0.81    0.07
   4  -6  -3    3.69    0.14
  -4   6   3    3.77    0.15
   4  -6  -3    4.10    0.14
  -4   6   2    0.01    0.03
   4  -6  -2    0.00    0.03
  -4   6   1    8.19    0.23
   4  -6  -1    7.61    0.21
  -4   6   1    7.91    0.22
  -4   6   0   10.10    0.25
   4  -6   0    9.28    0.24
  -4   6   0    9.48    0.24
  -4   6  -1   53.69    0.58
   4  -6   1   53.38    0.56
   4  -6   1   54.45    0.52
  -4   6  -1   53.10    0.56
   4  -6   2   16.42    0.31
   4  -6   2   16.37    0.29
  -4   6  -2   16.03    0.30
  -4   6  -2   15.86    0.32
   4  -6   3    8.26    0.22
   4  -6   3    8.77    0.21
  -4   6  -3    8.67    0.22
  -4   6  -3    8.16    0.23
   4  -6   4    0.44    0.05
   4  -6   4    0.55    0.06
  -4   6  -4    0.52    0.06
  -4   6  -4    0.50    0.06
   4  -6   5    6.52    0.18
  -4   6  -5    6.61    0.20
   4  -6   6    0.55    0.05
  -4   6  -6    0.57    0.06
   4  -6   7    5.48    0.15
  -4   6  -7    5.80    0.16
  -4   6  -8    0.08    0.02
  -4   5   9    0.10    0.03
   4  -5  -9    0.07    0.02
  -4   5   9    0.08    0.02
  -4   5   8    2.54    0.11
   4  -5  -8    2.26    0.10
  -4   5   8    2.47    0.11
  -4   5   7    0.02    0.03
   4  -5  -7    0.03    0.03
  -4   5   7    0.09    0.03
  -4   5   6   -0.02    0.03
   4  -5  -6    0.04    0.03
  -4   5   6    0.00    0.02
   4  -5  -5    0.07    0.03
  -4   5   5    0.03    0.03
   4  -5  -5    0.05    0.03
  -4   5   5    0.02    0.03
   4  -5  -4    8.59    0.20
   4  -5  -4    8.30    0.21
  -4   5   4    8.51    0.21
  -4   5   4    8.16    0.22
   4  -5  -4    8.62    0.21
   4  -5  -3    8.66    0.21
  -4   5   3    8.66    0.23
   4  -5  -3    9.36    0.21
   4  -5  -3    8.93    0.22
   4  -5  -2    5.28    0.17
   4  -5  -2    5.54    0.17
  -4   5   2    5.43    0.18
   4  -5  -1    0.02    0.03
   4  -5  -1    0.03    0.03
  -4   5   1   -0.01    0.04
  -4   5   0   12.69    0.28
   4  -5   0   12.52    0.25
  -4   5   0   12.56    0.27
   4  -5   0   12.55    0.27
  -4   5  -1   62.56    0.62
   4  -5   1   61.42    0.56
  -4   5  -1   61.80    0.60
   4  -5   1   61.87    0.58
   4  -5   2   33.40    0.43
   4  -5   2   33.46    0.42
  -4   5  -2   33.09    0.44
  -4   5  -2   33.77    0.45
   4  -5   3   15.37    0.29
   4  -5   3   15.72    0.30
  -4   5  -3   15.32    0.30
  -4   5  -3   14.73    0.31
   4  -5   4    1.25    0.09
   4  -5   4    1.24    0.09
  -4   5  -4    1.20    0.09
  -4   5  -4    1.14    0.09
   4  -5   5    6.17    0.19
  -4   5  -5    6.15    0.20
  -4   5  -5    6.35    0.19
  -4   5  -6    0.24    0.05
   4  -5   6    0.24    0.04
  -4   5  -6    0.22    0.04
   4  -5   7    0.23    0.04
  -4   5  -7    0.21    0.04
  -4   5  -8    0.03    0.03
   4  -5   8    0.03    0.03
  -4   5  -9    1.03    0.07
   4  -5   9    1.01    0.06
  -4   4   9    0.27    0.04
  -4   4   9    0.30    0.04
   4  -4  -8    3.53    0.12
  -4   4   8    3.31    0.13
  -4   4   8    3.22    0.14
   4  -4  -7    0.40    0.05
  -4   4   7    0.37    0.05
  -4   4   7    0.41    0.06
   4  -4  -6    0.97    0.07
   4  -4  -6    0.82    0.07
  -4   4   6    0.83    0.08
  -4   4   6    0.75    0.07
   4  -4  -5    2.92    0.12
  -4   4   5    2.67    0.13
   4  -4  -5    2.81    0.12
   4  -4  -4    1.96    0.10
   4  -4  -4    1.97    0.10
  -4   4   4    2.01    0.11
  -4   4   4    2.21    0.11
   4  -4  -3   15.21    0.28
   4  -4  -3   15.35    0.27
  -4   4   3   15.18    0.28
  -4   4   3   15.84    0.30
   4  -4  -2    3.31    0.13
   4  -4  -2    3.36    0.13
  -4   4   2    3.27    0.13
  -4   4   2    3.45    0.14
   4  -4  -1    3.84    0.14
   4  -4  -1    3.46    0.13
  -4   4   1    3.51    0.14
   4  -4   0    0.17    0.04
   4  -4   0    0.14    0.04
  -4   4   0    0.20    0.04
  -4   4  -1    1.76    0.10
   4  -4   1    2.06    0.10
   4  -4   1    1.93    0.10
  -4   4  -1    2.02    0.11
  -4   4  -2    9.39    0.23
   4  -4   2    9.47    0.22
   4  -4   2    9.64    0.22
  -4   4  -2    9.55    0.23
   4  -4   3    1.72    0.10
  -4   4  -3    1.77    0.10
   4  -4   3    1.75    0.10
  -4   4  -3    1.67    0.10
   4  -4   4    0.36    0.05
  -4   4  -4    0.32    0.05
   4  -4   4    0.31    0.05
  -4   4  -4    0.35    0.05
  -4   4  -5    0.09    0.03
   4  -4   5    0.12    0.04
  -4   4  -5    0.04    0.03
   4  -4   6    6.67    0.20
  -4   4  -6    6.74    0.19
  -4   4  -6    6.57    0.20
  -4   4  -7    0.20    0.04
   4  -4   7    0.28    0.05
  -4   4  -7    0.29    0.04
   4  -4   8    2.02    0.11
  -4   4  -8    1.95    0.11
   4  -4   9    0.93    0.07
  -4   4  -9    0.87    0.07
   4  -4  10    0.32    0.04
  -4   4 -10    0.24    0.04
   4  -3 -10    6.47    0.14
  -4   3  10    6.76    0.15
   4  -3  -9    0.02    0.02
  -4   3   9    0.04    0.03
  -4   3   9   -0.03    0.03
  -4   3   9    0.01    0.03
   4  -3  -8    2.69    0.12
  -4   3   8    2.69    0.12
  -4   3   8    2.43    0.13
   4  -3  -7    0.40    0.05
  -4   3   7    0.48    0.06
  -4   3   7    0.41    0.06
   4  -3  -6    6.03    0.18
  -4   3   6    6.01    0.19
  -4   3   6    5.81    0.20
   4  -3  -5    0.64    0.06
   4  -3  -5    0.57    0.06
  -4   3   5    0.57    0.07
   4  -3  -4    3.91    0.14
   4  -3  -4    3.84    0.14
  -4   3   4    3.89    0.15
   4  -3  -3    0.97    0.07
  -4   3   3    0.97    0.08
   4  -3  -3    0.97    0.07
   4  -3  -2   10.44    0.22
  -4   3   2    9.41    0.36
   4  -3  -2   10.63    0.39
   4  -3  -2   10.65    0.42
  -4   3   2   10.75    0.22
  -4   3   2   10.33    0.40
   4  -3  -2   10.45    0.21
   4  -3  -1    9.10    0.35
  -4   3   1   10.03    0.39
   4  -3  -1   10.54    0.37
   4  -3  -1   10.55    0.40
   4  -3  -1    9.62    0.21
  -4   3   1   10.98    0.41
   4  -3   0    1.07    0.12
  -4   3   0    0.94    0.12
   4  -3   0    1.09    0.14
  -4   3   0    1.18    0.14
   4  -3   1    2.52    0.18
   4  -3   1    2.60    0.19
  -4   3  -1    2.56    0.19
   4  -3   1    2.96    0.22
  -4   3  -1    2.75    0.20
   4  -3   2    3.63    0.21
   4  -3   2    3.73    0.23
  -4   3  -2    3.59    0.22
   4  -3   2    3.79    0.25
  -4   3  -2    4.08    0.25
   4  -3   3    1.66    0.09
   4  -3   3    1.55    0.15
  -4   3  -3    1.37    0.14
   4  -3   3    1.49    0.16
  -4   3  -3    1.56    0.09
  -4   3  -3    1.67    0.16
  -4   3  -4    0.73    0.06
   4  -3   4    0.81    0.07
  -4   3  -4    0.82    0.07
  -4   3  -4    0.69    0.06
  -4   3  -5    0.82    0.06
  -4   3  -5    0.89    0.07
  -4   3  -5    0.88    0.08
  -4   3  -6    1.82    0.09
   4  -3   6    1.61    0.10
  -4   3  -6    1.58    0.10
  -4   3  -6    1.54    0.10
   4  -3   7   20.63    0.35
  -4   3  -7   20.60    0.34
  -4   3  -7   19.74    0.35
   4  -3   8    0.20    0.04
  -4   3  -8    0.21    0.05
   4  -3   8    0.22    0.05
  -4   3  -8    0.16    0.04
   4  -3   9    9.64    0.23
  -4   3  -9    9.18    0.23
   4  -3   9    9.46    0.22
  -4   3 -10    0.29    0.05
  -4   3 -10    0.22    0.04
   4  -3  10    0.35    0.05
   4  -3  10    0.33    0.04
  -4   3 -11    0.10    0.03
   4  -3  11    0.07    0.03
  -4   3 -11    0.12    0.03
  -4   3 -11    0.08    0.03
   4  -3  11    0.12    0.03
  -4   2  10   17.31    0.28
   4  -2 -10   17.32    0.25
  -4   2  10   17.67    0.28
   4  -2  -9    0.32    0.04
  -4   2   9    0.33    0.05
  -4   2   9    0.35    0.05
   4  -2  -8    0.90    0.07
  -4   2   8    0.91    0.08
  -4   2   8    1.01    0.08
  -4   2   8    0.89    0.08
  -4   2   7    8.15    0.23
   4  -2  -7    8.29    0.22
  -4   2   7    8.07    0.22
  -4   2   7    7.78    0.24
   4  -2  -6    1.97    0.10
   4  -2  -6    1.94    0.11
  -4   2   6    1.89    0.11
  -4   2   6    1.89    0.12
   4  -2  -5   16.03    0.28
   4  -2  -5   15.93    0.29
  -4   2   5   15.95    0.30
  -4   2   5   15.41    0.31
   4  -2  -4    4.70    0.15
   4  -2  -4    4.58    0.15
  -4   2   4    4.56    0.16
  -4   2   4    4.47    0.16
   4  -2  -3    1.04    0.07
   4  -2  -3    1.26    0.14
   4  -2  -3    1.08    0.07
  -4   2   3    1.22    0.14
   4  -2  -3    0.98    0.12
  -4   2   3    1.13    0.14
  -4   2   3    1.02    0.07
  -4   2   2    2.72    0.19
   4  -2  -2    2.95    0.20
   4  -2  -2    2.79    0.19
  -4   2   2    3.02    0.21
   4  -2  -2    2.80    0.19
  -4   2   2    2.95    0.20
   4  -2  -1    1.23    0.12
  -4   2   1    1.17    0.11
   4  -2  -1    1.40    0.14
  -4   2   1    1.23    0.13
   4  -2  -1    1.20    0.13
  -4   2   1    1.33    0.13
   4  -2   0   15.31    0.43
  -4   2   0   15.50    0.42
   4  -2   0   16.43    0.45
   4  -2   0   15.66    0.40
  -4   2   0   16.58    0.46
   4  -2   1   44.90    0.72
  -4   2  -1   48.51    0.72
   4  -2   1   45.59    0.76
  -4   2  -1   47.78    0.78
   4  -2   1   47.72    0.68
   4  -2   2   13.54    0.35
   4  -2   2   12.78    0.39
  -4   2  -2   12.98    0.36
   4  -2   2   13.30    0.42
  -4   2  -2   13.09    0.39
  -4   2  -2   12.74    0.40
   4  -2   3   12.53    0.39
  -4   2  -3   12.31    0.40
   4  -2   3   12.18    0.41
  -4   2  -3   12.54    0.40
  -4   2  -4    1.68    0.16
   4  -2   4    1.60    0.15
   4  -2   4    1.67    0.16
  -4   2  -4    1.63    0.15
  -4   2  -5    1.02    0.13
  -4   2  -5    1.02    0.06
   4  -2   5    1.03    0.07
   4  -2   5    1.23    0.13
  -4   2  -5    1.14    0.08
   4  -2   5    1.14    0.14
   4  -2   6    9.41    0.22
  -4   2  -6    9.56    0.20
  -4   2  -6    9.44    0.23
  -4   2  -6    9.29    0.22
   4  -2   6    9.69    0.22
  -4   2  -7    0.02    0.03
   4  -2   7    0.05    0.03
  -4   2  -7    0.05    0.03
   4  -2   7   -0.03    0.03
  -4   2  -7    0.03    0.03
  -4   2  -8    0.40    0.05
  -4   2  -8    0.28    0.05
   4  -2   8    0.30    0.05
  -4   2  -8    0.35    0.05
   4  -2   8    0.24    0.05
   4  -2   9    0.31    0.05
  -4   2  -9    0.29    0.05
  -4   2  -9    0.33    0.05
   4  -2   9    0.26    0.05
  -4   2 -10    0.25    0.05
  -4   2 -10    0.22    0.04
   4  -2  10    0.23    0.04
   4  -2  10    0.17    0.04
  -4   2 -11    1.43    0.09
   4  -2  11    1.40    0.08
  -4   2 -11    1.39    0.09
  -4   2 -11    1.34    0.08
   4  -2  11    1.37    0.09
  -4   2 -12   30.85    0.34
   4  -2  12   31.66    0.33
  -4   2 -12   31.04    0.34
   4  -2  12   30.27    0.34
   4  -1 -10   45.72    0.41
  -4   1  10   46.46    0.46
   4  -1  -9   25.31    0.35
  -4   1   9   26.40    0.40
  -4   1   9   26.79    0.35
  -4   1   9   25.24    0.38
  -4   1   8   36.55    0.50
  -4   1   8   36.99    0.44
   4  -1  -8   36.04    0.44
  -4   1   8   35.82    0.49
  -4   1   7   35.33    0.44
   4  -1  -7   34.51    0.44
  -4   1   7   36.21    0.50
   4  -1  -7   35.30    0.42
  -4   1   7   35.39    0.44
  -4   1   7   35.41    0.50
   4  -1  -6    4.20    0.15
   4  -1  -6    4.12    0.15
  -4   1   6    4.15    0.17
  -4   1   6    4.20    0.16
  -4   1   6    3.93    0.17
  -4   1   6    4.05    0.15
   4  -1  -5   13.65    0.26
   4  -1  -5   14.25    0.27
  -4   1   5   14.05    0.29
  -4   1   5   13.90    0.26
  -4   1   5   14.36    0.28
  -4   1   5   14.25    0.24
  -4   1   5   14.48    0.30
   4  -1  -4   41.36    0.43
  -4   1   4   40.80    0.45
   4  -1  -4   41.75    0.44
  -4   1   4   41.21    0.48
  -4   1   3   46.56    0.81
  -4   1   3   48.48    0.83
   4  -1  -3   47.93    0.77
   4  -1  -2   24.01    0.54
  -4   1   2   22.07    0.52
   4  -1  -2   23.52    0.54
  -4   1   2   22.48    0.53
   4  -1  -2   22.67    0.50
  -4   1   2   23.51    0.53
   4  -1  -1    3.35    0.19
  -4   1   1    3.33    0.19
   4  -1  -1    3.46    0.20
  -4   1   1    3.45    0.20
   4  -1  -1    3.57    0.19
   4  -1  -1    3.30    0.19
  -4   1   1    3.39    0.20
   4  -1   0   11.49    0.32
   4  -1   0   10.88    0.34
  -4   1   0   11.00    0.33
   4  -1   0   11.71    0.33
   4  -1   0   10.51    0.33
  -4   1   0   11.24    0.36
   4  -1   1   47.51    0.61
   4  -1   1   42.57    0.66
  -4   1  -1   47.65    0.64
  -4   1  -1   44.91    0.68
   4  -1   1   44.12    0.62
   4  -1   1   43.12    0.68
  -4   1  -1   44.04    0.71
  -4   1  -2   36.39    0.63
   4  -1   2   33.36    0.58
  -4   1  -2   35.32    0.63
   4  -1   2   33.71    0.61
   4  -1   3   43.35    0.66
   4  -1   3   42.51    0.71
  -4   1  -3   42.57    0.71
  -4   1  -3   42.01    0.69
   4  -1   4   44.18    0.69
  -4   1  -4   46.58    0.78
   4  -1   4   46.07    0.77
  -4   1  -4   43.31    0.70
   4  -1   5    1.74    0.15
  -4   1  -5    1.91    0.17
   4  -1   5    1.97    0.17
  -4   1  -6   64.60    0.50
  -4   1  -6   63.54    1.01
  -4   1  -6   64.02    0.56
   4  -1   6   61.89    0.98
   4  -1   6   62.07    0.56
  -4   1  -7   35.44    0.40
   4  -1   7   35.53    0.41
  -4   1  -7   35.22    0.43
  -4   1  -7   34.43    0.42
   4  -1   7   35.70    0.45
   4  -1   8  123.15    0.80
  -4   1  -8  123.99    0.83
  -4   1  -8  124.51    0.83
   4  -1   8  123.09    0.86
  -4   1  -9   35.96    0.45
   4  -1   9   36.32    0.44
  -4   1  -9   36.96    0.46
  -4   1  -9   35.59    0.46
   4  -1   9   36.03    0.48
  -4   1 -10    1.61    0.10
   4  -1  10    1.54    0.09
  -4   1 -10    1.69    0.10
  -4   1 -10    1.77    0.11
  -4   1 -10    1.67    0.10
   4  -1  10    1.64    0.11
  -4   1 -11    0.93    0.08
   4  -1  11    0.98    0.07
  -4   1 -11    0.90    0.08
  -4   1 -11    0.98    0.08
   4  -1  11    1.01    0.08
  -4   1 -12   13.54    0.25
  -4   1 -12   14.11    0.26
  -4   1 -12   13.15    0.24
   4  -1  12   13.56    0.25
  -4   1 -13    7.92    0.16
   4   0 -10    8.66    0.18
  -4   0  10    9.01    0.21
  -4   0  10    8.39    0.18
  -4   0  10    8.88    0.19
  -4   0   9    0.55    0.05
   4   0  -9    0.48    0.05
  -4   0   9    0.52    0.06
  -4   0   9    0.44    0.06
  -4   0   9    0.47    0.05
  -4   0   8   12.26    0.26
  -4   0   8   12.61    0.25
   4   0  -8   12.19    0.26
  -4   0   8   12.65    0.29
  -4   0   8   11.70    0.27
   4   0  -7   -0.03    0.03
  -4   0   7   -0.01    0.03
  -4   0   7    0.03    0.04
   4   0  -7   -0.02    0.03
  -4   0   7   -0.01    0.03
  -4   0   7   -0.01    0.03
   4   0  -6    0.30    0.04
   4   0  -6    0.32    0.05
  -4   0   6    0.30    0.05
  -4   0   6    0.35    0.06
  -4   0   6    0.30    0.05
  -4   0   6    0.24    0.05
  -4   0   6    0.28    0.05
  -4   0   5    1.31    0.08
  -4   0   5    1.16    0.09
  -4   0   5    1.40    0.09
  -4   0   5    1.35    0.08
  -4   0   5    1.24    0.09
  -4   0   5    1.26    0.09
   4   0  -5    1.41    0.09
   4   0  -4    0.06    0.03
  -4   0   4    0.00    0.02
  -4   0   4    0.03    0.03
  -4   0   4   -0.03    0.03
  -4   0   4    0.04    0.03
  -4   0   4    0.01    0.02
   4   0  -3   14.31    0.45
  -4   0   3   14.95    0.46
   4   0  -3   14.23    0.44
  -4   0   2    2.01    0.16
   4   0  -2    1.79    0.15
  -4   0   2    1.72    0.15
   4   0  -2    1.70    0.15
   4   0  -1    5.76    0.26
  -4   0   1    5.64    0.24
   4   0  -1    6.02    0.25
  -4   0   1    5.70    0.26
   4   0   0    5.10    0.23
  -4   0   0    5.07    0.21
  -4   0   0    5.08    0.21
   4   0   0    4.95    0.22
   4   0   0    5.12    0.21
  -4   0   0    5.48    0.22
  -4   0   0    5.16    0.24
   4   0   1    2.45    0.15
   4   0   1    1.96    0.14
   4   0   1    2.30    0.15
  -4   0  -1    2.20    0.15
  -4   0  -1    2.14    0.16
  -4   0  -2   15.42    0.41
   4   0   2   15.29    0.37
   4   0   2   14.41    0.37
  -4   0  -2   14.91    0.40
  -4   0  -3    6.38    0.28
   4   0   3    6.35    0.24
   4   0   3    6.38    0.26
  -4   0  -3    5.76    0.25
   4   0   4   57.35    0.70
   4   0   4   57.33    0.82
  -4   0  -4   57.01    0.84
  -4   0  -4   56.03    0.77
  -4   0  -5    0.48    0.08
   4   0   5    0.58    0.09
  -4   0  -5    0.59    0.10
  -4   0  -6    0.27    0.07
   4   0   6    0.33    0.07
  -4   0  -7    0.01    0.02
  -4   0  -7    0.00    0.02
  -4   0  -7   -0.01    0.02
  -4   0  -7    0.02    0.03
   4   0   7   -0.04    0.04
  -4   0  -8    3.11    0.13
  -4   0  -8    3.25    0.13
  -4   0  -8    3.21    0.14
  -4   0  -8    3.13    0.14
  -4   0  -8    3.21    0.13
   4   0   8    3.13    0.14
  -4   0  -9    2.43    0.12
  -4   0  -9    2.44    0.11
  -4   0  -9    2.42    0.12
  -4   0  -9    2.58    0.13
  -4   0  -9    2.50    0.12
   4   0   9    2.51    0.13
  -4   0 -10    0.29    0.05
  -4   0 -10    0.23    0.05
  -4   0 -10    0.23    0.05
  -4   0 -10    0.29    0.05
   4   0  10    0.27    0.05
  -4   0 -11    0.42    0.06
  -4   0 -11    0.46    0.06
  -4   0 -11    0.44    0.05
   4   0  11    0.36    0.06
  -4   0 -12    1.00    0.08
  -4   0 -12    1.03    0.07
  -4   0 -12    0.94    0.07
   4   0  12    0.91    0.07
  -4   0 -13    3.78    0.12
  -4   0 -13    3.49    0.11
   4   0  13    3.66    0.12
   4   1 -10    0.09    0.03
  -4  -1  10    0.08    0.02
  -4  -1  10    0.06    0.03
  -4  -1  10    0.05    0.02
  -4  -1   9   13.97    0.24
   4   1  -9   13.89    0.25
  -4  -1   9   13.94    0.28
  -4  -1   9   13.74    0.26
  -4  -1   8    3.62    0.14
   4   1  -8    3.57    0.14
  -4  -1   8    3.64    0.16
  -4  -1   8    3.36    0.13
  -4  -1   8    3.40    0.14
  -4  -1   8    3.61    0.15
  -4  -1   7    9.64    0.25
   4   1  -7    9.87    0.23
  -4  -1   7    9.91    0.23
  -4  -1   7    9.87    0.26
  -4  -1   7   10.14    0.23
  -4  -1   7   10.10    0.25
   4   1  -6    5.05    0.16
  -4  -1   6    5.43    0.17
  -4  -1   6    4.93    0.19
  -4  -1   6    5.33    0.17
  -4  -1   6    5.21    0.19
  -4  -1   6    5.03    0.18
   4   1  -5    1.36    0.08
  -4  -1   5    1.35    0.09
  -4  -1   5    1.26    0.09
  -4  -1   5    1.27    0.08
  -4  -1   5    1.12    0.09
  -4  -1   5    1.18    0.09
   4   1  -4    0.09    0.03
  -4  -1   4    0.04    0.02
  -4  -1   4    0.07    0.03
  -4  -1   4    0.09    0.03
  -4  -1   4    0.03    0.02
   4   1  -3    6.59    0.31
  -4  -1   3    6.64    0.32
  -4  -1   3    6.56    0.30
   4   1  -3    6.75    0.31
   4   1  -2    1.00    0.12
  -4  -1   2    1.10    0.11
  -4  -1   2    1.08    0.12
   4   1  -2    1.02    0.12
  -4  -1   1   -0.02    0.04
   4   1  -1    0.01    0.04
  -4  -1   1    0.03    0.04
   4   1  -1    0.01    0.04
  -4  -1   0    0.15    0.06
   4   1   0    0.22    0.06
   4   1   0    0.11    0.04
  -4  -1   0    0.18    0.05
  -4  -1   0    0.15    0.05
  -4  -1  -1    0.14    0.06
   4   1   1    0.11    0.04
   4   1   1    0.16    0.05
  -4  -1  -1    0.09    0.03
   4   1   1    0.09    0.04
  -4  -1  -1    0.15    0.05
  -4  -1  -2    3.44    0.20
   4   1   2    4.00    0.18
  -4  -1  -2    4.28    0.19
   4   1   2    3.86    0.19
  -4  -1  -2    3.70    0.20
  -4  -1  -3   15.50    0.41
   4   1   3   16.11    0.35
   4   1   3   14.99    0.38
  -4  -1  -3   15.11    0.41
  -4  -1  -4   29.23    0.56
   4   1   4   30.80    0.58
  -4  -1  -4   31.16    0.62
  -4  -1  -4   29.91    0.61
  -4  -1  -5   54.86    0.75
  -4  -1  -5   53.53    0.84
   4   1   5   52.01    0.80
  -4  -1  -5   52.66    0.84
  -4  -1  -6   14.54    0.45
   4   1   6   14.87    0.45
  -4  -1  -6   14.52    0.46
  -4  -1  -7    1.90    0.10
  -4  -1  -7    1.95    0.09
  -4  -1  -7    1.91    0.10
  -4  -1  -7    2.13    0.11
  -4  -1  -7    2.26    0.19
  -4  -1  -7    1.85    0.17
   4   1   7    2.00    0.11
  -4  -1  -8    2.64    0.12
  -4  -1  -8    2.77    0.11
  -4  -1  -8    2.69    0.12
  -4  -1  -8    2.80    0.13
   4   1   8    2.77    0.13
  -4  -1  -9   12.75    0.27
  -4  -1  -9   13.45    0.25
  -4  -1  -9   13.02    0.27
  -4  -1  -9   13.08    0.28
  -4  -1  -9   13.41    0.26
   4   1   9   13.00    0.28
  -4  -1 -10    5.80    0.19
  -4  -1 -10    6.10    0.19
  -4  -1 -10    6.33    0.19
   4   1  10    5.86    0.20
  -4  -1 -11   10.50    0.25
  -4  -1 -11   11.40    0.26
  -4  -1 -11   10.76    0.24
   4   1  11   10.90    0.26
  -4  -1 -12    1.49    0.09
  -4  -1 -12    1.47    0.09
   4   1  12    1.50    0.09
  -4  -1 -13    0.21    0.03
  -4  -1 -13    0.23    0.04
   4   1  13    0.19    0.03
  -4  -2   9    2.63    0.10
   4   2  -9    2.66    0.10
  -4  -2   9    2.62    0.12
  -4  -2   9    2.56    0.11
   4   2  -8    1.53    0.08
   4   2  -8    1.70    0.09
  -4  -2   8    1.60    0.09
  -4  -2   8    1.73    0.11
  -4  -2   8    1.54    0.09
  -4  -2   8    1.54    0.10
   4   2  -7   19.32    0.31
  -4  -2   7   19.40    0.32
  -4  -2   7   19.20    0.36
  -4  -2   7   19.12    0.32
  -4  -2   7   19.52    0.33
  -4  -2   7   18.98    0.34
   4   2  -6    1.47    0.09
  -4  -2   6    1.34    0.09
  -4  -2   6    1.32    0.10
  -4  -2   6    1.44    0.09
  -4  -2   6    1.25    0.09
  -4  -2   6    1.38    0.10
   4   2  -5    2.90    0.12
  -4  -2   5    2.51    0.12
  -4  -2   5    2.78    0.14
  -4  -2   5    2.86    0.12
  -4  -2   5    2.66    0.13
  -4  -2   5    2.73    0.13
  -4  -2   4   10.58    0.23
  -4  -2   4   10.51    0.25
  -4  -2   4   10.54    0.25
  -4  -2   4   10.68    0.24
  -4  -2   3    3.26    0.12
  -4  -2   3    3.13    0.13
  -4  -2   3    3.22    0.23
  -4  -2   3    3.29    0.13
  -4  -2   3    3.27    0.13
   4   2  -2    0.22    0.05
   4   2  -2    0.24    0.07
  -4  -2   2    0.13    0.05
   4   2  -1   52.65    0.80
  -4  -2   1   54.08    0.82
   4   2  -1   52.98    0.81
   4   2   0   58.97    0.79
  -4  -2   0   60.20    0.82
   4   2   0   59.01    0.83
  -4  -2   0   58.69    0.80
   4   2   1   50.53    0.68
  -4  -2  -1   47.72    0.72
  -4  -2  -1   50.05    0.72
   4   2   1   49.56    0.72
  -4  -2  -1   48.19    0.73
  -4  -2  -2   10.40    0.32
  -4  -2  -2   10.55    0.33
   4   2   2   10.05    0.32
   4   2   2   10.35    0.29
  -4  -2  -2   10.14    0.35
  -4  -2  -3   38.77    0.63
  -4  -2  -3   38.04    0.63
   4   2   3   36.83    0.59
  -4  -2  -3   35.90    0.67
  -4  -2  -4  179.85    1.43
   4   2   4  183.33    1.40
  -4  -2  -4  184.34    1.55
  -4  -2  -5  157.21    1.40
  -4  -2  -5  159.81    1.49
  -4  -2  -6  155.25    1.46
   4   2   6  160.44    1.48
  -4  -2  -6  159.13    1.55
  -4  -2  -7    0.79    0.07
  -4  -2  -7    0.90    0.07
  -4  -2  -7    0.82    0.07
  -4  -2  -7    0.91    0.07
  -4  -2  -7    0.77    0.11
   4   2   7    0.84    0.07
  -4  -2  -8    0.36    0.05
  -4  -2  -8    0.29    0.05
  -4  -2  -8    0.31    0.05
   4   2   8    0.39    0.05
  -4  -2  -9    8.23    0.22
  -4  -2  -9    8.18    0.22
   4   2   9    8.04    0.22
  -4  -2 -10   14.02    0.29
  -4  -2 -10   14.73    0.30
   4   2  10   14.55    0.30
  -4  -2 -11    0.96    0.08
   4   2  11    0.87    0.08
  -4  -2 -11    0.98    0.07
   4   2  11    1.14    0.09
  -4  -2 -12    0.87    0.07
   4   2  12    0.91    0.07
  -4  -2 -12    0.82    0.06
   4   2  12    0.91    0.07
  -4  -2 -13    0.54    0.05
   4   2  13    0.55    0.05
  -4  -3   9    0.02    0.02
  -4  -3   9    0.04    0.02
  -4  -3   9   -0.02    0.02
  -4  -3   9   -0.03    0.02
  -4  -3   8    3.08    0.12
  -4  -3   8    2.96    0.13
  -4  -3   8    2.79    0.11
  -4  -3   8    2.75    0.12
  -4  -3   7    5.15    0.17
  -4  -3   7    4.94    0.18
  -4  -3   7    5.00    0.16
  -4  -3   7    4.84    0.17
  -4  -3   6    3.49    0.14
  -4  -3   6    3.50    0.16
  -4  -3   6    3.50    0.14
  -4  -3   6    3.33    0.15
  -4  -3   5    1.34    0.09
  -4  -3   5    1.30    0.10
  -4  -3   5    1.42    0.09
  -4  -3   5    1.39    0.09
  -4  -3   5    1.19    0.09
  -4  -3   4    6.44    0.19
  -4  -3   4    6.73    0.21
  -4  -3   4    6.70    0.20
  -4  -3   4    6.45    0.19
  -4  -3   3    3.93    0.14
  -4  -3   3    3.78    0.15
  -4  -3   3    3.71    0.15
  -4  -3   3    3.75    0.15
  -4  -3   3    3.74    0.14
  -4  -3   2    4.52    0.14
  -4  -3   2    4.50    0.15
  -4  -3   2    4.27    0.14
   4   3  -2    4.77    0.27
  -4  -3   2    4.78    0.17
  -4  -3   2    4.44    0.15
  -4  -3   2    4.30    0.15
   4   3  -1    3.17    0.21
  -4  -3   1    3.34    0.23
   4   3  -1    3.19    0.21
   4   3   0   24.32    0.53
  -4  -3   0   22.71    0.59
  -4  -3   0   25.36    0.60
   4   3   0   24.21    0.56
  -4  -3   0   22.52    0.55
  -4  -3  -1    3.87    0.23
  -4  -3  -1    3.64    0.23
   4   3   1    3.96    0.22
  -4  -3  -1    3.88    0.23
  -4  -3  -2    5.43    0.26
  -4  -3  -2    5.02    0.26
   4   3   2    5.32    0.25
  -4  -3  -2    5.59    0.28
  -4  -3  -3    1.27    0.13
  -4  -3  -3    1.22    0.13
   4   3   3    1.25    0.12
  -4  -3  -3    1.22    0.13
  -4  -3  -4    3.75    0.23
   4   3   4    4.37    0.22
  -4  -3  -4    3.97    0.24
   4   3   5    0.09    0.04
  -4  -3  -5    0.15    0.06
  -4  -3  -6   19.89    0.32
  -4  -3  -6   18.41    0.56
  -4  -3  -6   19.89    0.30
   4   3   6   18.90    0.53
  -4  -3  -6   19.00    0.32
  -4  -3  -6   20.52    0.58
  -4  -3  -7    1.62    0.10
  -4  -3  -7    1.38    0.08
  -4  -3  -7    1.63    0.10
  -4  -3  -8    0.07    0.03
  -4  -3  -8    0.13    0.03
  -4  -3  -8    0.04    0.03
  -4  -3  -9    0.58    0.07
  -4  -3 -10   11.65    0.27
  -4  -3 -11    0.12    0.04
   4   3  11    0.17    0.04
  -4  -3 -12    1.20    0.08
   4   3  12    1.07    0.08
  -4  -3 -13    0.02    0.02
   4   3  13    0.02    0.02
  -4  -4   8    3.83    0.12
  -4  -4   8    3.80    0.13
  -4  -4   8    3.86    0.12
  -4  -4   7    0.09    0.03
  -4  -4   7    0.09    0.03
  -4  -4   7    0.07    0.03
  -4  -4   7    0.06    0.03
  -4  -4   6    6.16    0.18
  -4  -4   6    5.84    0.19
  -4  -4   6    5.84    0.17
  -4  -4   6    5.89    0.18
  -4  -4   5    0.05    0.03
  -4  -4   5    0.04    0.03
  -4  -4   5    0.03    0.03
  -4  -4   5   -0.04    0.03
  -4  -4   4    1.63    0.10
  -4  -4   4    1.70    0.11
  -4  -4   4    1.70    0.10
  -4  -4   3    0.57    0.06
  -4  -4   3    0.61    0.07
  -4  -4   3    0.62    0.06
  -4  -4   3    0.58    0.06
  -4  -4   2   16.78    0.28
  -4  -4   2   16.96    0.32
  -4  -4   2   17.03    0.34
  -4  -4   2   17.49    0.31
  -4  -4   2   16.65    0.32
  -4  -4   1    5.64    0.15
  -4  -4   1    6.12    0.19
  -4  -4   1    6.14    0.20
  -4  -4   1    6.45    0.19
  -4  -4   1    6.08    0.18
  -4  -4   0    3.42    0.13
   4   4   0    2.92    0.21
  -4  -4   0    3.27    0.23
  -4  -4   0    3.25    0.14
  -4  -4   0    3.32    0.13
  -4  -4   0    3.15    0.13
  -4  -4  -1    0.29    0.08
   4   4   1    0.52    0.08
  -4  -4  -1    0.49    0.10
  -4  -4  -1    0.51    0.06
  -4  -4  -1    0.48    0.05
  -4  -4  -1    0.52    0.10
  -4  -4  -1    0.40    0.05
  -4  -4  -2    7.66    0.35
  -4  -4  -2    7.49    0.36
   4   4   2    7.23    0.30
  -4  -4  -2    7.62    0.35
  -4  -4  -3    5.84    0.30
  -4  -4  -3    5.67    0.31
   4   4   3    4.78    0.24
  -4  -4  -3    5.49    0.30
  -4  -4  -3    5.44    0.17
  -4  -4  -4    7.25    0.20
  -4  -4  -4    7.83    0.37
   4   4   4    6.81    0.30
  -4  -4  -4    7.34    0.19
  -4  -4  -4    7.17    0.20
  -4  -4  -4    7.72    0.36
  -4  -4  -5    0.00    0.03
  -4  -4  -5   -0.02    0.02
  -4  -4  -5    0.00    0.03
  -4  -4  -5    0.01    0.02
  -4  -4  -6    0.63    0.07
  -4  -4  -6    0.76    0.07
  -4  -4  -6    0.65    0.07
  -4  -4  -6    0.66    0.06
  -4  -4  -7   11.99    0.27
  -4  -4  -7   11.58    0.25
  -4  -4  -7   11.37    0.26
  -4  -4  -7   11.23    0.24
  -4  -4  -8    2.61    0.13
  -4  -4  -8    2.72    0.12
  -4  -4  -8    2.74    0.12
  -4  -4  -9   11.42    0.28
  -4  -4  -9   12.08    0.25
  -4  -4  -9   12.32    0.26
  -4  -4 -10    0.35    0.06
  -4  -4 -10    0.36    0.05
  -4  -4 -11    0.46    0.06
   4   4  11    0.49    0.06
  -4  -4 -12    2.12    0.11
   4   4  12    1.96    0.10
  -4  -4 -13    1.54    0.08
   4   4  13    1.57    0.08
  -4  -5   7   -0.03    0.02
  -4  -5   7   -0.02    0.02
  -4  -5   6    4.29    0.13
  -4  -5   6    4.47    0.15
  -4  -5   6    4.50    0.14
  -4  -5   5    0.89    0.07
  -4  -5   5    0.92    0.08
  -4  -5   5    0.99    0.07
  -4  -5   4    3.10    0.12
  -4  -5   4    3.05    0.15
  -4  -5   3    2.31    0.13
  -4  -5   2    0.07    0.04
  -4  -5   2    0.07    0.04
  -4  -5   2    0.02    0.04
  -4  -5   1    0.45    0.06
  -4  -5   1    0.47    0.07
  -4  -5   1    0.35    0.05
  -4  -5   1    0.34    0.06
  -4  -5   0    1.93    0.11
  -4  -5   0    1.81    0.12
  -4  -5   0    1.70    0.10
  -4  -5   0    1.70    0.11
  -4  -5  -1    1.45    0.10
  -4  -5  -1    1.53    0.10
  -4  -5  -1    1.54    0.10
  -4  -5  -1    1.48    0.10
  -4  -5  -2    5.92    0.19
  -4  -5  -2    5.92    0.17
  -4  -5  -2    5.76    0.19
  -4  -5  -2    5.75    0.18
  -4  -5  -2    5.92    0.18
  -4  -5  -2    5.77    0.19
  -4  -5  -3   10.66    0.25
  -4  -5  -3   10.68    0.23
  -4  -5  -3   10.72    0.26
  -4  -5  -3   10.76    0.25
  -4  -5  -3   10.61    0.26
  -4  -5  -4    7.29    0.22
  -4  -5  -4    7.44    0.21
  -4  -5  -4    7.28    0.20
  -4  -5  -4    7.50    0.21
  -4  -5  -4    7.54    0.21
  -4  -5  -5    2.10    0.12
  -4  -5  -5    2.01    0.11
  -4  -5  -5    2.06    0.12
  -4  -5  -5    2.00    0.11
  -4  -5  -6    0.26    0.05
  -4  -5  -6    0.31    0.05
  -4  -5  -6    0.39    0.05
  -4  -5  -6    0.34    0.05
  -4  -5  -7    0.89    0.08
  -4  -5  -7    0.83    0.08
  -4  -5  -7    0.84    0.07
  -4  -5  -8    2.59    0.14
  -4  -5  -8    2.53    0.12
  -4  -5  -8    2.64    0.13
  -4  -5  -9    0.27    0.06
  -4  -5  -9    0.29    0.05
  -4  -5  -9    0.24    0.05
  -4  -5 -10    3.47    0.15
  -4  -5 -10    3.70    0.14
   4   5  10    3.52    0.15
  -4  -5 -10    3.63    0.14
  -4  -5 -11    0.10    0.04
   4   5  11    0.15    0.04
  -4  -5 -11    0.12    0.03
  -4  -5 -12   -0.05    0.03
   4   5  12   -0.01    0.03
  -4  -6   6    5.85    0.15
  -4  -6   5    0.59    0.06
  -4  -6   4    1.23    0.09
  -4  -6   3    3.49    0.15
  -4  -6   2    2.20    0.13
  -4  -6   2    2.00    0.12
  -4  -6   1    3.02    0.15
  -4  -6   1    2.95    0.15
  -4  -6   0    5.45    0.19
  -4  -6   0    5.34    0.20
  -4  -6   0    5.39    0.19
  -4  -6  -1    4.00    0.17
  -4  -6  -1    3.91    0.17
  -4  -6  -1    3.99    0.17
  -4  -6  -2    1.29    0.10
  -4  -6  -2    1.17    0.09
  -4  -6  -2    1.33    0.10
  -4  -6  -3    1.11    0.09
  -4  -6  -3    1.20    0.08
  -4  -6  -3    1.14    0.09
  -4  -6  -3    1.10    0.09
  -4  -6  -3    0.96    0.09
  -4  -6  -4   69.81    0.68
  -4  -6  -4   68.99    0.63
  -4  -6  -4   71.06    0.68
  -4  -6  -4   70.98    0.66
  -4  -6  -4   72.30    0.71
  -4  -6  -5   19.41    0.34
  -4  -6  -5   20.05    0.35
  -4  -6  -5   19.42    0.34
  -4  -6  -5   19.19    0.37
  -4  -6  -6   12.94    0.31
  -4  -6  -6   13.60    0.29
  -4  -6  -6   13.40    0.29
  -4  -6  -7    0.26    0.06
  -4  -6  -7    0.32    0.05
  -4  -6  -7    0.29    0.05
  -4  -6  -8    2.10    0.12
  -4  -6  -8    2.22    0.12
  -4  -6  -8    1.96    0.11
  -4  -6  -9    7.63    0.22
  -4  -6  -9    7.81    0.21
   4   6   9    7.79    0.21
  -4  -6  -9    7.30    0.20
  -4  -6 -10    0.05    0.03
  -4  -6 -10    0.13    0.03
   4   6  10    0.11    0.04
  -4  -6 -10    0.09    0.03
  -4  -6 -11    0.65    0.06
   4   6  11    0.67    0.06
  -4  -6 -11    0.63    0.05
   4   6  12    0.81    0.06
  -4  -7   4    0.05    0.02
  -4  -7   3    0.52    0.06
  -4  -7   2    0.01    0.03
  -4  -7   1   13.55    0.29
  -4  -7   1   13.48    0.29
  -4  -7   0    7.51    0.22
  -4  -7   0    7.62    0.22
  -4  -7  -1    2.17    0.12
  -4  -7  -1    2.10    0.12
  -4  -7  -2    0.30    0.06
  -4  -7  -2    0.22    0.05
  -4  -7  -2    0.18    0.05
  -4  -7  -3    4.43    0.18
  -4  -7  -3    4.40    0.15
  -4  -7  -3    4.46    0.17
  -4  -7  -3    4.49    0.17
  -4  -7  -4    4.56    0.16
  -4  -7  -4    4.45    0.17
  -4  -7  -5    0.07    0.04
  -4  -7  -5    0.09    0.04
  -4  -7  -5    0.03    0.04
  -4  -7  -6    3.29    0.14
  -4  -7  -6    3.50    0.15
  -4  -7  -6    3.37    0.16
  -4  -7  -7    4.03    0.16
  -4  -7  -7    3.88    0.15
  -4  -7  -7    4.14    0.17
  -4  -7  -8    3.26    0.14
  -4  -7  -8    3.08    0.13
  -4  -7  -8    3.07    0.14
  -4  -7  -9    1.78    0.10
  -4  -7  -9    1.65    0.09
  -4  -7  -9    1.69    0.10
  -4  -7 -10    5.92    0.16
  -4  -7 -10    5.41    0.15
  -4  -7 -10    5.57    0.16
  -4  -8   2    0.94    0.06
  -4  -8   1   -0.01    0.02
  -4  -8   0    5.45    0.17
  -4  -8   0    5.57    0.17
  -4  -8  -1   11.80    0.25
  -4  -8  -1   11.78    0.25
  -4  -8  -2    1.96    0.11
  -4  -8  -2    1.88    0.11
  -4  -8  -3    2.77    0.13
  -4  -8  -4    7.70    0.19
  -4  -8  -4    7.86    0.21
  -4  -8  -5   15.31    0.27
  -4  -8  -5   15.55    0.29
  -4  -8  -6   37.24    0.42
  -4  -8  -6   36.74    0.43
  -4  -8  -7   10.55    0.22
  -4  -8  -7    9.96    0.22
  -4  -8  -8   11.49    0.22
  -4  -8  -8   10.75    0.21
  -4  -8  -9    2.35    0.10
  -4  -8  -9    2.28    0.09
  -4  -9  -3   15.32    0.24
  -4  -9  -4    2.15    0.09
  -4  -9  -5    9.38    0.19
   5  -7  -3    0.24    0.03
  -5   7   3    0.25    0.04
   5  -7  -2    1.08    0.07
  -5   7   2    1.14    0.07
   5  -7  -1    2.70    0.11
  -5   7   1    2.74    0.11
  -5   7   1    2.53    0.10
  -5   7   0    0.04    0.02
   5  -7   0    0.11    0.03
  -5   7   0    0.09    0.03
   5  -7   1    0.60    0.06
  -5   7  -1    0.64    0.05
  -5   7  -1    0.55    0.05
  -5   7  -2    0.02    0.02
   5  -7   2   -0.03    0.02
  -5   7  -2   -0.01    0.02
  -5   7  -3    0.70    0.05
  -5   7  -3    0.61    0.05
   5  -6  -5    0.82    0.06
  -5   6   5    0.98    0.06
   5  -6  -4    0.03    0.02
  -5   6   4    0.02    0.02
   5  -6  -3    0.13    0.03
  -5   6   3    0.07    0.03
   5  -6  -2    1.52    0.09
   5  -6  -2    1.47    0.08
  -5   6   2    1.48    0.09
   5  -6  -1    2.07    0.11
   5  -6  -1    2.29    0.10
  -5   6   1    2.26    0.11
   5  -6   0    6.65    0.19
   5  -6   0    6.61    0.17
  -5   6   0    6.60    0.19
  -5   6   0    6.64    0.19
   5  -6   1    0.45    0.06
   5  -6   1    0.48    0.05
  -5   6  -1    0.51    0.06
  -5   6  -1    0.51    0.06
   5  -6   2    0.71    0.06
   5  -6   2    0.69    0.06
  -5   6  -2    0.77    0.07
  -5   6  -2    0.71    0.07
   5  -6   3    0.45    0.05
   5  -6   3    0.35    0.04
  -5   6  -3    0.46    0.06
  -5   6  -3    0.40    0.05
   5  -6   4    3.49    0.12
   5  -6   4    3.27    0.12
  -5   6  -4    3.45    0.13
  -5   6  -4    3.26    0.13
  -5   6  -5    0.09    0.03
   5  -6   5    0.13    0.03
  -5   6  -5    0.15    0.03
   5  -6   6    4.04    0.12
  -5   6  -6    4.02    0.12
  -5   5   7    0.02    0.02
   5  -5  -6    0.27    0.04
  -5   5   6    0.25    0.04
   5  -5  -5    0.44    0.05
   5  -5  -5    0.43    0.04
  -5   5   5    0.46    0.05
   5  -5  -4    9.07    0.21
   5  -5  -4    8.85    0.21
  -5   5   4    8.99    0.21
  -5   5   4    8.97    0.21
   5  -5  -3    9.57    0.23
   5  -5  -3   10.08    0.22
  -5   5   3    9.78    0.23
  -5   5   3    9.83    0.22
   5  -5  -2    3.28    0.14
   5  -5  -2    3.47    0.13
  -5   5   2    3.31    0.14
   5  -5  -1    1.76    0.10
   5  -5  -1    1.74    0.10
  -5   5   1    1.54    0.10
   5  -5   0    4.03    0.15
   5  -5   0    3.94    0.15
  -5   5   0    4.15    0.16
   5  -5   1    3.13    0.13
   5  -5   1    3.17    0.13
  -5   5  -1    3.10    0.14
  -5   5  -2    0.00    0.03
   5  -5   2    0.04    0.03
   5  -5   2   -0.01    0.03
  -5   5  -2    0.01    0.03
   5  -5   3    4.54    0.16
   5  -5   3    4.55    0.16
  -5   5  -3    4.38    0.16
  -5   5  -3    4.24    0.16
   5  -5   4    5.33    0.16
   5  -5   4    5.23    0.17
  -5   5  -4    5.03    0.17
  -5   5  -4    4.99    0.17
   5  -5   5   14.90    0.28
  -5   5  -5   15.36    0.28
  -5   5  -5   14.76    0.29
   5  -5   6    7.26    0.19
  -5   5  -6    7.40    0.19
  -5   5  -6    6.97    0.19
   5  -5   7    0.50    0.05
  -5   5  -7    0.54    0.05
  -5   5  -7    0.41    0.05
   5  -5   8   20.33    0.27
  -5   5  -8   19.51    0.27
   5  -4  -8    2.15    0.08
  -5   4   8    2.13    0.09
  -5   4   8    2.21    0.09
   5  -4  -7    2.95    0.11
  -5   4   7    3.07    0.12
  -5   4   7    2.84    0.12
   5  -4  -6    1.70    0.09
   5  -4  -6    1.65    0.09
  -5   4   6    1.75    0.10
  -5   4   6    1.60    0.09
   5  -4  -5    1.27    0.08
  -5   4   5    1.38    0.09
   5  -4  -5    1.38    0.09
   5  -4  -4    0.02    0.03
   5  -4  -4    0.01    0.03
  -5   4   4   -0.01    0.03
   5  -4  -3    0.09    0.03
   5  -4  -3    0.04    0.03
  -5   4   3    0.10    0.04
  -5   4   3    0.07    0.03
   5  -4  -2    2.40    0.12
   5  -4  -2    2.31    0.11
  -5   4   2    2.57    0.12
  -5   4   2    2.46    0.12
   5  -4  -1    5.03    0.17
   5  -4  -1    4.89    0.16
  -5   4   1    4.81    0.17
  -5   4   1    5.38    0.17
   5  -4   0    5.85    0.18
   5  -4   0    5.67    0.18
  -5   4   0    5.65    0.19
   5  -4   1   10.01    0.23
   5  -4   1    9.64    0.23
  -5   4  -1    9.85    0.24
   5  -4   2    5.53    0.17
   5  -4   2    5.51    0.18
  -5   4  -2    5.96    0.19
   5  -4   3    0.04    0.03
   5  -4   3    0.06    0.03
  -5   4  -3    0.02    0.03
  -5   4  -3   -0.01    0.03
   5  -4   4    2.21    0.12
  -5   4  -4    2.44    0.13
  -5   4  -4    2.31    0.12
   5  -4   5    1.87    0.11
  -5   4  -5    1.90    0.11
  -5   4  -5    1.81    0.11
  -5   4  -6    0.26    0.05
  -5   4  -6    0.30    0.05
  -5   4  -7    0.06    0.03
   5  -4   7    0.09    0.03
  -5   4  -7    0.06    0.03
  -5   4  -7    0.12    0.03
  -5   4  -8    0.19    0.04
   5  -4   8    0.39    0.05
  -5   4  -8    0.27    0.04
  -5   4  -8    0.32    0.04
  -5   4  -9    0.01    0.02
   5  -4   9    0.01    0.02
  -5   4  -9    0.01    0.02
   5  -3  -8    3.28    0.11
  -5   3   8    3.33    0.12
  -5   3   8    3.36    0.13
   5  -3  -7    0.83    0.06
  -5   3   7    0.87    0.07
  -5   3   7    0.85    0.07
   5  -3  -6   23.01    0.33
   5  -3  -6   23.00    0.34
  -5   3   6   22.85    0.36
  -5   3   6   23.16    0.37
   5  -3  -5    5.43    0.17
   5  -3  -5    5.53    0.17
  -5   3   5    5.44    0.18
  -5   3   5    5.51    0.18
   5  -3  -4   22.89    0.36
   5  -3  -4   22.67    0.35
  -5   3   4   22.40    0.36
  -5   3   4   23.22    0.37
   5  -3  -3    0.67    0.07
  -5   3   3    0.73    0.07
   5  -3  -2    0.13    0.04
   5  -3  -2    0.19    0.04
  -5   3   2    0.14    0.04
   5  -3  -1    1.17    0.08
   5  -3  -1    1.31    0.09
  -5   3   1    1.23    0.08
  -5   3   1    1.31    0.09
   5  -3   0   19.10    0.31
   5  -3   0   18.58    0.31
  -5   3   0   18.78    0.32
  -5   3   0   18.58    0.30
   5  -3   1    5.27    0.16
   5  -3   1    4.99    0.16
  -5   3  -1    5.15    0.17
  -5   3  -1    5.21    0.16
   5  -3   2   27.56    0.36
   5  -3   2   27.65    0.38
  -5   3  -2   27.42    0.39
   5  -3   3    5.87    0.17
   5  -3   3    5.77    0.18
  -5   3  -3    5.87    0.18
  -5   3  -3    5.91    0.19
  -5   3  -4    1.45    0.08
   5  -3   4    1.38    0.09
  -5   3  -4    1.36    0.09
  -5   3  -4    1.39    0.10
  -5   3  -5   22.11    0.31
   5  -3   5   21.66    0.35
  -5   3  -5   21.27    0.36
  -5   3  -6   73.81    0.58
   5  -3   6   72.69    0.65
  -5   3  -6   72.34    0.66
  -5   3  -6   72.91    0.64
  -5   3  -6   72.85    0.64
  -5   3  -7   36.68    0.42
   5  -3   7   36.54    0.46
  -5   3  -7   36.11    0.46
  -5   3  -7   35.50    0.46
  -5   3  -7   36.29    0.45
   5  -3   8   25.98    0.38
  -5   3  -8   26.39    0.38
  -5   3  -8   24.42    0.38
  -5   3  -8   24.93    0.37
  -5   3  -9   -0.02    0.03
   5  -3   9    0.03    0.03
  -5   3  -9   -0.05    0.03
  -5   3  -9    0.03    0.03
  -5   3 -10    7.18    0.19
  -5   3 -10    7.47    0.18
  -5   3 -11    5.79    0.14
   5  -2  -9    0.92    0.06
  -5   2   9    0.95    0.07
   5  -2  -8    0.44    0.05
  -5   2   8    0.42    0.05
  -5   2   8    0.55    0.06
   5  -2  -7    3.34    0.12
   5  -2  -7    3.42    0.13
  -5   2   7    3.50    0.14
  -5   2   7    3.33    0.15
   5  -2  -6   10.45    0.23
   5  -2  -6   10.28    0.24
  -5   2   6   10.41    0.25
  -5   2   6   10.16    0.26
   5  -2  -5   24.17    0.36
   5  -2  -5   24.51    0.37
  -5   2   5   24.33    0.38
  -5   2   5   24.67    0.40
   5  -2  -4    3.16    0.13
   5  -2  -4    2.99    0.13
  -5   2   4    3.02    0.14
  -5   2   4    3.06    0.14
   5  -2  -3   11.27    0.25
   5  -2  -3   11.16    0.24
  -5   2   3   11.19    0.25
  -5   2   3   11.13    0.25
   5  -2  -2    0.03    0.02
   5  -2  -2    0.04    0.02
  -5   2   2    0.07    0.03
   5  -2  -1    2.39    0.11
   5  -2  -1    2.33    0.11
  -5   2   1    2.22    0.11
   5  -2   0   11.45    0.23
  -5   2   0   10.88    0.23
  -5   2   0   11.26    0.24
   5  -2   1    0.43    0.05
  -5   2  -1    0.44    0.05
   5  -2   1    0.43    0.05
  -5   2  -1    0.53    0.06
  -5   2  -1    0.49    0.05
   5  -2   2   26.69    0.33
  -5   2  -2   26.66    0.32
   5  -2   2   27.07    0.35
  -5   2  -2   26.48    0.37
  -5   2  -2   27.37    0.35
  -5   2  -3    3.61    0.12
   5  -2   3    3.43    0.13
  -5   2  -3    3.67    0.14
  -5   2  -3    3.59    0.14
  -5   2  -3    3.57    0.13
  -5   2  -4    0.71    0.06
   5  -2   4    0.71    0.06
  -5   2  -4    0.77    0.07
  -5   2  -4    0.78    0.07
   5  -2   4    0.76    0.06
   5  -2   5    0.06    0.03
  -5   2  -5    0.06    0.03
   5  -2   5    0.05    0.03
  -5   2  -5    0.07    0.03
  -5   2  -5    0.02    0.03
   5  -2   6   10.60    0.24
  -5   2  -6   10.22    0.22
   5  -2   6   10.71    0.24
  -5   2  -6   10.34    0.25
  -5   2  -6   10.12    0.25
  -5   2  -7    4.68    0.16
   5  -2   7    4.69    0.16
  -5   2  -7    4.53    0.17
  -5   2  -7    4.34    0.17
   5  -2   7    4.49    0.16
  -5   2  -8   10.25    0.23
   5  -2   8   10.52    0.24
  -5   2  -8    9.59    0.24
  -5   2  -8    9.65    0.25
  -5   2  -8   10.25    0.24
   5  -2   8    9.58    0.24
   5  -2   9    6.90    0.19
  -5   2  -9    6.83    0.19
  -5   2  -9    6.44    0.20
  -5   2  -9    6.72    0.19
   5  -2   9    6.54    0.19
  -5   2 -10    0.01    0.03
   5  -2  10    0.08    0.03
  -5   2 -10    0.02    0.03
  -5   2 -10    0.02    0.03
   5  -2  10    0.02    0.03
  -5   2 -11   10.50    0.19
   5  -2  11   11.21    0.20
  -5   2 -11   10.95    0.23
  -5   2 -11   10.21    0.20
   5  -2  11   10.13    0.20
   5  -1  -9    0.05    0.02
  -5   1   9    0.09    0.03
   5  -1  -8   13.56    0.24
  -5   1   8   13.25    0.25
  -5   1   8   13.51    0.27
   5  -1  -7    0.20    0.04
   5  -1  -7    0.23    0.04
  -5   1   7    0.18    0.04
  -5   1   7    0.14    0.04
   5  -1  -6    7.99    0.21
  -5   1   6    7.99    0.21
  -5   1   6    7.80    0.23
   5  -1  -6    7.91    0.21
   5  -1  -5   28.87    0.40
  -5   1   5   29.48    0.36
   5  -1  -5   29.29    0.40
  -5   1   5   29.22    0.41
  -5   1   5   29.27    0.44
   5  -1  -4   78.02    0.65
  -5   1   4   77.98    0.59
   5  -1  -4   77.13    0.64
  -5   1   4   78.06    0.67
  -5   1   4   76.90    0.71
   5  -1  -3   50.78    0.52
  -5   1   3   50.96    0.47
   5  -1  -3   51.08    0.50
  -5   1   3   50.70    0.53
  -5   1   3   51.49    0.55
  -5   1   2    7.60    0.18
   5  -1  -2    7.74    0.19
  -5   1   2    7.54    0.20
  -5   1   2    7.73    0.20
  -5   1   2    7.70    0.20
   5  -1  -1    0.45    0.05
   5  -1  -1    0.35    0.04
  -5   1   1    0.28    0.04
  -5   1   1    0.31    0.04
  -5   1   1    0.34    0.05
   5  -1   0   19.74    0.29
  -5   1   0   20.15    0.28
   5  -1   0   20.06    0.29
   5  -1   0   19.55    0.54
  -5   1   0   19.70    0.32
  -5   1   0   20.18    0.31
  -5   1   0   21.12    0.59
   5  -1   1   39.60    0.74
  -5   1  -1   38.34    0.43
   5  -1   1   38.48    0.74
  -5   1  -1   38.78    0.43
   5  -1   2    5.02    0.26
  -5   1  -2    5.51    0.17
   5  -1   2    5.08    0.28
  -5   1  -2    5.91    0.30
  -5   1  -2    5.48    0.29
  -5   1  -3    2.89    0.11
   5  -1   3    2.84    0.11
   5  -1   3    2.61    0.19
  -5   1  -3    2.85    0.12
   5  -1   3    2.71    0.21
  -5   1  -3    2.98    0.12
  -5   1  -3    3.18    0.23
  -5   1  -3    3.00    0.22
   5  -1   4    0.04    0.02
  -5   1  -4    0.00    0.02
  -5   1  -4    0.05    0.03
  -5   1  -4    0.00    0.02
  -5   1  -4   -0.03    0.03
  -5   1  -4    0.01    0.02
   5  -1   5    0.12    0.03
  -5   1  -5    0.04    0.03
  -5   1  -5    0.02    0.02
  -5   1  -5    0.01    0.03
  -5   1  -5    0.08    0.03
   5  -1   5    0.07    0.03
  -5   1  -6    1.29    0.08
   5  -1   6    1.30    0.08
  -5   1  -6    1.32    0.09
  -5   1  -6    1.20    0.09
   5  -1   6    1.28    0.09
  -5   1  -7    1.36    0.09
   5  -1   7    1.47    0.09
  -5   1  -7    1.62    0.10
  -5   1  -7    1.18    0.09
   5  -1   7    1.34    0.10
  -5   1  -8   24.67    0.36
   5  -1   8   24.52    0.36
  -5   1  -8   24.10    0.38
  -5   1  -8   23.62    0.40
   5  -1   8   24.15    0.39
  -5   1  -9    0.07    0.03
   5  -1   9    0.18    0.04
  -5   1  -9    0.17    0.04
  -5   1  -9    0.06    0.04
  -5   1  -9    0.13    0.04
   5  -1   9    0.11    0.04
  -5   1 -10    8.43    0.21
   5  -1  10    8.41    0.20
  -5   1 -10    8.45    0.21
  -5   1 -10    8.55    0.23
  -5   1 -10    8.27    0.20
   5  -1  10    8.07    0.22
  -5   1 -11    5.34    0.16
  -5   1 -11    5.11    0.17
  -5   1 -11    4.92    0.15
   5  -1  11    5.09    0.16
  -5   1 -12    6.78    0.15
  -5   1 -12    6.76    0.17
   5  -1  12    6.95    0.16
   5   0  -9    1.52    0.07
  -5   0   9    1.50    0.08
  -5   0   9    1.53    0.08
   5   0  -8    0.11    0.03
  -5   0   8    0.11    0.03
  -5   0   8    0.16    0.04
  -5   0   8    0.15    0.04
   5   0  -7    4.53    0.15
  -5   0   7    4.97    0.15
   5   0  -7    4.89    0.16
  -5   0   7    5.04    0.17
  -5   0   7    4.78    0.18
   5   0  -6    4.88    0.16
  -5   0   6    4.88    0.16
   5   0  -6    5.01    0.17
  -5   0   6    5.12    0.18
  -5   0   6    4.90    0.17
  -5   0   6    5.06    0.19
   5   0  -5    0.16    0.04
   5   0  -5    0.14    0.04
  -5   0   5    0.20    0.04
  -5   0   5    0.17    0.04
  -5   0   5    0.20    0.05
  -5   0   5    0.14    0.04
   5   0  -4    2.50    0.12
  -5   0   4    2.44    0.11
   5   0  -4    2.51    0.12
  -5   0   4    2.66    0.12
  -5   0   4    2.53    0.13
   5   0  -3    7.71    0.20
  -5   0   3    7.54    0.19
   5   0  -3    7.32    0.19
  -5   0   3    7.70    0.20
  -5   0   3    7.58    0.22
   5   0  -2    1.34    0.08
  -5   0   2    1.46    0.08
   5   0  -2    1.37    0.08
  -5   0   2    1.41    0.09
  -5   0   2    1.43    0.09
  -5   0   1    3.53    0.24
   5   0  -1    3.26    0.12
  -5   0   1    3.35    0.12
   5   0  -1    3.19    0.12
   5   0  -1    3.35    0.22
  -5   0   1    3.22    0.13
  -5   0   1    3.28    0.13
  -5   0   0    0.25    0.07
   5   0   0    0.26    0.06
   5   0   0    0.13    0.04
  -5   0  -1    8.66    0.37
   5   0   1    8.36    0.33
   5   0   1    8.15    0.33
   5   0   2   12.63    0.40
   5   0   2   11.54    0.39
   5   0   2   12.89    0.41
  -5   0  -2   12.06    0.41
  -5   0  -2   12.99    0.44
   5   0   3    8.05    0.31
   5   0   3    8.08    0.33
   5   0   3    8.72    0.35
  -5   0  -3    7.98    0.35
  -5   0  -3    8.78    0.37
  -5   0  -4    7.49    0.33
  -5   0  -4    8.13    0.37
  -5   0  -4    7.68    0.18
  -5   0  -4    8.13    0.20
   5   0   4    7.86    0.35
  -5   0  -4    7.95    0.19
  -5   0  -4    7.28    0.35
  -5   0  -5    2.26    0.10
  -5   0  -5    2.37    0.11
  -5   0  -5    2.22    0.11
  -5   0  -5    2.10    0.11
  -5   0  -6    0.02    0.02
  -5   0  -6    0.00    0.02
  -5   0  -6   -0.01    0.03
  -5   0  -6    0.00    0.03
   5   0   6    0.01    0.03
  -5   0  -7    4.92    0.15
  -5   0  -7    4.59    0.16
  -5   0  -7    4.82    0.18
   5   0   7    4.71    0.17
  -5   0  -8    6.36    0.19
  -5   0  -8    6.94    0.19
  -5   0  -8    6.27    0.20
  -5   0  -8    6.47    0.21
   5   0   8    6.45    0.20
  -5   0  -9    0.06    0.03
  -5   0  -9    0.08    0.03
  -5   0  -9    0.05    0.03
  -5   0  -9    0.04    0.03
   5   0   9    0.05    0.04
  -5   0 -10    4.58    0.16
  -5   0 -10    4.99    0.17
  -5   0 -10    4.58    0.17
   5   0  10    4.98    0.18
  -5   0 -11    1.04    0.08
  -5   0 -11    1.19    0.09
   5   0  11    1.00    0.08
  -5   0 -12    0.59    0.05
  -5   0 -12    0.62    0.06
   5   0  12    0.62    0.06
   5   1  -8    2.53    0.10
  -5  -1   8    2.80    0.10
   5   1  -8    2.75    0.10
  -5  -1   8    2.73    0.12
  -5  -1   8    2.75    0.12
   5   1  -7    1.00    0.07
  -5  -1   7    1.17    0.08
   5   1  -7    1.07    0.07
  -5  -1   7    1.10    0.09
  -5  -1   7    1.11    0.09
  -5  -1   7    1.03    0.08
   5   1  -6    6.45    0.19
  -5  -1   6    6.47    0.18
   5   1  -6    6.53    0.18
  -5  -1   6    6.41    0.20
  -5  -1   6    6.33    0.20
  -5  -1   6    6.28    0.20
  -5  -1   5    1.39    0.09
   5   1  -5    1.48    0.09
   5   1  -5    1.60    0.09
  -5  -1   5    1.56    0.10
  -5  -1   5    1.44    0.10
  -5  -1   5    1.45    0.10
   5   1  -4    0.10    0.03
  -5  -1   4    0.09    0.03
  -5  -1   4    0.12    0.03
  -5  -1   4    0.07    0.04
  -5  -1   4    0.10    0.04
  -5  -1   3    9.25    0.21
   5   1  -3    9.16    0.21
  -5  -1   3    9.83    0.22
  -5  -1   3    9.38    0.24
  -5  -1   2    4.42    0.14
  -5  -1   2    4.40    0.15
  -5  -1   2    4.62    0.16
  -5  -1   1    0.04    0.03
  -5  -1   1    0.07    0.03
  -5  -1   1    0.04    0.03
  -5  -1   0    1.51    0.16
  -5  -1   0    1.35    0.08
   5   1   0    1.29    0.13
   5   1   0    1.55    0.16
  -5  -1  -1   -0.01    0.05
   5   1   1    0.09    0.05
   5   1   1    0.02    0.04
  -5  -1  -1    0.00    0.04
  -5  -1  -2    3.34    0.23
   5   1   2    3.53    0.21
   5   1   2    3.28    0.21
  -5  -1  -2    3.22    0.22
  -5  -1  -3    1.20    0.14
   5   1   3    1.09    0.13
   5   1   3    1.00    0.12
  -5  -1  -3    1.06    0.13
  -5  -1  -4   17.75    0.29
   5   1   4   17.34    0.50
  -5  -1  -4   18.05    0.29
  -5  -1  -4   17.81    0.54
  -5  -1  -5    2.01    0.09
  -5  -1  -5    2.08    0.10
  -5  -1  -5    2.21    0.10
  -5  -1  -5    2.18    0.11
  -5  -1  -6    0.23    0.04
  -5  -1  -6    0.30    0.04
  -5  -1  -6    0.23    0.04
  -5  -1  -6    0.26    0.04
   5   1   6    0.28    0.05
  -5  -1  -7    1.52    0.09
   5   1   7    1.67    0.10
  -5  -1  -7    1.61    0.09
  -5  -1  -7    1.74    0.09
  -5  -1  -7    1.83    0.10
  -5  -1  -7    1.58    0.11
  -5  -1  -8    8.23    0.22
  -5  -1  -8    8.19    0.20
  -5  -1  -8    8.20    0.22
  -5  -1  -8    8.16    0.23
   5   1   8    8.18    0.23
  -5  -1  -9    1.13    0.09
  -5  -1  -9    1.26    0.08
  -5  -1  -9    1.07    0.08
  -5  -1  -9    1.23    0.10
   5   1   9    1.25    0.09
  -5  -1 -10    3.59    0.15
  -5  -1 -10    3.59    0.15
  -5  -1 -10    3.72    0.16
   5   1  10    3.57    0.15
  -5  -1 -11    0.30    0.05
  -5  -1 -11    0.37    0.05
   5   1  11    0.33    0.05
  -5  -1 -12   -0.04    0.03
  -5  -1 -12    0.03    0.03
   5   1  12    0.03    0.03
  -5  -1 -13    0.58    0.05
  -5  -2   8    2.46    0.10
   5   2  -8    2.20    0.08
  -5  -2   8    2.33    0.10
   5   2  -7    0.01    0.02
   5   2  -7    0.08    0.03
  -5  -2   7    0.04    0.03
  -5  -2   7    0.04    0.03
  -5  -2   7    0.04    0.03
  -5  -2   6    1.81    0.10
   5   2  -6    1.89    0.09
  -5  -2   6    1.92    0.11
  -5  -2   6    1.96    0.11
  -5  -2   6    1.83    0.11
  -5  -2   5    1.25    0.09
  -5  -2   5    1.25    0.09
  -5  -2   5    1.24    0.10
  -5  -2   5    1.19    0.09
  -5  -2   4    7.78    0.20
  -5  -2   4    8.10    0.23
  -5  -2   4    7.80    0.23
  -5  -2   4    7.81    0.22
  -5  -2   3    2.80    0.12
  -5  -2   3    2.83    0.13
  -5  -2   3    3.10    0.14
  -5  -2   2    4.37    0.15
  -5  -2   2    4.45    0.16
  -5  -2   2    4.25    0.16
  -5  -2   1   17.01    0.28
  -5  -2   1   17.09    0.31
  -5  -2   0   22.93    0.31
   5   2   0   22.76    0.57
  -5  -2   0   22.00    0.34
  -5  -2   0   23.15    0.35
  -5  -2  -1    6.96    0.17
   5   2   1    7.00    0.33
  -5  -2  -1    6.62    0.31
  -5  -2  -1    6.96    0.19
   5   2   2   23.91    0.59
  -5  -2  -2   23.44    0.61
   5   2   3    2.44    0.19
  -5  -2  -3    2.74    0.12
  -5  -2  -3    3.02    0.23
  -5  -2  -4    4.67    0.14
  -5  -2  -4    5.03    0.16
   5   2   4    5.07    0.27
  -5  -2  -4    5.11    0.17
  -5  -2  -4    5.22    0.30
  -5  -2  -5    1.78    0.09
  -5  -2  -5    1.81    0.10
  -5  -2  -5    1.96    0.11
  -5  -2  -6    0.83    0.07
  -5  -2  -6    0.83    0.06
  -5  -2  -6    0.92    0.07
  -5  -2  -6    0.94    0.07
  -5  -2  -6    0.89    0.08
  -5  -2  -7   46.12    0.51
  -5  -2  -7   46.59    0.45
  -5  -2  -7   46.84    0.49
  -5  -2  -7   45.57    0.50
  -5  -2  -7   46.90    0.55
   5   2   7   47.54    0.52
  -5  -2  -8    1.33    0.09
  -5  -2  -8    1.45    0.08
  -5  -2  -8    1.60    0.09
  -5  -2  -8    1.42    0.10
  -5  -2  -8    1.32    0.10
   5   2   8    1.42    0.10
  -5  -2  -9    0.37    0.06
  -5  -2  -9    0.37    0.05
  -5  -2  -9    0.33    0.05
  -5  -2  -9    0.40    0.06
   5   2   9    0.39    0.06
  -5  -2 -10    2.68    0.13
  -5  -2 -10    3.00    0.14
   5   2  10    2.91    0.14
  -5  -2 -11   33.62    0.43
   5   2  11   32.57    0.42
  -5  -2 -12    4.26    0.15
   5   2  12    4.09    0.13
   5   2  12    4.16    0.14
  -5  -2 -13    7.66    0.17
  -5  -3   8    1.77    0.07
  -5  -3   7    2.10    0.10
  -5  -3   7    2.12    0.10
  -5  -3   6    1.28    0.08
  -5  -3   6    1.28    0.09
  -5  -3   6    1.38    0.09
  -5  -3   5    0.71    0.07
  -5  -3   5    0.70    0.07
  -5  -3   5    0.60    0.07
  -5  -3   4    0.02    0.03
  -5  -3   4    0.02    0.03
  -5  -3   4    0.00    0.03
  -5  -3   3    0.24    0.04
  -5  -3   3    0.23    0.05
  -5  -3   3    0.26    0.05
  -5  -3   2    2.72    0.12
  -5  -3   2    2.66    0.13
  -5  -3   2    2.93    0.14
  -5  -3   2    2.53    0.13
  -5  -3   1    3.61    0.13
  -5  -3   1    3.72    0.14
  -5  -3   1    3.64    0.16
  -5  -3   1    3.63    0.15
  -5  -3   0    2.52    0.11
  -5  -3   0    2.56    0.12
  -5  -3   0    2.48    0.13
  -5  -3   0    2.65    0.13
  -5  -3  -1    4.62    0.14
  -5  -3  -1    4.74    0.15
  -5  -3  -1    4.97    0.18
  -5  -3  -1    5.16    0.17
  -5  -3  -2    6.86    0.17
  -5  -3  -2    6.90    0.18
  -5  -3  -2    7.36    0.21
  -5  -3  -2    7.28    0.20
  -5  -3  -3    1.22    0.07
  -5  -3  -3    1.36    0.08
  -5  -3  -3    1.31    0.09
  -5  -3  -3    1.34    0.09
  -5  -3  -4    0.01    0.03
  -5  -3  -4    0.00    0.03
  -5  -3  -5    0.39    0.05
  -5  -3  -5    0.35    0.05
  -5  -3  -5    0.44    0.06
  -5  -3  -6    2.11    0.11
  -5  -3  -6    2.09    0.10
  -5  -3  -6    2.13    0.11
  -5  -3  -6    2.22    0.12
   5   3   6    2.16    0.11
  -5  -3  -7    0.32    0.05
  -5  -3  -7    0.31    0.05
  -5  -3  -7    0.34    0.06
   5   3   7    0.41    0.06
  -5  -3  -8    4.19    0.17
  -5  -3  -8    4.16    0.15
  -5  -3  -8    4.13    0.17
   5   3   8    4.10    0.15
  -5  -3  -9    0.18    0.04
  -5  -3  -9    0.18    0.04
  -5  -3  -9    0.23    0.05
   5   3   9    0.15    0.04
  -5  -3 -10    0.32    0.05
  -5  -3 -10    0.43    0.06
  -5  -3 -11    0.55    0.06
  -5  -3 -12   -0.01    0.03
   5   3  12    0.01    0.03
  -5  -3 -13    2.78    0.10
   5   4  -7    0.24    0.03
  -5  -4   7    0.30    0.04
  -5  -4   7    0.21    0.03
  -5  -4   6    0.12    0.03
  -5  -4   6    0.12    0.03
  -5  -4   5    0.06    0.03
  -5  -4   5    0.07    0.03
  -5  -4   4    0.83    0.07
  -5  -4   4    0.74    0.07
  -5  -4   4    0.73    0.07
  -5  -4   3    4.49    0.15
  -5  -4   3    4.29    0.17
  -5  -4   3    4.45    0.17
  -5  -4   2    0.26    0.04
  -5  -4   2    0.38    0.06
  -5  -4   2    0.27    0.06
  -5  -4   2    0.31    0.05
  -5  -4   1   16.07    0.28
  -5  -4   1   15.75    0.31
  -5  -4   1   15.83    0.34
  -5  -4   1   15.70    0.32
  -5  -4   1   16.29    0.31
  -5  -4   0    2.69    0.11
  -5  -4   0    2.78    0.13
  -5  -4   0    2.53    0.14
  -5  -4   0    2.45    0.13
  -5  -4   0    2.64    0.13
  -5  -4  -1    4.87    0.17
  -5  -4  -1    4.85    0.18
  -5  -4  -1    5.06    0.18
  -5  -4  -2   17.57    0.31
  -5  -4  -2   17.83    0.30
  -5  -4  -2   17.82    0.35
  -5  -4  -2   17.60    0.33
  -5  -4  -3   89.19    0.77
  -5  -4  -3   87.86    0.72
  -5  -4  -4   39.41    0.46
  -5  -4  -4   39.67    0.52
  -5  -4  -4   40.53    0.49
  -5  -4  -5   10.13    0.25
  -5  -4  -5   10.31    0.24
  -5  -4  -5   10.26    0.26
  -5  -4  -6    0.75    0.07
  -5  -4  -6    0.82    0.07
  -5  -4  -6    0.75    0.08
  -5  -4  -7    5.54    0.19
  -5  -4  -7    5.51    0.18
  -5  -4  -7    5.31    0.19
  -5  -4  -8   10.42    0.27
  -5  -4  -8   11.03    0.25
  -5  -4  -8   10.66    0.27
  -5  -4  -9    1.41    0.10
  -5  -4  -9    1.55    0.09
  -5  -4  -9    1.59    0.10
  -5  -4 -10    0.11    0.04
  -5  -4 -11    0.35    0.05
   5   4  11    0.34    0.05
  -5  -4 -12    1.29    0.08
   5   4  12    1.35    0.08
  -5  -5   6    0.32    0.04
  -5  -5   5    0.02    0.02
  -5  -5   5    0.10    0.03
  -5  -5   4    2.60    0.10
  -5  -5   4    2.46    0.12
  -5  -5   3   18.18    0.33
  -5  -5   3   17.98    0.31
  -5  -5   2    1.05    0.09
  -5  -5   2    0.97    0.08
  -5  -5   1   24.77    0.40
  -5  -5   1   25.16    0.44
  -5  -5   1   25.07    0.40
  -5  -5   1   25.39    0.41
  -5  -5   0    1.66    0.11
  -5  -5   0    1.55    0.12
  -5  -5   0    1.81    0.11
  -5  -5   0    1.68    0.11
  -5  -5  -1    1.12    0.09
  -5  -5  -1    1.14    0.10
  -5  -5  -1    1.10    0.09
  -5  -5  -1    1.21    0.09
  -5  -5  -2    2.76    0.13
  -5  -5  -2    2.72    0.12
  -5  -5  -2    2.67    0.14
  -5  -5  -2    2.71    0.14
  -5  -5  -2    2.77    0.13
  -5  -5  -3    7.82    0.22
  -5  -5  -3    7.52    0.20
  -5  -5  -3    7.68    0.24
  -5  -5  -3    7.67    0.21
  -5  -5  -3    7.36    0.22
  -5  -5  -4    0.03    0.03
  -5  -5  -4    0.07    0.03
  -5  -5  -4   -0.01    0.03
  -5  -5  -4   -0.02    0.04
  -5  -5  -4    0.02    0.03
  -5  -5  -5    7.10    0.22
  -5  -5  -5    6.84    0.20
  -5  -5  -5    7.08    0.22
  -5  -5  -5    7.20    0.20
  -5  -5  -6    2.05    0.12
  -5  -5  -6    2.22    0.12
  -5  -5  -6    2.15    0.12
  -5  -5  -6    2.21    0.11
  -5  -5  -7    0.13    0.05
  -5  -5  -7    0.14    0.04
  -5  -5  -7    0.09    0.04
  -5  -5  -8    1.65    0.11
  -5  -5  -8    1.79    0.11
  -5  -5  -8    1.68    0.10
  -5  -5  -9   10.36    0.26
  -5  -5  -9   11.01    0.24
  -5  -5 -10    9.68    0.24
   5   5  10    9.98    0.23
  -5  -5 -11    0.03    0.03
   5   5  11    0.01    0.03
  -5  -5 -12    3.04    0.11
   5   5  12    3.21    0.11
  -5  -6   4    1.33    0.08
  -5  -6   3    1.33    0.09
  -5  -6   2    7.86    0.22
  -5  -6   1   89.50    0.74
  -5  -6   1   87.77    0.69
  -5  -6   1   88.72    0.75
  -5  -6   0   16.89    0.33
  -5  -6   0   16.63    0.35
  -5  -6   0   16.65    0.33
  -5  -6  -1   40.36    0.51
  -5  -6  -1   40.30    0.51
  -5  -6  -2    1.28    0.09
  -5  -6  -2    1.27    0.10
  -5  -6  -2    1.26    0.10
  -5  -6  -3   36.46    0.48
  -5  -6  -3   36.63    0.44
  -5  -6  -3   36.30    0.51
  -5  -6  -3   35.75    0.47
  -5  -6  -4    3.59    0.15
  -5  -6  -4    3.41    0.14
  -5  -6  -4    3.17    0.15
  -5  -6  -4    3.63    0.15
  -5  -6  -4    3.31    0.16
  -5  -6  -5   84.22    0.70
  -5  -6  -5   85.72    0.76
  -5  -6  -5   84.82    0.71
  -5  -6  -5   84.17    0.77
  -5  -6  -6    5.52    0.18
  -5  -6  -6    5.59    0.19
  -5  -6  -6    5.65    0.18
  -5  -6  -6    5.46    0.20
  -5  -6  -7    2.89    0.14
  -5  -6  -7    2.92    0.13
  -5  -6  -7    2.89    0.13
  -5  -6  -8    0.61    0.07
  -5  -6  -8    0.66    0.07
   5   6   8    0.79    0.07
  -5  -6  -8    0.65    0.06
  -5  -6  -9    8.55    0.23
  -5  -6  -9    8.55    0.21
   5   6   9    8.61    0.20
  -5  -6  -9    8.37    0.20
  -5  -6 -10    0.14    0.04
  -5  -6 -10    0.06    0.03
   5   6  10    0.20    0.04
  -5  -6 -11   15.48    0.26
   5   6  11   15.23    0.23
  -5  -7   2    1.93    0.10
  -5  -7   1    3.93    0.14
  -5  -7   0    1.45    0.09
  -5  -7   0    1.42    0.10
  -5  -7  -1    0.94    0.08
  -5  -7  -1    0.84    0.08
  -5  -7  -2    1.97    0.11
  -5  -7  -2    1.91    0.12
  -5  -7  -2    1.97    0.11
  -5  -7  -3    4.31    0.16
  -5  -7  -3    4.35    0.17
  -5  -7  -3    4.11    0.16
  -5  -7  -4    3.23    0.13
  -5  -7  -4    3.42    0.15
  -5  -7  -4    3.10    0.14
  -5  -7  -5    0.18    0.04
  -5  -7  -5    0.26    0.05
  -5  -7  -5    0.19    0.04
  -5  -7  -6    0.11    0.04
  -5  -7  -6    0.10    0.03
  -5  -7  -7    4.56    0.15
  -5  -7  -7    4.34    0.15
  -5  -7  -7    4.42    0.17
  -5  -7  -8    2.27    0.11
  -5  -7  -8    1.99    0.10
  -5  -7  -8    2.26    0.11
  -5  -7  -9    0.93    0.07
  -5  -7  -9    0.77    0.06
  -5  -7  -9    0.82    0.07
  -5  -7 -10    1.13    0.07
  -5  -8   0    1.99    0.09
  -5  -8  -1    0.01    0.02
  -5  -8  -1    0.00    0.03
  -5  -8  -2    3.48    0.13
  -5  -8  -3    1.35    0.08
  -5  -8  -4    0.00    0.03
  -5  -8  -5    0.03    0.02
  -5  -8  -5    0.05    0.03
  -5  -8  -6    0.50    0.05
  -5  -8  -6    0.52    0.05
  -5  -8  -7    0.38    0.04
  -5  -8  -7    0.38    0.04
  -6   6   3    0.51    0.04
   6  -6  -2    0.17    0.03
  -6   6   2    0.12    0.03
  -6   6   2    0.12    0.03
   6  -6  -1   12.57    0.22
   6  -6  -1   12.35    0.20
  -6   6   1   12.39    0.22
  -6   6   1   12.53    0.22
   6  -6   0    1.06    0.07
   6  -6   0    1.01    0.06
  -6   6   0    0.98    0.07
  -6   6   0    0.98    0.07
   6  -6   1    1.00    0.07
   6  -6   1    0.94    0.06
  -6   6  -1    1.03    0.07
  -6   6  -1    1.00    0.07
   6  -6   2    0.02    0.02
   6  -6   2   -0.02    0.02
  -6   6  -2   -0.01    0.02
  -6   6  -2   -0.05    0.03
   6  -6   3    6.36    0.15
  -6   6  -3    6.38    0.16
  -6   6  -4    1.16    0.06
   6  -5  -4   -0.02    0.03
   6  -5  -4    0.02    0.02
  -6   5   4    0.03    0.02
  -6   5   4   -0.01    0.02
   6  -5  -3    2.22    0.10
   6  -5  -3    2.06    0.09
  -6   5   3    2.12    0.10
   6  -5  -2    5.50    0.16
   6  -5  -2    5.37    0.15
  -6   5   2    5.43    0.16
   6  -5  -1    1.11    0.08
   6  -5  -1    1.13    0.08
  -6   5   1    1.17    0.08
   6  -5   0   11.33    0.23
   6  -5   0   10.86    0.23
  -6   5   0   10.89    0.24
  -6   5   0   11.10    0.24
   6  -5   1    8.95    0.21
   6  -5   1    8.92    0.21
  -6   5  -1    8.92    0.22
  -6   5  -1    9.06    0.22
   6  -5   2    5.20    0.15
   6  -5   2    4.94    0.15
  -6   5  -2    5.29    0.16
  -6   5  -2    4.80    0.16
   6  -5   3   13.90    0.24
   6  -5   3   13.44    0.25
  -6   5  -3   14.31    0.25
  -6   5  -3   13.52    0.26
   6  -5   4   86.74    0.63
  -6   5  -4   88.71    0.65
   6  -5   5    3.44    0.12
  -6   5  -5    3.33    0.12
   6  -5   6   31.94    0.35
  -6   5  -6   32.28    0.35
   6  -4  -6    1.31    0.07
  -6   4   6    1.31    0.07
   6  -4  -5    0.61    0.05
   6  -4  -5    0.62    0.05
  -6   4   5    0.56    0.05
   6  -4  -4    0.92    0.07
   6  -4  -4    0.94    0.07
  -6   4   4    0.83    0.07
  -6   4   4    0.89    0.07
   6  -4  -3    0.04    0.03
   6  -4  -3    0.00    0.02
  -6   4   3    0.00    0.03
  -6   4   3   -0.03    0.03
   6  -4  -2    0.40    0.05
   6  -4  -2    0.47    0.05
  -6   4   2    0.42    0.05
   6  -4  -1    9.14    0.22
   6  -4  -1    8.75    0.22
  -6   4   1    8.63    0.21
  -6   4   1    8.94    0.21
   6  -4   0    0.01    0.03
   6  -4   0    0.00    0.03
  -6   4   0    0.04    0.03
  -6   4   0    0.04    0.03
   6  -4   1    9.73    0.22
   6  -4   1    9.91    0.23
  -6   4  -1    9.56    0.24
  -6   4  -1    9.30    0.23
   6  -4   2    8.71    0.21
   6  -4   2    8.40    0.21
  -6   4  -2    8.98    0.23
  -6   4  -2    8.68    0.23
   6  -4   3   16.96    0.28
   6  -4   3   16.53    0.30
  -6   4  -3   17.19    0.31
  -6   4  -3   16.79    0.32
   6  -4   4   11.90    0.25
  -6   4  -4   12.32    0.25
  -6   4  -4   11.75    0.26
   6  -4   5   23.60    0.35
  -6   4  -5   23.23    0.36
   6  -4   6    0.08    0.03
  -6   4  -6    0.05    0.03
   6  -4   7    0.16    0.04
  -6   4  -7    0.15    0.03
   6  -4   8    0.18    0.03
  -6   4  -8    0.20    0.03
   6  -3  -7    0.04    0.02
  -6   3   7    0.03    0.02
   6  -3  -6    2.13    0.09
   6  -3  -6    2.28    0.10
  -6   3   6    2.28    0.10
  -6   3   6    2.16    0.10
   6  -3  -5    1.04    0.07
  -6   3   5    1.00    0.07
  -6   3   5    0.95    0.07
   6  -3  -4    0.10    0.04
   6  -3  -4    0.01    0.03
  -6   3   4    0.05    0.03
   6  -3  -3    0.05    0.03
   6  -3  -3    0.06    0.03
  -6   3   3    0.11    0.04
   6  -3  -2    2.20    0.11
   6  -3  -2    2.12    0.11
  -6   3   2    2.26    0.12
  -6   3   2    2.18    0.11
   6  -3  -1    5.59    0.18
   6  -3  -1    5.59    0.18
  -6   3   1    5.28    0.19
  -6   3   1    5.61    0.18
   6  -3   0    1.09    0.08
   6  -3   0    1.06    0.08
  -6   3   0    1.04    0.09
  -6   3   0    0.98    0.08
  -6   3   0    1.11    0.08
   6  -3   1    7.12    0.20
   6  -3   1    7.03    0.20
  -6   3  -1    7.04    0.21
  -6   3  -1    7.33    0.21
  -6   3  -1    7.37    0.20
   6  -3   2    0.03    0.03
   6  -3   2    0.04    0.03
  -6   3  -2    0.04    0.03
  -6   3  -2    0.09    0.04
   6  -3   3    0.17    0.04
  -6   3  -3    0.10    0.04
  -6   3  -3    0.14    0.04
   6  -3   4    1.87    0.10
  -6   3  -4    1.87    0.11
  -6   3  -4    1.85    0.11
  -6   3  -5    2.38    0.10
   6  -3   5    2.41    0.12
  -6   3  -5    2.30    0.12
  -6   3  -6    1.31    0.08
   6  -3   6    1.42    0.09
  -6   3  -6    1.38    0.09
  -6   3  -7    1.19    0.07
   6  -3   7    1.15    0.08
  -6   3  -7    1.26    0.09
  -6   3  -7    1.15    0.08
   6  -3   8    0.52    0.05
  -6   3  -8    0.51    0.05
  -6   3  -8    0.41    0.05
   6  -3   9    3.74    0.12
  -6   3  -9    3.72    0.12
   6  -2  -7    0.04    0.02
   6  -2  -7    0.06    0.02
  -6   2   7    0.02    0.02
   6  -2  -6   -0.04    0.02
   6  -2  -6    0.05    0.03
  -6   2   6    0.01    0.03
  -6   2   6   -0.01    0.03
   6  -2  -5    4.41    0.15
   6  -2  -5    4.59    0.15
  -6   2   5    4.49    0.16
  -6   2   5    4.46    0.16
   6  -2  -4    1.00    0.08
   6  -2  -4    1.00    0.08
  -6   2   4    1.04    0.08
  -6   2   4    1.04    0.08
   6  -2  -3    1.67    0.10
   6  -2  -3    1.72    0.10
  -6   2   3    1.87    0.10
  -6   2   3    1.73    0.11
  -6   2   3    1.98    0.11
   6  -2  -2    0.71    0.07
   6  -2  -2    0.67    0.07
  -6   2   2    0.66    0.07
  -6   2   2    0.68    0.07
   6  -2  -1    2.32    0.12
   6  -2  -1    2.27    0.11
  -6   2   1    2.38    0.12
  -6   2   1    2.33    0.12
   6  -2   0    4.98    0.16
   6  -2   0    4.89    0.17
  -6   2   0    4.92    0.18
  -6   2   0    4.99    0.17
   6  -2   1    6.16    0.18
  -6   2  -1    6.17    0.17
   6  -2   1    5.94    0.18
  -6   2  -1    5.98    0.20
  -6   2  -1    6.34    0.19
  -6   2  -1    6.08    0.19
   6  -2   2    1.40    0.09
  -6   2  -2    1.39    0.08
   6  -2   2    1.43    0.09
  -6   2  -2    1.41    0.10
  -6   2  -2    1.31    0.09
  -6   2  -2    1.49    0.09
   6  -2   3    0.01    0.03
  -6   2  -3    0.03    0.03
  -6   2  -3   -0.03    0.04
  -6   2  -3   -0.03    0.03
  -6   2  -3    0.01    0.03
   6  -2   4    0.06    0.03
  -6   2  -4    0.04    0.03
  -6   2  -4    0.09    0.04
  -6   2  -4    0.08    0.04
   6  -2   4    0.07    0.03
  -6   2  -5    1.77    0.09
   6  -2   5    1.84    0.10
  -6   2  -5    1.86    0.10
  -6   2  -5    1.66    0.11
   6  -2   5    1.77    0.10
   6  -2   6    0.05    0.03
  -6   2  -6   -0.04    0.03
  -6   2  -6    0.05    0.03
  -6   2  -6    0.00    0.03
   6  -2   6    0.00    0.03
  -6   2  -7    1.43    0.09
   6  -2   7    1.46    0.09
  -6   2  -7    1.24    0.09
  -6   2  -7    1.25    0.09
   6  -2   7    1.37    0.09
   6  -2   8    0.06    0.03
  -6   2  -8    0.04    0.03
  -6   2  -8    0.01    0.03
  -6   2  -8    0.02    0.03
   6  -2   8    0.00    0.03
   6  -2   9    6.74    0.17
  -6   2  -9    6.45    0.18
  -6   2  -9    6.30    0.18
   6  -2   9    6.30    0.17
   6  -2  10    1.05    0.06
  -6   2 -10    1.02    0.07
  -6   2 -10    0.93    0.07
   6  -2  10    0.89    0.06
   6  -1  -7    1.61    0.07
   6  -1  -7    1.98    0.09
  -6   1   7    1.70    0.08
  -6   1   7    2.06    0.10
   6  -1  -6    0.08    0.03
   6  -1  -6    0.10    0.03
  -6   1   6    0.06    0.03
  -6   1   6    0.05    0.03
   6  -1  -5    0.96    0.07
   6  -1  -5    0.95    0.07
  -6   1   5    0.91    0.07
  -6   1   5    0.94    0.08
   6  -1  -4   14.67    0.29
  -6   1   4   15.39    0.26
   6  -1  -4   14.74    0.28
  -6   1   4   14.40    0.29
  -6   1   4   14.99    0.31
   6  -1  -3    0.50    0.06
  -6   1   3    0.54    0.05
   6  -1  -3    0.50    0.06
  -6   1   3    0.55    0.07
  -6   1   3    0.54    0.06
   6  -1  -2    0.11    0.04
   6  -1  -2    0.10    0.04
  -6   1   2    0.05    0.03
  -6   1   2    0.08    0.04
  -6   1   2    0.10    0.04
   6  -1  -1    0.39    0.05
  -6   1   1    0.39    0.05
   6  -1  -1    0.39    0.05
  -6   1   1    0.37    0.05
  -6   1   1    0.36    0.05
   6  -1   0    0.12    0.03
   6  -1   0    0.14    0.03
  -6   1   0    0.10    0.03
  -6   1   0    0.14    0.04
  -6   1   0    0.09    0.03
   6  -1   1    2.45    0.11
  -6   1  -1    2.44    0.11
   6  -1   1    2.51    0.11
  -6   1  -1    2.42    0.12
  -6   1  -1    2.58    0.13
  -6   1  -2    5.81    0.17
   6  -1   2    5.57    0.17
  -6   1  -2    5.53    0.18
  -6   1  -2    5.63    0.18
  -6   1  -3   19.03    0.30
   6  -1   3   19.12    0.30
  -6   1  -3   18.93    0.34
  -6   1  -3   19.24    0.32
  -6   1  -3   19.68    0.33
  -6   1  -4    0.64    0.06
   6  -1   4    0.65    0.06
  -6   1  -4    0.60    0.07
  -6   1  -4    0.65    0.07
  -6   1  -4    0.61    0.06
  -6   1  -5    0.78    0.07
   6  -1   5    0.75    0.07
  -6   1  -5    0.70    0.07
  -6   1  -5    0.65    0.07
  -6   1  -5    0.62    0.07
   6  -1   5    0.66    0.07
   6  -1   6    0.40    0.05
  -6   1  -6    0.36    0.05
  -6   1  -6    0.43    0.06
  -6   1  -6    0.34    0.05
  -6   1  -6    0.33    0.05
   6  -1   6    0.43    0.06
  -6   1  -7    0.58    0.06
   6  -1   7    0.65    0.06
  -6   1  -7    0.52    0.07
  -6   1  -7    0.49    0.06
   6  -1   7    0.52    0.06
  -6   1  -8    8.17    0.20
  -6   1  -8    7.81    0.22
  -6   1  -8    7.70    0.22
   6  -1   8    7.78    0.21
  -6   1  -9    0.09    0.03
  -6   1  -9    0.16    0.04
  -6   1  -9    0.11    0.04
   6  -1   9    0.13    0.04
  -6   1 -10    0.27    0.04
  -6   1 -10    0.27    0.04
   6  -1  10    0.29    0.04
  -6   1 -11    0.12    0.03
   6  -1  11    0.10    0.03
   6   0  -7    1.34    0.07
  -6   0   7    1.57    0.07
   6   0  -7    1.47    0.07
  -6   0   7    1.39    0.08
   6   0  -6    0.39    0.05
  -6   0   6    0.47    0.05
   6   0  -6    0.44    0.05
  -6   0   6    0.50    0.06
   6   0  -5    0.13    0.04
   6   0  -5    0.14    0.03
  -6   0   5    0.18    0.03
  -6   0   5    0.14    0.04
  -6   0   5    0.10    0.04
   6   0  -4    9.45    0.23
  -6   0   4    9.43    0.21
   6   0  -4    9.66    0.22
  -6   0   4    9.57    0.23
  -6   0   4    9.53    0.25
   6   0  -3    1.69    0.10
  -6   0   3    1.68    0.09
   6   0  -3    1.79    0.10
  -6   0   3    1.77    0.11
  -6   0   3    1.81    0.11
   6   0  -2    0.06    0.03
   6   0  -2    0.10    0.03
  -6   0   2    0.13    0.04
  -6   0   2    0.08    0.04
  -6   0   2    0.14    0.04
   6   0  -1    0.69    0.06
  -6   0   1    0.62    0.06
   6   0  -1    0.64    0.06
  -6   0   1    0.61    0.06
  -6   0   1    0.62    0.07
  -6   0   1    0.53    0.06
   6   0   0    0.59    0.06
  -6   0   0    0.66    0.06
   6   0   0    0.62    0.06
  -6   0   0    0.66    0.07
  -6   0   0    0.62    0.06
  -6   0   0    0.61    0.06
   6   0   1    5.52    0.16
  -6   0  -1    5.48    0.16
   6   0   1    5.41    0.16
  -6   0  -1    5.39    0.18
  -6   0  -1    5.41    0.18
  -6   0  -2    4.46    0.15
  -6   0  -2    4.65    0.17
  -6   0  -2    4.55    0.16
  -6   0  -3    1.84    0.10
  -6   0  -3    1.71    0.10
  -6   0  -3    1.70    0.10
  -6   0  -4    7.55    0.19
  -6   0  -4    7.68    0.21
  -6   0  -4    7.70    0.20
  -6   0  -4    7.72    0.21
  -6   0  -4    7.67    0.22
  -6   0  -5    6.32    0.18
  -6   0  -5    6.52    0.19
  -6   0  -5    6.46    0.19
  -6   0  -5    6.58    0.21
  -6   0  -6    2.11    0.11
  -6   0  -6    2.33    0.12
  -6   0  -6    2.10    0.12
  -6   0  -6    2.11    0.12
   6   0   6    2.13    0.12
  -6   0  -7    0.43    0.05
  -6   0  -7    0.45    0.05
  -6   0  -7    0.34    0.06
  -6   0  -7    0.43    0.06
   6   0   7    0.43    0.06
  -6   0  -8    1.31    0.08
  -6   0  -8    1.25    0.09
  -6   0  -8    1.24    0.10
   6   0   8    1.25    0.09
  -6   0  -9    9.60    0.22
  -6   0  -9    9.41    0.23
  -6   0  -9    9.13    0.25
   6   0   9    9.33    0.24
  -6   0 -10    0.04    0.03
  -6   0 -10    0.07    0.03
   6   0  10    0.08    0.03
  -6   0 -11    3.68    0.13
   6   0  11    3.74    0.13
   6   1  -7    1.67    0.08
  -6  -1   7    1.96    0.08
   6   1  -7    1.96    0.08
  -6  -1   7    1.90    0.09
   6   1  -6    2.36    0.10
  -6  -1   6    2.62    0.10
   6   1  -6    2.75    0.10
  -6  -1   6    2.35    0.12
   6   1  -5    0.04    0.03
   6   1  -5   -0.01    0.03
  -6  -1   5   -0.01    0.03
  -6  -1   5    0.00    0.03
   6   1  -4    2.63    0.12
  -6  -1   4    2.47    0.11
   6   1  -4    2.91    0.12
  -6  -1   4    2.64    0.14
   6   1  -3    3.85    0.15
  -6  -1   3    3.78    0.14
  -6  -1   3    3.93    0.15
  -6  -1   3    3.76    0.16
  -6  -1   2    0.11    0.04
  -6  -1   2    0.08    0.03
  -6  -1   2    0.04    0.03
   6   1  -1    0.05    0.03
  -6  -1   1    0.01    0.03
  -6  -1   1    0.03    0.04
  -6  -1   1   -0.01    0.03
   6   1   0    2.13    0.11
  -6  -1   0    2.03    0.11
  -6  -1   0    2.17    0.11
  -6  -1   0    1.85    0.11
  -6  -1   0    2.03    0.11
   6   1   1    0.18    0.03
  -6  -1  -1    0.12    0.03
  -6  -1  -1    0.09    0.03
  -6  -1  -1    0.12    0.04
  -6  -1  -1    0.10    0.03
  -6  -1  -2    2.77    0.12
  -6  -1  -2    2.74    0.13
  -6  -1  -2    2.70    0.13
  -6  -1  -2    2.96    0.14
  -6  -1  -2    2.62    0.12
  -6  -1  -3    1.83    0.10
  -6  -1  -3    1.93    0.11
  -6  -1  -3    1.86    0.11
  -6  -1  -3    1.87    0.11
  -6  -1  -4    1.68    0.09
  -6  -1  -4    1.80    0.10
  -6  -1  -4    1.81    0.11
  -6  -1  -5    4.30    0.15
  -6  -1  -5    4.22    0.16
  -6  -1  -5    4.28    0.15
  -6  -1  -5    4.08    0.17
  -6  -1  -6    0.07    0.03
  -6  -1  -6    0.05    0.03
  -6  -1  -6   -0.02    0.04
  -6  -1  -6    0.06    0.03
   6   1   6    0.09    0.04
  -6  -1  -7    6.32    0.18
  -6  -1  -7    6.43    0.19
  -6  -1  -7    6.33    0.19
  -6  -1  -7    6.45    0.22
   6   1   7    6.30    0.20
  -6  -1  -8    0.01    0.03
  -6  -1  -8   -0.01    0.04
  -6  -1  -8   -0.03    0.03
   6   1   8    0.00    0.03
  -6  -1  -9    0.77    0.07
  -6  -1  -9    0.81    0.07
  -6  -1  -9    0.80    0.08
   6   1   9    0.82    0.08
  -6  -1 -10    0.74    0.06
  -6  -1 -10    0.64    0.06
  -6  -1 -10    0.73    0.07
   6   1  10    0.65    0.07
  -6  -1 -11    0.06    0.03
  -6  -1 -11    0.08    0.03
   6   1  11    0.04    0.03
  -6  -1 -12    3.54    0.12
   6   1  12    3.50    0.11
   6   2  -6    2.90    0.11
  -6  -2   6    3.15    0.11
  -6  -2   6    2.91    0.11
  -6  -2   6    2.84    0.12
   6   2  -5    1.33    0.08
  -6  -2   5    1.35    0.08
  -6  -2   5    1.45    0.09
  -6  -2   5    1.40    0.09
   6   2  -4    1.16    0.08
  -6  -2   4    1.20    0.08
  -6  -2   4    1.11    0.09
   6   2  -3    4.12    0.15
  -6  -2   3    4.09    0.15
  -6  -2   3    4.14    0.17
  -6  -2   2   11.33    0.25
  -6  -2   2   11.60    0.28
   6   2  -1    0.02    0.03
  -6  -2   1    0.02    0.03
  -6  -2   1    0.04    0.03
   6   2   0    5.12    0.16
  -6  -2   0    5.07    0.16
  -6  -2   0    4.92    0.17
  -6  -2   0    4.86    0.18
  -6  -2  -1   61.73    0.56
  -6  -2  -1   63.08    0.58
  -6  -2  -1   62.64    0.58
  -6  -2  -1   63.36    0.64
  -6  -2  -1   61.74    0.61
  -6  -2  -2   52.02    0.51
  -6  -2  -2   52.24    0.54
  -6  -2  -2   53.10    0.54
  -6  -2  -2   53.42    0.59
  -6  -2  -2   53.28    0.55
  -6  -2  -3   54.35    0.51
  -6  -2  -3   54.83    0.60
  -6  -2  -3   55.83    0.55
  -6  -2  -4    3.20    0.13
  -6  -2  -4    3.09    0.14
  -6  -2  -4    3.06    0.15
  -6  -2  -5   17.81    0.29
  -6  -2  -5   17.94    0.32
  -6  -2  -5   17.93    0.36
  -6  -2  -6    0.17    0.04
  -6  -2  -6    0.21    0.04
  -6  -2  -6    0.20    0.05
  -6  -2  -6    0.26    0.05
   6   2   6    0.22    0.05
  -6  -2  -7   67.06    0.56
  -6  -2  -7   67.90    0.61
  -6  -2  -7   69.00    0.62
  -6  -2  -7   67.06    0.69
   6   2   7   66.34    0.63
  -6  -2  -8    6.00    0.19
  -6  -2  -8    6.13    0.17
  -6  -2  -8    5.95    0.18
  -6  -2  -8    6.34    0.18
  -6  -2  -8    6.16    0.21
   6   2   8    6.00    0.19
  -6  -2  -9    4.90    0.17
  -6  -2  -9    5.17    0.15
  -6  -2  -9    4.97    0.19
   6   2   9    5.06    0.17
  -6  -2 -10    0.48    0.05
  -6  -2 -10    0.45    0.05
  -6  -2 -10    0.49    0.06
   6   2  10    0.47    0.06
  -6  -2 -11    1.34    0.08
  -6  -2 -11    1.60    0.09
   6   2  11    1.49    0.09
   6   2  12    0.06    0.02
   6   3  -6    1.47    0.07
  -6  -3   6    1.52    0.07
  -6  -3   6    1.54    0.08
  -6  -3   6    1.36    0.07
   6   3  -5    2.58    0.11
  -6  -3   5    2.85    0.11
  -6  -3   5    2.87    0.12
  -6  -3   5    2.70    0.12
   6   3  -4   20.08    0.31
  -6  -3   4   20.04    0.31
  -6  -3   4   20.97    0.33
  -6  -3   4   20.20    0.34
  -6  -3   3    4.56    0.15
  -6  -3   3    4.68    0.16
  -6  -3   3    4.58    0.17
  -6  -3   2   18.75    0.31
  -6  -3   2   18.75    0.35
  -6  -3   1    0.13    0.04
  -6  -3   1    0.07    0.03
  -6  -3   1    0.12    0.04
  -6  -3   0    2.60    0.12
  -6  -3   0    2.66    0.14
  -6  -3   0    2.79    0.14
  -6  -3  -1    0.66    0.06
  -6  -3  -1    0.79    0.07
  -6  -3  -1    0.76    0.08
  -6  -3  -1    0.78    0.08
  -6  -3  -2   38.63    0.43
  -6  -3  -2   38.49    0.46
  -6  -3  -2   38.57    0.52
  -6  -3  -2   37.93    0.49
  -6  -3  -3   20.46    0.31
  -6  -3  -3   20.24    0.34
  -6  -3  -3   19.76    0.38
  -6  -3  -3   20.52    0.36
  -6  -3  -4    1.19    0.08
  -6  -3  -4    1.05    0.08
  -6  -3  -4    1.10    0.10
  -6  -3  -4    1.16    0.09
  -6  -3  -5    0.14    0.04
  -6  -3  -5    0.16    0.04
  -6  -3  -5    0.10    0.04
  -6  -3  -6   21.53    0.36
  -6  -3  -6   22.06    0.40
   6   3   6   22.36    0.36
  -6  -3  -7   87.46    0.73
  -6  -3  -7   85.86    0.71
  -6  -3  -7   85.22    0.79
   6   3   7   87.22    0.71
  -6  -3  -8   11.28    0.27
  -6  -3  -8   11.73    0.25
  -6  -3  -8   11.52    0.29
   6   3   8   11.47    0.26
  -6  -3  -9   25.27    0.39
  -6  -3  -9   26.44    0.42
   6   3   9   26.41    0.37
  -6  -3 -10    0.43    0.05
  -6  -3 -10    0.45    0.06
   6   3  10    0.45    0.05
  -6  -3 -11    2.20    0.11
  -6  -3 -11    2.55    0.11
  -6  -3 -12    0.82    0.06
   6   3  12    0.74    0.05
   6   4  -5    0.88    0.06
  -6  -4   5    0.94    0.06
  -6  -4   5    0.96    0.07
  -6  -4   4    0.61    0.05
  -6  -4   4    0.61    0.06
  -6  -4   4    0.51    0.05
  -6  -4   3    4.34    0.14
  -6  -4   3    4.34    0.15
  -6  -4   3    4.03    0.15
  -6  -4   2    0.85    0.07
  -6  -4   2    0.87    0.07
  -6  -4   2    0.85    0.08
  -6  -4   1    8.90    0.21
  -6  -4   1    9.45    0.23
  -6  -4   1    9.37    0.25
  -6  -4   1    8.75    0.24
  -6  -4   0    0.03    0.03
  -6  -4   0    0.08    0.04
  -6  -4   0    0.02    0.04
  -6  -4  -1    3.93    0.14
  -6  -4  -1    3.78    0.17
  -6  -4  -1    3.70    0.16
  -6  -4  -2    8.33    0.21
  -6  -4  -2    7.73    0.24
  -6  -4  -2    7.70    0.23
  -6  -4  -3   58.15    0.57
  -6  -4  -3   56.14    0.65
  -6  -4  -3   57.36    0.61
  -6  -4  -4   11.69    0.26
  -6  -4  -4   11.42    0.29
  -6  -4  -5   14.48    0.30
  -6  -4  -5   14.33    0.32
  -6  -4  -6    0.10    0.04
  -6  -4  -6    0.15    0.04
  -6  -4  -6    0.11    0.04
  -6  -4  -7    6.13    0.20
  -6  -4  -7    6.58    0.20
  -6  -4  -7    6.06    0.21
  -6  -4  -8    0.94    0.08
  -6  -4  -8    0.85    0.07
  -6  -4  -8    1.00    0.09
  -6  -4  -9    7.82    0.20
  -6  -4  -9    7.81    0.22
  -6  -4 -10    1.43    0.09
  -6  -4 -10    1.61    0.08
  -6  -4 -10    1.42    0.09
  -6  -4 -11    0.06    0.03
   6   4  11    0.09    0.03
  -6  -5   4    0.87    0.06
  -6  -5   3    0.93    0.07
  -6  -5   3    0.92    0.07
  -6  -5   2    0.55    0.06
  -6  -5   2    0.55    0.06
  -6  -5   1    1.32    0.09
  -6  -5   1    1.12    0.08
  -6  -5   0    0.01    0.03
  -6  -5   0   -0.03    0.04
  -6  -5   0    0.04    0.03
  -6  -5  -1    4.83    0.17
  -6  -5  -1    4.42    0.18
  -6  -5  -1    4.69    0.17
  -6  -5  -2    4.94    0.20
  -6  -5  -2    4.99    0.18
  -6  -5  -3    0.15    0.04
  -6  -5  -3    0.18    0.05
  -6  -5  -4    0.55    0.06
  -6  -5  -4    0.62    0.08
  -6  -5  -4    0.50    0.07
  -6  -5  -5    4.43    0.16
  -6  -5  -5    4.47    0.18
  -6  -5  -5    4.40    0.17
  -6  -5  -6    2.81    0.13
  -6  -5  -6    2.78    0.14
  -6  -5  -6    2.59    0.13
  -6  -5  -7    4.01    0.16
  -6  -5  -7    4.26    0.16
  -6  -5  -7    4.13    0.17
  -6  -5  -8    0.72    0.07
  -6  -5  -8    0.83    0.07
  -6  -5  -8    0.75    0.07
  -6  -5  -9    0.10    0.04
  -6  -5  -9    0.13    0.03
  -6  -5 -10    0.83    0.07
  -6  -5 -10    0.89    0.06
   6   5  10    0.98    0.07
  -6  -5 -11    0.16    0.03
   6   5  11    0.07    0.02
  -6  -6   2    1.06    0.07
  -6  -6   1    5.29    0.16
  -6  -6   0    0.28    0.05
  -6  -6  -1    2.17    0.11
  -6  -6  -1    2.01    0.12
  -6  -6  -1    1.96    0.11
  -6  -6  -2    3.21    0.13
  -6  -6  -2    2.96    0.15
  -6  -6  -2    2.89    0.13
  -6  -6  -3    0.26    0.04
  -6  -6  -3    0.29    0.05
  -6  -6  -4    4.89    0.16
  -6  -6  -4    4.88    0.18
  -6  -6  -5    0.55    0.06
  -6  -6  -5    0.64    0.07
  -6  -6  -6    9.73    0.23
  -6  -6  -6   10.05    0.25
  -6  -6  -6    9.78    0.24
  -6  -6  -7    4.32    0.15
  -6  -6  -7    4.33    0.16
  -6  -6  -7    4.21    0.16
  -6  -6  -8    0.78    0.06
  -6  -6  -8    0.66    0.07
  -6  -6  -9    1.41    0.08
   6   6   9    1.32    0.07
  -6  -6  -9    1.34    0.08
  -6  -6 -10    0.35    0.04
  -6  -7   0    1.36    0.08
  -6  -7  -1    0.40    0.05
  -6  -7  -2    0.26    0.04
  -6  -7  -2    0.32    0.05
  -6  -7  -3    1.31    0.09
  -6  -7  -3    1.14    0.08
  -6  -7  -4    0.63    0.06
  -6  -7  -4    0.55    0.05
  -6  -7  -5    1.39    0.08
  -6  -7  -5    1.43    0.09
  -6  -7  -5    1.27    0.08
  -6  -7  -6    1.77    0.09
  -6  -7  -6    1.74    0.09
  -6  -7  -7    2.96    0.11
  -6  -7  -8    0.07    0.03
   7  -5   0    2.27    0.09
   7  -5   0    2.38    0.09
  -7   5   0    2.23    0.09
   7  -5   1    0.59    0.05
   7  -5   1    0.58    0.05
  -7   5  -1    0.62    0.05
  -7   5  -1    0.60    0.05
   7  -5   2    2.67    0.10
  -7   5  -2    2.75    0.10
  -7   5  -2    2.44    0.09
   7  -5   3    2.29    0.09
  -7   5  -3    2.17    0.09
   7  -4  -3    0.00    0.02
   7  -4  -3    0.02    0.02
  -7   4   3    0.00    0.02
   7  -4  -2    3.20    0.11
   7  -4  -2    3.19    0.11
  -7   4   2    3.20    0.11
  -7   4   2    3.25    0.11
   7  -4  -1    7.53    0.17
   7  -4  -1    7.53    0.18
  -7   4   1    7.49    0.18
  -7   4   1    7.39    0.17
   7  -4   0    4.23    0.13
   7  -4   0    4.11    0.13
  -7   4   0    3.84    0.14
   7  -4   1    1.57    0.08
   7  -4   1    1.63    0.09
  -7   4  -1    1.73    0.09
  -7   4  -1    1.61    0.09
   7  -4   2    0.49    0.05
   7  -4   2    0.53    0.05
  -7   4  -2    0.54    0.05
  -7   4  -2    0.50    0.05
   7  -4   3    4.00    0.13
  -7   4  -3    4.01    0.13
  -7   4  -3    3.91    0.13
   7  -4   4    0.07    0.03
  -7   4  -4    0.11    0.03
  -7   4  -4    0.14    0.03
   7  -4   5    1.12    0.07
  -7   4  -5    1.02    0.07
   7  -4   6    4.12    0.12
  -7   4  -6    3.99    0.12
   7  -3  -4    0.65    0.05
   7  -3  -4    0.62    0.05
  -7   3   4    0.57    0.05
   7  -3  -3   -0.03    0.03
   7  -3  -3    0.01    0.02
  -7   3   3    0.03    0.02
  -7   3   3   -0.05    0.03
   7  -3  -2    0.01    0.02
   7  -3  -2   -0.01    0.02
  -7   3   2   -0.03    0.03
  -7   3   2   -0.01    0.03
   7  -3  -1    0.11    0.03
   7  -3  -1    0.07    0.03
  -7   3   1    0.04    0.03
  -7   3   1    0.11    0.03
   7  -3   0    1.00    0.07
   7  -3   0    0.88    0.07
  -7   3   0    0.96    0.08
  -7   3   0    0.95    0.07
   7  -3   1    0.86    0.07
   7  -3   1    0.80    0.07
  -7   3  -1    0.76    0.07
  -7   3  -1    0.96    0.07
   7  -3   2    0.00    0.02
   7  -3   2    0.01    0.03
  -7   3  -2    0.00    0.03
  -7   3  -2    0.05    0.02
  -7   3  -2    0.01    0.03
   7  -3   3    0.15    0.04
  -7   3  -3    0.12    0.03
  -7   3  -3    0.16    0.04
   7  -3   4    0.08    0.03
  -7   3  -4    0.04    0.03
  -7   3  -4    0.01    0.03
   7  -3   5    0.49    0.05
  -7   3  -5    0.56    0.05
  -7   3  -5    0.49    0.05
  -7   3  -6    1.25    0.07
   7  -3   6    1.23    0.07
  -7   3  -6    1.19    0.08
   7  -3   7    0.99    0.06
  -7   3  -7    0.95    0.07
  -7   3  -8    0.71    0.05
   7  -2  -5    2.64    0.09
   7  -2  -5    2.68    0.09
  -7   2   5    2.53    0.10
   7  -2  -4    1.45    0.08
   7  -2  -4    1.46    0.08
  -7   2   4    1.42    0.08
   7  -2  -3    0.06    0.03
   7  -2  -3    0.04    0.03
  -7   2   3    0.04    0.03
   7  -2  -2    3.14    0.12
   7  -2  -2    2.96    0.12
  -7   2   2    2.81    0.12
  -7   2   2    2.92    0.13
   7  -2  -1    0.49    0.05
   7  -2  -1    0.53    0.06
  -7   2   1    0.52    0.06
  -7   2   1    0.59    0.06
   7  -2   0    0.05    0.03
   7  -2   0    0.00    0.02
  -7   2   0   -0.01    0.03
  -7   2   0    0.01    0.03
   7  -2   1    1.63    0.09
  -7   2  -1    1.75    0.09
   7  -2   1    1.72    0.10
  -7   2  -1    1.55    0.10
  -7   2  -1    1.64    0.10
  -7   2  -2    0.43    0.05
   7  -2   2    0.47    0.05
  -7   2  -2    0.55    0.06
  -7   2  -2    0.45    0.06
  -7   2  -3    4.84    0.15
   7  -2   3    4.68    0.16
  -7   2  -3    4.67    0.17
  -7   2  -3    4.52    0.16
  -7   2  -3    4.55    0.16
   7  -2   4    0.21    0.04
  -7   2  -4    0.26    0.04
  -7   2  -4    0.27    0.05
  -7   2  -4    0.22    0.04
  -7   2  -5    0.97    0.07
   7  -2   5    1.05    0.07
  -7   2  -5    1.00    0.08
  -7   2  -5    0.83    0.07
   7  -2   5    0.90    0.07
   7  -2   6    0.06    0.03
  -7   2  -6    0.08    0.03
  -7   2  -6    0.05    0.03
   7  -2   6    0.10    0.03
  -7   2  -7    0.38    0.04
   7  -2   7    0.41    0.04
  -7   2  -7    0.40    0.05
   7  -2   7    0.30    0.04
  -7   2  -8    0.91    0.06
  -7   2  -8    0.85    0.06
  -7   2  -8    0.79    0.06
   7  -2   8    0.76    0.06
  -7   2  -9    2.59    0.10
   7  -1  -5    7.10    0.16
   7  -1  -5    7.24    0.15
  -7   1   5    7.06    0.16
  -7   1   5    7.01    0.17
   7  -1  -4    1.70    0.09
   7  -1  -4    1.77    0.08
  -7   1   4    1.73    0.09
  -7   1   4    1.61    0.09
   7  -1  -3   14.92    0.27
  -7   1   3   15.50    0.24
   7  -1  -3   14.60    0.25
  -7   1   3   14.69    0.27
  -7   1   3   14.70    0.27
   7  -1  -2   26.34    0.36
  -7   1   2   27.22    0.33
   7  -1  -2   26.61    0.35
  -7   1   2   26.30    0.38
   7  -1  -1    3.65    0.14
  -7   1   1    3.71    0.13
   7  -1  -1    3.79    0.14
  -7   1   1    3.52    0.14
  -7   1   1    3.69    0.15
   7  -1   0    5.53    0.17
  -7   1   0    5.68    0.16
   7  -1   0    5.92    0.17
  -7   1   0    5.38    0.18
  -7   1   0    5.44    0.18
   7  -1   1    0.28    0.04
   7  -1   1    0.34    0.05
  -7   1  -1    0.26    0.04
  -7   1  -1    0.30    0.06
  -7   1  -1    0.29    0.05
  -7   1  -2    2.58    0.11
   7  -1   2    2.65    0.12
  -7   1  -2    2.36    0.13
  -7   1  -2    2.55    0.13
  -7   1  -3    7.82    0.20
   7  -1   3    7.67    0.19
  -7   1  -3    7.71    0.22
  -7   1  -3    7.82    0.22
   7  -1   4   -0.02    0.03
  -7   1  -4    0.02    0.03
  -7   1  -4   -0.02    0.03
  -7   1  -4    0.01    0.03
   7  -1   4    0.03    0.03
  -7   1  -5    5.48    0.16
  -7   1  -5    5.82    0.18
  -7   1  -5    5.64    0.18
   7  -1   5    5.42    0.18
  -7   1  -6    0.37    0.05
  -7   1  -6    0.38    0.05
  -7   1  -6    0.42    0.05
  -7   1  -6    0.33    0.05
   7  -1   6    0.24    0.04
  -7   1  -7    0.04    0.03
  -7   1  -7    0.02    0.03
  -7   1  -7    0.02    0.03
   7  -1   7    0.02    0.03
  -7   1  -8    0.21    0.04
  -7   1  -8    0.23    0.04
  -7   1  -8    0.27    0.04
   7  -1   8    0.22    0.04
  -7   1  -9    3.94    0.12
  -7   1  -9    3.57    0.12
  -7   1  -9    3.63    0.13
   7  -1   9    3.47    0.12
  -7   1 -10   10.54    0.19
  -7   1 -10    9.75    0.19
   7   0  -5    0.04    0.02
   7   0  -5    0.05    0.02
  -7   0   5    0.00    0.02
  -7   0   5    0.02    0.02
   7   0  -4    2.55    0.11
  -7   0   4    2.56    0.10
   7   0  -4    2.61    0.10
  -7   0   4    2.54    0.11
  -7   0   4    2.55    0.11
   7   0  -3   30.54    0.38
  -7   0   3   31.71    0.36
   7   0  -3   31.52    0.36
  -7   0   3   30.82    0.39
  -7   0   3   30.50    0.41
   7   0  -2   35.66    0.42
  -7   0   2   36.16    0.40
   7   0  -2   36.52    0.40
  -7   0   2   36.02    0.45
  -7   0   2   36.45    0.45
   7   0  -1    3.55    0.14
  -7   0   1    3.67    0.14
   7   0  -1    3.45    0.13
  -7   0   1    3.62    0.14
  -7   0   1    3.56    0.15
  -7   0   1    3.33    0.14
   7   0   0  104.95    0.72
  -7   0   0  102.54    0.72
  -7   0   0  103.90    0.77
  -7   0   0  103.70    0.79
   7   0   1   45.89    0.47
  -7   0  -1   44.81    0.48
  -7   0  -1   44.89    0.52
  -7   0  -1   44.99    0.52
  -7   0  -2    4.80    0.16
  -7   0  -2    4.70    0.17
  -7   0  -3    7.83    0.20
  -7   0  -3    7.58    0.22
  -7   0  -3    7.85    0.22
  -7   0  -4   20.49    0.32
  -7   0  -4   20.89    0.36
  -7   0  -5   12.57    0.25
  -7   0  -5   12.30    0.27
  -7   0  -5   12.56    0.26
  -7   0  -5   12.33    0.28
   7   0   5   12.13    0.27
  -7   0  -6    6.81    0.18
  -7   0  -6    7.17    0.20
  -7   0  -6    6.68    0.19
  -7   0  -6    6.63    0.21
   7   0   6    7.13    0.21
  -7   0  -7    1.77    0.09
  -7   0  -7    1.90    0.10
  -7   0  -7    1.73    0.10
  -7   0  -7    1.60    0.10
   7   0   7    1.77    0.11
  -7   0  -8    0.02    0.03
  -7   0  -8    0.04    0.03
  -7   0  -8    0.04    0.03
   7   0   8    0.03    0.03
  -7   0  -9    0.05    0.02
  -7   0  -9    0.02    0.03
  -7   0  -9    0.05    0.03
   7   0   9    0.00    0.03
  -7   0 -10    3.77    0.13
   7   0  10    3.53    0.12
   7   1  -5    2.08    0.09
  -7  -1   5    2.17    0.08
  -7  -1   5    2.25    0.10
   7   1  -4   22.90    0.31
  -7  -1   4   23.19    0.30
  -7  -1   4   23.08    0.34
   7   1  -3    1.37    0.08
  -7  -1   3    1.19    0.08
  -7  -1   3    1.16    0.08
   7   1  -2    0.25    0.04
  -7  -1   2    0.23    0.04
  -7  -1   2    0.22    0.04
  -7  -1   2    0.22    0.04
   7   1  -1    1.45    0.09
  -7  -1   1    1.47    0.09
  -7  -1   1    1.42    0.09
  -7  -1   1    1.45    0.10
   7   1   0   19.89    0.31
  -7  -1   0   19.76    0.32
  -7  -1   0   20.59    0.33
  -7  -1   0   19.85    0.34
  -7  -1   0   19.99    0.34
  -7  -1  -1    0.48    0.06
  -7  -1  -1    0.47    0.06
  -7  -1  -1    0.39    0.06
  -7  -1  -1    0.45    0.05
  -7  -1  -2    0.00    0.03
  -7  -1  -2    0.00    0.03
  -7  -1  -2   -0.03    0.04
  -7  -1  -3    0.02    0.03
  -7  -1  -3    0.01    0.03
  -7  -1  -4    6.00    0.18
  -7  -1  -4    6.46    0.20
  -7  -1  -4    6.32    0.21
  -7  -1  -5    5.61    0.17
  -7  -1  -5    5.70    0.18
  -7  -1  -5    5.60    0.20
  -7  -1  -6    0.53    0.06
  -7  -1  -6    0.58    0.06
  -7  -1  -6    0.51    0.07
   7   1   6    0.60    0.07
  -7  -1  -7    5.71    0.16
  -7  -1  -7    5.63    0.17
  -7  -1  -7    5.45    0.17
  -7  -1  -7    5.56    0.20
   7   1   7    5.59    0.18
  -7  -1  -8    1.99    0.09
  -7  -1  -8    2.11    0.10
  -7  -1  -8    2.29    0.10
  -7  -1  -8    2.17    0.12
   7   1   8    2.05    0.11
  -7  -1  -9    0.07    0.03
  -7  -1  -9    0.01    0.03
  -7  -1  -9    0.05    0.03
   7   1   9    0.04    0.03
  -7  -1 -10    0.15    0.04
   7   1  10    0.06    0.03
   7   2  -4    0.00    0.02
  -7  -2   4    0.02    0.02
  -7  -2   4   -0.01    0.03
   7   2  -3    5.38    0.15
  -7  -2   3    5.54    0.16
  -7  -2   3    5.54    0.17
   7   2  -2   -0.01    0.03
  -7  -2   2    0.02    0.03
  -7  -2   2   -0.03    0.03
   7   2  -1    0.18    0.04
  -7  -2   1    0.22    0.04
  -7  -2   1    0.27    0.05
   7   2   0    4.45    0.15
  -7  -2   0    4.19    0.15
  -7  -2   0    4.46    0.16
  -7  -2   0    4.33    0.17
  -7  -2  -1   15.85    0.29
  -7  -2  -1   15.94    0.29
  -7  -2  -1   16.07    0.31
  -7  -2  -2   16.91    0.30
  -7  -2  -2   17.00    0.31
  -7  -2  -2   17.19    0.34
  -7  -2  -2   16.59    0.31
  -7  -2  -3    9.77    0.22
  -7  -2  -3    9.18    0.23
  -7  -2  -3    9.86    0.26
  -7  -2  -3   10.11    0.24
  -7  -2  -4    5.49    0.17
  -7  -2  -4    5.47    0.18
  -7  -2  -4    5.38    0.20
  -7  -2  -5    3.26    0.13
  -7  -2  -5    3.36    0.14
  -7  -2  -5    3.16    0.15
  -7  -2  -6    0.03    0.03
  -7  -2  -6    0.06    0.03
  -7  -2  -6    0.04    0.04
   7   2   6    0.05    0.03
  -7  -2  -7    6.84    0.17
  -7  -2  -7    7.01    0.20
  -7  -2  -7    6.77    0.22
   7   2   7    7.19    0.21
  -7  -2  -8    1.13    0.07
  -7  -2  -8    1.36    0.08
  -7  -2  -8    1.34    0.10
   7   2   8    1.34    0.09
  -7  -2  -9    0.23    0.03
  -7  -2  -9    0.25    0.05
   7   2   9    0.26    0.04
  -7  -2 -10    0.47    0.05
   7   2  10    0.43    0.05
   7   3  -4    0.44    0.04
  -7  -3   4    0.42    0.04
  -7  -3   4    0.40    0.04
   7   3  -3    1.56    0.08
  -7  -3   3    1.70    0.08
  -7  -3   3    1.65    0.09
   7   3  -2   -0.01    0.03
  -7  -3   2    0.02    0.02
  -7  -3   2    0.00    0.03
   7   3  -1    2.18    0.10
  -7  -3   1    2.05    0.10
  -7  -3   1    2.10    0.11
  -7  -3   0    1.93    0.10
  -7  -3   0    1.95    0.11
  -7  -3  -1    0.14    0.04
  -7  -3  -1    0.17    0.04
  -7  -3  -1    0.13    0.04
  -7  -3  -2   11.18    0.23
  -7  -3  -2   11.04    0.24
  -7  -3  -2   10.73    0.27
  -7  -3  -2   10.92    0.26
  -7  -3  -3   13.50    0.26
  -7  -3  -3   12.87    0.27
  -7  -3  -3   13.01    0.31
  -7  -3  -3   13.86    0.29
  -7  -3  -4    0.08    0.03
  -7  -3  -4    0.15    0.04
  -7  -3  -4    0.11    0.04
  -7  -3  -5    4.99    0.15
  -7  -3  -5    4.82    0.17
  -7  -3  -5    4.88    0.19
  -7  -3  -6    6.98    0.17
  -7  -3  -6    6.94    0.20
  -7  -3  -6    6.71    0.22
   7   3   6    7.33    0.20
  -7  -3  -7    0.18    0.04
  -7  -3  -7    0.15    0.04
   7   3   7    0.13    0.04
  -7  -3  -8    1.12    0.08
  -7  -3  -8    1.18    0.09
   7   3   8    1.08    0.08
  -7  -3  -9    3.10    0.11
  -7  -3  -9    3.03    0.13
   7   3   9    2.93    0.12
  -7  -3 -10   10.38    0.22
   7   3  10    9.82    0.19
   7   4  -3    2.38    0.09
  -7  -4   3    2.49    0.09
  -7  -4   3    2.49    0.10
   7   4  -2    0.00    0.02
  -7  -4   2    0.00    0.02
  -7  -4   2   -0.01    0.03
   7   4  -1    3.34    0.11
  -7  -4   1    3.28    0.12
  -7  -4   1    3.29    0.13
  -7  -4   0    2.12    0.10
  -7  -4   0    2.13    0.11
  -7  -4   0    1.99    0.11
  -7  -4  -1    0.26    0.04
  -7  -4  -1    0.30    0.05
  -7  -4  -1    0.27    0.05
  -7  -4  -2    2.80    0.11
  -7  -4  -2    2.62    0.14
  -7  -4  -2    2.64    0.13
  -7  -4  -3    0.40    0.05
  -7  -4  -3    0.29    0.05
  -7  -4  -3    0.32    0.05
  -7  -4  -4    8.41    0.21
  -7  -4  -4    8.41    0.24
  -7  -4  -5    0.03    0.03
  -7  -4  -5    0.00    0.04
  -7  -4  -6    0.24    0.04
  -7  -4  -6    0.20    0.05
  -7  -4  -7    1.72    0.10
  -7  -4  -7    1.67    0.11
  -7  -4  -8    1.60    0.09
  -7  -4  -8    1.69    0.10
  -7  -4  -9    1.30    0.07
  -7  -4  -9    1.25    0.08
  -7  -4 -10    0.09    0.03
  -7  -5   1    0.01    0.02
  -7  -5   0    2.85    0.12
  -7  -5  -1    0.13    0.04
  -7  -5  -2    2.22    0.12
  -7  -5  -3    0.31    0.04
  -7  -5  -3    0.22    0.05
  -7  -5  -4    0.51    0.05
  -7  -5  -4    0.41    0.06
  -7  -5  -5    0.01    0.03
  -7  -5  -5    0.00    0.03
  -7  -5  -6    2.74    0.12
  -7  -5  -6    2.61    0.13
  -7  -5  -7    0.89    0.07
  -7  -5  -7    1.02    0.08
  -7  -5  -8    0.97    0.07
  -7  -5  -8    0.74    0.06
  -7  -5  -9   -0.02    0.02
  -7  -6  -2   10.72    0.23
  -7  -6  -3    0.01    0.03
  -7  -6  -4   -0.02    0.03
  -7  -6  -5    0.15    0.03
  -7  -6  -5    0.24    0.04
  -7  -6  -6    0.14    0.03
  -7  -6  -6    0.09    0.03
  -7  -6  -7    1.21    0.07
  -7  -6  -7    1.28    0.08
   8  -3   1    0.49    0.04
  -8   3  -1    0.44    0.04
   8  -3   2    3.39    0.10
  -8   3  -2    3.28    0.11
   8  -3   3   -0.01    0.02
  -8   3  -3    0.12    0.03
   8  -2  -1   25.65    0.28
   8  -2  -1   26.30    0.28
  -8   2   1   26.15    0.30
   8  -2   0   18.54    0.24
  -8   2   0   17.98    0.26
  -8   2   0   18.13    0.26
   8  -2   1    8.93    0.18
  -8   2  -1    8.59    0.19
  -8   2  -1    8.54    0.19
   8  -2   2    3.77    0.12
  -8   2  -2    3.63    0.13
  -8   2  -3    3.27    0.10
   8  -2   3    3.22    0.11
  -8   2  -3    3.54    0.12
  -8   2  -4   14.35    0.21
   8  -2   4   14.44    0.22
  -8   2  -4   14.37    0.24
  -8   2  -5    4.01    0.11
  -8   2  -5    4.06    0.12
   8  -1  -2   12.04    0.19
  -8   1   2   11.72    0.21
   8  -1  -1    2.27    0.09
  -8   1   1    2.13    0.08
   8  -1  -1    2.15    0.08
  -8   1   1    2.18    0.10
   8  -1   0    1.73    0.08
  -8   1   0    1.83    0.08
  -8   1   0    1.65    0.09
  -8   1   0    1.82    0.09
  -8   1  -1    0.48    0.05
  -8   1  -1    0.38    0.05
  -8   1  -1    0.37    0.05
  -8   1  -2    5.98    0.15
  -8   1  -2    5.66    0.17
  -8   1  -3    1.77    0.08
  -8   1  -3    1.65    0.09
   8  -1   3    1.61    0.09
  -8   1  -4    0.47    0.04
  -8   1  -4    0.53    0.05
   8  -1   4    0.42    0.05
  -8   1  -5    4.92    0.13
  -8   1  -5    4.86    0.14
   8  -1   5    4.49    0.14
  -8   1  -6    1.41    0.07
  -8   1  -6    1.47    0.08
  -8   1  -6    1.38    0.07
   8  -1   6    1.40    0.08
  -8   1  -7    0.25    0.03
  -8   1  -7    0.26    0.03
   8  -1   7    0.19    0.03
   8   0  -2    1.99    0.08
  -8   0   2    2.15    0.08
  -8   0   2    1.88    0.08
   8   0  -1    9.88    0.19
  -8   0   1   10.03    0.18
  -8   0   1    9.77    0.20
   8   0   0    6.03    0.15
  -8   0   0    6.24    0.15
  -8   0   0    5.75    0.16
  -8   0   0    5.95    0.17
  -8   0  -1    2.32    0.10
  -8   0  -1    2.33    0.11
  -8   0  -1    2.31    0.11
  -8   0  -2    6.70    0.17
  -8   0  -2    6.60    0.18
  -8   0  -3    0.68    0.06
  -8   0  -3    0.68    0.06
  -8   0  -4    5.80    0.16
  -8   0  -4    5.91    0.17
   8   0   4    5.40    0.17
  -8   0  -5    1.89    0.09
  -8   0  -5    1.95    0.10
   8   0   5    1.86    0.10
  -8   0  -6    9.11    0.18
  -8   0  -6    9.03    0.20
  -8   0  -7   -0.01    0.02
  -8   0  -7    0.00    0.02
  -8   0  -7    0.02    0.02
   8   0   7    0.03    0.02
  -8   0  -8    0.37    0.04
   8   0   8    0.27    0.03
   8   1  -2    0.00    0.02
  -8  -1   2    0.03    0.02
  -8  -1   2    0.06    0.03
   8   1  -1    1.80    0.08
  -8  -1   1    2.02    0.09
  -8  -1   1    1.80    0.09
  -8  -1   0    2.26    0.10
  -8  -1  -1    0.21    0.04
  -8  -1  -1    0.17    0.04
  -8  -1  -2    0.11    0.03
  -8  -1  -2    0.05    0.03
  -8  -1  -3    0.94    0.07
  -8  -1  -3    0.91    0.07
  -8  -1  -4    6.82    0.17
  -8  -1  -4    6.77    0.18
  -8  -1  -5    0.16    0.03
  -8  -1  -5    0.15    0.04
  -8  -1  -5    0.16    0.04
   8   1   5    0.19    0.04
  -8  -1  -6    0.60    0.05
  -8  -1  -6    0.55    0.05
  -8  -1  -6    0.51    0.06
   8   1   6    0.56    0.06
  -8  -1  -7    0.31    0.04
  -8  -1  -7    0.37    0.04
  -8  -1  -7    0.31    0.04
   8   1   7    0.33    0.05
  -8  -1  -8    0.43    0.04
  -8  -1  -8    0.50    0.04
  -8  -1  -8    0.48    0.05
   8   1   8    0.50    0.05
  -8  -2   2    2.30    0.08
   8   2  -1    0.65    0.05
  -8  -2   1    0.70    0.05
  -8  -2   1    0.75    0.06
  -8  -2   0    0.08    0.03
  -8  -2   0    0.09    0.03
  -8  -2  -1    1.73    0.09
  -8  -2  -1    1.54    0.08
  -8  -2  -2    3.14    0.12
  -8  -2  -2    3.04    0.12
  -8  -2  -3    1.09    0.07
  -8  -2  -3    1.12    0.08
  -8  -2  -4    0.89    0.06
  -8  -2  -4    0.95    0.07
  -8  -2  -4    0.99    0.08
  -8  -2  -5    3.28    0.11
  -8  -2  -5    3.35    0.13
  -8  -2  -5    3.16    0.13
   8   2   5    3.62    0.14
  -8  -2  -6    0.20    0.03
  -8  -2  -6    0.18    0.04
  -8  -2  -6    0.24    0.04
   8   2   6    0.19    0.04
  -8  -2  -7    1.84    0.08
  -8  -2  -7    1.95    0.09
  -8  -2  -7    1.79    0.10
   8   2   7    1.84    0.09
  -8  -2  -8    0.62    0.05
  -8  -2  -8    0.79    0.06
  -8  -2  -8    0.82    0.06
   8   2   8    0.83    0.06
  -8  -3   1    0.55    0.04
  -8  -3   1    0.51    0.05
  -8  -3   0    0.74    0.05
  -8  -3   0    0.78    0.06
  -8  -3  -1    1.09    0.07
  -8  -3  -1    1.19    0.08
  -8  -3  -2   -0.02    0.02
  -8  -3  -2    0.00    0.03
  -8  -3  -3    0.23    0.03
  -8  -3  -3    0.20    0.04
  -8  -3  -3    0.20    0.04
  -8  -3  -4    5.08    0.14
  -8  -3  -4    5.08    0.15
  -8  -3  -4    5.04    0.17
  -8  -3  -5    0.06    0.02
  -8  -3  -5    0.05    0.03
  -8  -3  -5    0.07    0.03
   8   3   5    0.07    0.03
  -8  -3  -6    4.68    0.12
  -8  -3  -6    4.76    0.14
   8   3   6    4.79    0.14
  -8  -3  -7    2.07    0.09
  -8  -3  -7    1.83    0.10
   8   3   7    1.92    0.09
  -8  -3  -8    6.82    0.15
  -8  -3  -8    6.77    0.17
  -8  -4  -2    0.10    0.03
  -8  -4  -3    0.41    0.04
  -8  -4  -3    0.43    0.05
  -8  -4  -4    1.52    0.08
  -8  -4  -4    1.49    0.09
  -8  -4  -5    3.89    0.12
  -8  -4  -5    3.59    0.14
  -8  -4  -6   10.49    0.20
  -8  -4  -6   10.31    0.22
  -8  -4  -7    1.31    0.07
  -8  -4  -7    1.25    0.08
   0   0   0    0.00    0.00
;
_shelx_hkl_checksum              74546
loop_
_space_group_symop_operation_xyz
'x, y, z'
'-x, -y, -z'
loop_
_atom_site_label
_atom_site_type_symbol
_atom_site_fract_x
_atom_site_fract_y
_atom_site_fract_z
_atom_site_U_iso_or_equiv
_atom_site_adp_type
_atom_site_occupancy
_atom_site_site_symmetry_order
_atom_site_calc_flag
_atom_site_refinement_flags_posn
_atom_site_refinement_flags_adp
H5A H 0.450(3) 0.665(3) -0.0395(18) 0.058(5) Uiso 1 1 d . .
H6A H 0.128(3) 1.366(2) -0.0207(18) 0.060(6) Uiso 1 1 d . .
H2A H 0.855(3) 0.937(3) 0.459(2) 0.065(6) Uiso 1 1 d . .
H1A H 0.142(3) 0.627(3) 0.4618(19) 0.065(6) Uiso 1 1 d . .
O1 O 0.22802(12) 0.69816(11) 0.41455(7) 0.0258(2) Uani 1 1 d . .
O4 O 0.07900(11) 0.48785(11) 0.60472(7) 0.0247(2) Uani 1 1 d . .
O2 O 0.77286(12) 0.93433(11) 0.41255(7) 0.0258(2) Uani 1 1 d . .
O3 O 0.89749(12) 0.86835(11) 0.60756(8) 0.0276(2) Uani 1 1 d . .
C4 C 0.62934(16) 0.75389(14) 0.58927(10) 0.0196(3) Uani 1 1 d . .
C6 C 0.49834(17) 0.81696(15) 0.41656(10) 0.0223(3) Uani 1 1 d . .
H6 H 0.5020 0.8749 0.3391 0.027 Uiso 1 1 calc R U
C2 C 0.34854(16) 0.62715(14) 0.58898(10) 0.0188(3) Uani 1 1 d . .
C3 C 0.48552(16) 0.65084(14) 0.64445(10) 0.0189(3) Uani 1 1 d . .
H3 H 0.4805 0.5948 0.7225 0.023 Uiso 1 1 calc R U
C1 C 0.35563(16) 0.71386(14) 0.47300(10) 0.0202(3) Uani 1 1 d . .
C8 C 0.20511(16) 0.51367(14) 0.64819(10) 0.0203(3) Uani 1 1 d . .
H8 H 0.2084 0.4560 0.7247 0.024 Uiso 1 1 calc R U
C5 C 0.63550(16) 0.83620(14) 0.47206(10) 0.0204(3) Uani 1 1 d . .
C7 C 0.76822(16) 0.77736(15) 0.65030(11) 0.0229(3) Uani 1 1 d . .
H7 H 0.7587 0.7188 0.7281 0.027 Uiso 1 1 calc R U
O8 O 0.34093(12) 0.53998(10) 0.09972(7) 0.0252(2) Uani 1 1 d . .
O5 O 0.45650(12) 0.77126(11) -0.08566(7) 0.0227(2) Uani 1 1 d . .
O7 O -0.04417(12) 1.35802(10) 0.11516(8) 0.0261(2) Uani 1 1 d . .
O6 O 0.21425(12) 1.30745(10) -0.07150(7) 0.0249(2) Uani 1 1 d . .
C12 C 0.09984(15) 1.09614(14) 0.09397(10) 0.0182(3) Uani 1 1 d . .
C14 C 0.33208(16) 1.03796(15) -0.07659(10) 0.0202(3) Uani 1 1 d . .
H14 H 0.4074 1.0747 -0.1521 0.024 Uiso 1 1 calc R U
C10 C 0.22883(15) 0.81737(14) 0.08746(10) 0.0181(3) Uani 1 1 d . .
C15 C 0.23747(16) 0.64647(14) 0.14334(10) 0.0204(3) Uani 1 1 d . .
H15 H 0.1584 0.6146 0.2183 0.024 Uiso 1 1 calc R U
C11 C 0.11090(15) 0.93085(14) 0.14444(10) 0.0181(3) Uani 1 1 d . .
H11 H 0.0358 0.8943 0.2200 0.022 Uiso 1 1 calc R U
C13 C 0.21503(16) 1.14926(14) -0.01834(10) 0.0191(3) Uani 1 1 d . .
C9 C 0.34013(15) 0.87379(14) -0.02568(10) 0.0184(3) Uani 1 1 d . .
C16 C -0.02895(16) 1.20975(14) 0.15423(10) 0.0209(3) Uani 1 1 d . .
H16 H -0.1060 1.1676 0.2280 0.025 Uiso 1 1 calc R U
loop_
_atom_site_aniso_label
_atom_site_aniso_U_11
_atom_site_aniso_U_22
_atom_site_aniso_U_33
_atom_site_aniso_U_23
_atom_site_aniso_U_13
_atom_site_aniso_U_12
O1 0.0285(5) 0.0302(5) 0.0199(4) -0.0013(4) -0.0082(4) -0.0081(4)
O4 0.0236(5) 0.0273(5) 0.0236(4) -0.0052(4) -0.0036(3) -0.0065(4)
O2 0.0256(5) 0.0280(5) 0.0211(4) -0.0009(4) 0.0001(4) -0.0101(4)
O3 0.0234(5) 0.0294(5) 0.0292(5) -0.0031(4) -0.0042(4) -0.0077(4)
C4 0.0203(6) 0.0181(6) 0.0194(6) -0.0044(5) -0.0019(5) -0.0001(4)
C6 0.0280(7) 0.0229(6) 0.0142(5) -0.0019(5) -0.0016(5) -0.0029(5)
C2 0.0206(6) 0.0169(6) 0.0174(6) -0.0048(5) -0.0008(4) 0.0005(4)
C3 0.0219(6) 0.0174(6) 0.0159(5) -0.0038(4) -0.0018(4) 0.0016(4)
C1 0.0232(6) 0.0193(6) 0.0184(6) -0.0057(5) -0.0037(5) -0.0006(5)
C8 0.0229(6) 0.0195(6) 0.0175(5) -0.0052(5) -0.0011(5) -0.0005(5)
C5 0.0222(6) 0.0176(6) 0.0192(6) -0.0049(5) 0.0015(5) -0.0023(5)
C7 0.0224(6) 0.0223(6) 0.0228(6) -0.0041(5) -0.0028(5) -0.0005(5)
O8 0.0272(5) 0.0199(5) 0.0259(4) -0.0032(4) -0.0027(4) 0.0019(4)
O5 0.0245(5) 0.0211(4) 0.0198(4) -0.0042(3) -0.0004(3) 0.0017(3)
O7 0.0307(5) 0.0187(5) 0.0289(5) -0.0056(4) -0.0069(4) 0.0020(4)
O6 0.0318(5) 0.0172(4) 0.0227(4) 0.0005(3) -0.0043(4) 0.0005(4)
C12 0.0178(6) 0.0202(6) 0.0182(6) -0.0040(5) -0.0063(4) -0.0021(5)
C14 0.0214(6) 0.0235(6) 0.0148(5) -0.0012(5) -0.0032(5) -0.0030(5)
C10 0.0174(6) 0.0197(6) 0.0178(6) -0.0023(5) -0.0055(4) -0.0026(4)
C15 0.0199(6) 0.0210(6) 0.0195(6) -0.0025(5) -0.0039(4) -0.0017(5)
C11 0.0164(5) 0.0216(6) 0.0168(5) -0.0029(4) -0.0045(4) -0.0024(4)
C13 0.0215(6) 0.0183(6) 0.0188(6) -0.0008(4) -0.0089(5) -0.0021(5)
C9 0.0172(6) 0.0216(6) 0.0178(6) -0.0049(5) -0.0056(4) 0.0000(5)
C16 0.0216(6) 0.0215(6) 0.0212(6) -0.0049(5) -0.0072(5) -0.0004(5)
loop_
_atom_type_symbol
_atom_type_description
_atom_type_scat_dispersion_real
_atom_type_scat_dispersion_imag
_atom_type_scat_source
C C 0.0181 0.0091 'International Tables Vol C Tables 4.2.6.8 and 6.1.1.4'
H H 0.0000 0.0000 'International Tables Vol C Tables 4.2.6.8 and 6.1.1.4'
O O 0.0492 0.0322 'International Tables Vol C Tables 4.2.6.8 and 6.1.1.4'
loop_
_geom_angle_atom_site_label_1
_geom_angle_atom_site_label_2
_geom_angle_atom_site_label_3
_geom_angle
C1 O1 H1A 109.1(14)
C5 O2 H2A 109.8(13)
C3 C4 C5 118.26(11)
C3 C4 C7 120.55(11)
C5 C4 C7 121.19(11)
C5 C6 C1 120.51(11)
C5 C6 H6 119.7
C1 C6 H6 119.7
C3 C2 C1 118.51(11)
C3 C2 C8 120.18(10)
C1 C2 C8 121.30(11)
C4 C3 C2 122.05(11)
C4 C3 H3 119.0
C2 C3 H3 119.0
O1 C1 C6 117.97(11)
O1 C1 C2 121.84(11)
C6 C1 C2 120.19(11)
O4 C8 C2 123.59(11)
O4 C8 H8 118.2
C2 C8 H8 118.2
O2 C5 C6 118.14(10)
O2 C5 C4 121.41(11)
C6 C5 C4 120.44(11)
O3 C7 C4 124.03(11)
O3 C7 H7 118.0
C4 C7 H7 118.0
C9 O5 H5A 108.6(12)
C13 O6 H6A 107.0(12)
C11 C12 C13 118.33(11)
C11 C12 C16 120.38(10)
C13 C12 C16 121.29(11)
C9 C14 C13 120.42(10)
C9 C14 H14 119.8
C13 C14 H14 119.8
C11 C10 C9 118.44(11)
C11 C10 C15 120.26(10)
C9 C10 C15 121.30(11)
O8 C15 C10 124.01(11)
O8 C15 H15 118.0
C10 C15 H15 118.0
C12 C11 C10 121.91(11)
C12 C11 H11 119.0
C10 C11 H11 119.0
O6 C13 C14 117.85(10)
O6 C13 C12 121.63(11)
C14 C13 C12 120.52(11)
O5 C9 C14 118.00(10)
O5 C9 C10 121.63(11)
C14 C9 C10 120.37(11)
O7 C16 C12 123.70(11)
O7 C16 H16 118.2
C12 C16 H16 118.2
loop_
_geom_bond_atom_site_label_1
_geom_bond_atom_site_label_2
_geom_bond_distance
O1 C1 1.3380(15)
O1 H1A 0.92(2)
O4 C8 1.2321(15)
O2 C5 1.3411(14)
O2 H2A 0.92(2)
O3 C7 1.2289(15)
C4 C3 1.3888(16)
C4 C5 1.4240(17)
C4 C7 1.4494(17)
C6 C5 1.3827(17)
C6 C1 1.3858(17)
C6 H6 0.9500
C2 C3 1.3920(17)
C2 C1 1.4212(17)
C2 C8 1.4479(16)
C3 H3 0.9500
C8 H8 0.9500
C7 H7 0.9500
O8 C15 1.2297(15)
O5 C9 1.3407(14)
O5 H5A 0.94(2)
O7 C16 1.2330(15)
O6 C13 1.3420(14)
O6 H6A 0.94(2)
C12 C11 1.3898(17)
C12 C13 1.4205(17)
C12 C16 1.4493(16)
C14 C9 1.3814(17)
C14 C13 1.3834(17)
C14 H14 0.9500
C10 C11 1.3920(16)
C10 C9 1.4214(16)
C10 C15 1.4474(16)
C15 H15 0.9500
C11 H11 0.9500
C16 H16 0.9500
