#------------------------------------------------------------------------------
#$Date: 2019-07-27 07:35:19 +0300 (Sat, 27 Jul 2019) $
#$Revision: 217283 $
#$URL: file:///home/coder/svn-repositories/cod/cif/1/55/21/1552133.cif $
#------------------------------------------------------------------------------
#
# This file is available in the Crystallography Open Database (COD),
# http://www.crystallography.net/. The original data for this entry
# were provided by IUCr Journals, http://journals.iucr.org/.
#
# The file may be used within the scientific community so long as
# proper attribution is given to the journal article from which the
# data were obtained.
#
data_1552133
loop_
_publ_author_name
'Ibrahim, Mohammad M.'
'Al-Refai, Mahmoud'
'Ali, Basem F.'
'Geyer, Armin'
'Harms, Klaus'
'Marsch, Michael'
_publ_section_title
;
 3-(2,5-Dichlorothiophen-3-yl)-5-(2,4-dimethoxyphenyl)-1-methyl-4,5-dihydro-1<i>H</i>-pyrazole
;
_journal_coeditor_code           HB4309
_journal_issue                   7
_journal_name_full               IUCrData
_journal_page_first              x191046
_journal_paper_doi               10.1107/S2414314619010460
_journal_volume                  4
_journal_year                    2019
_chemical_formula_iupac          'C16 H16 Cl2 N2 O2 S'
_chemical_formula_moiety         'C16 H16 Cl2 N2 O2 S'
_chemical_formula_sum            'C16 H16 Cl2 N2 O2 S'
_chemical_formula_weight         371.27
_chemical_name_systematic
3-(2,5-Dichlorothiophen-3-yl)-5-(2,4-dimethoxyphenyl)-1-methyl-4,5-dihydro-1<i>H</i>-pyrazole
_space_group_crystal_system      triclinic
_space_group_IT_number           2
_space_group_name_Hall           '-P 1'
_space_group_name_H-M_alt        'P -1'
_symmetry_space_group_name_Hall  '-P 1'
_symmetry_space_group_name_H-M   'P -1'
_atom_sites_solution_hydrogens   geom
_atom_sites_solution_primary     dual
_atom_sites_solution_secondary   difmap
_audit_creation_method           SHELXL-2017/1
_cell_angle_alpha                97.779(3)
_cell_angle_beta                 101.929(2)
_cell_angle_gamma                114.967(2)
_cell_formula_units_Z            2
_cell_length_a                   8.3836(3)
_cell_length_b                   8.4780(3)
_cell_length_c                   13.3050(4)
_cell_measurement_reflns_used    30941
_cell_measurement_temperature    100(2)
_cell_measurement_theta_max      71.73
_cell_measurement_theta_min      3.50
_cell_volume                     811.94(5)
_computing_cell_refinement
;
<i>X-AREA Recipe</i> (Stoe & Cie, 2016)
;
_computing_data_collection
;
<i>X-AREA Pilatus3_SV</i> (Stoe & Cie, 2016)
;
_computing_data_reduction
;
<i>X-AREA Integrate</i> and <i>LANA</i> (Stoe & Cie, 2016)
;
_computing_molecular_graphics    'DIAMOND (Crystal Impact)'
_computing_publication_material
;
X-AREA (Stoe & Cie, 2016)
;
_computing_structure_refinement
;
SHELXL2017 (Sheldrick, 2015b)
;
_computing_structure_solution
;
SHELXT2014 (Sheldrick, 2015a)
;
_diffrn_ambient_temperature      100(2)
_diffrn_detector_area_resol_mean 5.81
_diffrn_measured_fraction_theta_full 0.990
_diffrn_measured_fraction_theta_max 0.969
_diffrn_measurement_device_type  'Stoe Stadivari'
_diffrn_measurement_method       'rotation method, \w scans'
_diffrn_radiation_type           CuK\a
_diffrn_radiation_wavelength     1.54178
_diffrn_reflns_av_R_equivalents  0.0448
_diffrn_reflns_av_unetI/netI     0.0204
_diffrn_reflns_limit_h_max       8
_diffrn_reflns_limit_h_min       -10
_diffrn_reflns_limit_k_max       10
_diffrn_reflns_limit_k_min       -4
_diffrn_reflns_limit_l_max       15
_diffrn_reflns_limit_l_min       -16
_diffrn_reflns_number            21767
_diffrn_reflns_theta_full        67.679
_diffrn_reflns_theta_max         71.255
_diffrn_reflns_theta_min         3.507
_diffrn_source                   'GeniX 3D HF Cu'
_exptl_absorpt_coefficient_mu    4.890
_exptl_absorpt_correction_T_max  1.0000
_exptl_absorpt_correction_T_min  0.2599
_exptl_absorpt_correction_type   multi-scan
_exptl_absorpt_process_details
;
(<i>LANA</i>; Stoe & Cie, 2016)
;
_exptl_crystal_colour            yellow
_exptl_crystal_density_diffrn    1.519
_exptl_crystal_density_method    'not measured'
_exptl_crystal_description       block
_exptl_crystal_F_000             384
_exptl_crystal_size_max          0.17
_exptl_crystal_size_mid          0.14
_exptl_crystal_size_min          0.12
_refine_diff_density_max         0.788
_refine_diff_density_min         -0.499
_refine_ls_extinction_method     none
_refine_ls_goodness_of_fit_ref   1.054
_refine_ls_hydrogen_treatment    constr
_refine_ls_matrix_type           full
_refine_ls_number_parameters     211
_refine_ls_number_reflns         3062
_refine_ls_number_restraints     0
_refine_ls_restrained_S_all      1.054
_refine_ls_R_factor_all          0.0519
_refine_ls_R_factor_gt           0.0495
_refine_ls_shift/su_max          0.001
_refine_ls_shift/su_mean         0.000
_refine_ls_structure_factor_coef Fsqd
_refine_ls_weighting_details
'w=1/[\s^2^(Fo^2^)+(0.1170P)^2^] where P=(Fo^2^+2Fc^2^)/3'
_refine_ls_weighting_scheme      calc
_refine_ls_wR_factor_gt          0.1345
_refine_ls_wR_factor_ref         0.1365
_reflns_number_gt                2794
_reflns_number_total             3062
_reflns_threshold_expression     'I > 2\s(I)'
_cod_data_source_file            hb4309sup1.cif
_cod_data_source_block           I
_cod_database_code               1552133
_shelx_space_group_comment
;
The symmetry employed for this shelxl refinement is uniquely defined
by the following loop, which should always be used as a source of
symmetry information in preference to the above space-group names.
They are only intended as comments.
;
_shelx_estimated_absorpt_t_min   0.490
_shelx_estimated_absorpt_t_max   0.591
_shelx_hkl_file
;
  -1   3 -12    2.77    1.41   0
   0   5 -14    1.81    1.36   0
   1   1 -11   38.32    2.43   0
   2   4 -14  266.25    3.96   0
   0   6 -14   49.19    1.77   0
   2   5 -14   86.81    2.20   0
   1   5 -14   46.09    2.13   0
   1   6 -14    5.98    1.24   0
  -2   5 -12   71.06    2.76   0
  -1   5 -13    4.10    1.34   0
   1   2 -12  116.26    3.12   0
   1   3 -13   66.34    2.51   0
   2   1 -11    5.32    1.45   0
   3   1 -11   -0.63    1.68   0
   3   3 -13   34.28    2.11   0
  -1   7 -13    9.09    1.55   0
   0   4 -13    0.87    1.60   0
   2   3 -13    8.52    1.90   0
  -2   4 -11   13.07    1.89   0
  -1   6 -13   84.19    2.29   0
   3   2 -12    0.37    1.56   0
   3   5 -13   18.31    1.58   0
  -3   7 -11   15.88    1.43   0
  -2   6 -12   25.09    2.03   0
  -1   3 -11  155.78    3.72   0
  -1   4 -12   60.19    2.45   0
   0   3 -12   17.49    2.07   0
   3   4 -13    2.14    1.40   0
  -3   4  -9    1.66    1.46   0
  -2   7 -12   41.26    1.76   0
   0   5 -13   68.92    2.43   0
   1   4 -13   29.96    1.95   0
   2   4 -13  327.90    4.68   0
   0   6 -13  122.89    2.74   0
  -2   5 -11    4.99    1.80   0
  -1   5 -12   60.71    2.65   0
   1   3 -12   10.49    1.63   0
   1   5 -13   22.46    2.08   0
   1   6 -13    4.87    1.67   0
   2   5 -13    9.30    1.51   0
  -2   4 -10   62.29    2.88   0
   2   3 -12  248.96    4.68   0
   3   2 -11   40.89    2.72   0
  -3   6 -10  209.67    3.91   0
  -3   8 -10    1.95    1.37   0
   0   3 -11    9.20    1.80   0
   2   2 -11   10.54    1.71   0
  -3   7 -10   -0.59    1.50   0
  -2   8 -11   71.39    1.99   0
  -1   4 -11  221.31    4.73   0
  -1   6 -12   -0.60    1.22   0
  -1   7 -12    1.82    1.50   0
  -3   5  -9    7.11    1.64   0
  -2   6 -11   83.76    2.60   0
   3   5 -12    4.87    1.33   0
  -2   7 -11    9.76    1.49   0
   0   5 -12  107.15    2.89   0
   1   4 -12   23.34    1.84   0
   0   7 -12   33.61    1.73   0
   1   7 -12    7.77    1.41   0
   2   4 -12    4.45    1.69   0
  -2   5 -10    0.99    1.37   0
   0   6 -12   99.73    2.81   0
   1   3 -11    0.10    1.13   0
   2   6 -12    0.10    1.35   0
   3   3 -11  115.66    3.57   0
  -2   4  -9   77.55    2.67   0
  -1   5 -11   -0.03    1.35   0
  -1   8 -11    1.05    1.19   0
   0   4 -11   17.93    2.04   0
   1   5 -12   27.24    1.98   0
   1   6 -12   41.09    2.14   0
   2   3 -11   50.97    2.47   0
   2   5 -12   -0.33    1.35   0
   3   2 -10   -0.37    1.29   0
  -3   6  -9  182.03    3.67   0
   0   3 -10   14.97    1.56   0
   0   8 -11   -0.75    1.32   0
  -3   5  -8   13.72    1.89   0
  -3   8  -9    1.05    1.26   0
  -2   8 -10    5.57    1.63   0
  -1   4 -10  326.26    5.65   0
  -1   6 -11    3.00    1.29   0
  -3   7  -9    1.90    1.31   0
  -2   6 -10    0.37    1.43   0
  -1   7 -11   12.17    1.60   0
   3   4 -11   59.55    2.47   0
  -2   7 -10   21.35    1.72   0
  -2   9  -9   10.10    1.43   0
   0   5 -11    0.27    1.64   0
   1   4 -11   56.82    2.39   0
   0   7 -11   10.91    1.89   0
   1   3 -10   26.68    1.93   0
   2   4 -11  144.99    3.54   0
  -2   5  -9   23.09    1.64   0
   0   6 -11  106.73    2.87   0
   1   7 -11    6.36    1.30   0
   2   6 -11   18.60    1.90   0
  -3   6  -8   15.28    1.89   0
  -1   5 -10    1.24    1.20   0
  -1   8 -10   38.53    1.76   0
   0   4 -10    0.08    1.16   0
   1   5 -11   99.37    3.12   0
   1   8 -10  319.92    3.51   0
   2   3 -10  201.50    3.84   0
   2   5 -11   20.29    1.91   0
   1   6 -11    6.50    1.57   0
   3   6 -10  329.00    4.06   0
  -3   8  -8    1.76    1.32   0
   0   8 -10    8.35    1.26   0
   2   7 -10   37.61    2.03   0
  -3   7  -8  100.63    2.67   0
  -2   6  -9    1.93    1.32   0
  -2   8  -9   45.33    2.11   0
  -1   7 -10  282.74    4.34   0
   3   4 -10   10.36    1.55   0
  -3   9  -7   26.54    1.84   0
  -2   7  -9  122.25    2.91   0
  -2   9  -8   -0.07    1.45   0
   0   5 -10    4.83    1.55   0
   1   4 -10    9.18    1.40   0
   3   5 -10   33.16    1.85   0
   0   7 -10   16.92    2.11   0
   2   4 -10   20.31    1.68   0
   0   6 -10    9.24    1.50   0
   1   7 -10   37.07    1.93   0
   2   6 -10   12.76    1.96   0
  -3   6  -7    5.43    1.74   0
  -1   5  -9   67.56    2.39   0
  -1   8  -9   -0.26    1.40   0
  -1   9  -8    0.51    1.42   0
   0   9  -8    1.30    1.21   0
   1   8  -9  161.41    2.88   0
   2   5 -10   15.70    1.79   0
   2   8  -8    5.77    1.34   0
   0   8  -9   61.87    2.21   0
   1   6 -10   26.71    1.97   0
  -3   8  -7   61.18    2.17   0
  -2   8  -8   48.62    2.46   0
  -1   6  -9    0.66    1.33   0
  -1   7  -9  102.41    3.19   0
   2   7  -9    3.20    1.75   0
  -3   7  -7    8.14    1.46   0
  -2   6  -8   52.24    2.01   0
  -3   9  -6   14.86    1.50   0
  -2   7  -8  128.01    2.91   0
  -2   9  -7   34.59    1.71   0
   0   5  -9  170.56    3.80   0
   1   4  -9   -0.01    1.11   0
   3   5  -9   13.27    1.73   0
   0   7  -9   15.76    1.63   0
   1   7  -9   17.19    1.74   0
   2   4  -9  926.51    7.87   0
  -1   8  -8    0.87    1.48   0
  -1   9  -7    1.61    1.53   0
   0   6  -9  190.26    3.98   0
   0   9  -7   37.53    1.73   0
   1   8  -8  143.22    3.08   0
   2   6  -9  144.65    3.35   0
  -3   6  -6    3.87    1.44   0
  -1   5  -8   89.01    2.57   0
   1   6  -9   27.58    2.25   0
   2   5  -9    2.35    1.43   0
   0   8  -8   11.74    1.41   0
   2   7  -8   24.87    2.11   0
   3   6  -8   28.33    2.05   0
  -3   7  -6   23.44    2.06   0
  -2   8  -7  276.33    4.24   0
  -1   6  -8   12.11    1.36   0
  -1   7  -8   65.57    2.48   0
  -3   9  -5    0.99    1.32   0
  -2   9  -6    7.29    1.45   0
   3   5  -8    7.32    1.78   0
  -2   7  -7    9.41    1.37   0
   0   9  -6   78.00    2.22   0
   2   8  -6    5.63    1.42   0
  -1   9  -6   24.68    1.64   0
   0   7  -8    2.00    1.51   0
   1   7  -8    0.58    1.46   0
   1   8  -7   15.68    1.72   0
   2   4  -8   27.50    1.94   0
   2   6  -8   29.22    2.32   0
  -1   8  -7   54.47    2.19   0
   0   6  -8  101.31    2.98   0
  -3   8  -5   69.34    2.68   0
   0   8  -7   98.27    2.75   0
   1   5  -8   60.81    2.39   0
   1   6  -8    6.17    1.57   0
   2   5  -8  192.47    3.74   0
   2   7  -7   79.41    2.89   0
   3   6  -7    6.18    1.67   0
  -3   9  -4   37.43    2.06   0
  -2   8  -6   53.17    2.42   0
  -2   9  -5   39.88    1.96   0
  -3   7  -5  255.58    3.74   0
  -1   6  -7  294.33    4.36   0
  -1   7  -7  137.89    3.47   0
   0   9  -5   12.09    1.53   0
  -2   6  -6   10.42    1.55   0
  -2   7  -6   39.85    2.38   0
  -1   9  -5   25.21    1.65   0
   1   8  -6    3.41    1.72   0
   3   4  -7   22.48    2.00   0
   3   5  -7  132.41    3.12   0
  -1   8  -6    2.43    1.64   0
   0   7  -7   59.54    2.52   0
   1   7  -7   81.22    2.75   0
   0   8  -6   92.79    2.81   0
   2   6  -7   75.20    2.65   0
   3   6  -6    0.26    1.75   0
  -3   8  -4  128.55    3.39   0
  -3   9  -3   14.65    1.89   0
  -2   9  -4   44.09    2.09   0
   0   9  -4   42.37    1.88   0
   2   7  -6    0.94    1.60   0
   2   8  -4    3.94    1.43   0
  -2   8  -5   46.64    2.39   0
   1   5  -7   93.39    2.83   0
   1   6  -7   54.75    2.29   0
   2   5  -7    1.45    1.30   0
  -1   7  -6    1.97    1.45   0
  -1   9  -4   18.34    1.62   0
   1   8  -5   -0.31    1.64   0
  -3   7  -4   25.44    1.77   0
  -1   6  -6  152.19    3.22   0
   1   7  -6   50.20    2.62   0
   3   5  -6  175.29    3.83   0
  -2   7  -5   12.81    1.47   0
  -1   8  -5  140.05    3.20   0
   0   7  -6  109.63    3.25   0
   0   8  -5   23.78    2.21   0
   0   9  -3   29.65    1.82   0
   3   7  -3    4.23    1.70   0
  -3   9  -2   11.90    1.62   0
  -2   9  -3   66.71    2.29   0
   2   6  -6   76.74    2.93   0
   3   6  -5   55.98    2.53   0
  -3   8  -3  122.48    3.24   0
  -2   8  -4   15.23    2.09   0
  -1   9  -3   25.10    1.73   0
   0   6  -6   -1.14    1.56   0
   1   8  -4   30.49    2.32   0
   0   9  -2   18.89    1.69   0
   1   6  -6  140.10    3.26   0
   3   7  -2   -0.93    1.53   0
  -3   7  -3   65.54    2.55   0
  -3   9  -1  128.25    2.82   0
  -2   9  -2   59.46    2.16   0
  -1   8  -4  424.09    5.53   0
  -1   9  -2    3.74    1.69   0
   0   8  -4    1.12    1.54   0
   0   9  -1   70.90    2.24   0
   1   7  -5    1.90    1.59   0
   3   7  -1    0.33    1.58   0
  -2   7  -4  238.07    4.24   0
   0   7  -5   76.55    2.70   0
   1   8  -3    0.75    1.97   0
   2   7  -4   62.38    2.60   0
   3   5  -5   54.10    2.38   0
   3   6  -4    2.50    1.72   0
   0   9   0   22.48    1.53   0
   2   6  -5   56.89    2.68   0
  -3   8  -2    5.75    1.66   0
  -3   9   0  115.64    3.09   0
  -2   8  -3  105.12    2.93   0
  -2   9  -1   93.27    2.89   0
  -1   9  -1    0.31    1.60   0
   0   6  -5  152.76    3.56   0
   1   6  -5  229.40    4.28   0
  -1   7  -4    2.24    1.27   0
  -1   8  -3   26.89    2.02   0
   0   8  -3   73.28    2.84   0
   1   7  -4   95.14    3.19   0
   1   8  -2  224.44    4.30   0
   2   5  -5    4.52    1.31   0
   3   6  -3  126.48    3.46   0
  -3   9   1  108.14    2.48   0
  -2   9   0    1.41    1.59   0
  -1   9   0   16.14    1.71   0
   0   7  -4   31.03    2.45   0
  -3   7  -2    4.90    1.35   0
  -2   7  -3  114.04    3.58   0
   2   6  -4   10.36    1.77   0
  -3   8  -1   34.89    2.22   0
  -3   9   2   22.78    1.72   0
  -2   8  -2   73.66    2.55   0
  -1   9   1   10.27    1.38   0
   1   8  -1  124.00    3.08   0
   2   7  -2    3.20    2.18   0
  -3   9   3    2.95    1.45   0
  -2   9   1    1.26    1.37   0
  -2   9   2    8.95    1.64   0
  -1   8  -2    2.75    1.69   0
   0   6  -4   51.26    2.44   0
   1   6  -4  366.70    5.53   0
   1   7  -3   45.12    2.52   0
   1   8   0  123.82    2.90   0
  -2   9   3   18.52    1.37   0
  -1   7  -3   -0.19    1.29   0
   1   8   1  135.57    2.80   0
   1   8   2    2.14    1.56   0
  -3   8   0    0.48    1.81   0
  -2   8  -1    0.98    1.42   0
   0   7  -3  243.90    4.73   0
   0   8  -1    4.21    1.65   0
   2   6  -3   41.08    2.49   0
   2   7  -1   26.69    2.12   0
  -3   7  -1    0.73    1.32   0
   3   6  -1  247.40    4.39   0
   1   7  -2   19.67    2.25   0
   2   7   0   86.73    2.75   0
   0   8   0  121.15    3.31   0
  -3   8   1    2.01    1.89   0
  -2   8   0   29.54    2.20   0
  -1   7  -2   84.02    2.57   0
   0   7  -2  112.37    3.85   0
   1   6  -3   14.95    1.72   0
   2   7   1  253.91    4.11   0
   2   7   3  148.30    2.83   0
   0   8   1    9.73    1.67   0
   2   6  -2   30.22    2.25   0
   2   7   2   42.62    2.12   0
   3   6   1   -0.40    1.93   0
   0   8   2    4.31    1.99   0
   0   8   4    2.17    1.57   0
   1   7  -1   22.22    2.16   0
   2   5  -3  680.16    7.69   0
   3   6   2    0.03    1.83   0
   3   6   3    0.84    1.63   0
  -3   7   0  136.74    3.09   0
  -3   8   2    6.55    1.78   0
  -2   7  -1  162.07    3.61   0
  -2   8   1   85.47    3.07   0
   0   8   3   57.99    2.25   0
  -1   8   1   93.69    3.02   0
   0   7  -1    9.82    2.01   0
   1   6  -2    1.06    1.40   0
   1   7   0   71.30    2.93   0
   2   6  -1   28.09    2.31   0
  -3   8   3  149.46    3.25   0
  -2   8   2  320.87    4.42   0
  -1   8   2   26.75    1.99   0
  -3   8   4    6.37    1.82   0
  -3   8   6   32.11    1.92   0
  -1   8   3    2.14    1.57   0
   1   7   1   -0.97    1.78   0
   2   5  -2    1.98    1.40   0
  -3   7   1   28.34    2.06   0
  -3   8   5    1.35    1.61   0
  -2   7   0  124.33    3.28   0
  -2   8   6    2.00    1.54   0
   0   7   0    2.81    2.01   0
   2   6   0   46.37    2.63   0
  -2   8   4  121.05    3.17   0
  -1   7   0  265.36    4.82   0
   1   7   2    5.72    1.90   0
   1   7   5    1.99    1.41   0
   1   6  -1    0.16    1.42   0
   1   7   3   -0.62    1.74   0
   1   7   4    0.17    1.56   0
   0   7   1    7.94    2.21   0
   2   6   1   23.08    2.26   0
   2   6   6    3.22    1.70   0
  -3   7   2    2.07    1.98   0
   0   6  -1   17.56    1.81   0
   2   5  -1    6.72    1.66   0
   3   5   6    1.06    1.66   0
   0   7   7  269.53    3.39   0
   2   6   2   12.78    2.01   0
   2   6   5    0.68    1.89   0
   1   6   0  247.25    5.29   0
   2   6   3   49.28    2.58   0
   3   5   2   12.77    2.28   0
   0   7   3    3.04    2.13   0
   3   5   5    4.13    1.59   0
  -1   7   2    7.01    1.96   0
   0   6   0  149.10    4.11   0
   0   7   4   34.66    2.78   0
   0   7   5   64.00    3.07   0
   1   6   8  179.14    3.27   0
   3   5   3   23.27    2.06   0
   1   6   1    5.24    1.77   0
   2   5   0    5.51    1.82   0
   3   4   0   12.72    1.88   0
  -3   7   4   15.19    2.27   0
  -1   7   3   21.23    2.51   0
  -3   7   8  128.80    2.86   0
  -2   7   3    1.08    1.56   0
  -2   7   8   19.21    1.91   0
  -3   7   5    3.37    1.99   0
  -1   7   5   65.56    3.26   0
   0   6   1  363.13    6.09   0
   1   6   2   48.08    2.84   0
   1   6   7   50.31    2.46   0
   2   5   1   15.38    2.35   0
   2   5   8   48.85    2.33   0
  -3   7   6  118.19    3.24   0
  -3   7   7   19.35    1.95   0
  -2   7   4   62.70    2.68   0
   3   4   1    2.27    2.12   0
  -2   7   5    2.61    1.75   0
  -2   7   6   12.43    1.86   0
   0   6   9   52.76    2.15   0
   1   6   6   13.99    2.19   0
   1   6   5   -0.00    1.98   0
   2   5   2    9.83    1.95   0
   0   6   2  399.40    6.59   0
  -1   6   2   28.03    2.15   0
   0   6   8    8.87    2.12   0
   2   5   3    3.92    2.03   0
   3   4   7  120.29    3.18   0
   0   6   3  473.17    6.85   0
   2   5   6  335.70    5.23   0
   0   5  11   14.73    1.64   0
   2   5   5  236.25    4.53   0
  -4   3  14   26.18    1.32   0
  -2   1  13    0.38    1.07   0
  -2   2  13    1.36    1.04   0
  -1   1  12  304.27    3.58   0
   0   2  10    6.04    1.35   0
  -3   0  13  209.67    2.89   0
  -1   4  10    3.89    1.40   0
   0   0  10   34.19    1.49   0
   0   3   9    4.65    1.42   0
  -5   2  14   33.84    1.52   0
   0   1  10  193.23    2.86   0
  -5   3  14    6.31    1.00   0
  -5   5  13  199.37    1.99   0
  -2  -1  11    4.64    1.29   0
  -2   3  12   22.51    1.41   0
  -2   5  10   34.55    1.64   0
  -1   0  11    9.56    1.17   0
  -4   4  13    0.90    1.01   0
  -3   2  13    1.35    1.22   0
  -1   1  11  572.44    4.86   0
  -5   1  13   20.15    1.55   0
  -4   6  11    4.19    1.10   0
  -2   1  12    1.98    1.21   0
  -2   2  12   40.65    1.67   0
  -2   4  11    7.76    1.12   0
   0   2   9   87.76    2.01   0
  -4   1  13   36.34    1.45   0
  -3   0  12  167.52    2.67   0
  -1   3  10  109.51    2.39   0
  -6   2  13   23.69    1.40   0
  -4   0  12   67.95    1.89   0
  -3   5  11   16.25    1.25   0
  -1   4   9   26.71    1.56   0
  -5   4  13    0.74    0.83   0
  -4   2  13    8.23    1.16   0
  -4   3  13    1.12    0.84   0
  -2   0  11  275.34    3.55   0
  -5   2  13  161.52    2.53   0
  -6   3  13    7.55    1.05   0
  -5   3  13    0.73    1.23   0
  -3   3  12  297.81    3.29   0
  -2   3  11   84.56    2.05   0
  -1   1  10   78.94    1.93   0
  -1   2  10   48.15    1.59   0
  -3   2  12    1.47    0.99   0
  -2   1  11   22.22    1.31   0
  -2   5   9   15.23    1.33   0
  -5   1  12    8.16    1.47   0
  -5   5  12  132.91    1.96   0
  -4   4  12   58.12    1.68   0
  -3   0  11  256.94    3.18   0
  -3   6   9   32.32    1.40   0
  -2   2  11   30.63    1.45   0
  -2   4  10   11.74    1.26   0
  -1   3   9    6.49    1.30   0
  -4   0  11   16.29    1.36   0
  -4   1  12   28.93    1.44   0
  -1   4   8  109.97    2.30   0
  -7   5  12    3.22    0.89   0
  -6   5  12   20.16    1.22   0
  -4   6  10    1.35    1.05   0
  -3   5  10   41.11    1.67   0
  -7   3  12   40.98    1.38   0
  -6   2  12    0.63    1.29   0
  -6   7  10    9.48    1.02   0
  -4   3  12   15.40    1.17   0
  -7   4  12  237.15    2.57   0
  -5   4  12    9.40    1.19   0
  -2   3  10   45.85    1.67   0
  -6   6  11   32.93    1.17   0
  -5   2  12  218.26    2.90   0
  -4   7   8   11.43    1.27   0
  -3   3  11  202.07    2.89   0
  -7   6  11    0.64    0.82   0
  -6   3  12  210.32    2.82   0
  -6   4  12   15.23    1.15   0
  -5   3  12   67.85    1.82   0
  -5   7   9    6.18    1.15   0
  -3   2  11    1.36    0.91   0
  -2   2  10   84.09    2.01   0
  -2   4   9   28.59    1.51   0
  -2   5   8    0.61    1.10   0
  -8   4  11    1.35    1.08   0
  -8   5  11   13.25    0.96   0
  -5   1  11    0.35    1.41   0
  -4   1  11    0.41    1.04   0
  -3   6   8    7.23    1.44   0
  -4   4  11   82.03    1.87   0
  -3   5   9   30.27    1.73   0
  -4   3  11   35.21    1.44   0
  -4   6   9    8.44    1.23   0
  -3   1  10   46.65    2.08   0
  -7   3  11    1.75    1.30   0
  -7   5  11   36.15    1.44   0
  -6   2  11   26.90    1.54   0
  -6   5  11   54.14    1.58   0
  -8   6  10   28.06    1.11   0
  -7   4  11    3.06    1.32   0
  -6   7   9    1.71    0.93   0
  -5   2  11  137.63    2.47   0
  -5   4  11    7.35    1.17   0
  -3   2  10   14.26    1.15   0
  -3   3  10   42.59    1.53   0
  -2   5   7   57.01    1.96   0
  -6   6  10   42.31    1.38   0
  -5   3  11    6.88    1.21   0
  -4   7   7  102.78    2.45   0
  -2   4   8    0.92    1.03   0
  -7   6  10   47.04    1.35   0
  -7   7   9   37.66    1.38   0
  -6   3  11   26.85    1.48   0
  -6   4  11   97.10    2.01   0
  -5   1  10  126.45    2.43   0
  -5   7   8   50.34    1.79   0
  -4   1  10  124.69    2.28   0
  -3   6   7    6.14    1.43   0
  -8   4  10   82.14    1.84   0
  -8   5  10   47.84    1.56   0
  -6   8   7   39.97    1.53   0
  -5   5  10    2.37    1.21   0
  -4   4  10   22.63    1.28   0
  -3   5   8   24.44    1.76   0
  -4   3  10   15.18    1.24   0
  -4   6   8   19.46    1.31   0
  -7   3  10   54.09    2.05   0
  -6   2  10   65.56    2.10   0
  -6   5  10    1.22    1.04   0
  -3   3   9    0.24    0.92   0
  -7   5  10   27.41    1.51   0
  -7   8   7    0.54    0.95   0
  -5   2  10   12.21    1.28   0
  -5   4  10   11.56    1.20   0
  -8   6   9    1.24    0.94   0
  -7   4  10   11.94    1.24   0
  -6   6   9    2.22    1.18   0
  -6   7   8    4.67    1.25   0
  -5   3  10   76.06    2.09   0
  -9   6   8    5.81    1.11   0
  -8   7   8    7.68    1.14   0
  -6   3  10   90.63    2.19   0
  -6   4  10  151.97    2.62   0
  -4   7   6    1.10    1.18   0
  -3   6   6   20.59    1.68   0
  -7   7   8    2.77    1.24   0
  -5   7   7   34.91    1.70   0
  -4   4   9   35.82    1.50   0
  -8   4   9    0.86    1.17   0
  -8   5   9    9.06    1.16   0
  -6   8   6    7.83    1.17   0
  -5   5   9   25.93    1.45   0
  -3   5   7   28.73    1.68   0
  -4   3   9   87.11    2.04   0
  -4   6   7  131.55    2.53   0
  -6   2   9    6.38    1.38   0
  -6   5   9   38.47    1.79   0
  -8   8   6    6.49    1.19   0
  -7   3   9  282.75    3.58   0
  -7   5   9   20.34    1.41   0
  -7   8   6    0.32    1.14   0
  -5   2   9   18.63    1.33   0
  -5   4   9   61.32    1.86   0
  -8   6   8  138.39    2.44   0
  -7   4   9    0.25    1.22   0
  -9   6   7    2.32    1.26   0
  -6   3   9  339.37    3.88   0
  -6   4   9    0.26    1.16   0
  -6   6   8   -0.08    1.15   0
  -4   7   5    7.43    1.47   0
  -8   7   7   14.25    1.18   0
  -7   7   7  108.48    2.52   0
  -5   7   6   23.74    1.55   0
  -4   4   8   92.27    2.08   0
  -9   5   7   51.74    1.59   0
  -8   4   8    1.00    1.30   0
  -8   5   8   40.08    1.64   0
  -6   8   5   55.70    1.86   0
  -5   5   8    4.33    1.11   0
  -9   7   6   16.05    1.14   0
  -7   9   3    2.15    1.16   0
  -4   6   6   18.93    1.51   0
  -7   3   8    4.68    1.58   0
  -6   2   8   74.91    2.16   0
  -6   5   8    7.46    1.52   0
  -8   8   5   18.37    1.26   0
  -7   5   8  130.40    2.62   0
  -7   8   5   15.27    1.28   0
  -5   4   8  143.44    2.63   0
  -8   6   7   23.64    1.56   0
  -7   4   8   25.64    1.67   0
  -6   6   7   12.50    1.64   0
  -9   6   6    1.00    1.22   0
  -9   8   4   14.69    1.18   0
  -8   7   6   38.05    1.59   0
  -6   3   8  162.99    2.84   0
  -6   4   8   88.41    2.31   0
  -9   5   6   21.02    1.41   0
  -8   4   7   14.50    1.84   0
  -8   5   7   59.68    2.23   0
  -7   6   7   58.75    1.97   0
  -7   7   6    3.46    1.19   0
  -6   8   4    5.00    1.60   0
  -5   7   5    4.07    1.25   0
  -9   7   5    5.81    1.07   0
  -8   9   2    2.12    1.20   0
  -7   9   2    3.39    1.36   0
  -4   6   5   17.89    1.42   0
  -8   8   4   53.90    1.79   0
  -7   5   7   19.75    1.54   0
  -7   8   4    2.19    1.44   0
  -6   5   7   17.77    1.52   0
  -9   8   3   12.64    1.16   0
  -8   6   6  103.96    2.39   0
  -5   4   7    6.08    1.10   0
  -8   7   5   24.42    1.63   0
  -7   4   7   60.55    2.03   0
  -6   6   6   73.50    2.20   0
  -9   5   5    0.95    1.27   0
  -9   7   4    1.30    1.24   0
  -8   9   1    2.15    1.22   0
  -7   6   6    5.46    1.33   0
  -7   7   5   68.80    2.36   0
  -7   9   1   23.21    1.60   0
  -6   3   7   52.90    1.94   0
  -6   4   7   39.83    1.76   0
  -5   7   4    1.06    1.52   0
  -8   4   6  106.75    2.60   0
  -8   5   6   31.12    1.80   0
  -6   8   3   11.26    1.50   0
  -8   8   3  194.07    3.40   0
  -5   5   6   14.43    1.34   0
  -5   6   5   -0.94    1.47   0
  -9   8   2    3.41    1.19   0
  -7   8   3   34.64    1.76   0
  -4   6   4  116.45    2.98   0
  -8   6   5   26.29    1.75   0
  -8   9   0   17.53    1.47   0
  -7   3   6  355.72    4.33   0
  -7   5   6   16.87    1.63   0
  -6   5   6   75.32    2.35   0
  -9   5   4    0.58    1.34   0
  -9   7   3    1.62    1.36   0
  -8   7   4    0.16    1.21   0
  -7   4   6   12.90    1.48   0
  -7   9   0   11.18    1.54   0
  -6   7   4   64.64    2.41   0
  -9   8   1   16.04    1.59   0
  -7   7   4  159.42    3.28   0
  -6   6   5    7.60    1.22   0
  -6   8   2   18.08    1.90   0
  -8   4   5    9.89    1.47   0
  -8   5   5    0.06    1.42   0
  -8   9  -1   65.75    1.89   0
  -5   7   3   12.49    1.60   0
  -7   8   2   29.87    2.18   0
  -9   7   2    2.70    1.49   0
  -7   9  -1    7.57    1.53   0
  -5   6   4   57.41    2.16   0
  -9   5   3    4.17    1.50   0
  -9   8   0    1.27    1.21   0
  -8   6   4   15.53    1.69   0
  -8   7   3    9.08    1.62   0
  -7   5   5   36.08    1.91   0
  -7   3   5   49.64    2.22   0
  -6   5   5   30.66    1.67   0
  -6   7   3   23.10    1.75   0
  -9   8  -1    0.58    1.33   0
  -8   5   4    0.69    1.74   0
  -8   8   1  179.79    3.14   0
  -7   6   4    6.68    1.54   0
  -6   6   4   61.22    2.24   0
  -6   8   1    6.15    1.42   0
  -9   6   2    1.32    1.40   0
  -9   7   1   13.81    1.70   0
  -8   4   4   96.33    2.59   0
  -7   8   1   11.27    1.83   0
  -7   9  -2    5.82    1.26   0
  -5   7   2   32.99    2.22   0
  -6   4   5  100.12    2.51   0
  -8   6   3   69.76    2.45   0
  -8   7   2   22.44    1.97   0
  -7   9  -3   41.95    1.87   0
  -8   8   0   20.00    1.61   0
  -7   5   4   23.96    1.70   0
  -5   6   3   11.06    1.39   0
  -9   6   1   22.28    1.75   0
  -9   7   0    2.16    1.36   0
  -7   3   4    4.83    1.84   0
  -7   7   2   38.46    2.07   0
  -7   9  -4  122.68    2.35   0
  -6   5   4   40.00    2.10   0
  -6   7   2   13.83    1.61   0
  -6   8   0   17.84    1.94   0
  -9   5   1    4.88    1.48   0
  -8   4   3   13.90    1.53   0
  -7   4   4   87.77    2.52   0
  -7   6   3   35.73    2.12   0
  -7   8   0    2.70    1.39   0
  -9   7  -1    0.48    1.50   0
  -8   7   1   16.08    2.12   0
  -8   8  -1    6.95    1.33   0
  -9   6   0   23.82    2.00   0
  -8   6   2    9.39    1.62   0
  -5   7   1    1.82    1.34   0
  -9   5   0   61.42    2.33   0
  -9   7  -2    0.01    1.50   0
  -7   5   3    6.19    1.26   0
  -7   7   1    6.75    1.55   0
  -7   8  -1    8.86    1.58   0
  -6   7   1    1.94    1.54   0
  -9   6  -1  123.17    2.44   0
  -8   4   2   81.36    2.43   0
  -8   7   0   24.59    2.07   0
  -7   6   2    5.95    1.71   0
  -5   6   2   84.42    2.43   0
  -9   5  -1  155.58    2.88   0
  -8   6   1   11.08    1.94   0
  -8   8  -3    5.92    1.44   0
  -7   3   3  104.91    2.85   0
  -7   4   3  182.17    3.35   0
  -6   5   3    0.18    1.15   0
  -6   6   2  439.23    6.36   0
  -9   5  -2    7.05    1.70   0
  -9   6  -2    9.12    1.39   0
  -8   8  -4    1.20    1.55   0
  -9   5  -3    0.33    1.50   0
  -9   6  -4    1.73    1.20   0
  -9   6  -3   29.50    1.56   0
  -8   8  -5   -0.38    1.27   0
  -7   8  -2   -0.03    1.40   0
  -6   8  -2   22.50    1.74   0
  -5   7   0  199.91    3.90   0
  -8   5   1   62.55    2.80   0
  -7   7   0   41.99    2.33   0
  -8   4   1   10.25    1.63   0
  -7   5   2    5.23    1.29   0
  -7   8  -3    1.95    1.65   0
  -6   7   0    4.42    1.39   0
  -5   8  -3    2.43    1.56   0
  -7   6   1   13.80    1.69   0
  -7   3   2    0.38    1.39   0
  -7   4   2   38.49    1.89   0
  -6   5   2   59.76    2.22   0
  -6   6   1  806.29    7.03   0
  -6   8  -3  160.39    3.52   0
  -8   5   0   38.40    2.51   0
  -7   8  -4   10.98    1.57   0
  -5   7  -1   18.70    2.02   0
  -5   8  -4  106.66    2.90   0
  -8   4   0    6.93    1.54   0
  -8   6  -1   20.25    1.88   0
  -8   7  -3  144.46    3.10   0
  -7   8  -7   44.85    1.86   0
  -7   8  -5   44.51    2.09   0
  -6   7  -1   81.95    2.98   0
  -8   7  -4   26.99    2.02   0
  -7   5   1   16.35    1.50   0
  -7   6   0    7.43    1.44   0
  -7   8  -6    0.83    1.28   0
  -6   8  -4   36.53    2.27   0
  -8   7  -6   30.76    1.56   0
  -8   7  -5    0.30    1.21   0
  -7   7  -2   15.85    2.10   0
  -5   8  -5   23.14    1.85   0
  -8   4  -1    5.08    1.83   0
  -8   5  -1    2.58    1.68   0
  -7   3   1    4.32    1.86   0
  -7   4   1   60.94    2.63   0
  -6   8  -5   -0.52    1.45   0
  -6   6   0  123.20    3.20   0
  -6   8  -6    7.55    1.59   0
  -5   7  -2   35.49    2.38   0
  -8   6  -7    2.66    1.15   0
  -8   6  -3   54.29    2.10   0
  -7   6  -1    6.67    1.77   0
  -7   7  -3    1.03    1.69   0
  -6   7  -2   13.32    1.59   0
  -6   8  -7   64.51    2.07   0
  -5   8  -6    2.13    1.36   0
  -8   4  -2   76.72    2.34   0
  -8   5  -2   15.81    1.68   0
  -7   5   0    8.34    1.34   0
  -8   4  -6    0.39    1.46   0
  -8   5  -7    9.10    1.28   0
  -8   6  -6   40.67    1.66   0
  -8   6  -5    1.49    1.22   0
  -8   6  -4   11.76    1.66   0
  -8   4  -3  195.36    3.38   0
  -8   5  -3    2.51    1.53   0
  -7   3   0   98.64    3.34   0
  -7   4   0    2.84    1.45   0
  -7   7  -4   10.53    1.65   0
  -8   4  -5   39.18    1.92   0
  -8   4  -4  117.26    3.01   0
  -8   5  -6   87.94    2.05   0
  -8   5  -4   41.52    1.91   0
  -7   6  -2   13.36    1.75   0
  -7   7  -5    4.68    1.56   0
  -6   6  -1    0.40    1.18   0
  -5   7  -3   18.40    1.80   0
  -8   5  -5    7.73    1.43   0
  -7   5  -1    1.74    1.25   0
  -7   7  -7   -0.12    1.36   0
  -7   7  -6   -0.88    1.35   0
  -6   5   0   10.00    1.40   0
  -7   6  -3    3.73    1.35   0
  -7   3  -1  169.72    3.39   0
  -7   4  -1  183.64    3.38   0
  -7   6  -9   38.66    1.45   0
  -6   6  -2    1.27    1.07   0
  -5   7  -4  408.61    5.36   0
  -7   5  -2    8.26    1.42   0
  -7   6  -4   55.48    2.65   0
  -7   6  -8    0.24    1.36   0
  -5   6  -2    1.25    1.09   0
  -7   5  -9   65.10    1.84   0
  -7   6  -5   38.49    2.15   0
  -5   7  -5  112.34    2.94   0
  -7   5  -3  137.83    2.94   0
  -7   6  -7   87.71    2.21   0
  -7   6  -6   67.19    2.22   0
  -6   6  -3   69.45    2.39   0
   2   5 -10   13.21    2.44   0
   3   4 -11   59.35    2.98   0
   5   1 -11  163.01    4.16   0
   6   1 -11    8.80    2.61   0
   2   3 -10  171.25    4.04   0
   4   2 -11    4.64    1.83   0
   5  -1  -9  121.24    3.45   0
   6   3 -11    1.21    1.72   0
   7   0 -10   17.75    2.44   0
   7   3 -10    7.98    1.93   0
   2   4 -10   16.08    1.98   0
   4   4 -11   44.04    2.56   0
   5   5 -10   40.33    2.10   0
   6   2 -11   76.05    2.88   0
   7  -1  -9    8.72    2.13   0
   8   0  -9   30.12    2.05   0
   4   3 -11    7.49    2.00   0
   5   2 -11    3.62    1.90   0
   5   3 -11   20.60    2.60   0
   6  -1  -9  130.74    3.67   0
   6   0 -10  156.83    3.96   0
   8   1  -9   16.02    2.11   0
   3   2 -10    0.16    1.48   0
   3   5 -10   31.94    2.24   0
   4   1 -10   60.95    3.08   0
   6   4 -10  126.44    3.14   0
   4   5 -10    3.18    1.95   0
   3   4 -10   11.04    2.23   0
   5   1 -10  138.22    3.86   0
   2   5  -9    2.17    2.00   0
   4   2 -10   80.23    3.06   0
   5   5  -9    7.64    2.16   0
   6   3 -10   -0.99    1.99   0
   7  -1  -8    4.73    2.32   0
   7   0  -9    0.49    1.93   0
   7   3  -9    3.61    1.73   0
   2   4  -9  870.93    8.06   0
   4   4 -10   93.18    3.13   0
   4   6  -8   74.36    2.82   0
   6  -1  -8    2.79    1.94   0
   6   2 -10  109.44    3.54   0
   8   1  -8    8.88    2.09   0
   4   3 -10   68.45    3.08   0
   5   2 -10   44.11    2.82   0
   5   3 -10   42.15    2.69   0
   6   0  -9  225.34    4.64   0
   3   5  -9   10.54    2.22   0
   4   5  -9   14.97    2.52   0
   7   2  -9   51.78    2.66   0
   3   4  -9  287.77    5.14   0
   5   1  -9    3.62    1.54   0
   5   4  -9  149.62    3.99   0
   6   1  -9   44.57    2.79   0
   6   3  -9   32.96    2.27   0
   7  -1  -7   -0.57    2.39   0
   7   3  -8   86.25    2.85   0
   8   0  -7    1.30    1.74   0
   2   5  -8  193.85    4.24   0
   4   2  -9  505.60    6.65   0
   4   6  -7   79.71    2.87   0
   5   5  -8   33.57    2.36   0
   6   2  -9   27.29    2.40   0
   8   1  -7    0.47    1.70   0
   6  -1  -7   63.93    2.75   0
   6   0  -8   38.74    2.39   0
   6   4  -8   41.74    2.50   0
   4   3  -9   41.10    2.64   0
   5   2  -9   16.73    2.33   0
   5   3  -9   21.02    2.36   0
   7   2  -8    5.13    1.95   0
   3   5  -8    7.37    1.99   0
   3   6  -7    5.37    2.22   0
   4   5  -8   30.24    2.41   0
   7   3  -7   63.46    2.67   0
   8   0  -6   18.73    2.46   0
   5   5  -7  127.86    3.81   0
   6   1  -8   34.09    2.52   0
   6   3  -8   51.49    2.89   0
   7   0  -7  237.48    4.59   0
   8   1  -6   85.02    3.03   0
   3   4  -8   79.22    3.15   0
   4   6  -6    0.35    2.19   0
   5   1  -8   47.98    2.53   0
   5   4  -8    0.61    2.03   0
   6   2  -8   26.29    2.74   0
   6   4  -7   65.30    3.21   0
   7  -1  -6    1.97    1.87   0
   2   5  -7    2.25    2.15   0
   4   2  -8  116.48    3.60   0
   7   1  -7    1.00    2.32   0
   7   2  -7   12.42    2.07   0
   5   2  -8    3.86    1.91   0
   5   3  -8   96.01    3.39   0
   6   0  -7   43.79    2.56   0
   3   6  -6    0.11    2.27   0
   4   3  -8   18.88    1.91   0
   4   5  -7   84.57    3.40   0
   7   3  -6  187.96    4.13   0
   8   0  -5    2.12    1.80   0
   8   1  -5   46.97    2.71   0
   3   5  -7  127.71    3.53   0
   8   2  -4   88.66    2.57   0
   4   6  -5   23.61    2.56   0
   5   4  -7    1.84    2.51   0
   6   3  -7    5.13    1.99   0
   6   4  -6   16.81    2.65   0
   7   0  -6  150.25    4.09   0
   6   2  -7  141.28    4.31   0
   7   2  -6    0.68    2.18   0
   3   4  -7   27.78    2.48   0
   5   1  -7    8.75    1.82   0
   7   1  -6   10.88    2.23   0
   7   3  -5   86.94    3.11   0
   8   0  -4    2.83    2.30   0
   8   1  -4   12.39    2.32   0
   8   2  -3    3.80    1.69   0
   5   3  -7   35.55    2.79   0
   8   2  -2    2.09    1.84   0
   2   5  -6  597.85    6.62   0
   3   6  -5   58.80    3.16   0
   4   5  -6   45.32    2.90   0
   5   2  -7  174.86    4.22   0
   4   3  -7   29.10    2.24   0
   4   6  -4   43.22    2.45   0
   6   3  -6   59.78    3.05   0
   6   4  -5   33.45    2.74   0
   7   0  -5   34.85    2.95   0
   3   5  -6  185.51    4.13   0
   5   4  -6    2.06    2.01   0
   7   2  -5    1.16    1.83   0
   7   3  -4   -0.05    1.76   0
   8   0  -3   43.87    2.90   0
   8   1  -3    8.96    2.02   0
   7   1  -5   82.60    3.47   0
   3   4  -6 1068.15    9.52   0
   3   6  -4    2.12    2.49   0
   4   5  -5   31.15    3.27   0
   4   6  -3   58.86    2.57   0
   5   3  -6   28.18    2.64   0
   6   4  -4   52.96    2.98   0
   7   3  -3   10.34    1.89   0
   8   1  -2   21.82    2.12   0
   5   2  -6  409.53    6.30   0
   6   0  -5   32.31    2.42   0
   7   2  -4   50.89    3.07   0
   8   0  -2    3.87    2.19   0
   4   3  -6  372.71    6.00   0
   5   4  -5   18.13    2.52   0
   7   0  -4   16.77    2.30   0
   8   1  -1   91.33    2.76   0
   3   5  -5   55.90    2.93   0
   4   6  -2  106.52    2.96   0
   6   4  -3   67.13    3.21   0
   7   1  -4    7.29    2.14   0
   7   3  -2   16.75    2.03   0
   8   1   0  112.67    2.78   0
   6   2  -5   68.50    3.14   0
   8   0  -1    0.16    1.67   0
   3   6  -3  122.47    4.20   0
   4   6  -1    1.29    2.21   0
   7   3   0   25.78    2.15   0
   4   5  -4   71.97    3.39   0
   5   3  -5   52.14    3.09   0
   6   3  -4   61.27    3.10   0
   6   4  -2    7.41    1.91   0
   8   0   0    2.61    1.96   0
   4   6   0   50.67    2.60   0
   5   4  -4   10.91    2.44   0
   7   0  -3   41.59    2.71   0
   7   1  -3    2.38    2.49   0
   5   2  -5  154.15    4.17   0
   6   4  -1    1.93    2.21   0
   3   5  -4  140.51    4.23   0
   4   3  -5   20.21    2.16   0
   6   2  -4   22.20    2.53   0
   3   6  -2  107.92    3.52   0
   4   5  -3  215.78    5.05   0
   6   3  -3   38.45    2.74   0
   6   4   0   25.62    2.26   0
   6   4   1   16.01    1.96   0
   5   3  -4    6.41    2.44   0
   5   4  -3  290.06    6.06   0
   7   0  -2   54.23    3.15   0
   3   6  -1  237.44    5.44   0
   6   2  -3  122.60    4.10   0
   6   3  -2   10.54    2.33   0
   7   2   3   15.04    1.80   0
   3   5  -3  192.88    5.29   0
   4   5  -2   36.67    3.01   0
   5   2  -4   22.96    2.20   0
   5   4  -2  248.18    5.28   0
   6   1  -3   63.37    3.09   0
   7   0  -1    4.43    2.22   0
   7   1  -1   17.01    2.40   0
   5   3  -3   10.46    2.61   0
   6   3  -1   43.52    2.91   0
   4   5  -1    1.36    2.66   0
   6   2  -2   33.71    3.07   0
   7   1   0    6.01    2.41   0
   3   6   1    1.09    2.54   0
   5   4  -1   96.39    3.83   0
   6   3   0  203.28    4.80   0
   3   5  -2  257.99    6.12   0
   3   6   2    2.95    2.27   0
   3   6   3    0.57    2.20   0
   5   2  -3   -0.02    1.70   0
   6   3   4    0.62    1.67   0
   7   0   0    6.51    2.21   0
   7   1   1    0.47    2.05   0
   7   1   4   19.91    2.18   0
   4   5   0   53.62    3.51   0
   6   1  -2    2.97    1.97   0
   6   3   1  133.65    3.76   0
   6   3   3   19.67    2.36   0
   7   1   2    1.01    2.35   0
   7   1   3    3.74    2.22   0
   5   3  -2    1.70    2.07   0
   5   4   0  147.48    4.18   0
   6   2  -1    2.06    2.17   0
   6   3   2   40.68    2.57   0
   7   0   1  103.99    3.90   0
   4   5   1  500.55    7.16   0
   5   4   1    0.27    2.14   0
   5   4   4  118.65    3.09   0
   7   0   2   85.98    3.58   0
   3   5  -1  103.37    3.95   0
   5   4   2   34.32    2.86   0
   5   4   3   16.18    2.17   0
   6   0  -1   73.04    3.05   0
   6   1  -1    9.37    2.07   0
   6   2   0   23.43    2.67   0
   7   0   3    2.84    2.45   0
   7   0   4   25.61    2.66   0
   2   6   1   20.20    2.97   0
   5   2  -2   27.35    2.35   0
   5   3  -1   42.89    2.95   0
   4   4  -1   37.95    2.96   0
   6   2   1    0.39    2.56   0
   3   5   0  324.34    6.41   0
   2   5  -1    7.31    2.20   0
   2   6   2    9.35    2.25   0
   2   6   5    1.17    2.17   0
   5   3   0   66.44    3.57   0
   6   1   0   13.29    2.17   0
   6   2   2   10.83    2.57   0
   2   6   4    0.97    2.37   0
   4   4   0    6.53    2.41   0
   5   2  -1  127.34    4.21   0
   6   0   0  345.89    5.90   0
   6   1   7   18.30    2.26   0
   6   2   3   22.89    2.51   0
   3   5   1  151.20    4.87   0
   5   3   1   13.84    2.81   0
   5   3   6    0.35    2.11   0
   3   4  -1  167.90    4.89   0
   3   5   6    1.39    2.15   0
   6   1   1    2.42    2.07   0
   4   3  -1   17.48    2.24   0
   4   4   1    2.66    2.26   0
   5   3   2    1.42    2.15   0
   6   0   1  407.56    6.36   0
   2   5   0    5.50    2.36   0
   3   5   2   15.07    2.74   0
   3   5   5    2.99    2.46   0
   4   4   6    1.89    1.85   0
   5   2   0   13.56    2.29   0
   5   3   3    0.45    2.23   0
   5   3   4    0.91    2.41   0
   5   3   5   -0.66    2.09   0
   6   1   2    1.38    2.01   0
   6   1   6  125.20    3.24   0
   3   5   3   21.85    2.98   0
   3   5   4   32.21    3.33   0
   4   4   2   69.93    3.62   0
   6   1   3   49.52    3.10   0
   6   1   5  241.24    4.96   0
   4   4   3    1.75    2.27   0
   4   4   4    0.57    2.52   0
   4   4   5    3.19    2.26   0
   6   0   2   39.83    3.24   0
   6   1   4  264.25    5.09   0
   3   4   0   14.59    2.39   0
   4   3   0    4.75    2.26   0
   5   2   1  107.94    4.09   0
   6   0   7    9.19    2.13   0
   2   5   1   16.35    2.55   0
   5   1   9   10.49    2.21   0
   5   2   7  252.71    4.57   0
   6   0   6    4.64    2.34   0
   4   3   1   35.49    3.06   0
   4   3   8    1.39    1.98   0
   5   2   2   31.50    2.63   0
   6   0   4    5.84    2.21   0
   6   0   5   36.23    2.90   0
   2   5   2   10.53    2.60   0
   3   4   8  171.20    3.83   0
   5   2   3   83.32    4.41   0
   5   2   6    5.98    2.66   0
   5   2   4    3.29    2.39   0
   5   2   5  143.70    4.47   0
   2   5   3    4.11    2.62   0
   4   3   2    2.63    2.26   0
   4   3   7   50.13    2.93   0
   2   5   4   76.65    4.21   0
   2   5   6  320.31    6.08   0
   3   4   7  126.33    4.32   0
   5   1   8    5.29    2.06   0
   3   3  10   14.98    2.17   0
   4   3   3   32.43    3.23   0
   4   3   6  337.39    6.44   0
   1   5   9    6.20    2.06   0
   3   4   4   46.09    3.77   0
   4   3   4   93.06    4.17   0
   4   3   5  345.38    6.62   0
   3   4   5   47.47    3.39   0
   4   2   9  167.17    4.32   0
   5   0   9    4.89    2.29   0
   5   1   7    7.32    2.35   0
   5   1   6   63.01    3.46   0
   1   5   3   37.86    3.73   0
   1   5   8    1.46    2.29   0
   3   3   9   10.29    2.39   0
   4   2   8    2.86    2.99   0
   5   0   8    6.07    3.03   0
   0   5  10   41.92    2.79   0
   3   2  11   22.72    2.71   0
   5  -1   9    5.54    2.62   0
   1   4  11   25.31    2.23   0
   1   5   4   85.47    4.42   0
   1   5   7   56.98    3.60   0
   4   2   3  355.62    7.08   0
   4   2   7    0.66    3.06   0
   5   0   4    0.72    2.20   0
   5   0   7   27.27    3.35   0
   1   5   5   45.53    3.75   0
   1   5   6   83.43    4.37   0
   2   3  11   38.42    3.05   0
   3   3   8   57.68    3.51   0
   4   0  11    7.60    2.64   0
   4   2   4   20.85    2.86   0
   5   0   5   17.97    3.35   0
   5   0   6    9.71    3.19   0
   2   4   3  216.64    5.75   0
   3   3   3   83.33    4.10   0
   4   2   5   21.01    3.05   0
   4   2   6    0.39    2.73   0
   5  -1   8  136.49    4.52   0
   3   3   7    9.73    2.74   0
   0   4  12   14.16    2.36   0
   0   5   9   14.56    3.06   0
   2   4   4   71.40    4.02   0
   2   4   5   35.77    3.82   0
   3   3   4   91.22    4.14   0
   3   3   5   37.21    3.84   0
   3   3   6   45.08    3.57   0
   5  -1   5   47.20    3.19   0
   5  -1   7  313.86    6.06   0
   1   4  10   15.39    2.87   0
   3   2  10   54.83    3.35   0
   4   0  10   34.09    3.50   0
   0   5   8    1.66    3.29   0
   2   2  12   15.94    2.75   0
   2   3  10   56.66    3.58   0
   4  -1  11    7.55    2.53   0
   1   3  12   27.31    2.77   0
   3   2   9   20.23    3.21   0
   0   5   5   95.57    4.46   0
   0   5   6   -1.30    3.63   0
   1   4   9    6.48    2.80   0
   3  -1  13   89.88    3.22   0
   3   1  11   49.78    3.30   0
   2   1  13    5.02    2.66   0
   2   3   9   14.54    3.04   0
   4   0   9   28.65    3.16   0
   0   4  11   69.86    3.54   0
   3   2   8   19.36    3.16   0
   1   4   8    0.82    3.10   0
   3   2   7    8.43    3.03   0
   4   0   8    2.51    3.48   0
  -1   5   9  253.89    6.59   0
   1   2  13  276.53    5.97   0
   1   4   5   13.02    3.48   0
   1   4   7    6.02    2.92   0
   2   3   8    6.42    3.15   0
   3   1  10    4.44    3.30   0
   3   2   5    3.80    2.40   0
   1   3  11   81.82    4.16   0
   1   4   6  133.40    5.30   0
   2   3   7   71.26    4.61   0
   4   0   6   85.27    4.68   0
   4   0   7   -1.50    2.95   0
  -2   4  13    0.97    2.40   0
  -1   4  12   47.97    3.21   0
   0   4  10    4.25    3.41   0
   2   3   5   26.39    3.15   0
   2   3   6    9.85    2.74   0
   1   1  14   35.68    2.67   0
   3   1   9   24.69    4.26   0
   0   2  14   73.86    3.39   0
   2  -1  14   98.81    3.27   0
   2   2  10   11.24    3.58   0
   3  -1  12   39.12    3.35   0
   4  -1   8    1.97    3.07   0
   1   3  10   13.36    3.31   0
  -5   0   7  191.74    3.41   0
  -4  -3   7   28.86    2.26   0
  -4   0   4  170.45    2.45   0
  -4  -2   5  195.44    3.64   0
  -4   1   4    0.04    0.58   0
  -4   2   5  319.02    3.13   0
  -3  -3   4    2.02    1.04   0
  -3  -2   3    8.44    0.84   0
  -5  -1   7   11.09    1.53   0
  -5   2   9   21.48    2.08   0
  -4  -1   4    7.70    0.92   0
  -2   0   1  361.37    2.19   0
  -5   0   6  238.24    3.55   0
  -5   1   6  259.49    3.64   0
  -5   2   8   28.78    1.78   0
  -3   0   2  555.44    3.41   0
  -3   2   3   89.48    1.41   0
  -3  -1   2    5.59    0.71   0
  -5  -1   6  133.90    3.03   0
  -3   1   2  180.37    1.92   0
  -2  -3   2  169.58    2.13   0
  -4   2   4   97.57    1.75   0
  -5   0   5   20.47    1.30   0
  -5   1   5    2.79    0.93   0
  -5   2   6   55.54    1.81   0
  -4  -2   4  200.85    3.23   0
  -4   0   3  396.13    3.61   0
  -4   1   3   17.51    0.98   0
  -2   2   2 1362.41    3.77   0
  -2  -2   1    3.52    0.56   0
  -2   1   1 1633.95    4.46   0
  -6   0   8   36.52    2.35   0
  -6   1   8    1.54    1.88   0
  -5  -1   5   51.44    2.01   0
  -4  -3   5   26.61    1.91   0
  -4  -1   3  574.24    4.67   0
  -3  -3   3  313.29    3.66   0
  -3  -2   2   14.54    0.88   0
  -6   0   7   40.61    2.76   0
  -5   2   5   67.97    1.86   0
  -4   3   5  141.27    2.15   0
  -6   2   8   90.08    3.08   0
  -5   0   4   16.87    1.26   0
  -5   1   4  146.35    2.64   0
  -4   2   3   62.44    1.51   0
  -3   0   1  222.26    2.24   0
  -3   2   2   97.71    1.39   0
  -6   0   6  267.86    5.18   0
  -6   1   6  100.70    2.75   0
  -6   2   7   14.20    1.67   0
  -4   0   2   35.51    1.21   0
  -1  -2   0   44.37    0.77   0
  -5   2   4  430.17    4.20   0
  -5   3   6   97.42    2.29   0
  -4  -3   4  422.72    4.91   0
  -4   1   2  221.99    2.61   0
  -4   3   4    3.81    0.75   0
  -3   1   1    3.06    0.45   0
  -6  -1   6  219.03    4.41   0
  -5   1   3    9.33    1.16   0
  -6   0   5   35.94    2.08   0
  -5   0   3    2.52    0.97   0
  -5   3   5   81.96    2.06   0
  -2  -1   0 2159.85    6.02   0
  -3  -3   2  898.52    5.66   0
  -2  -3   1  153.85    1.92   0
  -6   2   5    8.64    1.42   0
  -5  -2   4   24.75    1.91   0
  -3  -2   1   19.71    1.01   0
  -3   3   3  440.20    2.84   0
  -6   1   4   50.30    2.21   0
  -6   3   6    6.75    1.76   0
  -4  -2   2  166.34    2.95   0
  -4   0   1  197.25    2.69   0
  -6   0   4   96.14    2.83   0
  -4   1   1  709.12    4.83   0
  -4   3   3   51.67    1.30   0
  -5   0   2  162.50    2.95   0
  -5   1   2    2.75    0.95   0
  -2  -2   0  538.59    3.28   0
  -2   2   1 3869.00    7.05   0
  -6   3   5  132.65    3.42   0
  -4  -1   1    9.92    0.94   0
  -3   0   0    3.24    0.57   0
  -2   1   0  337.21    2.14   0
  -5  -2   3    1.51    1.59   0
  -3  -1   0   57.74    1.39   0
  -6   1   3  133.41    3.18   0
  -5  -1   2  705.61    6.51   0
  -5   3   3    0.60    0.97   0
  -3   1   0   61.92    1.27   0
  -6   0   3    6.93    1.60   0
  -4   2   1    5.74    0.69   0
  -6   3   4   -0.70    1.52   0
  -4   3   2   48.58    1.29   0
  -3   3   2  274.38    2.45   0
  -6  -1   3   63.08    3.22   0
  -5   0   1   24.68    1.50   0
  -5   1   1  351.75    4.05   0
  -4  -2   1  102.57    2.37   0
  -4   0   0  185.09    2.78   0
  -7   1   4  324.17    5.60   0
  -6   1   2   35.79    1.98   0
  -3  -2   0   11.30    0.94   0
  -7   2   4   11.45    1.90   0
  -7   3   5   54.61    2.87   0
  -6   3   3   78.96    2.53   0
  -5   2   1   19.80    1.27   0
  -5   3   2    2.94    0.82   0
  -6   0   2  433.64    5.88   0
  -6   2   2  128.66    3.09   0
  -5  -1   1  134.19    3.14   0
  -4  -1   0  802.82    5.76   0
  -2  -1  -1  261.17    2.39   0
  -2   0  -1   22.66    0.72   0
  -1  -1  -1  142.26    1.35   0
  -3   2   0  312.64    2.64   0
  -7   1   3  258.06    5.09   0
  -7   3   4    5.83    1.68   0
  -4   2   0    0.93    0.57   0
  -3   0  -1  185.01    2.38   0
  -7   2   3  117.82    3.44   0
  -6  -1   2    3.52    2.23   0
  -4   3   1  937.62    5.60   0
  -5   1   0    4.01    0.94   0
  -3  -1  -1   50.82    1.39   0
  -3   1  -1   12.30    0.74   0
  -6   2   1   59.97    2.45   0
  -5   3   1    1.68    0.81   0
  -2  -2  -1   54.72    1.30   0
  -1  -2  -1   60.10    0.98   0
  -7   3   3  109.97    3.55   0
  -5   2   0    0.86    0.98   0
  -4  -2   0  746.91    6.25   0
  -3   3   1   24.07    0.87   0
  -2   1  -1 1046.72    4.22   0
  -2   2   0 8985.85   11.61   0
  -7   1   2   69.16    2.96   0
  -4   1  -1   73.41    1.98   0
  -6   4   3   49.44    2.16   0
  -5  -1   0    9.69    1.89   0
  -7   3   2    1.31    1.77   0
  -6  -1   1   10.63    2.20   0
  -5   4   2    0.45    1.17   0
  -4  -1  -1   19.57    1.33   0
  -4   2  -1  304.22    3.45   0
  -3  -2  -1   54.16    1.59   0
  -6   1   0  184.42    3.95   0
  -6   2   0   -0.88    1.47   0
  -5   1  -1  278.57    4.28   0
  -4   3   0    1.03    0.71   0
  -3   2  -1   22.38    0.92   0
  -7   4   3  181.65    4.85   0
  -6   4   2   20.49    1.66   0
  -7   2   1   93.32    3.46   0
  -5   0  -1    0.56    1.12   0
  -5   2  -1  255.30    4.07   0
  -2   0  -2  296.37    2.57   0
  -5   4   1   49.51    2.13   0
  -3  -1  -2 1191.33    6.76   0
  -3   1  -2    1.68    0.62   0
  -3   3   0    1.05    0.55   0
  -2  -1  -2  251.75    2.57   0
  -7   4   2   41.71    2.70   0
  -6   4   1    1.31    1.64   0
  -4   0  -2   18.17    1.31   0
  -4   1  -2    3.05    0.93   0
  -6   1  -1    0.27    1.77   0
  -5  -1  -1   67.13    2.60   0
  -7   2   0  239.57    5.25   0
  -6   2  -1    6.14    1.54   0
  -5   3  -1    6.11    1.12   0
  -4   4   1 2300.30    9.11   0
  -2   2  -1  750.93    3.80   0
  -5   1  -2  402.77    5.56   0
  -4  -1  -2    0.96    1.40   0
  -4   2  -2    0.29    0.84   0
  -7   3   0  132.34    4.13   0
  -7   4   1   70.40    3.21   0
  -5   2  -2  732.81    7.30   0
  -5   4   0   22.35    1.73   0
  -3   2  -2  208.96    2.66   0
  -2  -2  -2   89.53    1.73   0
  -6   3  -1    2.58    1.50   0
  -5   0  -2   74.86    2.73   0
  -1  -1  -2   21.02    0.68   0
  -3   0  -3  400.84    4.27   0
  -3   3  -1  678.20    4.75   0
  -6   2  -2   57.56    2.78   0
  -5   3  -2    9.61    1.30   0
  -4   1  -3    1.54    1.07   0
  -4   4   0  749.08    5.86   0
  -3   1  -3    1.43    0.69   0
  -1   0  -2   50.78    0.90   0
  -7   3  -1  194.10    5.12   0
  -7   4   0    4.34    1.95   0
  -5  -1  -2  211.24    4.85   0
  -4   0  -3  187.10    3.43   0
  -4   3  -2   10.38    1.07   0
  -6   4  -1   58.82    2.90   0
  -5   4  -1   76.70    2.53   0
  -4   2  -3   16.52    1.27   0
  -3  -1  -3  104.08    2.53   0
  -6   3  -2    5.61    1.90   0
  -5   1  -3   15.40    1.88   0
  -5   2  -3    3.21    1.35   0
  -2  -1  -3    0.82    0.69   0
  -2   2  -2   35.44    1.06   0
  -7   4  -1  169.74    5.24   0
  -5   0  -3    1.94    1.52   0
  -4  -1  -3  141.33    3.22   0
  -4   4  -1  197.79    3.21   0
  -3   2  -3   22.13    1.20   0
  -2   1  -3 2032.16    7.37   0
  -6   1  -3   10.13    2.38   0
  -6   2  -3  231.86    4.96   0
  -5   3  -3   33.01    1.95   0
  -5   4  -2    7.51    1.76   0
  -6   4  -2    7.23    1.71   0
  -4   1  -4  112.94    3.07   0
  -4   3  -3  825.69    7.09   0
  -6   3  -3   21.92    2.48   0
  -3   1  -4  159.81    2.89   0
  -5   2  -4   20.31    1.96   0
  -4   2  -4  272.06    4.48   0
  -1   1  -2 1216.06    4.22   0
  -6   5  -1   55.32    2.99   0
  -4   4  -2   28.33    1.58   0
  -3  -1  -4    8.20    1.51   0
  -3   4   0   15.94    0.89   0
  -2   0  -4  321.60    3.43   0
  -1  -1  -3  452.46    3.06   0
  -6   2  -4  310.64    7.16   0
  -5   0  -4    0.78    2.03   0
  -5   3  -4   25.12    1.99   0
  -3   3  -3  463.69    4.56   0
  -1   0  -3 2122.30    6.31   0
  -4  -1  -4    5.67    1.96   0
  -4   3  -4  797.41    7.72   0
  -2   1  -4 1151.55    6.26   0
  -2   3  -1  255.70    2.43   0
  -2  -1  -4   85.42    1.86   0
  -6   5  -2  295.38    5.56   0
  -4   4  -3  240.56    3.97   0
  -3   4  -1    3.37    0.81   0
  -5   2  -5    3.49    1.74   0
  -4   2  -5    2.60    1.17   0
  -3   1  -5  266.68    4.00   0
  -5   1  -5   52.61    2.96   0
  -5   5  -2   54.99    2.67   0
  -4   0  -5  540.66    6.48   0
  -3   0  -5    0.26    1.20   0
  -5   3  -5  115.96    3.73   0
  -3   2  -5    6.01    1.42   0
  -3   3  -4   43.43    1.71   0
  -1   1  -3  763.28    3.88   0
  -6   5  -3  265.08    5.73   0
  -4   3  -5   35.61    2.01   0
  -3   4  -2  133.55    2.38   0
  -2   2  -4  254.94    3.06   0
  -4   4  -4   27.37    2.00   0
  -2   0  -5   16.30    1.34   0
  -5   5  -3   29.48    2.35   0
  -3  -1  -5    0.54    1.73   0
  -2   1  -5  346.99    3.92   0
  -1  -1  -4  471.43    3.52   0
  -5   2  -6   75.26    3.65   0
  -4   1  -6    1.10    1.63   0
  -4   2  -6  101.69    3.32   0
  -3   4  -3    0.38    0.79   0
  -6   5  -4   83.58    3.88   0
  -3   3  -5   83.82    2.45   0
  -1   2  -2  448.28    2.79   0
  -5   3  -6   10.50    2.17   0
  -5   5  -4    7.97    2.23   0
  -4   0  -6   74.65    3.56   0
  -4   3  -6    3.91    1.85   0
  -3   0  -6   25.12    2.20   0
  -3   2  -6  312.11    4.85   0
  -2   2  -5  109.70    2.36   0
  -1   1  -4   78.11    1.49   0
  -4   5  -3   10.76    1.91   0
  -3   4  -4   26.43    1.70   0
  -5   4  -6  198.98    5.91   0
  -2   3  -4  555.80    4.80   0
  -3   3  -6    1.63    1.36   0
  -2   0  -6  120.52    2.64   0
  -1   0  -5  142.32    2.40   0
  -1   2  -3   12.06    0.66   0
  -4   2  -7   85.05    4.03   0
  -4   4  -6    3.03    1.81   0
  -4   5  -4   29.61    2.14   0
  -2   2  -6    0.87    0.97   0
  -1  -1  -5  397.30    3.59   0
  -1   1  -5   33.26    1.39   0
  -4   3  -7   17.95    2.26   0
  -3   2  -7  417.70    6.13   0
  -3   4  -5   88.78    2.92   0
  -2   3  -5    6.97    1.00   0
  -3   0  -7  156.75    4.60   0
  -2  -1  -6  278.16    3.95   0
  -1   2  -4   76.93    1.58   0
  -4   5  -5   29.25    3.01   0
  -5   5  -6    5.04    2.63   0
  -3   3  -7   34.68    2.18   0
   0  -1  -3 3926.60    7.08   0
  -1   0  -6   91.19    2.26   0
  -2   2  -7  238.56    4.08   0
  -2   3  -6   28.79    1.65   0
  -1   2  -5   60.85    1.59   0
   0   0  -3 3479.94    7.04   0
  -4   3  -8  109.10    4.30   0
  -3   1  -8   60.30    3.02   0
  -3   2  -8   93.09    3.44   0
  -2   4  -3  530.89    4.52   0
  -2   4  -2   29.98    1.16   0
  -3   5  -3    0.22    1.21   0
  -1  -1  -6  102.05    2.23   0
  -3   5  -4  441.92    5.76   0
  -4   4  -8  108.22    4.27   0
  -3   4  -7  161.40    4.49   0
  -2   3  -7  141.47    3.61   0
  -1   2  -6  279.76    3.63   0
   0  -1  -4   33.05    0.91   0
   0   0  -4 1193.80    4.87   0
  -2   1  -8  114.95    3.31   0
  -2   4  -5  182.59    3.35   0
  -4   5  -7    4.87    2.30   0
  -3   5  -5  160.72    4.24   0
  -2   2  -8  100.85    3.29   0
  -1   0  -7 1153.16    7.57   0
  -1   1  -7  258.44    3.66   0
  -1   3  -3   97.57    1.75   0
  -2   0  -8    4.19    1.84   0
  -3   1  -9    0.54    2.78   0
  -3   5  -6  103.79    3.85   0
  -2   4  -6  117.72    3.15   0
  -1   3  -2   62.22    1.20   0
   0   1  -4  742.83    4.14   0
  -2   3  -8    5.12    1.59   0
  -1   2  -7  115.99    2.76   0
  -1   3  -5  137.80    2.50   0
   0  -1  -5  849.34    4.62   0
  -1  -1  -7  479.02    4.83   0
  -2   1  -9   27.30    2.51   0
  -2   2  -9   90.90    3.44   0
  -1   3  -6  513.15    5.09   0
   0   1  -5    2.92    0.61   0
  -1   0  -8  454.61    5.25   0
   0   0  -6  121.96    2.07   0
  -3   4  -9    4.16    2.37   0
  -1   2  -8   81.94    2.59   0
  -2   0  -9   12.25    2.36   0
   0   1  -6  130.98    2.28   0
  -3   5  -8   16.59    2.65   0
   0  -1  -6 1890.06    7.60   0
   0   0  -7   25.76    1.43   0
  -1   1  -9  109.89    3.27   0
  -1   3  -8   21.77    2.03   0
   0   1  -7   82.62    2.05   0
   0   2  -5  594.97    4.36   0
   0   2  -4  886.43    4.82   0
  -2   5  -5   -0.09    1.50   0
  -1   0  -9   16.56    2.55   0
  -1   2  -9   94.45    3.06   0
   0   2  -6  307.89    4.02   0
  -2   5  -6    1.72    1.46   0
  -2   5  -4  111.11    2.57   0
   0   2  -3  699.83    3.73   0
   0  -1  -7  194.28    2.82   0
  -2   5  -7  132.54    4.03   0
  -1   3  -9   38.16    2.40   0
  -1   4  -4  112.37    2.14   0
   0   0  -8   60.80    2.00   0
   0   1  -8   48.12    1.88   0
   0   2  -7    1.31    1.00   0
  -9   2   3   23.29    2.58   0
  -7   0   5   40.03    2.47   0
  -7   3   5   41.73    2.20   0
  -9   3   3  169.05    3.64   0
  -8   0   3   49.24    2.73   0
  -6  -2   3  112.29    3.74   0
  -5  -2   4   20.25    1.94   0
  -9   1   1   29.85    2.17   0
  -8   1   4   89.05    3.11   0
  -7   1   5   20.27    1.95   0
  -9   1  -1    5.69    1.65   0
  -9   1   0    0.81    1.64   0
  -8   3   4    5.46    1.95   0
  -7   2   5  112.18    3.13   0
  -6   0   5   28.74    2.10   0
  -9   2   2   36.35    2.44   0
  -9   4   2    5.97    2.10   0
  -8   0   2    4.46    2.03   0
  -7   0   4   18.39    2.58   0
  -6  -1   4  180.81    4.13   0
  -9   3   2   59.29    2.64   0
  -8   0   1    1.44    2.43   0
  -8   1   3    3.85    1.92   0
  -8   4   3    7.53    2.32   0
  -6  -2   1    3.93    2.38   0
  -5  -2   3    0.82    1.91   0
  -9   2   1    2.87    1.94   0
  -8   0  -3    3.89    1.84   0
  -7   3   4    3.24    2.12   0
  -7  -1   1   16.34    2.54   0
  -7   1   4  289.53    5.07   0
  -9   2  -3    2.75    1.97   0
  -9   2   0   11.98    2.17   0
  -9   4   1   25.66    2.16   0
  -8   0  -2    2.51    1.87   0
  -8   3   3   10.15    1.95   0
  -7   0   3   48.22    2.84   0
  -7   2   4   10.63    1.78   0
  -6  -2  -1    0.83    2.61   0
  -6   0   4   76.27    2.81   0
  -9   2  -2    5.09    2.05   0
  -9   2  -1  116.47    3.18   0
  -8   1   2    0.25    1.95   0
  -7  -1  -3    2.25    1.96   0
  -7  -1   0    0.93    2.35   0
  -5  -2   2   28.84    2.58   0
  -7  -1  -2    2.18    2.24   0
  -7  -1  -1    2.32    2.34   0
  -9   4   0   20.11    2.54   0
  -9   5  -1  148.98    3.37   0
  -8   4   2   77.69    3.32   0
  -8   1   1   32.23    2.65   0
  -8   2   2  431.40    6.43   0
  -7   0   2   62.42    3.13   0
  -7   1   3  274.10    5.30   0
  -9   3  -4    5.00    1.66   0
  -9   3  -1  103.65    2.99   0
  -8   3   2   98.85    3.37   0
  -7   3   3   94.33    3.25   0
  -6   0   3    6.38    2.20   0
  -5  -2   1  122.89    3.83   0
  -9   3  -3   16.00    2.33   0
  -9   4  -1   -0.82    1.93   0
  -9   5  -2    6.05    2.09   0
  -8   1   0   24.62    2.73   0
  -7   2   3  109.92    3.54   0
  -9   5  -3   -0.20    1.94   0
  -7   0   1    4.31    2.47   0
  -6  -1   1   10.07    2.61   0
  -9   4  -2   16.12    2.16   0
  -8   1  -1   70.54    3.61   0
  -8   2   1   58.16    3.20   0
  -7   1   2   75.55    3.54   0
  -5  -2   0   15.22    2.66   0
  -8   1  -3   26.02    2.32   0
  -8   1  -2    9.03    2.35   0
  -8   4   1   10.17    2.13   0
  -8   3   1  108.44    3.49   0
  -7   0  -5   52.17    3.02   0
  -7   0   0    2.73    2.35   0
  -6  -1   0   10.91    2.47   0
  -6   0   2  374.62    6.18   0
  -8   2  -6    4.14    2.09   0
  -8   2   0   75.44    3.50   0
  -7   0  -4   23.75    3.06   0
  -7   1   1   61.87    3.55   0
  -7   3   2    0.11    1.69   0
  -6  -1  -1    1.96    2.94   0
  -8   2  -1  350.14    6.16   0
  -8   4   0    5.02    1.95   0
  -7   0  -3    1.82    2.28   0
  -7   0  -2   73.60    3.74   0
  -8   2  -5   16.11    2.26   0
  -8   5  -1    4.80    2.26   0
  -6  -1  -2   -2.19    2.47   0
  -8   2  -2   16.19    2.39   0
  -7   1  -7    7.75    2.34   0
  -7   4   1   59.54    3.24   0
  -6   0   1   82.92    3.57   0
  -8   2  -3    0.57    2.03   0
  -8   3  -1   24.94    2.58   0
  -7   1   0    0.87    2.15   0
  -7   2   1   90.77    3.51   0
  -8   4  -1    4.00    2.24   0
  -7   3   1    6.08    1.95   0
  -8   3  -6    2.97    1.98   0
  -8   3  -2   28.34    3.13   0
  -8   5  -2   11.36    2.33   0
  -8   6  -6   33.29    2.26   0
  -6   0   0  334.56    6.32   0
  -8   4  -7    4.09    2.16   0
  -7   1  -6   41.26    2.63   0
  -8   3  -5   38.64    2.65   0
  -8   3  -4    2.80    2.12   0
  -8   3  -3   34.68    2.98   0
  -8   4  -2   81.39    3.54   0
  -8   5  -7    9.65    1.72   0
  -8   5  -3    2.20    2.55   0
  -7   2   0  255.89    5.33   0
  -6   0  -7    9.03    2.32   0
  -8   4  -3  231.78    5.18   0
  -7   1  -3    8.15    3.01   0
  -7   4   0    3.68    1.88   0
  -8   4  -6    1.62    1.87   0
  -8   5  -6   89.44    2.87   0
  -8   5  -4   45.16    2.72   0
  -7   1  -4   28.17    2.87   0
  -7   3   0  132.54    3.87   0
  -8   4  -5   35.36    2.57   0
  -8   5  -5    6.23    2.15   0
  -7   2  -1  110.42    3.96   0
  -7   3  -9   11.79    2.16   0
  -6   0  -6    4.93    2.31   0
  -6   1  -9   25.22    2.18   0
  -5  -1  -6   44.45    3.19   0
  -7   2  -7    1.92    2.22   0
  -7   2  -2   66.52    3.87   0
  -6   0  -5   31.33    3.16   0
  -6   0  -4    5.22    2.56   0
  -6   0  -3  100.46    4.36   0
  -5  -1  -3   14.85    2.81   0
  -7   4  -1  187.38    4.57   0
  -7   2  -6   14.60    2.61   0
  -7   2  -3   28.74    3.01   0
  -7   5  -2    5.16    2.56   0
  -6   2 -10    6.30    2.16   0
  -7   2  -5    3.19    2.41   0
  -7   2  -4   59.97    3.49   0
  -7   3  -8    4.62    2.04   0
  -7   4  -9   40.90    2.54   0
  -6   1  -8   26.50    2.66   0
  -6   1  -1   -0.11    1.94   0
  -7   4  -2  168.38    4.56   0
  -7   6  -8   -0.17    2.10   0
  -6   1  -2   26.25    2.98   0
  -7   3  -7  170.08    4.62   0
  -7   3  -3    4.85    2.54   0
  -7   5  -3  131.26    4.01   0
  -6   1  -7    4.47    2.34   0
  -5   0  -8    4.06    2.79   0
  -7   3  -6  115.61    4.18   0
  -7   3  -4   13.95    2.61   0
  -7   4  -8   -0.55    2.04   0
  -7   4  -3    7.10    2.27   0
  -7   6  -7   79.20    2.71   0
  -6   1  -3    8.82    2.15   0
  -7   3  -5  111.63    3.90   0
  -7   5  -4   20.52    2.72   0
  -6   1  -4   30.84    2.99   0
  -7   4  -7   28.71    2.69   0
  -7   4  -4    4.88    2.32   0
  -7   5  -7    8.80    2.76   0
  -6   4 -11    7.96    1.85   0
  -5   0  -7   24.04    3.25   0
  -5   1 -10   50.59    2.81   0
  -7   4  -6   24.39    2.66   0
  -7   5  -6   27.86    2.44   0
  -7   5  -5    0.72    2.01   0
  -6   2  -2   47.91    2.77   0
  -6   3 -10    0.65    1.94   0
  -5   0  -3    1.70    2.17   0
  -6   2  -8   -1.75    2.73   0
  -5   0  -6    8.35    2.62   0
  -5   0  -4    3.50    2.35   0
  -5   0  -5   13.73    2.55   0
  -6   2  -7    2.50    2.74   0
  -6   2  -3  195.37    4.84   0
  -6   6 -10   59.75    2.33   0
  -5   2 -11  170.42    3.92   0
  -5   3 -12   65.31    2.82   0
  -6   3  -9   27.44    2.81   0
  -6   4 -10   -0.17    1.93   0
  -5   1  -9    5.40    2.40   0
  -6   2  -6    1.50    2.30   0
  -6   2  -5  192.44    5.39   0
  -6   3  -3   23.49    2.38   0
  -6   6  -9   15.42    2.36   0
  -6   3  -8   34.30    2.87   0
  -6   4  -3    5.03    2.06   0
  -5   1  -8  134.17    4.67   0
  -4   0  -9   24.04    3.00   0
  -6   3  -7   28.41    3.13   0
  -6   3  -4  101.89    3.60   0
  -6   4  -9    1.40    2.10   0
  -6   6  -8    4.95    2.41   0
  -6   6  -6    5.96    2.49   0
  -5   4 -12   17.44    1.98   0
  -4   1 -11   10.69    2.64   0
  -3   1 -13   67.05    2.83   0
  -6   3  -6    6.36    2.40   0
  -6   3  -5    5.92    2.17   0
  -5   1  -7  314.37    6.77   0
  -5   5 -12   21.35    1.96   0
  -6   4  -8    7.32    2.34   0
  -6   4  -4   33.92    2.48   0
  -6   5  -8   18.44    2.78   0
  -6   5  -5   44.28    3.11   0
  -5   1  -5   45.10    2.92   0
  -5   3 -11   44.20    2.60   0
  -4   0  -8    1.10    2.57   0
  -6   4  -7   10.79    2.44   0
  -6   4  -5   27.27    2.49   0
  -6   5  -6   17.59    2.82   0
  -4   2 -12   12.27    2.55   0
  -4   3 -13  120.32    3.02   0
  -5   2  -9    6.10    2.47   0
  -5   6 -11    0.90    1.81   0
  -4   0  -7    1.41    2.79   0
  -5   4 -11   42.56    2.97   0
  -4   0  -6   73.10    3.64   0
  -4   1 -10   42.45    3.47   0
  -5   2  -8   11.95    2.43   0
  -5   3 -10   93.54    3.65   0
  -5   5 -11   71.89    3.28   0
  -4   4 -13   32.85    2.17   0
  -5   2  -7  151.52    4.68   0
  -5   2  -6   65.46    3.85   0
  -5   2  -5    0.79    1.81   0
  -4   5 -13   28.22    2.13   0
  -3   0 -10   10.80    3.14   0
  -3   1 -12   36.10    2.99   0
  -5   4 -10   82.46    3.41   0
  -4   1  -9   75.59    3.76   0
  -5   6  -9   67.95    3.18   0
  -3   2 -13    1.78    2.26   0
  -5   3  -8   27.60    2.81   0
  -5   6  -8   39.12    3.05   0
  -4   6 -12   99.33    3.24   0
  -5   3  -7    1.84    2.39   0
  -5   3  -5   88.92    3.70   0
  -5   4  -9    0.33    2.23   0
  -4   1  -8    1.54    2.07   0
  -3   0  -9   -0.59    2.69   0
  -5   3  -6    8.54    1.99   0
  -5   5  -5   58.14    2.93   0
  -4   1  -7   70.38    3.99   0
  -4   2 -10    7.91    2.34   0
  -4   4 -12   11.59    2.16   0
  -3   4 -14    7.37    1.78   0
  -3   5 -14   87.13    2.36   0
  -5   4  -8    2.38    2.31   0
  -5   4  -5   52.57    2.69   0
  -5   5  -8    7.69    2.33   0
  -5   5  -6    5.03    2.23   0
  -4   5 -12    2.13    1.83   0
  -3   1 -11   80.97    4.09   0
  -5   5  -7   13.98    2.36   0
  -4   3 -11    8.14    2.31   0
  -3   0  -8   17.33    2.68   0
  -2   1 -13   67.63    3.48   0
  -4   2  -9   10.71    2.42   0
  -4   6 -11    9.32    1.89   0
  -3   6 -13    4.81    2.03   0
  -2   2 -14   71.80    3.02   0
  -3   3 -13   17.83    2.11   0
  -2   0 -11    3.64    2.81   0
  -4   3 -10    2.45    2.13   0
  -4   4 -11   14.24    2.27   0
  -4   2  -8    8.05    1.93   0
  -4   6 -10  101.15    3.33   0
  -3   1 -10  195.45    4.91   0
  -1   2 -15   14.13    2.08   0
  -4   2  -7   83.50    3.46   0
  -3   4 -13   26.92    2.39   0
  -3   5 -13    4.68    1.88   0
  -1   1 -14    5.87    1.90   0
  -4   3  -9   30.67    2.69   0
  -4   4 -10   15.48    2.29   0
  -4   6  -9    1.49    2.08   0
  -4   6  -8   90.45    3.37   0
  -3   1  -9    2.59    1.91   0
  -3   3 -12   16.06    2.43   0
  -3   6 -12    9.80    1.92   0
  -2   0 -10    1.21    2.28   0
  -2   1 -12   15.04    2.46   0
  -2   3 -14   68.13    2.75   0
  -4   3  -8   89.40    3.51   0
  -2   2 -13   42.68    3.10   0
  -4   3  -7   15.03    2.02   0
  -4   4  -9    0.95    1.97   0
  -4   5  -9  200.57    4.49   0
  -3   1  -8   49.70    3.17   0
  -2   4 -14    2.29    1.64   0
  -2   5 -14   35.09    2.06   0
  -1   0 -12   18.63    2.73   0
  -4   4  -8   93.09    3.79   0
  -4   5  -8   41.72    2.70   0
  -3   4 -12   28.52    2.76   0
  -3   5 -12    0.72    1.95   0
  -1   3 -15  121.37    2.88   0
  -1   5 -15   -0.34    1.62   0
  -4   5  -7    4.06    1.75   0
  -3   2 -10   85.49    3.85   0
  -3   6 -11  148.54    3.62   0
  -2   0  -9    6.09    2.26   0
  -2   6 -13    0.19    1.86   0
  -1   4 -15    9.11    1.89   0
  -3   3 -11  424.21    6.79   0
  -2   1 -11   27.47    2.53   0
  -1   6 -14   84.19    2.66   0
  -2   3 -13    7.62    1.90   0
  -1   1 -13   19.94    2.70   0
  -1   2 -14    5.37    2.08   0
  -3   2  -9   49.77    2.84   0
  -3   4 -11   14.99    2.29   0
  -3   6 -10  230.34    4.66   0
  -3   3 -10  347.95    6.44   0
  -2   4 -13   32.49    2.67   0
  -2   5 -13  100.00    3.05   0
   0   0 -13   15.18    2.27   0
   0   2 -15   -0.03    1.99   0
  -3   6  -9  179.83    4.18   0
  -2   1 -10   57.50    3.27   0
  -2   6 -12   36.25    2.44   0
  -3   4 -10   22.31    2.34   0
  -3   5 -10   39.93    2.65   0
  -1   3 -14   14.21    2.54   0
   0   1 -14    5.05    2.07   0
  -3   3  -9  148.76    4.12   0
  -2   3 -12    5.29    2.28   0
  -1   5 -14   -0.95    1.84   0
   0   5 -15    6.31    1.79   0
   0   6 -14   48.21    2.13   0
   1   3 -16    3.89    1.48   0
  -3   5  -9    7.88    2.20   0
  -2   2 -11    5.24    2.04   0
  -1   1 -12  156.24    4.42   0
  -1   4 -14   -2.29    1.83   0
  -1   6 -13  100.07    2.77   0
   0   3 -15    9.68    2.19   0
  -3   4  -9    6.55    1.76   0
  -2   1  -9   25.02    2.45   0
  -2   4 -12   63.65    3.35   0
  -2   6 -11   80.42    3.18   0
  -1   0 -10    0.85    2.06   0
   0   4 -15   43.74    2.18   0
  -3   5  -8   12.01    1.90   0
  -2   2 -10   24.45    2.24   0
  -2   3 -11   10.16    2.16   0
  -2   6 -10   -0.89    2.27   0
  -2   5 -11    4.78    1.96   0
  -1   1 -11  683.92    8.70   0
  -1   3 -13   -0.67    1.91   0
  -1   6 -12    1.02    1.99   0
   0   1 -13   19.12    2.30   0
   1   2 -15    6.65    1.90   0
   2   3 -16  176.51    3.12   0
  -2   4 -11   17.75    2.39   0
  -2   6  -9    2.02    2.08   0
  -1   4 -13   38.64    2.68   0
   0   6 -13  117.80    2.95   0
   1   0 -13    8.93    2.51   0
  -2   3 -10  127.12    3.88   0
  -2   5 -10    2.55    1.84   0
   0   3 -14   35.43    2.43   0
   0   4 -14   38.19    2.78   0
   1   1 -14    5.83    1.96   0
   1   3 -15   20.51    2.20   0
   1   4 -15   14.75    1.93   0
   2   1 -15   56.01    2.60   0
  -2   4 -10   75.32    2.96   0
  -1   6 -11    1.59    2.14   0
   0   0 -11   22.44    2.39   0
   2   0 -14    9.85    2.26   0
  -1   1 -10  140.42    4.08   0
  -1   3 -12    2.30    1.93   0
   1   6 -13    3.27    1.86   0
  -2   3  -9  142.70    3.89   0
  -2   5  -9   15.40    2.03   0
  -1   2 -11   35.50    2.33   0
  -1   4 -12   63.07    2.90   0
   0   1 -12   13.99    2.56   0
  -1   6 -10   21.11    2.58   0
   0   6 -12   93.45    2.88   0
  -2   5  -8  145.57    3.65   0
   2   4 -15    9.06    2.06   0
  -1   5 -11    0.84    1.73   0
   0   3 -13  282.66    5.05   0
   1   0 -12    3.64    2.05   0
   1   1 -13    6.47    2.48   0
   1   4 -14  183.69    4.46   0
   2   3 -15  113.04    2.81   0
   3   1 -15    1.20    1.85   0
  -1   2 -10   21.44    2.12   0
  -1   4 -11  264.13    4.94   0
   0   6 -11   87.79    2.95   0
   1   3 -14    6.18    1.86   0
   2   5 -14   78.10    2.22   0
   0   1 -11   51.72    2.75   0
   0   2 -12    1.66    1.92   0
   0   5 -12  103.32    3.55   0
   2   1 -14   72.11    3.11   0
  -1   5 -10    1.08    1.71   0
   2   0 -13  131.48    3.82   0
   3   0 -14    8.14    1.92   0
   0   2   3   42.58    1.04   0
   2   2   6  328.01    4.25   0
   3   0   8   20.06    2.03   0
   1   3   4   79.36    1.97   0
   2   4   2  593.41    5.39   0
   3   4   2   26.96    2.38   0
   1   4   0   26.57    1.17   0
   2  -1   8  106.87    2.30   0
   2   3   5   21.10    1.88   0
   0   1   5  857.59    4.53   0
   0   2   4  104.07    1.69   0
   0   3   1 1388.67    5.20   0
   1  -1   7  242.58    2.63   0
   1   2   6    3.40    0.94   0
   1   4   1  115.19    2.11   0
   2   0   8    5.06    1.35   0
   0   0   5  806.54    3.87   0
   0   3   0  794.36    3.56   0
   2   4   3  214.99    4.00   0
   1   3   5    2.37    0.92   0
   1   4   2   10.02    1.16   0
   2   2   7   19.74    1.63   0
   0   2   5   87.08    1.75   0
   0   3   3    5.22    0.66   0
   2   1   8   25.31    1.84   0
   1   4   3   15.63    1.34   0
   2   3   6   13.21    1.60   0
   0   1   6 1977.44    7.55   0
   0   3   4    0.56    0.65   0
   1   2   7   -0.72    1.11   0
   0   0   6  116.09    1.72   0
   0   3  -1   62.73    0.92   0
   1   3   6   15.89    1.49   0
   2   0   9    6.75    1.94   0
   1  -1   8    8.03    1.14   0
   1   1   8  132.55    2.69   0
   0   3   5   41.17    1.51   0
   0   4   1   29.71    1.01   0
   0   4   2  225.74    2.73   0
   0  -1   5    1.68    0.37   0
   0   4   3   39.47    1.49   0
   1   2   8  262.14    4.08   0
   0   0   7   24.01    0.99   0
   0   2   7   29.53    1.40   0
   0   4   0  159.60    1.98   0
   1   0   9   21.84    1.64   0
   1   1   9  141.97    3.06   0
  -1   2   3  504.28    3.09   0
  -1   2   4   62.65    1.26   0
   0  -1   6  105.88    1.57   0
   0   1   8   66.39    1.83   0
   0   4   5  293.04    3.93   0
   1   5   3   39.44    2.42   0
  -1   2   5    0.28    0.52   0
  -1   3   3    7.67    0.75   0
   0   2   8    9.64    1.53   0
   0   3   7    1.94    1.16   0
  -1   2   2   20.86    0.63   0
  -1   3   4    0.62    0.55   0
  -1   1   4  531.34    3.04   0
  -1   1   5   41.55    1.03   0
  -1   2   6    2.88    0.85   0
  -1   3   5   71.53    1.70   0
   0  -1   7   64.27    1.40   0
   0   5   2    4.34    1.12   0
   0   5   3   37.24    1.94   0
  -1   3   6  162.69    2.68   0
  -1   4   3  613.96    4.50   0
   0   1   9    7.73    1.37   0
   0   5   1  299.89    3.35   0
  -1   2   7  632.90    4.99   0
  -1   4   2    0.85    0.72   0
   0   2   9  103.27    2.80   0
   0   4   7  153.49    3.78   0
  -1   1   7   51.05    1.66   0
  -1   4   5    2.84    0.95   0
   0   0   9  348.74    3.94   0
  -1   2   1 1397.59    4.14   0
  -1   3   7   75.27    2.12   0
   0   5   5  111.91    2.96   0
  -1   1   2    3.63    0.35   0
  -1   4   1   60.13    1.30   0
  -1   4   6   28.98    1.62   0
   0   1  10  210.19    4.19   0
  -1   1   8   88.53    1.99   0
  -1   3   8   66.16    2.23   0
  -1   0   5   87.49    1.28   0
  -1   0   6   73.93    1.37   0
  -1   4   7   10.41    1.56   0
  -1   5   3  205.59    3.12   0
  -1   5   4  121.59    2.68   0
  -1   0   7   54.68    1.51   0
  -1   2   9  344.21    4.45   0
  -1   3   0    0.09    0.27   0
  -1   5   2  109.72    2.23   0
  -1   5   5   18.65    1.69   0
  -1   0   4  198.24    1.65   0
  -1   1   9   41.09    2.04   0
  -1   4   0  129.24    1.79   0
  -2   3   5  490.28    4.23   0
  -1   3   9    7.32    1.56   0
  -1   5   1    3.79    0.97   0
  -1   5   6    0.99    1.58   0
  -2   3   4  382.41    3.33   0
  -2   3   6  844.46    5.76   0
  -1   0   8  434.45    3.84   0
  -2   2   5   56.16    1.34   0
  -2   2   6  161.60    2.47   0
  -2   3   7   25.04    1.42   0
  -2   4   4  424.73    3.98   0
  -2   4   5    6.66    0.96   0
  -2   2   7    2.54    0.80   0
  -2   3   3  307.09    2.91   0
  -2   4   6   53.13    2.16   0
  -1   2  10   45.96    2.39   0
  -2   2   4   69.94    1.32   0
  -2   4   7  270.94    4.08   0
  -1   0   9    8.66    1.36   0
  -2   3   8    6.25    1.24   0
  -1   6   4   17.37    1.94   0
  -2   4   2    9.27    0.84   0
  -2   4   8   -0.37    1.65   0
  -2   5   4    1.28    1.08   0
  -2   5   5    7.22    1.32   0
  -2   2   3  426.24    2.91   0
  -2   3   2   44.07    1.06   0
  -2   3   9    7.90    1.74   0
  -2   5   3  240.72    3.44   0
  -2   1   7   23.28    1.12   0
  -2   2   9  127.20    2.89   0
  -2   5   7   57.50    2.60   0
  -2   1   5  141.98    1.88   0
  -2   1   8   13.12    1.17   0
  -2   5   2  304.53    3.48   0
  -1   4  -1 1195.60    4.41   0
  -2   1   9   80.31    2.64   0
  -2   2  10   88.46    2.99   0
  -2   1   4  166.41    2.07   0
  -2   4   1   11.21    0.75   0
  -2   6   4   49.51    2.26   0
  -2   6   5   56.48    2.55   0
  -1   3  -1   80.00    0.97   0
  -3   4   5   28.48    1.57   0
  -3   4   6    0.75    0.95   0
  -2   2   2 1591.44    5.38   0
  -2   6   3   30.31    1.76   0
  -3   3   6  111.79    2.32   0
  -3   3   7   32.35    1.57   0
  -3   4   7  133.26    3.53   0
  -2   5   1  441.82    3.75   0
  -3   3   5   20.69    1.12   0
  -3   3   8  179.77    3.40   0
  -3   4   4    5.08    0.83   0
  -3   4   8   77.60    2.64   0
  -3   5   6  193.13    3.83   0
  -2   1  10  111.35    2.86   0
  -3   5   4   26.17    1.39   0
  -3   5   7   31.75    2.01   0
  -3   3   4 1177.88    6.47   0
  -3   2   6   78.08    1.85   0
  -3   2   8  237.47    3.61   0
  -2   0   7  324.94    3.47   0
  -2   0   8  128.29    2.32   0
  -2   1   3  106.51    1.41   0
  -3   2   9   47.57    2.13   0
  -3   5   3   56.43    1.78   0
  -3   6   5  178.23    3.89   0
  -3   6   4  229.49    3.99   0
  -2   0   6  474.64    3.78   0
  -2   0   9  282.60    4.35   0
  -2   4   0    3.47    0.52   0
  -3   3   3  491.98    3.84   0
  -2   5   0  506.23    3.93   0
  -3   2  10   16.79    1.76   0
  -3   5   2   28.17    1.39   0
  -3   6   3   74.80    2.84   0
  -3   2   4   68.72    1.49   0
  -3   4   2   18.26    0.91   0
  -2   0   5  348.94    2.90   0
  -2   2   1 3804.76    7.96   0
  -3   1   8   18.51    1.51   0
  -4   4   6  184.10    3.48   0
  -4   4   8   99.96    3.02   0
  -4   5   6  356.62    5.33   0
  -4   5   7   70.20    2.88   0
  -3   1   7  410.98    4.12   0
  -3   1   9   72.84    2.56   0
  -2   3   0  864.89    4.02   0
  -4   4   5   47.60    1.79   0
  -3   6   2   16.95    1.49   0
  -4   3   7    2.25    0.95   0
  -4   3   8   13.29    1.57   0
  -3   1  10   48.20    2.53   0
  -3   3   2  275.46    2.80   0
  -4   3   6  189.71    3.31   0
  -4   5   4  170.40    3.15   0
  -3   5   1   47.46    1.59   0
  -2   1   2  512.32    2.76   0
  -4   4   4    1.79    0.83   0
  -3   4   1  532.47    4.08   0
  -4   6   4  130.12    3.13   0
  -2   0   4  707.35    3.66   0
  -4   2   8    4.84    1.47   0
  -4   5   3   47.09    1.76   0
  -4   2   9  140.98    3.67   0
  -4   2  10   38.34    2.71   0
  -4   3   4    3.94    0.79   0
  -4   4   3  144.94    2.61   0
  -4   6   3    0.44    1.40   0
  -2   4  -1  115.82    1.48   0
  -4   2   6  289.90    3.97   0
  -3   1   4   76.60    1.58   0
  -5   5   7   20.34    1.88   0
  -5   4   7    6.56    1.48   0
  -5   4   8  138.21    3.82   0
  -5   5   6   14.66    1.75   0
  -4   2   5  293.47    3.61   0
  -4   5   2    1.49    0.81   0
  -3   0   8   43.32    1.94   0
  -3   5   0  176.14    2.49   0
  -5   5   5  133.85    3.64   0
  -4   6   2   21.77    1.51   0
  -5   6   5   -0.40    1.81   0
  -4   3   3   59.60    1.69   0
  -3   0   7   12.68    0.99   0
  -2   2   0 9253.01   11.35   0
  -5   3   9   22.09    2.06   0
  -5   4   5    0.65    1.03   0
  -3   4   0   13.58    0.77   0
  -5   3   7  123.70    3.18   0
  -4   2   4  100.19    2.23   0
  -5   3   6   91.18    2.57   0
  -5   6   4   63.99    2.55   0
  -4   1   7    2.66    0.99   0
  -3   0   6  417.30    3.89   0
  -3   1   3    1.02    0.46   0
  -2   3  -1  262.88    1.98   0
  -5   4   4  110.83    2.66   0
  -4   5   1    2.39    1.02   0
  -2  -1   6  283.15    2.75   0
  -4   1   6  216.72    3.40   0
  -5   3   5   81.79    2.42   0
  -5   5   3   22.50    1.61   0
  -5   6   3   13.05    1.61   0
  -4   3   2   52.42    1.54   0
  -5   2   9   17.52    2.03   0
  -4   4   1 2042.94    8.95   0
  -3   2   1    0.95    0.41   0
  -3   3   0    0.72    0.52   0
  -5   2   7   31.76    1.93   0
  -4   2   3   63.44    1.63   0
  -6   5   6   72.81    2.92   0
  -5   3   4   35.57    1.57   0
  -5   4   3   10.37    1.15   0
  -6   4   7   39.55    2.46   0
  -6   4   6  307.93    5.36   0
  -6   5   5   30.23    2.00   0
  -5   5   2   25.27    1.62   0
  -4   5   0   97.52    2.07   0
  -3   1   2  200.48    2.21   0
  -6   3   8  136.57    4.13   0
  -5   2   5   64.23    2.18   0
  -4   3   1  936.65    5.77   0
  -3   0   4 1231.59    5.97   0
  -3   4  -1    3.64    0.53   0
  -6   3   7   48.34    2.82   0
  -6   4   5   98.05    2.94   0
  -5   3   3    0.01    0.76   0
  -4   1   4    0.17    0.65   0
  -2   0   2   73.98    1.15   0
  -4   0   8    0.22    1.21   0
  -4   2   2   91.68    1.87   0
  -6   3   6    8.62    1.54   0
  -5   1   8   27.30    2.19   0
  -5   1   9   71.24    2.97   0
  -5   6   1   43.02    2.11   0
  -4   4   0  803.99    5.56   0
  -6   4   4    1.18    1.27   0
  -6   6   3  221.55    4.24   0
  -5   2   4  429.90    4.76   0
  -5   5   1   16.03    1.34   0
   1   0  14   39.22    2.17   0
   3  -3   9  143.35    3.59   0
   3  -2  10   88.54    3.80   0
   3  -1  10  199.92    4.31   0
   3   0   9    0.25    1.87   0
   1   2  12   12.28    2.00   0
   1   3  10    8.82    2.08   0
   2   0  12    6.43    2.16   0
   2   1  11    1.45    2.01   0
  -1   4  12   40.39    2.40   0
   0   4  10    5.12    1.95   0
   1  -2  14    3.35    1.74   0
   1   1  13  275.71    4.11   0
   3   0   8   20.20    2.39   0
   0  -2  15    0.79    1.61   0
   0   3  12    0.50    1.68   0
   1  -1  14    6.53    1.65   0
   3  -2   9   57.97    2.83   0
   3  -1   9    1.70    1.78   0
   2  -2  12   10.83    1.84   0
   2   2   8   30.24    2.45   0
   0  -1  15   25.29    1.74   0
   1   3   9  211.78    4.53   0
   2   0  11    5.41    2.31   0
   2   1  10  243.49    4.79   0
   3  -1   8   58.20    2.67   0
  -2   4  13    0.03    1.62   0
   0   1  14  106.17    3.13   0
   0   2  13   48.85    2.67   0
   0   4   9    4.65    2.00   0
   1   2  11   47.81    2.92   0
   2   2   7   17.90    2.15   0
   1   0  13    1.32    1.58   0
  -1   1  15    3.24    1.64   0
  -1   3  13   87.37    2.80   0
   1   1  12    1.07    1.87   0
   1   3   8  281.06    5.08   0
   2  -2  11    3.08    2.00   0
   2   1   9    2.28    1.79   0
  -1   4  11   54.74    2.71   0
   0   3  11   28.90    2.41   0
   0   4   8    8.06    2.42   0
   1  -2  13   56.89    2.47   0
   1  -1  13   25.03    2.09   0
   2   0  10    2.12    1.77   0
  -1   2  14    2.40    1.61   0
   1   3   7  241.65    4.61   0
   2   1   8   23.00    2.07   0
  -2   2  15   46.54    1.78   0
   0  -2  14   41.14    2.57   0
   0   0  14   53.97    2.29   0
   2  -2  10   20.85    2.42   0
   0   2  12   33.25    2.72   0
   1   0  12   25.50    2.17   0
   2   0   9    9.70    1.86   0
   0  -1  14    5.16    1.91   0
   0   1  13   17.84    2.16   0
   0   3  10  103.49    3.66   0
  -2   4  12   21.03    2.33   0
  -1  -1  15   49.62    1.97   0
  -1   4  10    3.95    2.18   0
   1  -2  12   29.27    2.07   0
   1  -1  12  142.97    4.21   0
  -1   3  12   76.07    2.89   0
  -3   4  13    3.84    1.84   0
  -1   1  14   32.55    2.60   0
  -2   1  15   16.36    1.84   0
  -1   2  13    7.51    1.71   0
   0   0  13   19.49    2.09   0
   0   2  11    0.95    2.24   0
   0   3   9    3.95    2.33   0
   1   0  11   55.95    2.51   0
   1   1  10  553.72    6.74   0
   0  -2  13   35.68    2.58   0
  -3   2  15   32.74    1.67   0
   0   1  12    1.74    1.81   0
   1  -2  11   25.07    2.22   0
   1  -1  11  786.26    7.37   0
  -2   4  11    6.05    2.34   0
  -1  -2  14   11.69    1.92   0
  -1   0  14   39.95    2.17   0
  -1   3  11   56.96    3.14   0
   1   1   9  124.77    3.50   0
  -2  -1  15   53.78    2.13   0
  -1  -1  14    7.38    2.05   0
   0   3   8   40.85    2.35   0
   1   0  10    1.74    1.58   0
  -1   4   8  104.42    3.72   0
   0   2  10    7.21    2.01   0
  -1   1  13   89.91    2.93   0
  -1   2  12    3.66    1.91   0
   0   0  12   24.99    2.20   0
  -3   4  12    1.47    1.97   0
   0  -2  12    3.50    1.84   0
   0   1  11   81.73    3.09   0
  -4   4  13    0.20    1.74   0
  -3   1  15    2.57    1.46   0
  -2   1  14   64.78    2.39   0
  -1   3  10   97.56    3.64   0
   0  -1  12   15.04    1.93   0
  -4   2  15   30.39    1.55   0
  -4   5  11   12.46    1.95   0
  -2  -2  14    0.23    2.03   0
  -2   4  10    8.77    1.98   0
  -4   3  14   22.28    2.00   0
  -3  -1  15    1.16    1.52   0
  -3   0  15    5.65    1.70   0
  -2   2  13    1.52    1.72   0
  -1  -2  13   91.88    2.88   0
  -1   0  13   14.50    1.85   0
  -3   2  14   18.91    1.94   0
  -1  -1  13    6.86    1.82   0
   0   0  11   24.80    1.94   0
   0   1  10  209.32    4.15   0
  -2  -1  14   84.21    2.65   0
  -1   1  12  332.23    5.31   0
   0  -2  11   57.74    2.62   0
  -5   2  15   30.59    1.55   0
  -4  -1  15   13.48    1.80   0
  -4   1  15   52.68    2.21   0
  -1   3   9    5.66    1.90   0
   0  -1  11   63.82    2.47   0
  -3   4  11   23.27    2.37   0
  -2   4   9   30.86    2.65   0
  -5   4  13    1.35    1.52   0
  -4   0  15   41.95    1.86   0
  -2   1  13    0.68    1.59   0
   0   0  10   30.59    2.30   0
  -5   3  14    6.80    1.41   0
  -4   4  12   61.69    2.57   0
  -4   5  10   25.21    2.37   0
  -3   1  14    5.97    1.56   0
  -1  -2  12   98.52    3.04   0
  -1   0  12    4.28    1.79   0
  -1   2  10   48.47    2.78   0
  -5   0  15   42.09    1.98   0
  -5   1  15   20.47    1.53   0
  -4   2  14    7.21    1.89   0
  -2  -2  13   48.74    2.85   0
  -1  -1  12    4.61    1.68   0
  -1   1  11  517.01    7.31   0
  -5   5  11   89.37    2.95   0
  -4   3  13    1.87    1.53   0
  -3  -1  14   10.68    2.15   0
  -3   2  13    0.10    1.82   0
  -2   4   8    1.95    2.07   0
  -2   3  10   48.93    2.81   0
  -3   4  10  169.71    4.15   0
  -2   1  12    2.16    1.95   0
  -1   0  11   10.29    1.67   0
  -5   2  14   32.61    2.24   0
  -2   2  11   33.87    2.34   0
  -1  -2  11  521.91    5.83   0
  -6   5  11   46.93    2.27   0
  -5   4  12    7.10    1.82   0
  -4  -1  14   14.75    1.85   0
  -4   4  11   73.63    3.11   0
  -3   1  13    3.07    1.69   0
  -1  -1  11   55.83    2.41   0
  -5  -1  14    1.23    1.74   0
  -5   3  13   -0.45    1.56   0
  -4   0  14    0.57    1.54   0
  -2  -2  12   71.53    3.07   0
  -2   3   9    4.63    1.88   0
  -6   2  14   24.10    1.67   0
  -5   5  10    1.70    1.73   0
  -4   2  13    6.70    1.80   0
  -4   3  12   15.51    2.08   0
  -3   2  12    0.41    1.50   0
  -3   4   9  319.01    5.78   0
  -5   1  14   11.25    1.63   0
  -3  -1  13   76.68    2.62   0
  -2  -1  12    0.94    1.83   0
  -7   5  11   34.08    2.11   0
  -5   0  14    0.62    1.53   0
  -2   1  11   22.47    2.10   0
  -2   2  10   76.39    3.15   0
  -6   0  14   68.79    2.05   0
  -6   1  14   20.02    1.72   0
  -6   3  13    6.73    1.54   0
  -6   4  12   13.00    1.75   0
  -7   3  13    3.04    1.71   0
  -4   1  13   37.29    2.12   0
  -4   4  10   23.48    2.32   0
  -7   4  12  217.97    3.66   0
  -5   2  13  141.17    3.29   0
  -5   4  11    6.11    1.76   0
  -3   1  12   15.19    1.94   0
  -3   4   8   64.38    3.05   0
  -6   5  10    0.62    1.67   0
  -5   3  12   59.98    2.98   0
  -5   5   9   25.66    2.21   0
  -4  -1  13   71.23    2.76   0
  -4   0  13   27.19    2.51   0
  -3   2  11    2.04    1.55   0
  -4   2  12  121.44    3.44   0
  -2  -1  11    5.27    1.87   0
  -6   2  13   22.78    2.19   0
  -5  -1  13  132.37    3.19   0
  -3  -1  12    0.74    1.72   0
  -7   0  13    0.95    1.68   0
  -7   2  13    3.28    1.79   0
  -5   1  13   20.11    2.02   0
  -7   5  10   26.77    1.87   0
  -6   4  11   97.84    2.92   0
  -5   0  13    3.22    2.00   0
  -4   4   9   40.18    2.58   0
  -3   3   9   -0.99    1.59   0
  -6   1  13   45.97    2.66   0
  -6   3  12  206.84    3.84   0
  -5   4  10   10.45    2.31   0
  -4   1  12   27.30    2.46   0
  -3   1  11   79.31    2.97   0
  -8   3  12   40.15    1.80   0
  -5   5   8    4.59    1.56   0
  -3   2  10   20.64    1.96   0
  -8   4  11    1.47    1.55   0
  -7   3  12   48.84    2.17   0
  -7   4  11    5.49    1.77   0
  -6   5   9   38.74    2.27   0
  -5   3  11    9.24    2.14   0
  -4  -1  12    0.01    1.90   0
  -4   2  11  157.41    4.29   0
  -8   2  12   16.43    1.85   0
  -3  -1  11    0.37    1.49   0
  -6   2  12    1.33    1.55   0
  -5   1  12    6.02    1.72   0
  -4   4   8   98.37    3.01   0
  -9   4  10   72.19    2.29   0
  -7   2  12   28.57    2.32   0
  -7   5   9   18.70    1.98   0
  -6  -1  12    8.46    1.82   0
  -6   4  10  160.77    3.75   0
  -5  -1  12   77.62    2.66   0
  -8   5   9    6.94    1.64   0
  -7   0  12    0.70    1.83   0
  -6   3  11   28.76    2.27   0
  -5   0  12   15.44    2.00   0
  -5   4   9   71.69    3.02   0
  -4   1  11    2.14    1.43   0
  -3   1  10   49.38    2.55   0
  -7   1  12   83.27    2.96   0
  -6   1  12   42.06    2.37   0
  -6   5   8   10.10    1.87   0
  -8   3  11   12.98    1.79   0
  -7   3  11    0.59    1.52   0
  -7   4  10   12.60    1.79   0
  -6   0  12   -0.30    1.62   0
  -5   3  10   76.44    3.04   0
  -4   2  10   42.85    2.50   0
  -4   3   9   88.28    3.34   0
  -8   0  11  148.85    2.90   0
  -8   4  10   86.23    2.55   0
  -4  -1  11   46.39    2.55   0
  -9   5   8   44.62    2.22   0
  -7  -1  11   11.40    1.89   0
  -9   3  10    4.63    1.52   0
  -8   2  11   26.89    2.21   0
  -7   5   8  119.42    3.50   0
  -6   2  11   25.68    1.98   0
  -5   1  11    0.64    1.71   0
  -6   4   9   -0.76    1.76   0
  -5  -1  11  168.11    3.76   0
  -5   4   8  149.56    3.86   0
  -9   2  10   44.75    2.12   0
  -9   4   9   52.80    2.12   0
  -8   5   8   41.34    2.21   0
  -7   2  11    1.40    1.86   0
  -6  -1  11   10.60    2.05   0
  -6   3  10   86.74    3.01   0
  -6   5   7   15.46    2.35   0
  -5   0  11    4.16    1.76   0
  -4   1  10  134.50    3.27   0
  -7   0  11   14.79    2.25   0
  -6   1  11   51.87    2.90   0
  -5   2  10   11.38    2.04   0
  -8   3  10   36.96    2.30   0
  -8   4   9   -0.40    2.05   0
  -7   1  11  106.02    3.03   0
  -7   3  10   49.16    2.50   0
  -7   4   9    1.67    1.84   0
  -6   0  11   51.04    2.57   0
  -4  -1  10   65.76    2.84   0
  -9   5   7   54.74    2.24   0
  -8  -1   9   16.47    2.12   0
  -8   0  10    3.20    2.18   0
  -9   3   9   18.64    1.78   0
  -8   2  10  216.03    4.37   0
  -7  -1  10   20.08    2.14   0
  -7   5   7   19.56    2.03   0
  -6   2  10   64.82    2.74   0
  -6   4   8   79.90    2.91   0
  -9   4   8   35.69    2.40   0
  -8   1  10   49.76    2.58   0
  -8   5   7   55.65    2.75   0
  -5   1  10  149.26    3.54   0
  -5   4   7    7.63    1.65   0
  -9   2   9    4.22    2.01   0
  -7   2  10  129.26    3.39   0
  -6   3   9  341.16    5.26   0
  -5  -1  10  148.55    3.69   0
  -5   0  10   58.10    2.84   0
  -6  -1  10  134.39    3.50   0
  -6   1  10   10.35    2.20   0
  -5   2   9   18.23    1.85   0
  -8   3   9   35.66    2.26   0
  -8   4   8    1.75    1.70   0
  -7   0  10   17.65    2.09   0
  -7   1  10   20.40    2.31   0
  -7   3   9  303.52    5.02   0
  -6   0  10  160.55    3.99   0
 -10   4   6   33.11    2.09   0
  -9   5   6   22.17    1.90   0
  -9   3   8    1.73    1.89   0
  -8   0   9   31.13    2.65   0
  -7   5   6   14.55    1.94   0
  -9   4   7   24.76    2.31   0
  -8  -1   8    9.23    1.92   0
  -8   2   9   73.75    2.79   0
  -8   5   6   30.08    2.20   0
  -7  -1   9   81.39    3.42   0
  -6   2   9    7.49    1.67   0
  -6   4   7   39.22    2.33   0
  -8   1   9   11.57    1.93   0
  -7   2   9  251.56    5.12   0
  -5   1   9  114.59    3.18   0
  -9   0   7    1.00    1.96   0
  -9   2   8   53.46    2.43   0
  -5  -1   9    3.26    1.95   0
 -10   4   5    2.55    1.74   0
  -9   5   5    0.90    2.00   0
  -8   3   8   86.78    3.04   0
  -8   4   7   18.41    2.05   0
  -7   3   8    4.32    2.19   0
  -7   4   7   60.24    2.72   0
  -6  -1   9   41.43    2.36   0
  -5   0   9  202.41    4.13   0
  -7   0   9    0.84    1.90   0
  -7   1   9    8.74    1.91   0
  -6   1   9  135.53    3.61   0
  -9   3   7    6.93    2.19   0
  -7   5   5   30.33    2.25   0
  -6   0   9  228.51    4.41   0
  -9   4   6   21.68    2.20   0
  -8  -1   7    1.69    2.25   0
  -8   0   8   81.00    3.08   0
  -8   2   8    8.37    2.35   0
  -8   5   5   -0.86    1.91   0
  -6   4   6  279.91    5.09   0
 -10   3   5   72.47    2.33   0
 -10   4   4   -1.51    1.83   0
  -9   0   6   -0.49    2.01   0
  -9   1   7   17.51    2.02   0
  -7  -1   8  111.48    3.84   0
  -6   2   8   74.83    2.71   0
  -9   2   7  213.63    3.96   0
  -9   5   4    1.22    2.09   0
  -8   1   8   42.38    2.48   0
  -7   2   8    2.11    1.79   0
  -8   3   7   13.81    2.13   0
  -8   4   6  106.77    3.40   0
  -7   4   6   14.66    1.98   0
  -7   0   8   48.08    2.72   0
  -7   1   8    1.61    2.28   0
  -7   3   7  121.74    3.54   0
  -6  -1   8   30.63    2.34   0
  -5  -1   8   48.82    2.41   0
 -10   3   4    6.73    1.68   0
 -10   4   3   74.46    2.52   0
  -9   3   6   28.19    2.25   0
  -9   4   5   -0.13    1.89   0
  -8   5   4    0.34    2.16   0
  -6   1   8    1.47    1.53   0
  -9   0   5   21.34    2.29   0
  -9   1   6   -0.95    1.90   0
  -9   5   3    5.59    2.02   0
  -8  -1   6   83.81    3.04   0
  -8   0   7    1.28    2.03   0
  -6   0   8   38.88    2.43   0
  -8   2   7   65.39    2.77   0
 -10   3   3    9.47    1.95   0
 -10   4   2  103.65    2.64   0
  -8   1   7  134.44    3.93   0
  -7  -1   7    1.94    2.03   0
  -6   2   7   12.60    1.86   0
  -8   3   6   32.80    2.54   0
  -8   4   5    8.81    2.04   0
  -7   2   7  132.65    3.63   0
  -7   4   5  151.88    4.18   0
  -9   0   4  198.22    3.57   0
  -9   3   5   91.41    3.23   0
  -9   4   4    3.98    2.02   0
  -9   5   2   47.20    2.53   0
  -8   5   3   73.95    3.04   0
  -7   3   6  357.15    5.14   0
 -10   3   2    4.37    1.90   0
  -9   1   5   10.59    1.88   0
  -8  -1   5   49.45    2.91   0
  -8   0   6   18.29    2.75   0
  -7   0   7  220.59    4.81   0
  -7   1   7   -0.04    1.65   0
  -6  -1   7   55.47    2.71   0
  -9   2   5   -0.04    1.88   0
  -8   2   6  153.60    4.48   0
  -6   1   7   60.47    2.74   0
  -8   1   6   86.53    3.18   0
  -6   0   7   43.48    2.58   0
  -9   0   3   53.63    2.37   0
  -9   3   4   68.79    3.21   0
  -9   4   3    3.98    2.34   0
  -9   5   1    3.96    2.04   0
  -8   4   4   95.06    3.17   0
  -7  -1   6   13.63    2.13   0
  -9   1   4    6.91    1.91   0
  -8   3   5  134.69    3.84   0
  -8   5   2  155.53    4.02   0
  -7   2   6  284.85    5.08   0
  -7   4   4   86.44    3.29   0
  -9   0   2   89.57    2.76   0
  -9   2   4    2.26    1.67   0
  -8  -1   4   11.34    2.24   0
  -8   0   5    1.50    2.09   0
  -7   1   6    1.81    1.65   0
  -9   4   2    9.44    2.38   0
  -8   2   5    1.78    1.76   0
  -6  -1   6  202.18    4.60   0
  -9   1   3    5.59    1.83   0
  -9   3   3  174.29    4.13   0
  -8   1   5  125.15    3.89   0
   0   1  -3  453.48    2.55   0
  -3   1  -9   -0.31    1.79   0
  -2   2  -6    1.15    0.80   0
  -2   2  -5  110.39    1.96   0
   2   0  -9  249.75    5.75   0
  -3   2  -6  311.96    3.68   0
  -2   1 -10   42.36    2.91   0
  -2   2  -4  234.98    2.42   0
   0   1 -10   80.94    4.03   0
   1   1  -7  169.74    3.12   0
  -3   2  -7  265.46    4.25   0
  -2   2  -8   47.21    2.76   0
  -1   2  -7  112.10    2.35   0
  -1   2  -6  320.63    3.39   0
   2   0 -10    6.52    1.70   0
  -1   2  -8   50.58    2.50   0
   1   1  -9   40.88    2.33   0
   1   1  -5  975.87    5.09   0
  -3   2  -8   89.65    2.81   0
  -1   2  -5   52.05    1.31   0
   0   1 -11   65.62    3.26   0
  -2   2  -9   56.54    2.81   0
  -1   2  -9   54.86    2.81   0
   1   1 -10   15.40    1.99   0
  -2   2  -3    5.33    0.42   0
  -3   2  -9   53.98    2.80   0
  -2   2 -10   16.86    2.12   0
  -1   2 -10   21.08    2.31   0
   0   2  -8  153.01    3.16   0
   0   2  -7    1.70    0.77   0
   1   1 -11   49.09    3.21   0
   1   1  -4   74.44    1.29   0
   0   1  -2   42.10    0.64   0
   0   2  -9  310.75    5.13   0
   0   2  -6  376.43    3.77   0
  -1   2 -11   25.60    2.81   0
   0   2 -10  127.07    4.65   0
   2   1  -9  200.90    4.67   0
   2   1  -8  114.11    2.74   0
   2   1 -10   30.58    2.63   0
   3   0 -10  161.66    4.65   0
  -1   2  -3   11.40    0.51   0
   0   2 -11   71.83    3.35   0
  -3   3  -7   36.57    1.63   0
  -3   3  -6    2.17    0.99   0
  -2   3  -8    3.32    1.27   0
  -2   3  -7  164.51    3.07   0
   2   1 -11    4.41    2.21   0
  -3   3  -8    3.63    1.41   0
  -2   2  -2   41.13    0.75   0
  -2   3  -9  187.11    3.91   0
  -2   3  -6   24.53    1.18   0
   1   2  -9    2.70    1.17   0
   1   2  -8    0.38    0.85   0
   2   1  -6  299.94    3.67   0
  -3   3  -5   79.97    1.86   0
  -1   3  -8   22.20    1.58   0
   1   2  -7   13.19    1.13   0
  -2   3  -5    5.07    0.64   0
  -1   3  -9   35.26    2.07   0
   0   2  -4  942.29    4.63   0
   1   1  -3   55.68    0.96   0
  -1   3  -6  542.22    4.85   0
   1   2 -11  441.71    8.64   0
   1   2  -6  377.03    3.91   0
  -3   3  -4   38.82    1.13   0
   2   1  -5  213.87    2.56   0
   0   3  -9  163.12    3.58   0
   0   3  -8  555.90    6.45   0
   0   3 -10   15.60    1.84   0
   0   3 -11   15.95    2.29   0
   0   3  -7   12.93    1.10   0
   1   2  -5  147.04    2.25   0
  -1   2  -2  518.53    2.56   0
   2   2 -10   34.17    2.68   0
   2   2  -9   48.05    2.54   0
   3   1 -11   -0.35    2.12   0
   0   2  -3  732.92    3.63   0
   0   3  -6  165.01    2.84   0
   2   2 -11   15.67    2.12   0
   2   2  -8   26.91    1.63   0
  -2   4  -8  192.74    4.35   0
  -3   4  -9    4.52    2.03   0
  -3   4  -8   35.37    2.02   0
  -3   4  -7  153.31    3.14   0
  -2   4  -9   74.61    3.06   0
  -1   3  -4  621.14    4.13   0
   1   3 -10   22.20    2.59   0
   1   3 -11    0.57    1.75   0
   2   1  -4   25.10    0.80   0
   2   2  -7   39.31    1.70   0
  -2   3  -3    2.64    0.41   0
  -1   4  -9  130.74    3.70   0
  -1   4  -8   32.95    1.78   0
   1   3  -8  128.28    3.50   0
  -2   4  -6  120.48    2.48   0
   1   2  -4  183.30    2.14   0
   1   3  -7   51.95    1.86   0
  -3   4  -5   86.48    2.01   0
   2   2  -6   74.63    1.88   0
   3   0  -4 1075.20    4.50   0
   3   1  -6  162.32    2.61   0
  -2   4  -5  190.52    2.86   0
  -1   4  -6   36.60    1.56   0
   0   4 -10    0.92    1.66   0
   0   4  -9    8.19    1.50   0
   0   4  -8   60.79    2.60   0
   1   3  -6  680.62    5.65   0
  -1   3  -3  110.20    1.49   0
   3   2 -10    0.41    1.56   0
   0   4  -7  112.56    2.79   0
  -3   4  -4   28.36    1.18   0
   0   2  -2  151.00    1.44   0
   2   2  -5    6.01    0.85   0
   2   3  -9   26.17    2.05   0
  -3   3  -2   90.31    1.24   0
  -2   5  -9   18.98    2.11   0
  -1   4  -5  998.93    6.36   0
  -3   5  -8   15.19    1.84   0
  -2   3  -2  363.81    2.44   0
   1   3  -5  434.16    4.06   0
   1   4 -10    6.91    1.86   0
   2   3  -8   49.80    2.20   0
  -3   5  -7  179.58    3.43   0
   0   4  -6   62.71    1.88   0
   1   4  -9    0.72    1.38   0
   3   1  -5   40.72    1.11   0
  -2   5  -7  130.76    2.95   0
  -1   2  -1   81.52    0.87   0
   1   4  -8  295.45    4.57   0
   2   3  -7  138.68    3.02   0
   3   2  -7  117.10    2.66   0
  -3   5  -6   83.50    2.20   0
  -2   5  -6    3.12    1.19   0
   0   4  -5   11.93    1.02   0
   1   4  -7  238.31    4.19   0
  -3   4  -3    0.53    0.45   0
  -1   3  -2   66.33    1.12   0
   2   2  -4  351.09    3.23   0
  -2   4  -3  504.48    3.87   0
   1   3  -4    1.31    0.56   0
   2   3  -6  205.75    3.20   0
  -2   5  -5    0.08    0.99   0
  -1   5  -6  244.26    3.92   0
   1   4  -6  158.88    3.08   0
   0   5  -7   44.94    2.19   0
   2   4  -9  819.91    8.68   0
  -1   4  -3  327.46    3.19   0
   0   4  -4    1.43    0.63   0
   3   1  -4  584.74    3.76   0
  -2   6  -8   51.72    2.42   0
  -1   5  -5  372.77    4.42   0
  -3   6  -7    6.32    1.88   0
   1   2  -2  971.55    3.95   0
   1   5  -9   90.28    3.40   0
   2   3  -5  619.71    4.96   0
  -2   3  -1  267.88    1.97   0
  -2   5  -4  104.95    2.16   0
   0   2  -1  859.30    3.16   0
   0   5  -6    4.13    1.06   0
  -3   4  -2  145.24    1.87   0
  -1   6  -8   10.01    1.77   0
   0   3  -2  243.68    2.12   0
   1   3  -3   64.38    1.37   0
   1   5  -8   62.09    2.68   0
   2   4  -7  102.56    2.91   0
   3   2  -5  604.56    4.81   0
  -3   6  -6    5.00    1.55   0
  -2   4  -2   28.20    0.95   0
   1   1  -1  396.86    1.76   0
   3   3  -7    0.93    1.09   0
  -2   6  -6    9.99    1.53   0
  -1   5  -4   41.54    1.60   0
   2   1  -2   37.61    0.71   0
   0   4  -3  430.66    4.04   0
   0   5  -5  308.69    4.08   0
   1   5  -7   88.17    2.83   0
  -3   5  -3    0.66    0.74   0
  -1   3  -1   80.78    1.11   0
   2   4  -6   -0.39    1.29   0
  -3   6  -5  332.52    4.30   0
  -1   4  -2   13.34    0.71   0
  -1   6  -6  152.59    3.51   0
   1   4  -4   85.26    2.04   0
   2   3  -4   28.57    1.26   0
  -2   6  -5    0.86    1.05   0
   1   5  -6   12.98    1.53   0
   3   3  -6    8.61    1.15   0
   0   6  -7  359.99    5.52   0
   0   5  -4  146.81    2.96   0
   3   2  -4   22.55    1.04   0
  -1   5  -3   53.24    1.68   0
  -1   6  -5  115.30    3.04   0
   2   4  -5  512.71    5.52   0
  -1   2   0    2.05    0.20   0
   0   6  -6    0.32    1.60   0
   1   3  -2  111.13    1.65   0
  -2   4  -1  134.60    1.83   0
  -2   6  -4    1.04    0.99   0
   0   3  -1   66.21    1.13   0
   0   4  -2  853.47    5.11   0
   1   5  -5   55.33    2.19   0
  -3   4  -1    3.72    0.52   0
  -3   5  -2   19.76    1.06   0
  -2   5  -2   11.95    0.97   0
   1   2  -1  463.03    2.54   0
   1   4  -3   69.02    1.71   0
   2   5  -7    1.20    1.60   0
   3   3  -5    0.74    0.91   0
   3   4  -7   21.86    2.07   0
   2   2  -2   90.42    1.35   0
   2   3  -3  491.34    3.91   0
  -1   4  -1 1393.47    5.68   0
  -1   6  -4  278.90    4.29   0
   0   5  -3  204.71    3.31   0
  -3   6  -3  106.67    2.72   0
   0   6  -5  163.12    3.51   0
   2   4  -4  141.57    2.81   0
  -2   6  -3  119.21    2.68   0
  -1   5  -2    6.70    0.80   0
   1   5  -4    0.27    0.87   0
   2   5  -6  625.41    7.33   0
  -3   7  -5  236.26    3.91   0
  -2   7  -5   11.80    1.90   0
  -1   3   0   -0.02    0.34   0
   0   2   0   -0.02    0.21   0
   1   6  -6  141.40    3.81   0
   3   2  -3    7.15    0.74   0
  -1   6  -3   84.33    2.47   0
   0   6  -4   52.20    2.23   0
   3   3  -4    0.14    0.88   0
   0   4  -1   85.31    1.58   0
   1   3  -1  115.59    1.63   0
   1   4  -2    4.95    0.71   0
   2   5  -5    0.72    1.77   0
  -3   3   0    0.84    0.31   0
  -3   5  -1    8.01    0.81   0
  -2   5  -1   11.34    0.82   0
   0   5  -2  210.99    3.10   0
   2   1  -1  926.64    3.18   0
   2   3  -2  168.36    2.37   0
  -3   6  -2   19.20    1.46   0
  -2   6  -2  322.18    4.36   0
  -2   7  -4  231.82    4.07   0
   1   5  -3   62.93    2.22   0
   1   6  -5  241.33    4.60   0
   2   4  -3  101.84    2.33   0
   3   4  -5   78.52    2.50   0
  -2   4   0    3.31    0.48   0
  -1   5  -1   64.88    1.73   0
   0   3   0  823.59    3.76   0
   1   1   0  389.75    1.86   0
   3   1  -2    4.80    0.47   0
  -3   4   0   15.03    0.69   0
  -1   4   0  138.89    1.82   0
  -1   6  -2    3.45    1.10   0
  -1   7  -4    1.33    1.43   0
   0   6  -3  197.73    3.88   0
   2   2  -1    4.30    0.43   0
  -3   7  -3   82.42    2.55   0
   1   2   0   45.39    0.84   0
   1   6  -4  371.96    5.81   0
   2   5  -4  175.29    4.03   0
   3   3  -3  329.71    3.62   0
  -2   7  -3  123.58    3.04   0
   0   5  -1   68.98    2.00   0
   1   4  -1  210.71    2.76   0
   3   4  -4   50.06    2.12   0
  -3   6  -1  228.07    3.78   0
  -2   6  -1    4.67    1.20   0
   0   4   0  164.92    2.19   0
   2   4  -2    1.04    1.01   0
   3   2  -2   14.72    0.74   0
  -1   7  -3   -0.59    1.38   0
  -3   5   0  171.24    2.43   0
  -1   2   1 1290.40    3.64   0
  -1   3   1    0.55    0.33   0
   0   6  -2   23.62    1.64   0
   1   3   0   28.64    0.90   0
   2   3  -1  154.63    2.20   0
  -3   7  -2    4.16    1.33   0
  -2   3   1    3.24    0.36   0
  -1   5   0   30.09    1.26   0
  -1   6  -1   63.00    1.96   0
   1   6  -3   15.89    1.72   0
   0   2   1  170.14    1.53   0
   3   3  -2  912.31    5.81   0
   3   4  -3  228.51    4.23   0
  -1   4   1   64.74    1.34   0
  -1   7  -2   80.17    2.86   0
   0   3   1 1446.86    5.26   0
   0   5   0  269.34    3.50   0
   1   4   0   27.17    1.15   0
  -3   6   0  279.75    3.85   0
  -2   6   0    3.46    1.00   0
   0   6  -1   18.95    1.50   0
   1   6  -2    0.02    1.60   0
   2   2   0  538.96    3.22   0
  -3   4   1  490.09    3.43   0
  -3   7  -1    0.21    1.22   0
  -2   5   1  495.22    4.24   0
  -2   7  -1  156.23    3.38   0
   0   4   1   27.06    1.14   0
   2   1   0 2220.73    5.60   0
   2   5  -2    4.46    1.39   0
  -1   6   0    0.88    0.98   0
   1   2   1   62.60    1.08   0
   3   1  -1 1128.89    4.26   0
   3   2  -1   21.02    0.85   0
  -3   5   1   49.14    1.50   0
  -1   5   1    3.09    0.70   0
   2   3   0  509.39    3.87   0
   1   3   1   57.19    1.27   0
   1   5   0  340.06    4.45   0
   1   1   1  138.74    1.34   0
   1   6  -1   -0.45    1.60   0
  -3   7   0  123.45    3.52   0
  -2   6   1    0.48    0.99   0
  -2   7   0  121.23    3.13   0
  -1   4   2    0.48    0.54   0
   1   4   1  112.52    2.23   0
   2   5  -1    6.43    1.53   0
  -3   6   1   24.78    1.46   0
  -2   4   2    9.59    0.69   0
   2   4   0  346.92    4.01   0
  -2   3   2   47.90    1.02   0
  -1   6   1   17.72    1.54   0
  -2   5   2  312.78    3.57   0
  -1   2   2   24.12    0.63   0
   0   2   2  650.44    3.34   0
   0   4   2  212.26    2.69   0
  -1   5   2   93.86    2.21   0
   2   3   1   79.81    1.75   0
   3   2   0   11.07    0.82   0
  -3   4   2   16.17    0.85   0
  -3   5   2   27.90    1.19   0
   0   6   1  343.90    5.04   0
   1   3   2  337.97    3.15   0
   1   5   1   33.85    1.86   0
  -3   7   1   29.14    2.18   0
  -2   6   2  137.90    3.28   0
  -2   7   1   59.94    2.47   0
   0   5   2    2.36    0.95   0
   2   5   0    8.10    1.64   0
   3   1   0   59.98    1.22   0
   1   4   2    8.95    1.15   0
  -3   6   2   16.68    1.58   0
  -1   4   3  574.13    4.78   0
  -1   6   2   25.17    1.82   0
  -2   4   3    2.87    0.74   0
  -2   5   3  231.30    3.54   0
   0   3   3    5.24    0.68   0
   3   4   0   15.13    1.68   0
  -1   5   3  197.51    3.26   0
  -2   3   3  328.40    3.06   0
   0   6   2  336.05    5.39   0
   1   1   2   23.37    0.66   0
   2   3   2   53.77    1.61   0
   2   5   1   16.96    2.03   0
  -3   7   2    2.16    1.64   0
   3   2   1   56.12    1.54   0
  -3   5   3   54.83    1.75   0
   1   3   3  235.28    3.11   0
   3   3   1    1.62    1.01   0
  -3   4   3   20.51    1.05   0
  -1   6   3   41.25    2.11   0
   1   4   3   12.64    1.17   0
   2   4   2  487.27    5.93   0
  -3   6   3   78.46    2.56   0
  -6   6  -5    5.92    3.54   0
  -6   9  -5    2.97    2.53   0
  -6   8  -6    5.49    2.67   0
  -6   9  -4   -0.09    2.31   0
  -6   9  -3    0.50    2.35   0
  -5   4  -5   45.06    4.75   0
  -5   9  -8   11.00    2.77   0
  -6   6  -4    2.13    2.53   0
  -4   4  -8  101.21    5.66   0
  -4   6 -10  100.83    5.19   0
  -6   6  -1    2.21    2.30   0
  -6   8  -5    1.03    2.52   0
  -6   6  -2    0.14    2.12   0
  -6   8  -4   47.72    3.89   0
  -5   7  -8    7.76    3.38   0
  -4   7 -10   13.64    2.92   0
  -6   7  -4   37.21    3.66   0
  -6   7  -3    5.54    2.96   0
  -5   5  -6    4.84    2.43   0
  -5   8  -8  141.03    4.75   0
  -3   6 -11  128.85    4.66   0
  -5   6  -7  285.06    7.49   0
  -4   4  -7  153.40    6.09   0
  -5   5  -5   51.77    3.91   0
  -5   8  -7    7.43    2.74   0
  -5   9  -6   10.02    2.58   0
  -4   6  -9   -0.69    2.55   0
  -3   4  -9    4.56    2.54   0
  -3   5 -10   45.71    3.31   0
  -5   7  -7   82.16    4.30   0
  -5   9  -5   68.09    3.71   0
  -5   9  -2    1.63    1.89   0
  -4   8  -9    2.93    1.89   0
  -4  10  -5   35.32    2.38   0
  -5   9  -4   26.53    3.06   0
  -5   9  -3   37.58    3.02   0
  -4   9  -8   48.16    2.62   0
  -5   6  -5   72.07    3.91   0
  -5   7  -6    1.75    2.07   0
  -5   8  -6    0.78    2.20   0
  -5   7  -5  107.07    4.74   0
  -5   8  -5   21.38    2.76   0
  -3   7 -10   -0.54    2.43   0
  -3   9  -9   71.84    3.21   0
  -2   8 -11   92.36    2.90   0
  -1   7 -12    3.73    2.31   0
  -5   8  -4  102.34    4.17   0
  -5   8  -2   14.35    2.82   0
  -4   7  -8   12.85    2.42   0
  -4   8  -8    5.24    1.96   0
  -4   9  -7   19.33    2.37   0
  -3   5  -9    8.41    2.47   0
  -5   6  -2    2.18    1.98   0
  -2   7 -11   10.29    2.39   0
  -5   7  -3   15.42    2.37   0
  -5   7  -2   36.94    2.91   0
  -4   6  -7  260.29    6.82   0
  -4   8  -7   23.85    2.98   0
  -4   9  -6   66.43    3.31   0
  -4   7  -7   50.48    3.59   0
  -4   9  -2    4.61    2.35   0
  -3   8  -9    0.41    1.99   0
  -3   9  -8  180.30    4.29   0
  -2   5 -10    0.77    2.54   0
  -4   9  -4  101.07    4.00   0
  -4   9  -3   70.95    3.65   0
  -1   8 -11    0.34    1.73   0
  -4   6  -6   79.16    3.83   0
  -4   8  -6    0.67    2.31   0
  -3   5  -8    9.77    2.33   0
  -2   9  -9   11.82    2.02   0
  -4   7  -6  165.01    5.48   0
  -3   9  -7   31.31    2.58   0
  -2   6 -10    1.46    1.96   0
  -4   6  -5   36.51    3.15   0
  -4   8  -5    7.26    2.34   0
  -3   8  -8    3.05    1.99   0
  -1   6 -11   -1.03    2.29   0
  -1   7 -11   13.72    2.21   0
   0   8 -11    1.71    1.82   0
  -4   7  -5   16.20    2.33   0
  -4   8  -4    0.48    2.23   0
  -3   7  -8  104.61    4.31   0
  -2   9  -8    0.31    2.06   0
  -1   9  -9   54.48    2.55   0
  -4   8  -3   33.99    2.94   0
  -4   8  -2   27.65    2.63   0
  -2   5  -9   18.88    2.39   0
  -3   9  -2    9.27    2.11   0
  -4   7  -1  108.83    4.45   0
   4   1   8    1.38    1.23   0
   4   4   6    1.93    1.18   0
   4   5  -1    2.57    1.76   0
   5   0   4   -0.36    1.25   0
   5   3   0   62.24    2.36   0
   5   3   3    1.27    1.42   0
   4   3   7   49.84    1.78   0
   4   5   3    6.83    1.46   0
   5   2   4    2.07    1.68   0
   5   3   1    9.72    1.68   0
   5   3   2    1.37    1.39   0
   3   3   9    8.01    1.27   0
   4   0   7    2.86    1.37   0
   4   5   0   51.45    2.09   0
   5   1   4   13.65    1.64   0
   3   4   8  170.02    2.36   0
   3   6   4  292.70    3.02   0
   4   4  -2  120.99    2.77   0
   4   5   1  515.87    4.84   0
   5   1   2  201.65    3.93   0
   5   1   3   20.94    1.60   0
   5   2   1   93.56    2.84   0
   5   2   2   31.48    1.89   0
   5   2   3   89.63    2.69   0
   4   2   7   -0.26    1.33   0
   4   4   5    4.26    1.49   0
   3   2   9   19.50    1.70   0
   4   0   6   82.69    2.59   0
   4   3   6  377.50    4.36   0
   3   5   6    0.49    1.30   0
   3   6   0  252.04    3.70   0
   4   4  -1   33.87    1.89   0
   4   4   4    0.30    1.77   0
   2   7   3  163.22    2.58   0
   3   6   1    2.80    1.87   0
   3   6   2    1.57    1.50   0
   4   1   6  119.80    2.76   0
   4   2   6   -0.58    1.36   0
   4   4   0    6.05    1.55   0
   4   4   3    0.39    1.54   0
   2   7   1  252.29    3.48   0
   2   7   2   43.43    1.79   0
   3   3   8   57.52    1.95   0
   3   4   7  143.21    2.57   0
   4   3  -1   17.52    1.67   0
   4   3   5  357.00    4.36   0
   4   4   2   69.37    2.45   0
   2   4   9   55.54    1.91   0
   2   6   6    3.25    1.24   0
   3   5   5    3.90    1.50   0
   3   2   8   17.39    1.77   0
   4   1   5   52.17    2.07   0
   4   3   0    3.56    1.39   0
   4   3   4  109.71    2.77   0
   3   5  -1   97.05    2.97   0
   4   3   1   40.42    2.20   0
   4   3   3   35.47    1.99   0
   3   4   6   29.11    2.22   0
   3   5   4   39.04    1.98   0
   4   2   4   19.86    1.63   0
   4   3   2    2.80    1.39   0
   2   6   5   -1.95    1.61   0
   3   3   7    9.89    1.65   0
   4   2   3  335.48    4.62   0
   1   4  10   12.65    1.55   0
   2   3   9   12.38    1.87   0
   2   5   7  208.05    3.04   0
   3   5   0  301.18    4.20   0
   3   5   1  145.58    3.36   0
   3   5   3   27.15    1.94   0
   1   5   9    6.75    1.34   0
   1   7   5    1.38    1.58   0
   3   1   7  502.68    4.94   0
   3   2   7    6.03    1.62   0
   2   2   9   22.84    1.89   0
   2   4   8   26.87    1.64   0
   2   6   4    0.39    1.78   0
   3   4   5   51.95    2.15   0
   0   8   4    3.55    1.48   0
   3   3   6   51.55    2.18   0
   1   6   7   53.29    1.99   0
   2   6   0   43.93    2.53   0
   3   4   4   44.21    2.26   0
   0   7   7  264.63    2.93   0
   1   3  10   11.01    1.68   0
   2   5   6  348.38    4.23   0
   2   6   1   24.24    2.10   0
   2   6   2   10.26    2.08   0
   3   2   6  127.40    2.85   0
   3   4   0   13.07    1.54   0
   3   4   3  114.91    3.09   0
   0   5  10   41.86    1.59   0
   0   8   3   61.44    2.17   0
   2   3   8    6.63    1.81   0
   3   3   5   37.84    1.87   0
   3   4   1    2.37    1.47   0
   3   4   2   27.77    1.84   0
   0   8   2    4.85    1.70   0
   1   7   3    0.02    1.63   0
   2   4   7   13.15    1.90   0
  -1   5  11    3.83    1.31   0
  -1   6  10   25.72    1.32   0
   1   4   9    7.33    1.79   0
   1   7   1    2.03    1.62   0
   1   7   2    9.17    1.78   0
   2   2   8   27.18    1.99   0
   3   3   4   91.46    2.58   0
  -1   8   6    0.64    1.19   0
   1   6   6   13.34    1.76   0
   3   3   3   80.95    2.45   0
   2   5   4   78.49    2.91   0
   0   6   8   10.39    1.52   0
   2   3   7   75.03    2.43   0
   2   4   6   48.06    2.16   0
  -1   7   8    1.82    1.29   0
   1   3   9  208.52    3.43   0
   1   6   5    2.43    1.60   0
   2   5   0    7.84    1.50   0
   2   5   3    4.87    1.63   0
  -2   9   3   17.42    1.63   0
   0   4  10    4.49    1.43   0
   1   5   7   62.87    2.31   0
   2   2   7   15.25    1.53   0
   2   5   1   17.30    1.76   0
   0   5   9   12.74    1.54   0
   1   4   8    0.32    1.56   0
   2   4   5   36.44    2.00   0
  -2   8   7    4.44    1.46   0
   1   6   4   99.57    2.88   0
  -2   7   9    1.29    1.19   0
   0   6   7   23.03    1.93   0
   2   4   4   70.67    2.43   0
  -1   8   4   16.89    1.63   0
   1   5   6   94.73    2.78   0
   1   6   0  237.11    3.95   0
  -1   5  10   32.62    1.69   0
  -1   7   7   42.70    1.87   0
   1   6   1    6.15    1.75   0
   1   6   2   52.37    2.24   0
   2   3   5   19.02    1.55   0
   2   4   3  206.18    3.52   0
  -3   6  11   27.23    1.41   0
  -2   5  11   10.93    1.54   0
  -2   6  10    2.49    1.48   0
  -1   8   3    2.39    1.72   0
   0   7   0    0.30    1.92   0
   0   7   3    3.32    1.61   0
  -1   8   2   27.25    2.03   0
   0   4   9    6.89    1.41   0
   0   7   1    4.67    2.03   0
   0   7   2   15.14    2.09   0
   1   2   8  229.88    3.38   0
   1   5   5   50.15    2.28   0
   0   6   6   -0.78    1.59   0
  -1   7   6   19.32    1.93   0
  -3   9   4   66.55    2.01   0
  -2   7   8   22.80    1.56   0
  -1   6   8    1.31    1.48   0
   1   3   7  270.32    3.79   0
   1   4   6  141.04    2.97   0
   1   5   4   88.68    2.68   0
  -1   4  10    3.94    1.55   0
   0   3   9    5.09    1.47   0
   0   5   7  186.46    3.68   0
   0   6   5   33.10    2.04   0
   1   5   3   39.07    1.97   0
  -3   9   3    2.33    1.74   0
  -1   5   9  309.44    3.99   0
   1   5   2  148.08    3.13   0
  -4   7  10    9.59    1.29   0
  -3   7   9   86.00    2.28   0
  -3   8   7  198.24    2.99   0
  -3   9   2   16.20    1.98   0
   0   4   8    9.84    1.53   0
   1   4   5    8.60    1.59   0
   0   6   4  128.24    3.17   0
  -4   6  11    6.35    1.31   0
  -2   7   7   62.94    2.50   0
  -2   8   4  101.82    2.86   0
  -1   6   7   36.42    2.02   0
  -4   8   8   30.99    1.57   0
  -4   9   5   17.10    1.51   0
  -3   5  11   17.95    1.56   0
  -3   6  10   57.14    2.12   0
   0   5   6    2.63    1.48   0
  -2   8   3  269.84    4.70   0
   0   3   8   37.83    1.89   0
   0   6   2  344.82    4.88   0
  -3   8   6   32.16    1.96   0
  -2   8   1   66.58    2.91   0
  -2   8   2  274.84    4.42   0
  -1   4   9   28.28    1.84   0
  -1   7   3   22.11    1.86   0
  -4   9   4    1.59    1.59   0
  -1   6   6   28.53    1.94   0
  -1   7   1   71.49    3.05   0
  -1   7   2    6.10    1.81   0
   0   5   5  107.63    2.84   0
  -3   7   8  129.69    2.92   0
  -2   6   8   34.55    2.02   0
  -2   7   6   13.20    1.92   0
  -5   7  10   15.22    1.23   0
  -4   9   3    2.43    1.62   0
  -5   6  11   11.55    1.42   0
  -4   7   9    8.41    1.48   0
  -4   9   2   80.19    2.76   0
  -3   8   5    1.67    1.53   0
  -2   4  10   11.47    1.57   0
  -2   5   9   15.42    2.09   0
   0   4   6  662.79    5.94   0
   0   5   4  170.87    3.34   0
  -5   8   8   10.73    1.29   0
  -5   9   5   43.99    2.00   0
  -1   3   9    7.01    1.52   0
  -1   5   7   55.19    2.30   0
  -1   6   5   -0.71    1.52   0
  -4   5  11   10.48    1.50   0
  -2   7   5   -0.59    1.59   0
  -1   4   8  121.62    2.75   0
  -4   6  10    0.80    1.25   0
  -3   5  10   42.09    2.00   0
  -3   7   7   19.52    1.97   0
  -3   8   4    4.58    1.81   0
  -2   6   7  126.55    3.55   0
  -1   6   4   16.55    1.87   0
  -6   7  10   10.52    1.16   0
  -6   6  11   31.42    1.51   0
  -5   9   4    5.22    1.55   0
  -4   8   6  477.48    5.76   0
  -3   8   3  141.25    3.43   0
  -1   5   6    1.06    1.43   0
  -4   7   8   14.27    1.94   0
  -6   8   8   19.77    1.50   0
  -5   7   9    6.38    1.43   0
  -5   8   7    5.35    1.35   0
  -5   9   3   15.28    1.86   0
  -3   8   1    4.83    2.03   0
  -3   8   2    2.46    1.64   0
  -2   4   9   33.46    1.87   0
  -2   7   3    1.58    1.70   0
  -1   4   7    9.41    1.77   0
  -1   6   2   22.27    2.01   0
  -5   9   2    0.09    1.74   0
  -3   6   8    8.76    1.63   0
  -2   6   6  627.02    7.06   0
  -2   7   2   45.18    2.68   0
  -4   8   5    2.76    1.51   0
  -1   5   5   19.33    1.69   0
  -7   8   8    0.46    1.06   0
  -5   6  10  114.02    2.43   0
  -3   4  10  158.27    3.04   0
  -3   5   9   42.16    1.97   0
  -7   9   5    2.61    1.24   0
  -6   9   4    7.25    1.48   0
  -5   8   6   96.29    2.89   0
  -4   7   7  120.67    3.33   0
  -3   7   5    1.66    1.70   0
  -2   3   9    4.92    1.54   0
  -6   8   7   41.28    1.86   0
  -6   9   3  180.18    3.18   0
  -3   6   7    7.86    1.55   0
  -2   4   8   -0.64    1.58   0
  -7   9   4    7.15    1.48   0
  -6   5  11   43.00    1.94   0
  -6   9   2   68.24    2.62   0
  -5   7   8   47.85    2.32   0
  -4   8   3   35.40    2.66   0
  -6   6  10   41.61    1.72   0
  -3   7   4   14.79    1.92   0
  -7   9   3    2.08    1.51   0
  -5   8   5   64.07    2.57   0
  -4   6   8   16.33    2.11   0
  -4   7   6    2.62    1.86   0
  -4   8   2   41.24    2.51   0
  -7   8   7    2.62    1.12   0
  -4   8   1   36.62    2.45   0
  -3   4   9  341.12    4.52   0
  -3   7   3  245.14    4.91   0
  -7   6  10   46.61    1.73   0
  -7   9   2    3.64    1.39   0
  -6   8   6    8.70    1.59   0
  -5   5  10    0.11    1.61   0
  -3   6   6   15.82    1.99   0
  -6   7   8    6.23    1.55   0
  -5   7   7   33.74    2.16   0
  -4   5   9    4.79    1.55   0
  -3   7   2    3.02    1.89   0
  -4   7   5    7.09    2.08   0
  -3   7   1   28.07    2.20   0
  -7   8   6   -0.20    1.31   0
  -6   8   5   57.17    2.60   0
  -5   8   3   52.22    2.73   0
  -4   6   7  134.22    3.64   0
  -3   6   5  188.84    4.27   0
  -8   8   6    5.32    1.30   0
  -7   7   8    2.95    1.35   0
  -6   6   9    2.94    1.35   0
  -8   7   8    6.67    1.33   0
  -6   5  10   -0.11    1.47   0
  -5   7   6   26.40    2.09   0
  -5   8   2   18.97    2.10   0
  -4   7   4   14.14    2.04   0
  -3   4   8   77.78    2.44   0
  -6   7   7  187.06    3.82   0
  -5   8   1   68.48    2.83   0
  -4   5   8   20.38    2.10   0
  -8   5  10   49.53    1.86   0
  -7   6   9   27.37    2.02   0
  -7   8   5   15.97    1.68   0
  -5   4  10   10.79    1.53   0
  -5   5   9   24.90    1.94   0
  -4   4   9   34.20    2.20   0
  -3   6   4  207.31    4.57   0
  -8   6   9    0.79    1.44   0
  -8   8   5   16.15    1.73   0
  -7   5  10   29.27    1.64   0
  -3   5   6  175.84    4.09   0
  -6   8   3    9.98    1.93   0
  -5   7   5    1.50    1.81   0
  -6   6   8   -1.03    1.89   0
  -5   6   7    0.05    1.88   0
  -4   7   2   55.72    2.67   0
  -8   7   7   12.75    1.78   0
  -6   8   2   16.45    1.99   0
  -6   4  10  129.59    2.85   0
  -6   8   1    5.68    2.15   0
  -4   5   7   71.86    2.73   0
  -4   6   5   17.57    1.93   0
  -4   7   1   24.09    2.23   0
  -7   8   3   34.64    2.34   0
  -5   7   4    0.55    1.67   0
  -8   8   3  183.20    3.76   0
  -5   5   8    4.43    1.53   0
  -4   4   8   78.23    3.06   0
  -9   7   6   14.56    1.61   0
  -7   4  10   10.46    1.54   0
  -7   7   6    2.41    1.61   0
  -7   8   2   36.13    2.29   0
  -6   7   5    5.15    1.70   0
  -5   4   9   67.80    2.56   0
   0   2 -13   42.45    3.42   0
   1  -1 -10   81.08    4.31   0
   2   2 -15   32.88    2.99   0
   3   0 -14   10.58    2.87   0
   3   1 -15    0.99    1.83   0
  -1   2 -11   27.53    2.81   0
   0   0 -10   26.78    2.96   0
   1   2 -14   12.93    2.97   0
  -2   4 -10   67.32    4.03   0
   1   1 -13    7.08    2.46   0
   4  -1 -13   33.10    3.13   0
  -1   4 -12   59.72    3.92   0
   0   6 -13  115.42    3.52   0
   2   1 -14   69.32    3.90   0
   4   1 -15   20.08    2.38   0
  -1   5 -12   68.75    3.32   0
   0   1 -11   54.55    3.82   0
   0   3 -13  264.48    6.45   0
   2  -1 -11   22.45    2.75   0
   4   0 -14   -0.48    2.55   0
   1   3 -14    7.17    2.52   0
   3  -1 -12   14.11    2.73   0
  -1   2 -10   23.88    2.63   0
   0   2 -12    0.97    2.31   0
   1   5 -14   49.83    3.07   0
   5   0 -14    0.52    2.35   0
  -2   4  -9   67.11    3.48   0
   0   4 -13    0.67    2.06   0
   0   5 -13   59.55    3.25   0
   1   4 -14  182.33    5.13   0
   3   4 -15   64.49    2.90   0
   1   1 -12    3.66    2.11   0
   1   2 -13   70.22    4.27   0
   2   0 -12   71.84    3.72   0
   2   2 -14    1.71    2.09   0
   3   0 -13  219.17    5.90   0
   3   3 -15   -0.34    2.01   0
  -1   4 -11  260.22    6.35   0
   1   6 -13    6.14    2.25   0
   2   1 -13  169.24    5.74   0
   4   3 -15   44.47    2.74   0
  -1   5 -11   -0.26    2.17   0
   0   3 -12   25.78    3.19   0
  -1   3 -10   24.76    2.63   0
   0   2 -11   52.34    3.78   0
   3  -1 -11   82.16    4.04   0
   1   3 -13   59.32    3.71   0
   2   3 -14   -0.17    1.96   0
   4   0 -13   30.64    3.19   0
   4   1 -14   16.47    2.55   0
   0   4 -12   61.81    3.59   0
   0   5 -12   81.59    3.96   0
   2   4 -14  281.43    5.18   0
   2   6 -13   61.28    2.40   0
   3   2 -14   63.61    3.62   0
   5   1 -14    1.82    1.96   0
  -1   4 -10  378.18    7.13   0
   1   1 -11   47.67    3.25   0
   1   5 -13   24.69    2.61   0
   2   0 -11  275.24    6.61   0
  -1   5 -10    0.94    2.21   0
   1   2 -12   95.73    4.18   0
   2   2 -13   57.12    3.40   0
   3   0 -12  175.78    5.31   0
   5   0 -13    3.44    2.21   0
   0   3 -11   11.91    2.67   0
   2   1 -12    2.06    2.10   0
   3   3 -14   43.84    2.79   0
   3   4 -14   -0.01    2.31   0
   1   6 -12   36.59    2.91   0
   4  -1 -11    1.09    2.49   0
   4   4 -14   19.64    2.35   0
   5   2 -14    3.05    2.02   0
   5   3 -14   31.87    2.44   0
   4   3 -14   12.80    2.50   0
   0   4 -11   15.12    2.81   0
   1   3 -12    7.70    2.21   0
   2   3 -13    6.43    2.15   0
   0   5 -11    1.79    1.88   0
   2   4 -13  298.20    5.98   0
   4   0 -12   60.14    3.50   0
   6   1 -13   27.71    2.63   0
   1   2 -11  524.30    8.05   0
   1   5 -12   29.77    2.47   0
   3   2 -13    0.58    2.12   0
   4   5 -13  149.14    3.23   0
   2   2 -12   71.61    3.65   0
   2   6 -12    1.00    1.70   0
   3   0 -11  232.59    5.91   0
   5   1 -13  141.90    4.14   0
   0   6 -10    3.00    2.42   0
   2   1 -11    8.20    1.95   0
   3   6 -12   34.74    2.36   0
   5   0 -12   13.27    2.24   0
   6   0 -12   -0.57    2.46   0
   6   2 -13    1.89    2.05   0
   1   6 -11    5.84    2.53   0
   3   3 -13   31.49    2.79   0
   3   4 -13    3.70    2.45   0
   4   2 -13  250.68    5.36   0
   5   4 -13   78.29    2.53   0
   7   1 -12    4.17    2.11   0
   0   4 -10   -0.55    2.10   0
   1   3 -11   -0.06    1.85   0
   0   5 -10    4.01    1.85   0
   2   3 -12  216.80    5.65   0
   2   5 -12    2.36    2.53   0
   4   3 -13   15.90    2.57   0
   4   4 -13   10.95    2.19   0
   5   3 -13    3.40    2.32   0
   2   4 -12    6.56    2.50   0
   4   0 -11   13.09    2.71   0
   4   1 -12    1.47    1.75   0
   1   5 -11   97.79    3.65   0
   3   2 -12    1.92    2.13   0
   2   2 -11   11.86    2.09   0
   2   6 -11   16.92    2.09   0
   5   1 -12   80.95    3.57   0
   6   1 -12    9.66    2.27   0
   4   5 -12  181.34    3.52   0
   1   6 -10   23.01    2.51   0
   3   6 -11  205.33    3.73   0
   5   0 -11    2.18    2.07   0
   6   0 -11   50.95    3.16   0
   0   5  -9  156.98    4.34   0
   1   3 -10   27.13    2.26   0
   4   2 -12    7.36    2.10   0
   5   4 -12  100.20    2.92   0
   6   2 -12    7.89    1.94   0
   2   3 -11   46.45    2.71   0
   2   5 -11   22.82    2.49   0
   4   4 -12    1.87    1.77   0
   7   1 -11   11.75    2.04   0
   1   4 -10    6.14    2.29   0
   1   5 -10  279.59    5.44   0
   2   4 -11  143.91    4.04   0
   4   0 -10   88.18    3.70   0
   4   1 -11   49.43    3.01   0
   4   3 -12    6.33    2.27   0
   5   3 -12   -0.80    2.12   0
   5   5 -11    3.40    1.84   0
   6   4 -11    3.21    2.04   0
   7   2 -11  200.66    3.49   0
   3   2 -11   55.71    3.11   0
   2   6 -10   11.25    2.07   0
   4   6 -10   18.52    2.06   0
   1   6  -9   25.03    2.81   0
   3   6 -10  362.21    4.87   0
   5   1 -11  165.79    4.15   0
   6   1 -11   11.17    2.42   0
   3   3 -11  124.24    4.05   0
   3   4 -11   61.16    3.43   0
   5   0 -10   58.64    3.19   0
   2   3 -10  163.40    4.59   0
   4   2 -11    5.88    2.03   0
   5   4 -11  221.05    4.35   0
   6   2 -11   76.52    3.12   0
   6   3 -11    1.59    1.97   0
   2   5 -10   14.69    2.35   0
   4   4 -11   44.90    2.73   0
   1   4  -9    0.50    1.60   0
   1   5  -9   87.83    3.35   0
   2   4 -10   15.74    2.14   0
   4   3 -11    5.34    2.18   0
   5   3 -11   22.34    2.42   0
   5   5 -10   41.46    2.28   0
   7   1 -10   16.53    2.29   0
   7   2 -10  109.59    3.31   0
   2   6  -9  135.14    3.50   0
   3   2 -10   -0.04    1.64   0
   4   1 -10   75.27    3.08   0
   4   6  -9  108.67    3.09   0
   6   4 -10  126.51    3.18   0
   4   5 -10    1.92    2.46   0
   1   6  -8    5.67    2.00   0
   3   6  -9  191.27    3.97   0
   5   1 -10  158.32    4.31   0
   3   3 -10  123.44    3.66   0
   3   4 -10    7.93    2.22   0
   2   5  -9    5.83    2.42   0
   4   2 -10   88.17    3.17   0
   5   0  -9  207.71    4.40   0
   6   2 -10  112.59    3.87   0
   6   3 -10    1.37    1.93   0
   8   1  -8    8.64    2.06   0
   1   5  -8   55.55    2.57   0
   4   4 -10   93.01    3.38   0
   5   5  -9    6.13    2.06   0
   2   6  -8   21.98    2.48   0
   4   3 -10   67.65    3.15   0
   4   6  -8   80.37    2.83   0
   5   3 -10   38.82    2.60   0
   6   4  -9   78.07    2.84   0
   7   1  -9   85.54    3.24   0
   7   2  -9   51.46    2.84   0
   3   6  -8   30.42    2.60   0
   4   5  -9   10.71    2.22   0
   6   5  -7   82.52    2.42   0
   8   2  -7   -0.07    1.87   0
   6   1  -9   45.59    3.11   0
   3   3  -9  165.92    3.98   0
   3   4  -9  287.78    5.51   0
   5   1  -9    4.34    1.69   0
   5   4  -9  144.28    4.32   0
   5   5  -8   35.54    2.69   0
   6   3  -9   28.42    2.40   0
   7   0  -8   47.16    2.64   0
   2   5  -8  208.23    4.58   0
   4   2  -9  484.35    6.68   0
   4   6  -7   82.42    2.85   0
   8   1  -7    1.94    1.73   0
   2   6  -7   76.37    2.88   0
   5   2  -9   17.63    2.71   0
   6   0  -8   35.57    2.82   0
   6   4  -8   43.93    2.65   0
   6   5  -6    0.57    1.94   0
   3   6  -7    6.40    2.32   0
   4   3  -9   40.88    2.69   0
   5   3  -9   27.13    2.40   0
   7   1  -8  110.86    3.57   0
   7   2  -8    6.19    2.04   0
   8   2  -6    5.47    1.89   0
   3   5  -8    7.17    1.90   0
   4   5  -8   34.89    2.63   0
   7   3  -7   66.77    2.79   0
   4   6  -6    1.65    2.18   0
   5   4  -8    0.32    2.05   0
   5   5  -7  137.84    3.66   0
   6   1  -8   32.21    2.97   0
   6   3  -8   57.43    2.97   0
   6   5  -5    0.58    1.97   0
   2   5  -7    1.09    2.20   0
   3   4  -8   83.16    3.09   0
   5   1  -8   45.54    2.53   0
   6   4  -7   68.76    2.94   0
   7   0  -7  218.09    4.66   0
   8   1  -6   83.12    2.75   0
   2   6  -6   76.92    3.06   0
   3   6  -6   -1.07    2.36   0
   4   2  -8  114.87    3.53   0
   4   4  -8    6.19    1.87   0
   8   2  -5   43.87    2.34   0
   4   3  -8   17.49    2.18   0
   5   2  -8    4.14    2.18   0
   5   3  -8   91.37    3.49   0
   6   5  -4   14.83    2.01   0
   7   1  -7    1.63    2.17   0
   7   2  -7   11.70    2.13   0
   3   5  -7  142.64    3.73   0
   4   6  -5   26.08    2.74   0
   6   0  -7   39.86    2.65   0
   7   3  -6  201.01    4.03   0
   5   4  -7    1.98    2.22   0
   6   3  -7    1.35    2.00   0
   6   4  -6   20.07    2.45   0
   8   1  -5   40.37    2.27   0
   8   2  -4   91.16    2.77   0
   3   4  -7   23.83    2.23   0
   3   6  -5   63.48    3.16   0
   6   1  -7   50.35    3.13   0
   2   5  -6  634.35    7.21   0
   4   4  -7  145.51    4.05   0
   4   6  -4   41.16    2.85   0
   7   0  -6  145.13    3.83   0
   7   2  -6    0.24    2.02   0
   5   3  -7   36.32    2.59   0
   5   5  -5  171.69    4.24   0
   7   1  -6   12.11    2.38   0
   8   2  -3    5.40    1.91   0
   4   3  -7   29.82    2.31   0
   5   2  -7  182.50    4.27   0
   6   4  -5   32.78    3.03   0
   8   1  -4   10.65    2.28   0
   4   6  -3   58.36    2.82   0
   5   4  -6    1.81    1.96   0
   6   0  -6  286.84    5.20   0
   6   3  -6   64.69    3.08   0
   8   0  -4    4.64    2.14   0
   3   6  -4    3.22    1.99   0
   7   3  -4    0.52    2.17   0
   2   6  -4    7.21    1.98   0
   5   5  -4   69.36    3.14   0
   2   5  -5    3.20    1.60   0
   4   4  -6   31.01    2.27   0
   4   6  -2  108.11    3.14   0
   6   1  -6  219.62    4.60   0
   6   4  -4   56.04    2.95   0
   7   0  -5   32.09    2.91   0
   3   5  -5   54.53    2.83   0
   5   3  -6   25.39    2.40   0
   7   1  -5   84.74    3.19   0
   8   1  -3    8.76    1.96   0
   3   6  -3  130.65    3.93   0
   4   6  -1    1.29    1.78   0
   5   4  -5   22.88    2.32   0
   6   3  -5   53.95    3.03   0
   7   3  -3   10.86    2.09   0
   8   0  -3   42.79    2.81   0
   4   3  -6  387.12    5.94   0
   4   6   0   52.67    2.17   0
   5   2  -6  399.35    6.32   0
   6   4  -3   70.35    3.13   0
   7   3  -2   16.76    2.35   0
   8   1  -2   21.76    2.00   0
   4   4  -5  215.03    5.08   0
   3   6  -2  101.94    3.39   0
   6   1  -5  142.52    4.18   0
   6   4  -2    5.51    2.39   0
   7   0  -4   14.06    2.69   0
   7   1  -4    6.54    2.44   0
   7   3  -1   40.92    2.12   0
   8   1  -1   95.61    2.98   0
   5   3  -5   56.39    2.96   0
   5   4  -4   12.66    2.34   0
   6   3  -4   65.86    3.14   0
   8   0  -2    2.09    1.83   0
   4   5  -3  207.07    5.06   0
   6   4  -1    1.67    2.19   0
   8   1   0  114.16    3.01   0
   3   6  -1  260.23    4.78   0
   4   3  -5   24.62    2.06   0
   5   2  -5  152.23    4.05   0
   5   5   1   71.77    2.41   0
   8   1   1   37.35    1.93   0
   6   4   0   28.34    2.01   0
   6   4   1   13.77    1.84   0
   8   0  -1    0.02    2.05   0
   4   4  -4    0.68    1.74   0
   6   2  -4   24.22    2.57   0
   6   3  -3   38.52    2.72   0
   7   1  -3    2.34    2.03   0
   3   5  -3  208.29    4.77   0
   3   6   1    0.63    2.05   0
   3   6   2    0.55    2.20   0
   4   5  -2   41.67    2.93   0
   5   3  -4    8.81    2.08   0
   7   0  -3   38.26    2.68   0
   6   1  -4  156.03    4.32   0
   8   0   0    3.51    1.96   0
   6   3  -2    7.60    2.71   0
   4   5  -1    1.28    2.19   0
   5   2  -4   18.50    2.27   0
   5   4  -2  242.87    5.21   0
   8   0   1    5.47    1.80   0
   8   0   2    2.29    1.94   0
   3   5  -2  260.36    5.19   0
   4   4  -3    3.47    1.87   0
   6   2  -3  125.43    4.03   0
   7   2   0   39.87    2.60   0
   4   5   0   46.65    3.30   0
   5   3  -3   10.76    2.20   0
   6   3  -1   45.51    3.22   0
   7   0  -2   49.14    3.18   0
   7   2   3   15.59    2.08   0
   5   4  -1   92.87    3.69   0
   6   1  -3   56.72    3.04   0
   7   2   1    1.00    1.89   0
   7   2   2   95.61    2.78   0
   4   5   1  527.29    6.53   0
   7   1  -1   17.91    2.43   0
   3   5  -1  101.21    3.70   0
   4   5   2   45.77    2.72   0
   4   5   3    5.18    1.88   0
   5   4   0  145.51    4.24   0
   6   2  -2   33.30    2.71   0
   6   3   0  190.29    4.45   0
   6   3   4   -1.46    1.94   0
   5   2  -3    0.35    1.63   0
   5   3  -2    1.24    2.40   0
   5   4   1   -0.48    2.16   0
   6   3   3   19.80    2.00   0
   7   0  -1    3.41    1.89   0
   7   1   0    2.77    2.01   0
   2   5  -1    5.75    2.00   0
   3   5   0  308.89    6.07   0
   5   4   2   31.24    2.66   0
   5   4   3   17.83    2.22   0
   6   1  -2    2.44    2.22   0
   3   5   6    0.13    1.83   0
   4   4  -1   36.01    2.79   0
   6   2  -1    0.98    2.18   0
   7   1   1   -0.72    2.34   0
   5   3  -1   38.57    2.94   0
   7   0   0    5.17    2.27   0
   7   1   4   14.63    2.26   0
   3   5   1  137.97    4.19   0
   5   2  -2   26.00    2.64   0
   7   1   2    1.89    2.07   0
   7   1   3    3.51    1.86   0
   2   5   0    6.45    2.21   0
   6   2   0   25.03    2.60   0
   6   2   6    9.68    2.05   0
   3   5   2   13.61    2.44   0
   3   5   5    4.09    1.86   0
   5   3   0   60.33    3.68   0
   6   1  -1   10.38    2.08   0
   7   0   1  102.36    3.65   0
   3   4  -1  171.61    4.28   0
   3   5   3   24.70    2.66   0
   3   5   4   31.65    2.53   0
   6   2   1   -0.12    2.24   0
   7   0   6   44.54    2.37   0
   4   4   6    0.55    1.87   0
   6   0  -1   82.60    3.30   0
   6   2   5    3.08    2.17   0
   7  -1   1  295.19    5.45   0
   2   5   1   15.89    2.57   0
   4   3  -1   18.82    2.45   0
   5   2  -1  127.65    4.03   0
   5   3   1   10.97    2.29   0
   5   3   6    1.94    1.87   0
   6   2   2   13.33    2.32   0
   6   2   4    3.85    2.40   0
   7   0   2   80.41    3.23   0
   7   0   5   49.55    2.69   0
   6   1   0   12.86    2.39   0
   6   2   3   20.15    2.40   0
   7   0   3    1.99    2.18   0
  -9   5   5    0.74    1.77   0
  -8   1   6   84.87    2.86   0
  -7  -1   4    3.63    2.35   0
  -7   1   7    1.04    1.52   0
  -7   3   7  118.23    3.14   0
  -6   3   7   47.11    1.92   0
 -10   3   3   10.07    1.48   0
  -9   2   5   -0.41    2.03   0
  -8   0   4    4.56    2.34   0
  -6   1   7   64.76    2.61   0
 -10   5   3   57.56    2.07   0
 -10   3   2    5.39    1.49   0
  -8   4   6  110.82    2.79   0
  -7  -1   3    1.80    2.34   0
  -9   1   1   24.02    1.86   0
  -9   3   5   85.87    2.63   0
  -8   0   3   38.84    2.47   0
  -8   2   6  172.96    3.66   0
  -8   3   6   31.06    2.38   0
  -7   4   6   12.84    1.90   0
  -6   0   6  269.17    4.38   0
  -9   2   4    1.05    1.67   0
  -8   1   5  125.78    3.40   0
  -8   5   5    0.01    1.62   0
  -7   0   5   34.36    2.38   0
  -7   1   6    2.33    1.62   0
 -10   4   2  105.25    2.56   0
  -9   5   4   -0.26    1.85   0
  -9   6   3    5.79    1.77   0
  -8   0   2    2.47    1.83   0
  -8   0   1    0.51    1.96   0
  -7   3   6  367.72    5.10   0
  -6  -1   4  160.82    3.72   0
  -9   2   3   26.83    2.56   0
  -9   3   4   59.28    2.89   0
  -7   2   6  293.20    4.56   0
  -6   1   6   86.78    2.65   0
 -10   4   1   43.83    1.88   0
  -8   1   4   90.31    3.15   0
  -8   2   5    1.78    1.64   0
  -8   4   5    9.55    1.73   0
  -7   0   4   14.65    2.35   0
 -10   4   0   77.44    2.08   0
  -8   3   5  128.71    3.24   0
 -10   5   0   25.16    1.81   0
  -7   1   5   21.60    2.09   0
  -6  -1   3   57.42    2.88   0
  -9   3   3  175.35    3.94   0
  -9   5   3    6.48    1.76   0
  -9   6   2    1.89    1.72   0
  -8   5   4    0.16    1.63   0
  -7   4   5  168.05    3.48   0
  -9   2  -2    2.90    1.79   0
  -9   4   3    1.67    1.89   0
  -8   2   4   17.58    2.11   0
  -7   0   3   40.08    2.74   0
  -7   2   5  124.64    3.50   0
  -9   2   0   12.20    2.14   0
  -6  -1   2    2.63    2.27   0
  -9   2  -1  108.95    2.83   0
  -8   1   2    0.45    2.39   0
  -8   3   4    6.07    2.15   0
  -8   4   4   92.45    2.83   0
  -7   1   4  315.59    5.24   0
  -6   0   4   83.59    2.93   0
  -9   3   2   58.51    2.55   0
  -9   5   2   46.14    2.55   0
  -7   0   2   56.59    3.19   0
  -9   4   2   10.82    2.01   0
  -9   6   1   21.67    1.91   0
  -8   2   3    4.98    2.27   0
  -9   3   1   15.90    2.20   0
  -8   1   1   27.22    2.36   0
  -8   5   3   70.50    2.56   0
  -8   6   2    3.18    2.04   0
  -8   1   0   22.45    2.79   0
  -7   0   1    3.45    2.17   0
  -7   2   4   12.49    1.70   0
  -7   4   4   91.42    2.76   0
  -9   3   0    4.64    2.30   0
  -8   1  -2    5.08    2.17   0
  -8   1  -1   62.00    3.29   0
  -8   3   3    7.06    1.72   0
  -7   1   3  278.84    4.87   0
  -7   3   4    3.87    1.59   0
  -9   3  -3   18.28    2.03   0
  -9   4   1   25.64    2.05   0
  -9   6   0   24.52    1.90   0
  -8   2   2  406.20    6.02   0
  -7   0   0    4.78    2.43   0
  -9   3  -1   95.31    2.90   0
  -7   0  -1   73.38    3.44   0
  -7   5   3    3.62    1.59   0
  -9   4   0   21.08    2.28   0
  -8   5   2  161.79    3.93   0
  -9   5   0   57.40    2.48   0
  -9   6  -1  118.67    2.69   0
  -8   2   1   48.62    2.79   0
  -8   3   2  102.21    3.59   0
  -8   6   1    9.24    1.92   0
  -7   2   3   98.70    3.16   0
  -9   4  -1    0.55    2.20   0
  -8   2  -5   17.80    2.05   0
  -8   4   2   76.02    3.40   0
  -7   4   3  196.18    4.07   0
  -9   4  -4    4.66    1.52   0
  -9   4  -2   19.33    2.28   0
  -9   5  -1  159.54    3.30   0
  -9   6  -2    8.42    1.60   0
  -7   3   3   97.12    2.97   0
  -9   4  -3   -0.08    1.57   0
  -7   1   1   64.38    3.08   0
  -9   5  -4   19.56    1.96   0
  -9   5  -2    6.19    1.65   0
  -8   2  -4   44.31    2.55   0
  -8   3   1   93.94    3.55   0
  -8   5   1   77.94    3.11   0
  -7   5   2    4.71    1.83   0
  -6   0   1   73.35    2.96   0
  -9   5  -3   -1.37    1.59   0
  -8   2  -3   -0.18    2.20   0
  -8   2  -2   11.85    2.39   0
  -8   6   0   97.22    2.90   0
  -7   2   2  405.91    5.97   0
  -8   4   1   12.10    1.99   0
  -8   7  -2  104.77    2.85   0
  -7   1   0   -1.71    2.32   0
  -8   3   0   -0.28    1.93   0
  -7   3   2   -0.54    1.52   0
  -7   4   2   35.27    2.12   0
  -6   0   0  317.05    5.55   0
  -8   3  -6    2.30    1.86   0
  -8   5   0   43.06    2.63   0
  -8   4   0    5.40    1.88   0
  -8   6  -1   15.69    1.87   0
  -8   7  -3  119.38    2.67   0
  -7   1  -1  313.64    5.83   0
  -7   2   1   85.59    3.15   0
  -8   3  -1   22.13    2.32   0
  -7   1  -4   24.46    2.43   0
  -7   1  -3    6.44    2.47   0
  -7   1  -2   29.86    2.59   0
  -7   5   1   11.34    2.22   0
  -8   3  -5   36.82    2.24   0
  -8   3  -2   24.97    2.34   0
  -8   7  -6   29.39    1.87   0
  -8   7  -4   25.37    1.82   0
  -7   6   0    5.26    1.78   0
  -8   3  -3   30.05    2.33   0
  -8   4  -1    6.15    2.01   0
  -8   6  -2   21.64    2.35   0
  -8   7  -5   -0.69    1.58   0
  -7   2   0  218.45    5.17   0
  -7   3   1    6.35    1.84   0
  -7   2  -7   -0.04    2.02   0
  -8   4  -6    4.39    1.90   0
  -8   4  -2   79.00    3.07   0
  -8   5  -7    6.93    1.88   0
  -8   6  -7    4.76    1.66   0
  -8   5  -2   12.32    2.10   0
  -8   6  -3   58.67    2.47   0
  -7   2  -1  105.40    3.42   0
  -7   5   0    7.46    2.05   0
  -8   4  -5   42.29    2.33   0
  -8   4  -4  128.35    3.46   0
  -8   4  -3  229.97    4.61   0
  -8   5  -3    2.88    2.13   0
  -8   6  -6   38.09    1.95   0
  -7   3   0  129.93    3.71   0
  -7   6  -1    5.69    1.79   0
  -8   5  -6   89.11    2.61   0
  -8   5  -4   48.23    2.65   0
  -7   2  -6   17.24    2.10   0
  -7   4   0    1.34    1.65   0
  -7   7  -3    1.20    1.91   0
  -8   5  -5    9.41    1.85   0
  -7   2  -5    3.25    2.28   0
  -7   3  -8    3.66    2.08   0
  -7   2  -4   48.40    2.97   0
  -7   2  -3   28.83    2.49   0
  -7   3  -1  179.22    4.37   0
  -6   1  -1    1.46    1.66   0
  -7   5  -1    1.42    1.70   0
  -7   6  -2   18.39    2.18   0
  -7   7  -4    8.01    2.18   0
  -7   4  -1  194.18    4.10   0
  -7   7  -8  103.75    2.47   0
  -6   1  -2   24.37    2.78   0
  -7   3  -7  163.76    3.81   0
  -7   3  -2   16.53    2.05   0
  -7   7  -5    2.57    2.01   0
  -6   1  -6   42.95    2.75   0
  -6   2  -9   38.59    2.16   0
  -7   5  -9   66.92    2.27   0
  -7   6  -9   39.41    1.76   0
  -7   6  -3    3.70    2.09   0
  -7   7  -7   -0.26    1.61   0
  -7   7  -6    0.81    1.98   0
  -6   1  -5    1.94    2.46   0
  -6   1  -3    8.53    2.25   0
  -7   3  -3    9.23    1.93   0
  -7   4  -8    2.36    1.73   0
  -7   4  -2  155.76    3.83   0
  -6   1  -4   26.24    2.51   0
  -7   3  -5  109.10    3.55   0
  -7   3  -4   15.28    2.24   0
  -6   3 -10    0.96    1.77   0
  -7   4  -3    7.03    2.02   0
  -7   5  -8    1.44    1.96   0
  -7   6  -8   -2.18    1.51   0
  -7   6  -4   67.34    3.03   0
  -7   4  -7   29.82    2.33   0
  -7   6  -7   85.60    2.91   0
  -7   6  -5   38.74    2.84   0
  -6   2  -8    0.83    1.80   0
  -6   6  -2    1.00    1.58   0
  -7   4  -6   26.52    2.39   0
  -7   4  -5   30.68    2.46   0
  -7   4  -4    5.83    1.96   0
  -7   5  -7   11.29    2.07   0
  -7   5  -4   22.53    2.20   0
  -6   2  -2   55.67    2.63   0
  -7   5  -6   22.95    2.23   0
  -7   5  -5   -0.49    1.80   0
  -6   2  -7    0.08    2.26   0
  -6   7  -5    0.58    1.91   0
  -6   2  -6    0.09    1.95   0
  -6   2  -4  305.14    5.49   0
  -6   3  -9   29.74    2.24   0
  -6   5  -2  230.48    4.91   0
  -6   6  -3   61.29    2.73   0
  -6   7  -9   56.47    2.13   0
  -6   2  -5  168.61    4.53   0
  -6   6 -10   64.38    2.46   0
  -6   7  -8   35.08    2.33   0
  -6   7  -6   11.73    2.18   0
  -5   1  -8  109.67    3.80   0
  -6   4  -2    6.12    1.66   0
  -6   5 -10    2.23    1.82   0
  -6   7  -7   42.41    2.29   0
  -6   3  -8   35.82    2.51   0
  -6   3  -3   20.46    2.08   0
  -6   6  -4    3.08    2.15   0
  -5   2 -10    2.75    1.85   0
  -6   4  -9    0.46    1.90   0
  -6   5  -3  285.87    4.74   0
  -5   1  -7  280.94    5.44   0
  -6   3  -4   96.72    3.29   0
  -6   4  -3    3.39    1.58   0
  -6   6  -9   16.14    1.74   0
  -6   6  -5    7.95    2.12   0
  -5   1  -6   90.13    3.58   0
  -5   3 -11   40.16    2.48   0
  -6   3  -6    5.71    2.03   0
  -6   3  -5    8.36    1.75   0
  -6   5  -9   19.31    2.14   0
  -5   1  -5   39.68    2.43   0
  -5   5 -12   19.74    1.68   0
  -4   2 -12   11.88    2.02   0
  -6   4  -8    9.22    1.85   0
  -6   4  -4   36.78    2.45   0
  -6   6  -6   11.32    1.97   0
  -5   2  -9    6.21    2.45   0
  -5   7 -10   13.91    2.03   0
  -6   4  -7    9.96    1.95   0
  -6   4  -5   24.10    2.14   0
  -6   5  -8   19.02    2.20   0
  -6   5  -5   49.51    2.50   0
  -6   4  -6   16.35    2.10   0
  -6   5  -7   58.46    2.70   0
  -6   5  -6   19.15    2.16   0
  -5   2  -8    9.85    2.34   0
  -5   3 -10   91.56    3.30   0
  -5   4 -11   42.98    2.25   0
  -5   6 -11    0.67    1.44   0
  -5   7  -9  116.05    2.79   0
  -5   7  -8    9.93    2.15   0
  -5   7  -7   74.68    3.17   0
  -5   5 -11   67.19    2.83   0
  -5   6  -4  110.53    3.07   0
  -5   2  -7  150.18    3.86   0
  -5   2  -6   69.60    2.92   0
  -5   2  -5    1.55    1.60   0
  -5   6 -10   95.95    2.81   0
  -4   1  -9   75.63    3.33   0
  -4   2 -11    8.65    2.26   0
  -4   5 -13   29.46    1.69   0
  -4   7 -11   30.45    2.11   0
  -5   4 -10   75.97    2.90   0
  -5   6  -5   77.99    2.78   0
  -4   3 -12   41.84    2.51   0
  -5   5 -10  589.59    6.27   0
  -3   2 -13    0.09    1.80   0
  -5   3  -8   34.32    2.44   0
  -5   6  -8   39.52    2.73   0
  -5   6  -7  268.18    4.73   0
  -5   6  -6   44.22    2.42   0
  -4   1  -8    1.90    2.12   0
  -4   6 -12   99.75    2.48   0
  -4   7 -10   10.41    2.06   0
  -5   3  -7    1.85    1.58   0
  -5   3  -5  101.83    3.16   0
  -5   4  -9    1.38    1.65   0
  -5   5  -9   87.41    2.97   0
  -3   4 -14    6.79    1.70   0
  -3   5 -14   88.21    2.21   0
  -3   7 -12   18.66    1.81   0
  -5   3  -6    7.97    1.76   0
  -5   5  -5   67.00    2.58   0
  -4   1  -7   62.29    3.10   0
  -4   2 -10    5.93    1.84   0
  -4   4 -12   15.11    1.73   0
  -4   7  -9   10.63    1.95   0
  -4   7  -8   11.74    2.12   0
  -5   4  -8    4.63    1.79   0
  -5   4  -7  161.82    4.16   0
  -5   4  -5   57.33    2.44   0
  -5   5  -8   10.32    1.85   0
  -5   5  -7   12.40    1.83   0
  -4   5 -12    0.23    1.59   0
  -3   1 -11   80.21    3.20   0
  -5   4  -6  225.52    4.54   0
  -4   2  -9   10.79    2.37   0
  -3   7 -11   18.37    1.92   0
  -2   2 -14   71.36    2.52   0
  -4   4 -11   12.26    2.22   0
  -3   2 -12    3.93    2.10   0
  -3   3 -13   18.12    1.68   0
  -4   5 -11   18.39    1.85   0
  -3   7 -10    0.98    1.72   0
  -2   7 -12   40.73    1.97   0
  -4   2  -8    6.88    1.63   0
  -4   6  -6   73.58    2.77   0
  -3   1 -10  178.43    4.16   0
  -3   4 -13   29.64    2.13   0
  -3   5 -13    4.18    1.69   0
  -4   2  -7   82.45    2.79   0
  -4   6  -9    2.64    1.67   0
  -4   6  -8   88.83    3.25   0
  -4   6  -7  271.25    4.37   0
  -1   2 -15   12.46    1.63   0
  -4   3  -9   27.97    2.22   0
  -4   4 -10   19.61    1.97   0
  -4   5 -10    2.35    1.63   0
  -3   2 -11   67.72    3.00   0
  -4   3  -8   81.40    2.77   0
  -4   4  -9    0.44    1.48   0
  -4   5  -9  194.72    3.95   0
  -3   1  -9    1.77    1.63   0
  -2   1 -12   15.93    2.18   0
  -2   5 -14   33.92    1.72   0
  -4   3  -7   15.22    1.65   0
  -4   5  -8   46.55    2.35   0
  -4   5  -6   44.36    2.08   0
  -3   5 -12    1.01    1.35   0
  -3   6 -11  136.63    3.10   0
  -2   4 -14    1.74    1.47   0
  -2   6 -13    1.74    1.53   0
  -1   5 -15    0.46    1.32   0
  -3  -3   8   65.54    2.11   0
  -3   1   5  121.11    1.73   0
  -2  -2   3  663.17    3.35   0
  -2   2   4   66.04    1.11   0
  -3   2   7   59.84    1.57   0
  -3   2   8  233.62    3.00   0
  -2  -3   4   31.78    0.96   0
  -4   0   9   56.57    2.30   0
  -3  -3   7   -0.10    1.37   0
  -3   2   9   60.47    1.83   0
  -4   0   8    1.13    0.86   0
  -3   0   4 1199.39    5.06   0
  -3   2   6   76.78    1.54   0
  -4  -1   8    0.21    1.07   0
  -3  -2   5  713.90    4.57   0
  -3   2  10   19.48    1.61   0
  -2   0   2   73.63    0.95   0
  -4   0   7   22.60    1.20   0
  -4   1   8    0.27    0.88   0
  -3  -1   4  591.68    3.72   0
  -3   1   4   72.24    1.28   0
  -4  -2   9  491.63    5.35   0
  -4   1   7    1.98    0.74   0
  -3  -3   6   10.05    1.30   0
  -3   2   5    0.17    0.47   0
  -2  -1   2   36.08    0.73   0
  -4   0   6  133.87    2.25   0
  -2   1   2  505.70    2.48   0
  -2   2   3  401.25    2.36   0
  -4   1   6  253.91    2.95   0
  -4   2   8    5.34    1.27   0
  -4   2   9  203.72    3.36   0
  -4  -1   6  252.54    3.18   0
  -4   2  10   46.52    2.48   0
  -4  -2   7   -0.63    1.24   0
  -4   2   7  257.05    3.19   0
  -3  -2   4   25.14    0.95   0
  -3   0   3  334.96    2.55   0
  -4   0   5  114.30    1.98   0
  -4   1   5  160.72    2.29   0
  -3   1   3    0.81    0.35   0
  -3   3   7   34.00    1.35   0
  -3  -1   3  109.07    1.60   0
  -5   1   9  122.10    2.82   0
  -5   1  10  150.38    3.27   0
  -4  -1   5  647.34    4.77   0
  -3   3   6  110.37    1.80   0
  -2  -2   2   86.20    1.15   0
  -5   1   8   32.97    1.67   0
  -4   2   5  308.82    3.08   0
  -5   0   7  199.19    3.27   0
  -5   1   7  542.75    5.09   0
  -4   3   8   16.18    1.48   0
  -3   3   5   18.53    0.96   0
  -2   3   4  367.11    2.44   0
  -5   2   9   21.21    1.75   0
  -4   1   4    0.27    0.52   0
  -4   3   7    3.24    1.13   0
  -3   2   3   84.92    1.34   0
  -2   2   2 1495.78    4.25   0
  -5  -1   7   10.80    1.51   0
  -5   0   6  230.27    3.28   0
  -5   1   6  259.76    3.37   0
  -4  -2   5  233.29    3.16   0
  -4   3   6  219.57    2.95   0
  -3  -2   3    8.47    0.75   0
  -2   0   1  358.74    1.98   0
  -4  -1   4    9.39    0.83   0
  -4   2   4   99.49    1.74   0
  -3   0   2  530.38    3.06   0
  -5  -2   8    4.30    1.72   0
  -5   2   6   58.06    1.72   0
  -3   1   2  179.73    1.80   0
  -3   3   4 1272.49    5.26   0
  -2  -1   1  889.05    3.17   0
  -2   1   1 1487.88    4.19   0
  -5   1   5    3.95    0.91   0
  -5   3   8  154.13    3.02   0
  -4   1   3   14.50    0.78   0
  -4   3   5  140.39    2.24   0
  -3  -1   2    5.66    0.59   0
  -5   3   7  115.87    2.99   0
  -6   1   8    2.88    1.40   0
  -5   2   5   70.66    1.83   0
  -2   3   3  312.59    2.18   0
  -6   2   8   77.31    2.46   0
  -4   2   3   60.14    1.36   0
  -3   2   2   99.35    1.43   0
  -4  -2   4  208.66    2.74   0
  -4   3   4    3.84    0.66   0
  -6   2   7   15.53    1.55   0
  -5  -1   5   53.80    1.87   0
  -5   1   4  153.26    2.50   0
  -4  -1   3  583.73    4.16   0
  -3   3   3  444.11    2.97   0
  -5   0   4   19.05    1.17   0
  -5   2   4  409.31    3.89   0
  -6   1   6  104.60    2.61   0
  -4   1   2  211.40    2.32   0
  -4   0   2   31.25    1.00   0
  -3  -2   2   13.84    0.76   0
  -3   1   1    3.14    0.39   0
  -4   3   3   61.54    1.41   0
  -2  -2   1    3.63    0.37   0
  -6   1   5  149.76    2.99   0
  -6   2   5    7.54    1.16   0
  -5  -1   4  219.03    3.14   0
  -5   1   3    7.71    0.87   0
  -4   2   2   89.06    1.62   0
  -4   4   5   55.75    1.61   0
  -5   2   3  439.88    4.02   0
  -5   4   6   39.64    1.71   0
  -6  -1   6  213.62    4.12   0
  -6   0   5   38.56    1.96   0
  -5   0   3    1.44    0.91   0
  -3  -1   1 1107.86    4.52   0
  -3   2   1    1.24    0.38   0
  -6   3   5  139.46    2.81   0
  -4  -1   2  197.30    2.48   0
  -2   0   0    4.57    0.36   0
  -2   3   2   48.65    0.91   0
  -5   4   5    1.40    0.94   0
  -4   4   4    2.49    0.90   0
  -6   1   4   53.46    1.93   0
  -6   2   4  228.58    3.59   0
  -5   3   3    0.42    0.79   0
  -4   1   1  699.61    4.21   0
  -2   1   0  323.02    1.99   0
  -6  -1   5  138.51    3.74   0
  -6   0   4   82.52    2.74   0
  -6   3   4   -0.99    0.99   0
  -5  -1   3  198.59    3.07   0
  -5   1   2    3.90    0.79   0
  -5   2   2  173.90    2.56   0
  -5   4   4  129.67    2.67   0
  -4   0   1  184.74    2.21   0
  -4   2   1    6.20    0.66   0
  -2  -1   0 2111.25    4.99   0
  -6   4   5   99.71    2.61   0
  -5   0   2  168.07    2.67   0
  -4   4   3  144.32    2.25   0
  -7   2   5  130.96    3.22   0
  -6   2   3  235.09    3.63   0
  -3   1   0   65.33    1.18   0
  -7   3   5   42.03    2.54   0
  -5   3   2    3.03    0.82   0
  -3   0   0    3.16    0.45   0
  -3   3   1   25.16    0.86   0
  -6   3   3   83.84    2.26   0
  -6   4   4    0.35    1.29   0
  -5   4   3   11.11    1.01   0
  -6   0   3    8.32    1.48   0
  -4   3   1  937.68    4.94   0
  -3   2   0  258.59    2.20   0
  -7   2   4    8.27    1.65   0
  -5   2   1   16.95    0.99   0
  -4  -1   1   10.51    0.86   0
  -2   2   0 9735.18   11.37   0
  -7   1   4  263.42    5.22   0
  -7   3   4    4.23    1.50   0
  -6   2   2  111.62    2.47   0
  -4   4   2 1726.55    7.24   0
  -2   3   1    3.88    0.43   0
  -6   1   2   37.02    1.99   0
  -6   4   3   53.83    2.25   0
  -5  -1   2  676.55    5.30   0
  -4   1   0  878.41    4.83   0
  -6   3   2  109.04    2.59   0
  -5   3   1    1.13    0.76   0
  -5   4   2    0.58    0.82   0
  -4   2   0    0.51    0.60   0
  -3  -1   0   51.50    1.13   0
  -3   4   2   16.84    0.85   0
  -5   0   1   27.19    1.39   0
  -7   2   3  117.64    3.01   0
  -7   3   3  104.03    2.78   0
  -4   0   0  180.63    2.24   0
  -6   0   2  427.78    4.95   0
  -6   5   4   41.04    2.07   0
  -4   3   0    0.78    0.50   0
  -7   4   3  177.15    4.44   0
  -6   2   1   60.00    1.98   0
  -5   2   0    0.32    0.70   0
  -4   4   1 2145.83    8.38   0
  -3   1  -1   12.21    0.65   0
  -6   1   1  167.26    3.20   0
  -6   3   1  447.73    5.00   0
  -5   1   0    3.34    0.75   0
  -5   4   1   49.81    1.68   0
  -5   5   3   20.77    1.53   0
  -7   3   2    0.18    1.29   0
  -6   5   3    0.35    1.44   0
  -5   3   0   32.77    1.36   0
  -3   0  -1  174.02    1.94   0
  -3   4   1  562.29    3.78   0
  -6   4   1    1.26    1.43   0
  -4   2  -1  314.24    3.22   0
  -7   1   2   74.89    2.84   0
  -5   0   0   92.12    2.16   0
  -5   5   2   25.08    1.50   0
  -7   5   3    4.56    1.81   0
  -6   0   1   76.66    2.77   0
  -6   5   2   55.94    2.35   0
  -2   2  -1  695.67    3.30   0
  -2   3   0  882.79    3.77   0
  -6   2   0   -0.21    1.07   0
  -4   0  -1   46.12    1.33   0
  -4   3  -1  608.42    4.40   0
  -4   4   0  804.13    5.61   0
  -7   2   1   92.39    2.78   0
  -7   3   1    5.31    1.55   0
  -5   2  -1  245.42    3.32   0
  -6   1   0  167.09    3.27   0
  -5   1  -1  270.64    3.42   0
  -5   3  -1    6.35    1.00   0
  -3   3  -1  718.66    4.18   0
  -7   5   2    4.04    1.58   0
  -6   4   0   13.25    1.40   0
  -5   5   1   15.31    1.32   0
  -6   5   1   38.86    1.93   0
  -3   4   0   16.42    0.91   0
  -3   1  -2    1.28    0.51   0
  -7   3   0  115.04    3.10   0
  -5   4  -1   83.69    2.22   0
  -4   2  -2    1.09    0.69   0
  -4   5   1    2.66    0.87   0
  -3   2  -2  206.37    2.25   0
  -7   2   0  217.04    4.76   0
  -7   5   1   17.23    2.00   0
  -6   3  -1   -1.44    1.25   0
  -5   0  -1    0.05    1.22   0
  -4   1  -2    2.84    0.74   0
  -4   4  -1  192.94    2.78   0
  -7   4   0    3.40    1.60   0
  -5   5   0   27.29    1.59   0
  -4   3  -2    8.23    0.86   0
  -2   1  -2    4.48    0.40   0
  -6   5   0   10.64    1.53   0
  -5   2  -2  721.61    5.90   0
  -2   0  -2  281.20    2.15   0
  -6   1  -1    0.93    1.25   0
  -5   3  -2   12.96    1.24   0
  -3   3  -2  116.26    1.90   0
  -2   3  -1  268.19    2.27   0
  -5   1  -2  360.26    4.17   0
  -4   0  -2   16.47    1.16   0
  -4   5   0  101.26    2.29   0
  -2   2  -2   42.90    0.94   0
  -7   3  -1  157.71    4.48   0
  -3   4  -1    4.22    0.68   0
  -7   4  -1  162.50    4.76   0
  -6   3  -2    5.63    1.47   0
  -5   4  -2    9.54    1.08   0
  -5   5  -1  290.57    4.31   0
  -6   2  -2   52.65    2.13   0
  -6   5  -1   50.43    2.19   0
  -6   4  -2   10.14    1.52   0
  -3   2  -3   22.51    1.02   0
  -4   1  -3    0.41    0.78   0
  -4   3  -3  767.27    5.80   0
  -4   5  -1   86.13    2.17   0
  -3  -1  -2 1121.34    5.10   0
  -6   1  -2   30.26    1.94   0
  -5   5  -2   55.55    2.21   0
  -3   3  -3  472.73    3.88   0
  -3   4  -2  160.04    2.38   0
  -2   4   0    3.22    0.48   0
  -6   3  -3   20.18    1.84   0
  -5   1  -3   16.47    1.45   0
  -5   4  -3    0.65    0.97   0
  -3   0  -3  368.41    3.23   0
  -2   1  -3 1982.03    6.25   0
  -1   0  -2   47.18    0.72   0
  -1   1  -2 1105.24    3.54   0
  -6   4  -3    3.74    1.53   0
  -4   4  -3  245.45    3.57   0
  -2   2  -3    5.54    0.51   0
  -6   2  -3  216.24    3.89   0
  -6   6  -1    2.72    1.80   0
  -4   0  -3  165.52    2.58   0
  -4   2  -4  279.77    3.76   0
  -2   0  -3   16.61    0.71   0
  -5   3  -4   26.09    1.76   0
  -5   6  -1   -0.38    1.56   0
  -4   3  -4  872.75    6.44   0
  -3   2  -4   58.79    1.53   0
  -6   5  -3  266.52    4.65   0
  -5   2  -4   16.14    1.55   0
  -5   5  -3   37.00    2.05   0
  -4   1  -4  115.94    2.60   0
  -3   4  -3    1.42    0.86   0
  -2   4  -1  114.38    1.73   0
  -6   1  -3    9.54    2.30   0
  -6   6  -2    0.74    2.08   0
  -5   4  -4   14.64    1.51   0
  -3   5  -1    8.13    0.96   0
  -4   4  -4   25.34    1.56   0
  -3   3  -4   43.78    1.48   0
  -2   3  -3    1.90    0.52   0
  -1   2  -2  465.85    2.51   0
  -5   6  -2    2.70    1.80   0
  -4   5  -3   12.54    1.45   0
  -6   2  -4  304.02    5.62   0
  -5   1  -4    7.63    1.44   0
  -3   0  -4   20.57    1.21   0
  -2   1  -4 1170.87    5.40   0
  -2   2  -4  246.90    2.56   0
  -6   5  -4   85.22    3.12   0
  -5   3  -5  123.60    3.77   0
  -4   3  -5   37.82    1.79   0
  -3   5  -2   20.32    1.10   0
  -2   4  -2   33.33    1.08   0
  -1   1  -3  659.79    3.18   0
  -4   0  -4  573.94    5.01   0
  -3   2  -5    8.92    1.12   0
  -2  -1  -3    1.01    0.56   0
  -5   2  -5    2.50    1.47   0
  -4   5  -4   31.08    2.11   0
  -4   1  -5  192.83    3.78   0
  -4   4  -5    6.10    1.23   0
  -3   1  -5  304.88    3.61   0
  -3   3  -5   90.51    2.10   0
  -2   0  -4  317.47    2.91   0
  -2   3  -4  576.06    4.18   0
  -3   5  -3    0.30    1.06   0
  -1   2  -3   10.34    0.53   0
  -5   5  -5   63.86    2.88   0
  -2   4  -3  554.61    4.36   0
  -5   1  -5   49.74    2.67   0
  -4   3  -6    4.53    1.30   0
  -2   2  -5  113.40    2.01   0
  -4   2  -6  103.75    2.94   0
  -4   5  -5   36.33    2.19   0
  -1   3  -2   57.30    1.03   0
  -4   4  -6    4.22    1.58   0
  -3   0  -5    1.74    1.04   0
  -3   2  -6  335.35    4.26   0
  -3   5  -4  481.48    5.46   0
  -2   3  -5    5.68    0.99   0
  -1   1  -4   81.80    1.33   0
  -3   3  -6    2.55    1.12   0
  -2   4  -4  352.46    3.81   0
  -5   5  -6    5.29    2.00   0
  -5   6  -5   83.97    3.90   0
  -4   6  -4    2.16    1.89   0
  -1   2  -4   80.21    1.39   0
  -4   1  -6   -1.09    1.40   0
  -3   1  -6    3.17    1.08   0
  -2   0  -5   21.08    0.99   0
  -1   0  -4  542.30    3.25   0
   4   0  11    6.49    1.89   0
   5   1   2  227.78    4.63   0
   4   3   7   45.50    2.89   0
   5   0   8    6.13    2.02   0
   3   4   8  169.16    3.30   0
   4   2   9  159.90    3.28   0
   4   3   2    3.38    1.99   0
   5  -1   8  117.05    3.27   0
   5   1   3   23.86    2.16   0
   3   3  10   17.49    1.77   0
   3   4   1    2.15    1.85   0
   4   1  10   36.85    2.45   0
   4   3   6  348.72    5.97   0
   5   0   3   -1.65    1.76   0
   5   1   5   66.83    3.05   0
   4   3   5  382.46    6.13   0
   5  -1   7  323.17    5.16   0
   5   0   7   25.09    2.32   0
   1   6   6   13.10    2.43   0
   3   4   2   28.83    2.84   0
   3   4   7  125.11    3.63   0
   4   3   4  100.22    3.63   0
   5  -1   5   51.02    2.73   0
   5  -1   6  104.82    3.23   0
   5   0   4    0.80    1.78   0
   5   0   5   16.29    2.41   0
   5   0   6   11.63    2.20   0
   1   6   5   -0.14    2.48   0
   2   4  10   71.63    2.37   0
   2   5   2    9.70    2.31   0
   2   5   7  198.22    4.01   0
   4   2   8    6.39    2.06   0
   3   4   3  108.77    3.80   0
   3   4   6   25.55    2.60   0
   4   0  10   33.15    2.73   0
   2   5   3    4.99    2.41   0
   2   5   6  332.61    5.54   0
   3   3   9    9.69    2.08   0
   3   4   4   39.83    3.03   0
   4   1   9   54.91    3.12   0
   2   5   4   68.35    3.34   0
   4   2   3  348.06    5.87   0
   4   2   7    1.44    2.09   0
   3   0  12   29.60    1.93   0
   4   2   4   19.91    2.74   0
   4   2   6   -2.31    2.16   0
   2   4   9   58.21    3.06   0
   4   2   5   27.27    2.49   0
   0   6   8    8.01    2.32   0
   1   5   9    5.04    1.86   0
   2   1  13    4.54    1.84   0
   2   3  11   40.91    2.10   0
   3   2  10   61.94    2.53   0
   4   0   9   27.04    2.34   0
   3   1  11   54.95    2.56   0
   1   4  11   25.71    2.02   0
   3   3   7    7.45    2.31   0
   2   4   8   28.69    2.47   0
   4  -1   8    1.89    2.34   0
   4   0   8    2.40    2.08   0
   4   1   5   59.02    2.94   0
   4   1   6  130.91    3.85   0
   1   5   8    1.01    2.17   0
   3   2   9   18.68    2.43   0
   3   3   4   96.53    3.40   0
   3   3   5   33.60    2.68   0
   3   3   6   41.61    2.93   0
   4   0   7    2.57    2.45   0
   0   6   6    0.42    2.16   0
   2   0  13   44.44    2.14   0
   2   3  10   59.72    3.23   0
   2   4   7   13.64    2.90   0
   3   0  11  156.91    3.50   0
   4   0   6   85.94    3.16   0
   1   5   3   32.48    3.12   0
   1   5   7   58.18    3.14   0
   2   4   3  216.44    4.86   0
   3   1  10    7.96    2.26   0
   0   5  10   41.97    2.71   0
   2   4   5   34.97    3.10   0
   3   2   8   18.08    2.49   0
  -1   6   9   12.24    2.03   0
   0   4  12   13.88    2.08   0
   1   4  10   14.52    2.19   0
   1   5   5   45.37    3.33   0
   1   5   6   84.75    3.55   0
   2   2  11   43.17    3.05   0
   2   1  12   45.65    2.42   0
   2   3   9   11.00    2.32   0
   3   0  10   13.46    2.48   0
   3   2   7    7.82    2.19   0
   3   2   5    1.12    2.21   0
   3   2   6  127.91    4.05   0
  -1   4  13  103.22    2.69   0
  -1   6   8    2.12    1.89   0
   0   3  13    3.47    1.75   0
   0   5   9   14.99    2.38   0
   1   4   9    6.11    2.23   0
   2   0  12    6.32    2.32   0
   2   3   8    7.53    2.37   0
  -2   6  10    3.43    2.10   0
  -1   5  11    6.64    2.17   0
   1   3  11   77.82    3.16   0
   3   0   9   -1.05    2.33   0
   2   1  11    0.50    2.55   0
   3  -1   9    3.03    1.97   0
  -1   3  14   24.29    2.04   0
   0   4  11   74.43    3.01   0
   0   5   8    3.73    2.16   0
   1   1  13  266.02    4.02   0
   1   2  12   12.22    2.54   0
   1   4   8    0.46    2.12   0
   2   3   6   11.62    2.44   0
   2   3   5   20.45    2.22   0
  -2   5  12   33.83    2.39   0
   0   5   7  174.71    4.86   0
   2   2   9   23.33    2.61   0
  -2   6   9   46.93    2.93   0
   1   3  10    9.65    2.35   0
   1   4   6  130.85    4.49   0
   2   0  11    4.43    1.99   0
  -1   5  10   37.60    2.77   0
   0   1  14  126.25    3.05   0
   0   3  12    1.20    1.95   0
   0   5   5   97.77    3.78   0
   0   5   6    1.98    2.21   0
   1   0  13    0.46    1.86   0
   1   4   5    7.03    2.03   0
   2   2   8   32.97    2.56   0
  -1   4  12   49.14    2.60   0
   0   4  10    2.73    2.29   0
  -1   1  15    0.96    1.53   0
   1   1  12    2.98    2.43   0
   1   2  11   53.36    3.07   0
   1   3   9  179.49    5.25   0
   2   2   7   18.56    2.36   0
  -2   6   8   30.04    2.66   0
   2   0  10    2.22    2.60   0
  -3   6  10   48.65    2.74   0
  -2   4  13   -0.25    1.95   0
  -1   5   9  299.09    5.63   0
   0   0  14   50.61    2.63   0
   0   4   9    5.10    2.83   0
  -4   6  11    6.03    1.98   0
  -2   5  11   12.30    2.09   0
  -1   0  15    6.95    1.82   0
   1   3   8  286.37    6.02   0
   0   3  11   28.70    2.74   0
   1   0  12   18.79    2.87   0
   1   2  10  124.82    4.05   0
  -3   5  12   71.34    2.99   0
  -2   3  14   45.85    2.23   0
  -1   4  11   55.81    3.13   0
  -1   5   8  233.45    5.42   0
   1   3   7  268.73    5.70   0
  -3   6   9   31.31    2.90   0
   0   1  13   22.58    2.35   0
   0   2  12   33.21    2.81   0
   1   1  11  152.86    4.11   0
  -1   5   7   48.95    3.46   0
   0   4   7  169.15    5.11   0
  -2   5  10   33.31    2.78   0
   0   3  10  103.68    4.08   0
   1   2   9   54.44    3.18   0
  -2   4  12   22.57    2.70   0
  -1   1  14   36.57    2.76   0
  -1   4  10    4.31    2.70   0
  -1   5   6    0.32    2.16   0
   0   4   6  599.07    8.29   0
  -4   4  14    0.41    1.53   0
  -4   6  10    1.33    2.35   0
  -3   6   8    6.80    2.83   0
  -2   1  15   13.29    2.13   0
  -1   2  13   10.15    2.19   0
   0   2  11    0.83    2.20   0
   1   2   8  251.98    5.58   0
  -3   5  11   22.00    2.60   0
  -2   3  13   -0.42    2.59   0
  -2   5   9   18.13    2.82   0
   0   1  12    1.70    2.32   0
   0   3   9    5.46    2.30   0
  -4   5  12   61.72    3.06   0
  -2   2  14   62.77    2.74   0
  -3   3  14   42.73    2.48   0
  -2   0  15    1.12    1.69   0
  -1   3  11   59.10    3.49   0
   1   0  10    1.79    2.25   0
  -4   6   9    8.20    2.40   0
  -2   4  11    4.91    2.48   0
  -2   5   8    0.25    2.41   0
   0   3   8   41.68    2.98   0
   0   2  10    8.40    2.29   0
  -8   6   7   25.24    1.70   0
  -6   5   8    7.47    1.49   0
  -5   3   8  130.52    2.66   0
  -5   4   8  136.52    2.74   0
  -5   7   6   25.45    1.66   0
  -4   7   5    7.35    1.74   0
  -8   5   7   55.01    1.98   0
  -6   4   8   90.67    2.46   0
  -6   8   5   57.50    2.25   0
  -6   9   3  195.14    2.86   0
  -4   5   7   69.82    2.15   0
  -9   8   4   13.18    1.42   0
  -4   6   6   20.27    1.62   0
  -9   5   5    0.87    1.58   0
  -7   6   7   61.14    2.18   0
  -5   8   4   63.76    2.51   0
  -7   9   3    3.00    1.39   0
  -9   6   5  139.88    2.45   0
  -7   4   7   59.30    2.15   0
  -7   5   7   21.19    1.67   0
  -7   7   6    3.62    1.33   0
  -5   5   7   20.41    1.53   0
  -8   6   6   99.08    2.42   0
  -6   3   7   50.15    2.02   0
  -6   5   7   18.74    1.83   0
  -9   8   3    9.78    1.45   0
  -8   5   6   28.55    1.80   0
  -5   4   7    5.21    1.19   0
  -5   7   5    4.94    1.33   0
  -9   5   4    0.07    1.48   0
  -8   7   5   19.53    1.93   0
  -8   8   4   54.78    1.83   0
  -6   4   7   39.59    1.85   0
  -6   8   4    6.07    1.61   0
  -6   9   2   72.82    2.27   0
  -4   5   6  335.94    3.89   0
  -4   7   4   14.87    1.65   0
  -7   6   6    3.59    1.43   0
  -9   6   4   95.19    2.31   0
  -7   9   2    5.32    1.44   0
  -5   8   3   49.76    2.39   0
  -4   6   5   17.12    1.44   0
  -8   4   5    7.51    1.60   0
  -7   4   6   12.17    1.85   0
  -9   8   2    3.77    1.15   0
  -8   6   5   24.34    1.71   0
  -7   5   6   15.05    1.64   0
  -5   5   6   14.77    1.36   0
  -9   5   3    3.29    1.39   0
  -8   5   5   -0.04    1.44   0
  -8   8   3  219.64    3.13   0
  -8   9   1    1.64    1.39   0
  -6   5   6   63.96    2.20   0
  -9   6   3    8.76    1.70   0
  -8   7   4    2.98    1.27   0
  -7   3   5   42.05    2.31   0
  -6   8   3   14.02    1.72   0
  -6   9   1   20.67    1.75   0
  -5   7   4    0.60    1.28   0
  -9   8   1   15.36    1.49   0
  -7   6   5   36.57    2.13   0
  -7   8   3   34.74    2.10   0
  -7   9   1   25.03    1.71   0
  -4   7   3  705.44    6.27   0
  -8   4   4   82.39    2.57   0
  -6   6   5    6.82    1.32   0
  -8   9   0   21.43    1.61   0
  -7   4   5  174.93    3.46   0
  -7   7   4  173.09    3.18   0
  -5   8   2   18.38    1.88   0
  -4   6   4  128.83    2.63   0
  -9   6   2    2.58    1.58   0
  -8   5   4   -0.36    1.40   0
  -8   8   2  354.45    3.85   0
  -9   8   0    0.42    1.16   0
  -8   7   3    8.28    1.51   0
  -6   9   0   20.58    1.81   0
  -5   5   5  135.46    2.63   0
  -7   9   0   10.65    1.61   0
  -6   5   5   28.67    1.72   0
  -6   8   2   17.28    1.88   0
  -9   8  -1    1.15    1.11   0
  -8   4   3   10.03    1.68   0
  -7   6   4    6.33    1.63   0
  -7   8   2   40.89    1.80   0
  -5   7   3   14.14    1.54   0
  -9   6   1   20.24    1.60   0
  -8   8   1  183.23    3.17   0
  -7   7   3   13.01    1.82   0
  -9   7   0    1.45    1.44   0
  -8   9  -2    2.48    1.38   0
  -7   4   4   89.56    2.57   0
  -6   6   4   65.79    2.16   0
  -5   8   1   69.16    2.65   0
  -4   7   2   53.46    2.19   0
  -8   7   2   24.59    1.87   0
  -7   9  -1    9.06    1.60   0
  -6   9  -1   38.95    2.03   0
  -9   6   0   24.44    1.57   0
  -9   7  -1   -0.35    1.33   0
  -8   8   0   18.55    1.83   0
  -7   8   1   14.81    1.48   0
  -6   5   4   38.81    1.80   0
  -6   8   1    4.66    1.46   0
  -9   7  -2    1.54    1.34   0
  -7   6   3   39.66    1.92   0
  -5   7   2   33.94    1.97   0
  -9   6  -2    6.46    1.47   0
  -9   7  -3   54.13    1.57   0
  -8   5   2  144.17    3.00   0
  -8   7   1   17.50    1.67   0
  -7   9  -2    4.92    1.33   0
  -6   6   3  212.54    3.66   0
  -6   9  -2   34.96    1.72   0
  -5   8   0   36.08    2.23   0
  -8   8  -1    5.92    1.26   0
  -7   8   0    1.90    1.59   0
  -4   7   1   27.52    1.83   0
  -6   8   0   17.61    1.95   0
  -8   5   1   57.80    2.49   0
  -8   7   0   28.67    1.76   0
  -8   8  -2   24.85    1.87   0
  -7   6   2    4.86    1.52   0
  -6   9  -3    1.26    1.45   0
  -7   7   1    4.72    1.41   0
  -6   5   3   -0.37    1.07   0
  -7   8  -1    8.01    1.71   0
  -5   7   1    0.21    1.09   0
  -5   9  -4   28.15    1.61   0
  -8   7  -1   78.62    2.60   0
  -8   8  -3    5.17    1.31   0
  -7   4   2   36.69    1.84   0
  -7   5   2    4.20    1.33   0
  -6   6   2  500.87    5.65   0
  -6   7   1    1.09    1.30   0
  -6   9  -4   -0.34    1.43   0
  -5   8  -1   85.16    2.48   0
  -8   5   0   34.18    1.83   0
  -8   8  -5    0.20    1.11   0
  -8   8  -4    1.08    1.14   0
  -6   8  -1   62.67    2.23   0
  -7   7   0   37.87    1.95   0
  -6   9  -5    2.17    1.45   0
  -4   7   0  562.67    5.61   0
  -8   7  -2  121.83    2.66   0
  -7   8  -2    0.55    1.28   0
  -6   9  -6   71.03    1.99   0
  -8   5  -1    2.33    1.66   0
  -8   6  -1   19.09    1.64   0
  -6   5   2   58.40    2.11   0
  -5   9  -6    6.06    1.37   0
  -8   7  -3  113.56    2.55   0
  -7   4   1   62.73    2.08   0
  -7   5   1   15.06    1.50   0
  -6   7   0    3.98    1.38   0
  -5   7   0  200.97    3.41   0
  -5   8  -2   16.61    1.61   0
  -8   6  -2   20.93    1.99   0
  -7   7  -1   90.46    2.58   0
  -7   8  -3    0.57    1.19   0
  -6   6   1  848.78    6.93   0
  -8   5  -2   11.33    1.62   0
  -8   7  -4   29.23    1.64   0
  -7   6   0    7.47    1.52   0
  -8   6  -3   50.50    2.31   0
  -7   8  -4    9.64    1.55   0
  -4   7  -1  133.47    3.04   0
  -8   5  -3    0.71    1.37   0
  -8   6  -6   33.17    1.48   0
  -8   6  -4   12.35    1.65   0
  -7   8  -5   40.81    2.10   0
  -6   7  -1   78.29    2.89   0
  -5   8  -3    2.57    1.52   0
  -8   6  -5    0.69    1.17   0
  -7   4   0    1.42    1.44   0
  -7   5   0    7.45    1.34   0
  -7   7  -2   12.86    1.66   0
  -7   8  -7   47.27    1.68   0
  -7   8  -6    0.58    1.21   0
  -5   7  -1   19.08    1.54   0
  -7   6  -1    7.64    1.48   0
  -6   6   0  127.47    3.02   0
  -4   8  -4   -0.33    1.65   0
  -7   7  -3    2.48    1.30   0
  -5   8  -4   95.07    2.71   0
  -7   4  -1  163.49    3.16   0
  -7   5  -1    0.91    1.21   0
  -6   7  -2   14.67    1.52   0
  -6   8  -9   11.37    1.28   0
  -4   7  -2  123.35    2.90   0
  -7   6  -2   13.07    1.75   0
  -7   7  -8  103.92    2.18   0
  -7   7  -4   10.65    1.53   0
  -5   7  -2   38.22    1.84   0
  -4   8  -5    7.49    1.53   0
  -7   7  -5    5.15    1.62   0
  -6   6  -1   -0.54    1.25   0
  -6   8  -8   57.60    1.86   0
  -6   8  -7   61.36    2.33   0
  -6   8  -6    5.25    1.51   0
  -5   8  -5   19.80    1.73   0
  -7   4  -2  135.73    3.23   0
  -7   5  -2    5.59    1.36   0
  -7   6  -3    1.22    1.75   0
  -7   7  -7    0.84    1.29   0
  -7   7  -6   -0.50    1.48   0
  -6   7  -3    8.71    1.47   0
  -5   8  -6    2.34    1.55   0
  -4   8  -6   -0.46    1.38   0
  -5   8  -9  138.21    2.71   0
  -7   4  -3    5.99    1.88   0
  -7   5  -3  127.08    2.76   0
  -7   6  -4   66.04    2.31   0
  -6   5  -1   47.62    1.84   0
  -6   6  -2   -0.29    1.22   0
  -6   7 -10    3.10    1.36   0
  -6   7  -4   37.33    1.97   0
  -5   8  -8  116.76    2.53   0
  -5   8  -7    7.87    1.58   0
  -4   8 -10    5.46    1.26   0
  -4   8  -7   20.28    2.00   0
  -7   5  -8    2.21    1.29   0
  -4   8  -9    0.95    1.43   0
  -4   8  -8    4.68    1.68   0
  -7   4  -4    4.91    1.78   0
  -7   5  -4   17.76    1.68   0
  -7   4  -6   21.79    1.98   0
  -7   5  -7    8.15    1.53   0
  -7   5  -5    0.12    1.58   0
  -6   7  -9   50.87    1.77   0
  -6   7  -5    0.75    1.28   0
  -5   6  -2    1.93    1.29   0
  -7   5  -6   24.21    1.83   0
  -6   6  -3   67.93    2.57   0
  -6   7  -8   33.19    2.22   0
  -6   7  -6   15.84    1.67   0
  -4   7  -4   76.08    2.52   0
  -6   5  -2  287.85    4.02   0
  -6   7  -7   43.63    2.01   0
  -5   7 -11    0.74    1.42   0
  -6   6 -10   63.97    2.00   0
  -6   6  -4    5.00    1.37   0
  -6   5  -3  258.74    3.87   0
  -5   6  -3   36.72    1.90   0
  -5   7 -10   14.92    1.76   0
  -5   7  -6    0.86    1.82   0
  -4   7  -5   15.69    1.69   0
  -6   4 -10    0.66    1.24   0
  -6   6  -9   14.47    1.52   0
  -6   6  -5    4.57    1.48   0
   3   2   0   10.78    1.01   0
   5  -1   1  260.30    3.39   0
   1   1   1  136.68    1.46   0
   3   3  -1  202.35    3.72   0
   3   4  -3  240.07    4.49   0
   4   3  -2   36.84    2.24   0
   3  -1   2    0.91    0.56   0
   4   4  -4    0.87    1.97   0
   5   1   0    9.10    1.46   0
   5   2  -1  129.49    3.96   0
   1   4  -2    4.57    0.81   0
   2   4  -2    0.42    1.06   0
   4  -1   2    3.22    0.72   0
   5   0   1   -0.12    1.08   0
   6   0   0  356.26    5.69   0
   0   3  -1   61.65    1.19   0
   2   0   2  275.35    2.31   0
   2   2   1   55.30    1.44   0
   4  -2   2    1.74    0.61   0
   2   3   0  498.82    4.44   0
   3  -2   2  187.90    1.76   0
   3   4  -2   75.52    2.97   0
   4   3  -1   16.75    1.89   0
   2  -1   2    3.79    0.33   0
   3   2   1   54.26    1.77   0
   4   0   2   17.22    1.09   0
   6  -1   1    0.59    1.33   0
   1   2   1   59.00    1.25   0
   3   3   0  178.31    3.50   0
   0   4  -2  888.42    4.82   0
   2   1   2  242.91    2.57   0
   3   1   2 1162.89    6.65   0
   5  -1   2  387.63    4.11   0
   1   4  -1  211.51    3.07   0
   2   4  -1  161.15    3.24   0
   5   2   0   13.48    2.17   0
   2   5  -3  690.48    7.41   0
   4   2   1  490.56    6.08   0
   6   0   1  425.24    6.02   0
   4   1   2    0.75    1.04   0
   4   3   0    5.77    1.63   0
   5   0   2   82.58    2.52   0
   2   3   1   78.64    2.15   0
   0   3   0  829.54    4.43   0
   1   1   2   26.46    0.79   0
   2   2   2   97.77    2.02   0
   3   2   2  156.68    3.12   0
   3   0   3  402.87    3.75   0
   3   3   1    0.45    1.15   0
   4  -1   3    0.69    1.01   0
   0   4  -1   84.79    1.77   0
   1   0   2   50.83    0.88   0
   2   4   0  352.26    4.78   0
   2   5  -2    1.80    1.51   0
   3  -1   3    1.27    0.52   0
   4   0   3  179.47    3.13   0
   5   2   1  103.73    3.91   0
   1   2   2  316.65    3.07   0
   1   5  -2  371.23    4.82   0
   3   1   3  109.34    2.45   0
   5   1   2  245.18    4.74   0
   0   2   1  168.53    1.72   0
   2   1   3    0.48    0.61   0
   4   2   2  149.20    3.52   0
   4   3   1   40.47    2.64   0
   5  -1   3   15.82    1.59   0
   6   0   2   39.14    2.74   0
   2   3   2   50.49    1.92   0
   5   0   3    0.94    1.58   0
   2   5  -1    7.50    1.97   0
   3   3   2  237.35    4.41   0
   0   3   1 1448.30    6.35   0
   0   4   0  165.93    2.51   0
   1   3   2  353.18    3.96   0
   1   5  -1  412.57    5.06   0
   2   2   3   59.66    1.86   0
   3   2   3    3.19    1.02   0
   2  -1   3 1915.01    6.21   0
   1   1   3  504.06    3.58   0
   3  -2   3   24.42    0.91   0
   3   0   4   18.86    1.32   0
   5   1   3   19.67    2.17   0
   1   2   3  662.37    5.42   0
   4   0   4  581.62    5.96   0
   4   2   3  360.86    5.61   0
   2   5   0    7.06    1.90   0
   4  -1   4  118.54    2.50   0
   0   2   2  669.32    3.92   0
   2   1   4   81.01    2.04   0
   2   3   3   42.64    1.88   0
   3  -1   4  174.73    2.51   0
   4   1   4    5.61    1.73   0
   0   4   1   28.81    1.43   0
   1   0   3 2092.40    6.52   0
   2   0   4  332.97    3.32   0
   3   3   3   86.72    2.90   0
   1   4   2   11.05    1.44   0
   2   2   4  281.43    4.31   0
   3   2   4    8.29    1.48   0
   3   4   2   28.03    2.41   0
   5   0   4    0.63    1.78   0
   0   1   2   21.55    0.67   0
   0   5   0  274.06    4.11   0
   2   5   1   14.28    2.33   0
   1   5   1   31.23    2.20   0
   1   1   4  520.06    4.12   0
   2   4   3  202.43    4.89   0
   3   0   5    1.54    1.23   0
   0   2   3   46.24    1.37   0
   0   4   2  217.69    3.43   0
   2   3   4   10.81    1.64   0
   3   1   5    0.92    1.27   0
   3   3   4   87.22    3.40   0
   4   0   5  569.09    6.44   0
  -1   3   0    0.55    0.36   0
   0   3   3    4.52    0.95   0
   2  -1   4 1146.28    5.86   0
   2   1   5  146.76    3.09   0
   4  -1   5  214.43    3.89   0
   4   1   5   48.72    2.77   0
   0   5   1  284.60    4.30   0
   1   3   4   76.18    2.54   0
   2   2   5 1101.13    8.89   0
   3   2   5    0.81    1.98   0
   2   0   5   21.56    1.20   0
   3  -1   5  287.11    3.77   0
   0   1   3 3768.12    9.66   0
  -1   3   1    0.01    0.54   0
   0   4   3   36.93    1.89   0
   2   4   4   67.96    3.28   0
   0   5   2    4.75    1.71   0
   1   1   5  370.31    4.29   0
   1   2   5   46.10    1.75   0
   1   4   4   85.00    3.42   0
   2   3   5   22.16    2.00   0
  -1   4   1   63.36    1.56   0
   0   3   4    1.30    0.82   0
   3   1   6   43.64    2.79   0
   1   3   5    1.35    1.15   0
   1   5   3   38.84    2.75   0
   3   0   6   21.43    1.80   0
   4   0   6   89.36    3.50   0
  -1   3   2   14.68    0.93   0
   2   2   6  303.00    5.52   0
  -1   4   2    0.70    0.80   0
   0   5   3   38.09    2.39   0
   2   0   6  114.80    2.71   0
  -1   5   1    4.13    1.11   0
   1   2   6    4.33    1.11   0
   1   4   5    8.23    2.04   0
   3  -1   6    1.38    1.55   0
   0   2   5   98.07    2.31   0
   0   3   5   41.07    1.88   0
   1   1   6   94.15    2.57   0
   2   3   6    9.68    2.06   0
  -1   2   2   22.15    0.76   0
  -1   4   3  532.99    5.57   0
   1   3   6   14.12    1.98   0
  -1   5   2  106.57    2.88   0
   3   1   7  526.59    7.73   0
   0   1   5  830.66    6.22   0
   2   1   7  135.16    3.60   0
   3   0   7  179.62    4.14   0
  -1   2   3  588.23    4.03   0
  -1   3   4    0.55    0.77   0
  -1   4   4  629.37    6.60   0
   0   0   3 3500.35    7.92   0
   0   2   6  277.14    4.53   0
   0   3   6  481.28    6.34   0
   1  -1   4   69.38    1.44   0
   1   0   6   89.76    2.33   0
   1   4   6  123.44    4.32   0
   2  -1   6  304.88    4.24   0
   2   0   7  113.16    3.69   0
   1   2   7    0.39    1.39   0
   1   3   7  263.34    5.54   0
  -1   2   4   58.15    1.71   0
   0   4   6  688.93    8.84   0
   0   5   5  102.73    3.92   0
  -1   5   4  122.34    3.58   0
   0   0   4 1130.04    5.59   0
   2   1   8   22.22    2.47   0
  -1   2   5    0.18    0.74   0
   0   2   7   28.19    1.95   0
   0   3   7    1.97    1.57   0
   1  -1   5   32.25    1.41   0
   1   0   7 1236.31    8.91   0
   3   0   8   21.80    2.70   0
   1   2   8  249.63    5.56   0
   2  -1   7   58.58    2.49   0
   2   0   8    7.50    2.05   0
  -1   3   6  165.76    3.65   0
  -1   5   5   17.84    2.30   0
   0   0   5  874.63    5.37   0
   0   4   7  150.00    4.67   0
   0   1   7  203.76    3.90   0
  -2   4   2   10.17    1.01   0
  -1   1   3 2077.03    7.11   0
  -2   4   3    2.46    0.75   0
  -2   5   2  287.16    3.80   0
   0   2   8   10.79    1.78   0
   0   3   8   37.95    2.80   0
   1  -1   6   20.95    1.36   0
  -2   5   3  240.12    4.05   0
  -1   1   2    4.40    0.39   0
  -1   1   4  447.65    3.95   0
  -1   3   7   67.09    2.78   0
  -1   5   6    1.33    1.95   0
  -1   4   7    9.58    2.02   0
   1   0   8  461.21    6.94   0
  -2   5   4    0.50    1.43   0
  -1   1   5   45.25    1.52   0
  -1   2   7  553.61    6.95   0
   1   1   9  129.34    4.48   0
   2  -1   8  107.14    3.61   0
  -2   3   2   45.39    1.27   0
  -2   4   5    8.57    1.38   0
   2   0   9    8.13    2.32   0
  -2   3   5  490.14    4.88   0
  -2   5   5    8.85    1.87   0
  -1   1   6  296.12    4.31   0
   1  -1   7  236.77    3.91   0
  -1   3   8   61.26    3.08   0
   0   2   9   91.48    3.98   0
  -2   4   6   57.44    2.67   0
  -1   4   8  116.13    4.68   0
  -2   3   1    3.74    0.46   0
  -2   5   6  112.14    4.01   0
   0   1   9    7.55    2.18   0
   1   0   9   20.25    2.22   0
  -1   1   7   53.93    2.24   0
  -2   2   4   56.86    1.74   0
  -2   3   7   24.52    2.01   0
  -1   3   9    8.27    2.25   0
   1  -1   8    6.84    1.49   0
  -2   2   3  512.73    3.71   0
  -2   2   6  165.97    3.45   0
  -2   5   7   63.45    3.36   0
  -1   2   9  344.74    7.03   0
  -2   3   8    6.99    1.73   0
   0   1  10  195.56    5.60   0
   1   0  10    0.28    2.44   0
   0  -1   5    1.74    0.72   0
  -3   5   4   23.68    1.97   0
  -1   0   5   88.23    1.87   0
  -1   0   6   56.38    2.05   0
  -1   1   9   46.99    2.76   0
  -3   4   4    6.52    1.33   0
  -3   4   5   28.91    1.78   0
  -3   5   5    0.98    1.63   0
  -2   2   8   84.79    3.10   0
  -1   0   4  163.89    2.39   0
  -1   2  10   42.17    3.19   0
  -3   4   6   -0.22    1.42   0
  -2   3   9    7.49    1.94   0
   0  -1   7   48.76    1.91   0
  -3   4   3   17.79    1.34   0
   0   0  10   30.21    2.94   0
  -3   5   7   28.79    3.24   0
  -3   3   5   19.75    1.39   0
  -2   1   5  174.74    2.62   0
  -2   1   6  137.53    3.15   0
  -2   1   7   24.08    1.63   0
   0  -1   8   30.76    1.96   0
  -3   3   4 1182.16    7.34   0
  -3   3   7   34.15    2.21   0
  -3   4   8   58.61    3.28   0
  -1   0   3    6.45    0.52   0
  -2   1   8    7.17    1.61   0
  -1   0   9    9.59    1.67   0
   2   4  -9  871.00    7.21   0
   2   5  -9    2.70    1.99   0
   5   4  -9  136.45    3.61   0
   6   4  -8   46.69    2.18   0
   7   0  -6  146.01    3.51   0
   3   3  -9  162.85    3.55   0
   4   5  -9   12.90    1.89   0
   5   1  -8   51.98    2.58   0
   5   3  -9   23.23    2.10   0
   3   5  -9   12.97    2.13   0
   4   3  -9   43.40    2.81   0
   4   6  -8   77.66    2.55   0
   5   5  -8   37.53    2.31   0
   6   2  -8   29.59    2.21   0
   6   3  -8   54.33    2.75   0
   6   5  -6   -0.55    1.70   0
   3   4  -9  285.00    4.79   0
   3   7  -7   63.41    2.51   0
   7   1  -6    9.28    2.26   0
   5   6  -6   46.74    2.09   0
   7   0  -5   39.83    2.39   0
   3   6  -8   33.30    2.49   0
   5   2  -8    3.53    1.94   0
   6   0  -6  291.15    4.77   0
   6   4  -7   68.63    2.57   0
   7   2  -6    2.30    1.63   0
   4   2  -8  124.39    3.34   0
   5   4  -8    2.51    1.75   0
   6   5  -5    0.50    1.40   0
   7   3  -5   80.94    2.64   0
   4   5  -8   32.48    2.60   0
   5   1  -7    9.89    1.65   0
   5   3  -8   96.47    3.23   0
   6   3  -7    1.99    2.10   0
   7   0  -4   14.81    2.27   0
   7   1  -5   85.14    3.00   0
   4   6  -7   75.72    2.71   0
   5   5  -7  137.01    3.36   0
   7   2  -5    2.06    1.98   0
   2   5  -8  204.28    3.96   0
   4   3  -8   14.75    1.81   0
   6   0  -5   34.47    2.36   0
   6   4  -6   13.85    2.39   0
   6   5  -4   14.83    1.57   0
   7   3  -4    0.32    1.53   0
   3   4  -8   80.76    3.10   0
   3   5  -8    6.78    1.80   0
   3   7  -6   43.88    2.39   0
   6   1  -6  217.18    4.29   0
   5   2  -7  178.89    4.03   0
   7   1  -4    4.95    1.79   0
   7   2  -4   47.42    2.75   0
   7   3  -3   10.82    1.69   0
   3   6  -7    4.68    2.24   0
   5   4  -7    4.12    1.77   0
   5   6  -4  106.37    2.33   0
   6   2  -6   34.93    2.22   0
   6   3  -6   58.93    2.69   0
   7   3  -2   13.56    1.62   0
   5   3  -7   32.50    2.27   0
   5   5  -6  117.34    3.39   0
   6   4  -5   34.75    2.34   0
   2   6  -7   77.01    2.69   0
   2   7  -6    0.18    1.99   0
   5   6  -3    3.43    1.45   0
   7   1  -3    2.89    1.64   0
   7   2  -3  207.27    4.02   0
   6   1  -5  129.95    3.43   0
   3   7  -5  223.06    3.69   0
   4   3  -7   33.83    2.14   0
   4   4  -7  157.15    3.95   0
   6   3  -5   50.00    2.59   0
   6   4  -4   48.11    2.70   0
   7   1  -2   65.99    2.67   0
   7   2  -2  171.94    3.67   0
   2   5  -7    3.07    1.75   0
   5   2  -6  414.38    5.65   0
   5   4  -6    2.54    1.77   0
   5   5  -5  160.64    3.64   0
   7   2  -1   13.89    1.62   0
   3   4  -7   21.95    2.03   0
   5   3  -6   25.92    2.11   0
   3   6  -6    0.48    1.74   0
   4   5  -6   42.93    2.50   0
   6   1  -4  161.78    3.65   0
   6   4  -3   61.36    2.44   0
   3   7  -4  202.50    3.60   0
   2   6  -6   82.74    3.08   0
   2   7  -5   22.34    2.15   0
   5   4  -5   19.39    2.44   0
   5   5  -4   61.74    2.49   0
   6   2  -4   21.94    2.12   0
   4   3  -6  379.36    5.36   0
   4   4  -6   27.62    2.14   0
   4   6  -4   40.24    2.70   0
   6   4  -1    2.18    1.84   0
   6   4   0   27.70    1.88   0
   3   5  -6  181.03    4.15   0
   5   2  -5  154.35    3.65   0
   5   3  -5   54.06    2.50   0
   6   1  -3   56.71    2.38   0
   3   6  -5   70.61    3.15   0
   3   7  -3    6.15    1.94   0
   4   5  -5   31.38    2.33   0
   5   5  -3    4.18    1.84   0
   2   5  -6  626.15    6.66   0
   6   2  -3  108.72    3.35   0
   2   7  -4   60.37    3.10   0
   4   6  -3   52.67    2.54   0
   5   4  -4   12.11    1.95   0
   5   5  -2    6.86    2.07   0
   6   3  -2    8.28    1.86   0
   4   4  -5  216.66    4.70   0
   6   1  -2    2.58    1.68   0
   2   6  -5   63.72    2.88   0
   4   3  -5   24.09    1.83   0
   4   6  -2  103.36    3.02   0
   5   3  -4    7.44    1.74   0
   5   5  -1   20.03    1.88   0
   6   2  -2   32.30    2.27   0
   6   3  -1   41.17    2.31   0
   1   8  -2  206.42    3.85   0
   3   5  -5   64.87    2.65   0
   3   6  -4    6.98    2.01   0
   5   4  -3  290.52    5.03   0
   5   5   0    8.41    1.60   0
   6   3   1  137.98    3.16   0
   6   1  -1    8.35    1.83   0
   6   2  -1    1.16    1.89   0
   2   7  -3  102.07    3.75   0
   3   7   0   55.27    2.34   0
   4   6  -1    3.19    1.65   0
   2   5  -5    3.16    1.66   0
   3   7   1    1.89    1.41   0
   4   6   0   52.00    2.21   0
   4   6   1   15.32    1.68   0
   5   3  -3   11.89    1.92   0
   5   4  -2  240.62    4.85   0
   6   2   0   18.49    2.11   0
   1   8  -1  127.74    3.17   0
   4   4  -4    1.72    1.59   0
   4   5  -3  204.98    4.62   0
   5   4   4  123.30    2.41   0
   6   2   1    0.52    2.03   0
   2   6  -4   11.74    2.25   0
  -3   2   2   92.41    1.38   0
  -1   0   0   48.69    0.42   0
   1  -4   1 1327.31    5.37   0
   1  -1   0  237.30    1.22   0
   0  -2   0    0.39    0.16   0
   3  -1   3    1.50    0.43   0
   2  -1   1  982.99    3.25   0
  -2   2   1 3697.62    6.81   0
   0   2   2  646.04    2.08   0
  -1   2   1 1442.48    3.70   0
  -1   3   3    8.78    0.52   0
  -3   2   1    1.08    0.35   0
  -2   3   2   42.62    0.98   0
  -2   0   0    4.17    0.23   0
   1  -3   1   79.57    1.08   0
  -2   1   0  320.96    1.75   0
   0  -3   1   64.02    0.86   0
  -1   1   0  237.06    1.16   0
   0  -1   0  117.66    0.57   0
   2   0   3   13.02    0.45   0
  -1   3   2   13.72    0.56   0
   2  -2   2   45.43    0.89   0
  -3   1   0   54.34    0.92   0
  -2   2   0 9605.78   11.30   0
   1  -2   1  105.24    1.08   0
  -3   2   0  283.06    2.39   0
   1   0   1 1699.47    2.71   0
   2   0   4  332.31    2.36   0
  -3   0   0    3.34    0.32   0
   2  -2   3    5.73    0.65   0
   2  -1   3 2013.95    6.04   0
   0   1   0  111.11    0.63   0
   1   0   4  588.18    3.66   0
   1   2   2  306.85    2.66   0
   1   3  -1  109.49    1.22   0
   1  -2  -3  564.24    3.48   0
   1   2  -5  129.05    1.37   0
   1   3   0   28.58    0.85   0
   1   0  -5   89.12    1.45   0
   0   1   1  279.11    1.42   0
   0   0   1  585.23    1.49   0
   1   1  -5  993.42    4.10   0
   1   3   1   53.15    1.27   0
   0   0   2    1.58    0.22   0
   0   1   2   19.89    0.53   0
   0   2   1  151.41    1.28   0
   0   0   3 3370.22    6.25   0
   0   1   3 3841.50    7.59   0
   1  -2   5   51.18    1.05   0
   1   2  -4  156.70    1.21   0
   0   0   4 1181.66    4.37   0
   2  -3  -2   37.48    1.02   0
   0   0   5  685.00    3.87   0
   0   3   1 1325.12    4.42   0
   0   2  -1  889.77    1.31   0
   1  -1  -2    3.87    0.33   0
   1   0  -3    6.30    0.36   0
   2  -2  -3  518.18    3.30   0
   2   2  -5    7.19    0.63   0
   0  -1   5    1.59    0.38   0
   0   3   0  798.88    2.76   0
   2  -3  -1    3.61    0.45   0
   0  -1   2   40.38    0.44   0
   1   1  -3   52.21    0.69   0
   3  -4   0   14.46    0.81   0
  -1   1   4  518.60    3.09   0
  -1   2   3  528.23    2.99   0
   2  -2  -2 1615.68    5.32   0
  -1   1   3 2166.99    5.36   0
   2  -3   0  907.71    3.66   0
  -1   0   5   88.46    1.35   0
  -1   3   2   13.34    0.55   0
  -1   0   4  159.41    1.76   0
  -1   1   2    3.78    0.30   0
   1  -1  -1  283.40    1.37   0
   1   0  -2  477.60    1.86   0
  -7   4   9    1.45    1.54   0
  -6   1   8    2.53    2.08   0
 -10   5   5   32.57    2.03   0
  -9   3   6   26.47    2.58   0
  -8   3   8   89.34    2.98   0
  -7   1   7    0.52    1.81   0
  -6   3   9  346.57    4.72   0
  -9   4   7   24.97    2.05   0
  -9   6   7    1.41    1.37   0
  -7   2   8    2.22    1.75   0
  -9   5   7   67.44    2.55   0
  -8   5   8   42.29    2.49   0
 -10   5   4    4.89    1.83   0
  -8   2   6  151.91    4.11   0
  -7   1   6    1.06    2.17   0
  -6   0   5   32.17    2.40   0
  -6   1   7   69.35    2.90   0
 -10   6   4    7.87    1.67   0
  -8   3   7   16.77    2.03   0
  -7   5   8  125.84    3.27   0
  -7   1   5   20.83    2.18   0
  -8   6   7   24.59    1.91   0
  -6   3   8  135.26    3.85   0
  -5   3   8  131.35    3.09   0
 -10   6   3    1.44    1.46   0
  -9   5   6   23.52    2.08   0
  -8   2   4   19.01    2.32   0
  -8   4   7   18.68    2.14   0
  -7   1   4  252.28    5.06   0
  -6   4   8   83.68    2.81   0
  -9   4   5   -0.15    1.65   0
  -8   3   6   32.43    2.48   0
  -8   5   7   58.25    2.50   0
  -8   7   6   34.16    2.17   0
  -6   1   6  109.69    3.46   0
  -9   7   5    4.91    1.40   0
  -8   2   3    1.90    1.87   0
  -6   2   7   14.07    1.83   0
  -9   4   4    4.58    1.87   0
  -9   5   5   -0.49    1.74   0
  -9   6   5  151.03    3.19   0
  -8   3   5  138.81    4.00   0
  -8   4   6  105.52    3.40   0
  -7   4   7   61.17    2.64   0
  -7   5   7   20.17    1.91   0
  -7   2   5  134.37    3.71   0
  -6   3   7   54.76    2.48   0
  -9   4   0   17.14    2.00   0
  -9   4   1   23.45    2.49   0
  -9   4   2    5.49    2.08   0
  -9   5   4   -1.75    1.99   0
  -9   8   3   11.00    1.78   0
  -8   3   4    7.94    2.12   0
  -8   8   4   51.99    2.16   0
  -9   6   4   99.02    2.98   0
  -8   4   5    8.74    2.30   0
  -8   7   5   23.55    1.84   0
  -9   5   3    5.35    2.05   0
  -8   3   3    8.67    2.13   0
  -7   6   6    4.08    1.79   0
  -9   5  -2    6.15    2.01   0
  -9   5   2   46.42    2.89   0
  -9   6   3    6.86    2.31   0
  -9   7   3    2.19    1.65   0
  -8   3   2   84.95    3.49   0
  -8   5   5   -0.64    1.92   0
  -8   6   5   25.21    2.23   0
  -7   2   3   96.93    3.42   0
  -7   3   5   50.98    2.75   0
  -7   5   6   16.80    1.98   0
  -7   7   5   68.43    2.77   0
  -9   5  -1  138.05    3.66   0
  -8   3   0    0.99    2.13   0
  -8   4   4   82.22    3.36   0
  -9   5   1    5.67    2.06   0
  -6   5   6   68.66    2.84   0
  -9   6   2    0.55    1.85   0
  -9   7   2    2.65    1.82   0
  -8   7   4    2.78    1.68   0
  -8   8   3  232.88    3.66   0
  -8   4   3    8.27    2.22   0
  -8   5   4    1.26    1.82   0
  -7   3   4    2.44    1.91   0
  -7   4   5  165.27    4.12   0
  -9   6  -2    7.63    2.00   0
  -9   6   1   19.71    2.22   0
  -8   6   4   15.95    2.17   0
  -7   6   5   42.62    2.32   0
  -9   7  -3   56.38    2.27   0
  -9   7   1   11.47    1.84   0
  -9   8   0    0.95    1.48   0
  -7   5   5   35.27    2.32   0
  -9   8  -1    1.13    1.40   0
  -9   7  -1   -0.62    1.84   0
  -9   7   0    2.87    1.64   0
  -8   4   1    9.94    2.29   0
  -8   5   3   73.62    3.18   0
  -7   3   3  106.62    3.47   0
  -7   7   4  160.78    3.38   0
  -6   6   5    5.17    1.81   0
  -8   4  -1    5.02    2.40   0
  -8   4   0    6.60    2.38   0
  -8   8   2  355.93    4.45   0
  -8   9   0   20.86    1.83   0
  -7   4   4   95.81    3.26   0
  -6   4   5   88.39    2.90   0
  -6   5   5   28.40    2.10   0
  -8   5   2  158.39    4.32   0
  -7   5   4   22.54    2.22   0
  -7   6   4    7.10    1.77   0
  -7   9   1   23.63    2.05   0
  -8   7   2   23.39    2.38   0
  -7   3   1    5.11    2.23   0
  -8   5   1   58.20    3.46   0
  -8   6   2    5.84    2.00   0
  -7   4   3  206.70    4.50   0
  -7   3   0   97.07    3.52   0
  -7   7   3   12.92    1.87   0
  -8   5  -3    2.41    1.90   0
  -8   9  -2    1.78    1.48   0
  -7   8   2   36.80    2.35   0
  -8   5  -2   12.69    2.10   0
  -8   5  -1    3.65    2.01   0
  -8   6   1   10.94    2.09   0
  -8   7   1   18.30    2.17   0
  -8   8   0   16.68    1.89   0
  -8   9  -3    6.37    1.46   0
  -7   4   2   36.63    2.38   0
  -7   5   3    6.13    1.75   0
  -6   5   4   35.78    2.44   0
  -7   9   0   11.31    1.69   0
  -8   6  -4    9.87    2.20   0
  -8   6   0   95.39    3.39   0
  -8   7  -5    2.08    1.76   0
  -8   7   0   25.65    2.72   0
  -8   6  -1   15.80    2.57   0
  -8   8  -1    6.10    1.67   0
  -7   4   1   69.20    2.95   0
  -7   7   2   33.98    2.80   0
  -8   6  -3   49.12    2.80   0
  -8   7  -1   87.81    3.26   0
  -8   8  -4    0.76    1.85   0
  -8   8  -2   22.95    2.05   0
  -7   5   2    4.16    1.83   0
  -7   8   1   14.65    1.96   0
  -8   7  -2  119.29    3.65   0
  -8   8  -3    6.97    1.70   0
  -7   4   0    5.37    1.84   0
  -7   6   2    6.10    1.82   0
  -7   9  -1    8.38    1.70   0
  -6   9   0   22.83    2.06   0
  -8   7  -3  119.23    3.38   0
  -7   4  -3    7.57    2.44   0
  -6   6   3  225.57    4.12   0
  -7   4  -1  169.41    4.18   0
  -7   5   1   13.67    1.97   0
  -7   8   0    2.52    1.72   0
  -7   6   1   15.31    1.95   0
  -6   7   2   16.13    1.88   0
  -6   8   1    5.93    1.75   0
  -7   5  -5    0.24    2.15   0
  -7   5   0    6.94    1.85   0
  -7   9  -3   45.85    2.04   0
  -6   9  -1   41.84    2.32   0
  -7   7   0   36.98    2.39   0
  -7   8  -7   43.12    2.05   0
  -7   8  -1    5.91    2.08   0
  -7   9  -5    9.39    1.58   0
  -7   9  -4  122.48    2.77   0
  -6   5   2   60.16    2.48   0
  -6   6   2  575.69    6.69   0
  -7   5  -4   16.94    2.40   0
  -7   6   0    4.79    1.82   0
  -7   7  -7    0.83    1.53   0
  -7   5  -2    6.60    1.88   0
  -7   6  -6   64.08    2.72   0
  -7   6  -1    6.59    1.87   0
  -7   7  -1   92.21    3.18   0
  -7   8  -6   -0.61    1.67   0
  -7   8  -2    0.78    1.59   0
  -6   7   1    1.28    1.62   0
  -6   8   0   20.15    1.92   0
  -7   6  -5   42.16    2.76   0
  -7   7  -6    0.03    1.58   0
  -7   8  -3   -0.58    1.49   0
  -7   6  -4   58.75    3.23   0
  -7   6  -2   17.61    2.14   0
  -7   7  -2   16.63    2.00   0
  -7   8  -5   45.75    2.23   0
  -7   8  -4   10.11    1.95   0
  -7   7  -4    8.85    2.18   0
  -7   7  -3    0.16    1.71   0
  -6   7  -9   47.06    2.21   0
  -6   9  -3    2.37    1.85   0
  -6   8  -1   62.47    2.57   0
  -5   8   0   35.82    2.63   0
  -6   5   0   10.04    1.67   0
  -6   9  -7   56.21    2.06   0
  -5   7   1    1.23    1.49   0
  -5   9  -2    2.02    1.46   0
  -6   4  -4   30.92    2.47   0
  -6   4  -3    4.52    1.97   0
  -6   6   0  118.42    3.35   0
  -6   9  -5    2.73    1.84   0
  -6   6  -8    3.74    1.62   0
  -6   5  -1   47.57    2.41   0
  -6   7  -1   78.52    3.04   0
  -6   5  -6   19.67    2.42   0
  -6   6  -1    1.19    1.75   0
  -6   7  -8   35.11    2.04   0
  -5   8  -1   95.08    3.04   0
  -5   9  -3   37.05    2.14   0
  -6   5  -2  247.96    4.58   0
  -6   8  -7   64.21    2.31   0
  -6   8  -3  162.11    3.76   0
  -6   5  -5   44.60    2.57   0
  -6   6  -7  169.51    3.79   0
  -6   7  -2   12.93    1.88   0
  -6   8  -6    7.87    1.87   0
  -6   8  -4   38.58    2.34   0
  -5   8 -10   60.98    1.97   0
  -6   5  -4   83.56    3.01   0
  -6   6  -2    0.65    1.41   0
  -6   7  -7   38.66    2.28   0
  -6   8  -5    2.29    1.57   0
  -5   9  -8    8.99    1.72   0
  -4   9  -3   72.25    2.57   0
  -6   6  -6    9.22    1.99   0
  -6   7  -3    7.37    1.84   0
  -5   7 -10   14.13    1.82   0
  -6   6  -5    6.85    1.74   0
  -6   6  -4    4.28    1.66   0
  -6   7  -6   13.44    1.89   0
  -6   7  -5    1.15    1.58   0
  -6   7  -4   34.34    2.28   0
  -5   9  -7   20.29    1.82   0
  -5   9  -6    7.96    1.57   0
  -5   7  -1   22.04    1.79   0
  -4   7   0  489.88    5.64   0
  -5   8  -9  143.79    2.90   0
  -4   9  -4   83.29    2.45   0
  -5   8  -3    2.03    1.55   0
  -5   4  -6  199.47    4.36   0
  -5   5  -8    7.36    2.06   0
  -5   6  -9   71.21    2.55   0
  -5   8  -8  128.91    3.21   0
  -4   8  -2   23.07    2.25   0
  -4   9  -9   36.73    1.71   0
  -5   8  -4  115.12    3.12   0
  -4   9  -5    1.30    1.37   0
  -5   8  -7    5.54    1.61   0
  -5   8  -5   21.13    1.91   0
  -4   9  -6   59.38    2.23   0
  -5   5  -7   13.60    2.01   0
  -5   6  -8   42.36    2.51   0
  -5   6  -2    1.22    1.32   0
  -5   7  -3   14.13    1.66   0
  -5   8  -6    1.92    1.55   0
  -4   6 -11    6.80    1.71   0
  -4   7  -1  151.56    3.17   0
  -3   9  -5   -0.27    1.61   0
  -4   8 -10    7.63    1.38   0
  -4   8  -3   30.44    2.36   0
  -5   5  -6    7.07    1.83   0
  -5   6  -3   31.22    1.92   0
  -5   7  -7   80.81    2.70   0
  -5   7  -4  397.88    5.50   0
  -5   5  -5   56.58    2.38   0
  -5   6  -7  267.25    4.39   0
  -5   7  -6    3.80    1.57   0
  -5   7  -5  115.31    3.41   0
  -3   9  -9   66.42    1.93   0
  -3   9  -6   14.49    1.64   0
  -5   6  -5   73.02    2.53   0
  -5   6  -4  113.13    3.27   0
  -4   7  -2  129.83    3.16   0
  -4   8  -9    1.47    1.69   0
  -4   8  -4   -0.56    1.44   0
  -3   9  -7   29.00    1.73   0
  -2   9  -6    6.32    1.68   0
  -4   7 -10    8.05    1.69   0
  -3   7 -12   20.04    1.64   0
  -3   8  -3   85.00    2.66   0
  -4   6 -10   92.20    2.69   0
  -4   8  -8    4.42    1.42   0
  -3   8 -11   18.32    1.55   0
  -2   9  -9    9.60    1.37   0
  -2   9  -7   31.16    1.56   0
  -4   8  -7   24.03    1.86   0
  -4   8  -6    0.17    1.39   0
  -3   6 -12    8.77    1.62   0
  -2   9  -8    0.57    1.27   0
  -4   5  -9  193.69    3.85   0
  -2   7 -13   49.39    1.66   0
  -3   8 -10    3.67    1.61   0
  -3   8  -4  126.17    2.91   0
  -4   6  -9    1.61    1.51   0
  -4   7  -8   13.74    1.72   0
  -4   7  -5   15.48    1.77   0
  -2   8  -4   12.04    1.76   0
  -4   5  -8   46.27    2.15   0
  -4   6  -8   86.02    2.93   0
  -4   7  -7   65.90    2.42   0
  -4   7  -6  162.97    3.58   0
  -3   5 -11   35.54    2.08   0
  -3   8  -9    1.99    1.25   0
  -2   6 -13    1.83    1.19   0
  -2   8 -11   78.05    2.23   0
  -4   6  -4    2.32    1.19   0
  -3   6 -11  149.51    3.05   0
  -3   8  -8   -0.18    1.48   0
  -3   8  -7   59.60    2.56   0
  -4   5  -7    3.66    1.37   0
  -4   6  -7  293.46    4.38   0
  -4   6  -5   33.21    2.07   0
  -3   7  -3   71.01    2.22   0
  -4   5  -6   44.56    2.07   0
  -4   6  -6   75.60    2.39   0
  -3   7 -10   -0.19    1.31   0
  -2   8 -10    6.05    1.60   0
  -2   8  -5   32.01    1.94   0
  -3   7  -4   24.07    1.57   0
  -2   8  -6   37.05    1.82   0
  -1   8 -11    1.01    1.08   0
   1   1   4  450.78    3.51   0
   2   2   1   56.11    1.25   0
   5   1   3   21.40    2.78   0
   0  -2   5  600.64    2.74   0
   0  -1   5    2.83    0.49   0
   1  -1   7  226.43    2.82   0
   1   0   6   92.70    1.88   0
   3   1   5    1.50    1.08   0
   0   0   4 1145.51    4.26   0
   2   2   2   94.22    1.80   0
   3   2   2  170.92    2.72   0
   2  -1   8  115.05    2.58   0
   2   0   7  134.85    2.68   0
   3  -2   9   52.09    2.80   0
   1  -2   8   68.44    1.73   0
   2   2   3   57.31    1.54   0
   3   2   3    1.28    1.39   0
   4   2   2  155.14    3.28   0
   0   0   5  761.17    3.90   0
   1   0   7 1246.29    6.89   0
   2  -2   9   99.78    2.54   0
   2   1   6  291.57    3.71   0
   3   1   6   49.47    2.11   0
   0  -1   6  120.22    1.63   0
   1  -1   8    5.87    1.23   0
   1   2   1   57.41    1.06   0
   1   2   2  308.63    2.63   0
   0  -2   6  334.38    2.33   0
   0   1   2   21.03    0.55   0
   0   1   3 3755.22    7.63   0
   3   0   8   22.12    2.24   0
   1   1   6  105.68    2.08   0
   1   2   0   47.15    0.81   0
   2   0   8    6.62    1.41   0
   3   2   4   10.61    1.42   0
   0   1   4   33.76    0.89   0
   1   2   4  567.49    4.23   0
   2   1   7  145.64    2.93   0
   3   1   7  594.30    6.10   0
   0  -1   7   66.56    1.38   0
   1  -2   9   76.58    2.02   0
   4   2   4   21.12    2.18   0
   0  -2   7    1.50    0.61   0
   0   1   5  872.28    4.61   0
   1  -1   9  107.54    2.57   0
   1   1   7  514.40    4.73   0
   2  -2  10   28.97    1.92   0
   3   2   5    2.18    1.46   0
   0   0   7   22.69    1.11   0
   1   2   5   41.56    1.44   0
   2   0   9    7.55    1.78   0
   0   1   6 1978.39    7.63   0
   2   1   8   25.89    1.81   0
   0  -1   8   38.48    1.28   0
   1   0   9   18.85    1.55   0
   1   2   6    4.02    1.05   0
   0   2   3   43.72    1.01   0
   1   1   8  132.42    2.71   0
   2   3   1   81.86    1.58   0
   2   3   2   51.47    1.44   0
   0   0   8   63.71    1.65   0
   0   1   7  187.53    2.63   0
   0   2   4  103.13    1.66   0
   2   3   3   40.76    1.60   0
   0   2   5   80.41    1.66   0
   2   2   7   19.45    1.70   0
   1   2   7    0.78    0.98   0
   1   3   2  342.64    3.00   0
   1   3   3  259.83    2.91   0
   2   3   4   14.18    1.39   0
   0  -1   9  110.14    2.24   0
   0   0   9  342.76    3.86   0
   0   1   8   63.91    1.78   0
   0   2   6  286.30    3.23   0
   1   0  10    1.82    1.39   0
   1   1   9  139.71    3.00   0
   1   3   1   56.60    1.16   0
   1   3   4   79.57    1.86   0
   2   3   5   22.66    1.65   0
   1   3   5    0.65    1.18   0
   0   2   7   26.13    1.32   0
   1   2   8  275.13    3.97   0
  -1   0   6   80.16    1.36   0
   2   3   6    9.96    1.82   0
  -1   1   4  463.96    2.70   0
  -1   1   5   43.35    1.00   0
  -1   1   6  338.48    2.91   0
   0  -1  10  123.18    2.62   0
   1   3   0   29.79    0.82   0
  -1   0   4  197.07    1.53   0
   0   2   8   10.31    1.23   0
   0   3   5   38.07    1.38   0
  -1   0   8  467.56    3.76   0
   0   3   2  465.25    3.15   0
   1   3   7  278.98    4.09   0
  -1  -1   6  405.80    2.46   0
  -1  -1   7  174.97    1.89   0
  -1   2   4   59.82    1.17   0
  -1   2   5    0.61    0.52   0
  -1   2   6    3.32    0.70   0
  -1   1   8   84.02    1.87   0
   0   2   9   97.96    2.58   0
  -1  -1   5  867.91    3.03   0
  -1  -1   8  103.48    1.71   0
  -1   2   3  491.39    2.85   0
  -1   2   7  614.69    4.70   0
   0   2   0    0.53    0.20   0
   0   3   7    2.31    1.15   0
  -1   0   9   10.91    1.12   0
   0   0  11   26.31    1.97   0
   0   3   1 1391.12    4.90   0
   1   4   3   15.35    1.19   0
   1   4   4   94.90    2.36   0
  -1   1   9   48.01    1.67   0
  -1   2   8  189.02    2.88   0
   1   4   2   10.76    1.14   0
   1   4   5    9.82    1.67   0
  -1   3   4    0.17    0.52   0
  -1   3   6  158.33    2.53   0
   1   4   6  137.96    3.25   0
  -1   0  10   20.58    1.42   0
  -1   1   2    3.56    0.27   0
  -1   1  10   80.59    2.69   0
  -1   2   2   19.45    0.56   0
  -1   2   9  350.28    4.20   0
  -1   3   7   70.63    1.90   0
   0   4   3   39.76    1.40   0
   0   4   4  384.65    3.91   0
   0   4   5  263.92    3.50   0
  -1   3   3    8.44    0.62   0
   0   4   6  628.70    6.01   0
  -1   3   8   57.76    2.04   0
   0   4   2  218.21    2.50   0
   0   3   0  759.25    3.39   0
  -2   1   7   27.41    1.12   0
  -2   2   6  178.10    2.31   0
  -1   3   9    6.56    1.50   0
  -2   1   6  174.17    2.03   0
  -2   1   8   11.04    0.90   0
  -2   2   7    1.42    0.69   0
  -1   4   6   28.44    1.56   0
  -2   2   5   57.78    1.26   0
  -1   4   7   13.27    1.51   0
   0   4   1   30.14    1.05   0
  -2   2   9  124.39    2.65   0
  -2   3   6  786.78    5.21   0
  -2   3   7   26.40    1.31   0
  -1   4   3  577.89    4.18   0
  -2   0   8  156.57    2.15   0
  -2   3   5  471.46    3.76   0
  -2   3   8    6.93    1.36   0
  -1   4   8  129.04    3.01   0
  -2   0   7  416.37    3.05   0
  -2   1  10  119.87    2.65   0
  -2   2   4   64.02    1.19   0
  -1   2   1 1359.68    3.83   0
  -2   0   9  391.65    3.57   0
  -2   2  10   98.74    2.56   0
  -2   3   4  375.78    3.09   0
  -2   3   9    5.79    1.64   0
   0   5   4  172.19    2.97   0
   0   5   5  105.49    2.71   0
  -2   0   6  537.54    3.10   0
  -1   3   1    0.29    0.32   0
  -1   4   2    1.09    0.56   0
   0   5   3   38.01    1.66   0
  -2   4   5    5.48    0.89   0
  -2   4   6   59.07    1.84   0
  -2   4   7  271.64    3.74   0
  -2   1  11   27.60    1.81   0
  -2   4   8    0.83    1.22   0
  -1   5   5   19.53    1.62   0
  -1   5   6    2.06    1.38   0
  -2   2   3  445.54    2.77   0
  -2   3   3  333.53    2.70   0
  -2   4   4  419.64    3.72   0
  -1   5   4  115.65    2.49   0
  -2   0   5  369.60    2.36   0
  -1   5   3  206.16    2.95   0
  -2   4   3    3.11    0.63   0
  -1   4   1   62.71    1.29   0
  -3   2   7   53.75    1.48   0
  -3   2   8  242.39    3.20   0
  -3   2   9   59.25    2.13   0
  -3   3   7   32.39    1.40   0
  -3   3   8  169.48    2.93   0
  -3   3   6  115.81    2.11   0
  -2   5   5    9.26    1.22   0
  -1   5   2  104.73    2.03   0
  -3   2  10   18.18    1.56   0
  -3   4   7  139.89    3.06   0
  -2   1   3  105.62    1.21   0
  -2   3   2   45.04    1.01   0
  -2   5   4    1.47    1.03   0
  -3   1   8   24.25    1.17   0
  -3   1   9   88.74    2.34   0
  -3   3   5   21.10    0.99   0
  -3   4   6   -0.17    0.83   0
  -3   4   8   74.01    2.32   0
  -3   1   7  437.69    3.55   0
  -3   2   5    0.38    0.60   0
  -3   4   5   26.92    1.29   0
  -2   2   2 1622.84    4.87   0
  -1   3   0    0.80    0.33   0
  -2   5   3  235.93    3.22   0
  -3   3   4 1222.05    5.76   0
  -2   0   4  670.82    2.94   0
  -1   5   1    3.50    0.98   0
  -3   1   6  342.41    2.91   0
  -3   4   4    7.24    0.78   0
  -1   2   0    2.29    0.24   0
  -3   5   5   -0.78    1.09   0
  -1   4   0  140.70    1.73   0
  -3   2   4   68.80    1.30   0
  -2   6   5   58.99    2.37   0
  -2   6   4   48.78    2.08   0
  -4   3   8   11.75    1.52   0
  -3   1   5  111.67    1.79   0
  -3   3   3  487.88    3.46   0
  -2   3   1    3.72    0.44   0
  -2   4   1   12.09    0.68   0
  -4   4   7   71.03    2.24   0
  -4   4   8   92.99    2.80   0
  -4   4   6  186.97    3.46   0
  -4   2   8    3.66    1.14   0
  -4   2   9  173.34    3.12   0
  -4   3   6  169.24    2.96   0
  -2   1   2  526.61    2.49   0
  -4   2   7  251.28    3.54   0
  -4   2  10   49.45    2.17   0
  -4   5   6  370.76    5.21   0
  -2   5   1  472.76    4.00   0
  -4   4   5   54.67    1.81   0
  -3   4   2   17.43    0.97   0
  -2   6   2  139.00    3.11   0
  -4   3   5  140.93    2.45   0
  -4   5   5  138.39    3.07   0
  -4   2   6  361.34    3.63   0
  -3   1   4   82.17    1.32   0
  -3   3   2  283.41    2.53   0
  -4   4   4    2.04    0.71   0
  -3   0   6  480.84    3.27   0
  -2   0   3  432.38    2.20   0
  -4   5   4  164.32    3.14   0
  -2   4   0    2.90    0.60   0
  -4   1   8    1.05    0.97   0
  -4   3   4    3.49    0.71   0
  -1   3  -1   66.04    1.03   0
  -1   4  -1 1143.60    5.21   0
  -4   2   5  310.41    3.41   0
  -5   4   8  147.71    3.40   0
  -4   1   7    1.41    0.99   0
  -4   4   3  143.93    2.53   0
  -4   6   4  112.91    3.41   0
  -3   6   2   15.88    1.41   0
  -2   5   0  494.28    4.26   0
  -5   3   8  128.97    3.44   0
  -5   3   9   21.23    2.02   0
  -5   5   7   21.15    1.74   0
  -4   5   3   45.41    1.83   0
  -3   2   2   91.32    1.40   0
  -3   4   1  560.57    3.89   0
  -5   5   6   14.93    1.63   0
  -3   5   1   50.68    1.48   0
  -5   3   7  117.21    2.81   0
  -4   3   3   48.95    1.44   0
  -3   0   5   59.41    1.22   0
  -5   5   5  126.56    3.04   0
  -4   1   6  212.32    2.95   0
  -4   6   3    1.50    1.13   0
  -3   1   3    0.10    0.40   0
  -3   3   1   22.50    0.84   0
  -5   3   6   82.33    2.43   0
  -5   4   5    0.84    0.93   0
  -5   6   5    0.08    1.70   0
  -4   4   2 1528.69    7.99   0
  -4   5   2    1.23    0.82   0
  -3   6   1   22.66    1.59   0
  -5   5   4  248.31    4.46   0
  -2   2   0 9999.99   11.25   0
  -5   2   7   32.06    1.88   0
  -4   6   2   19.30    1.71   0
  -5   6   4   56.61    2.50   0
  -2   4  -1  109.83    1.71   0
  -4   2   3   56.34    1.51   0
  -2   5  -1   11.67    0.94   0
  -5   2   6   49.12    2.07   0
  -5   5   3   18.15    1.31   0
  -3   2   1    0.90    0.37   0
  -3   6   0  263.21    4.15   0
  -6   4   7   38.41    2.37   0
  -6   5   6   64.62    2.70   0
  -5   4   3   13.42    1.10   0
  -4   6   1    6.48    1.39   0
  -4   7   2   56.47    2.48   0
  -3   0   4 1133.08    4.90   0
  -6   4   6  273.80    5.04   0
  -3   3   0    1.15    0.45   0
  -6   5   5   26.55    1.99   0
  -5   2   5   56.69    2.05   0
  -4   1   4    0.21    0.60   0
  -2   0   2   73.50    0.97   0
  -1   4  -2   11.04    0.65   0
  -6   3   7   50.11    2.35   0
  -5   3   3    0.85    0.92   0
  -6   5   4   38.99    2.12   0
  -5   4   2   -0.67    0.86   0
  -4   2   2   83.85    1.63   0
  -4   7   1   31.18    2.15   0
  -3   5  -1    7.37    0.94   0
  -6   3   6    6.07    1.40   0
  -3   4  -1    3.09    0.65   0
  -1   3  -2   56.31    0.91   0
  -5   2   4  380.90    4.20   0
  -4   6   0  142.98    3.17   0
  -6   4   4    1.24    1.18   0
  -4   4   0  870.02    5.54   0
  -6   5   3   -0.24    1.14   0
  -5   5   1   14.01    1.25   0
  -5   6   1   42.79    1.94   0
  -5   3   2    2.34    0.90   0
  -4   1   3   14.88    0.88   0
  -3   2   0  313.02    2.48   0
  -2   2  -1  656.42    3.06   0
  -2   4  -2   30.47    0.92   0
  -5   4   1   53.22    1.78   0
  -3   0   3  319.81    2.54   0
  -2   1   0  347.31    2.01   0
  -6   4   3   52.74    2.24   0
  -5   7   1    0.86    1.73   0
  -3   3  -1  682.81    3.94   0
  -6   3   4    0.01    1.12   0
  -6   5   2   67.53    2.60   0
  -6   6   2  529.70    6.30   0
  -4   2   1    5.21    0.72   0
  -4   3   0    1.07    0.55   0
  -4   5  -1   81.23    2.16   0
  -3   1   1    2.70    0.42   0
  -5   1   5    1.72    1.09   0
  -4   6  -1    9.09    1.29   0
  -5   5   0   25.96    1.52   0
  -5   6   0   34.14    1.95   0
  -3   5  -2   18.32    1.20   0
  -7   4   5  147.83    3.73   0
  -6   4   2   16.83    1.50   0
  -5   3   1    1.28    0.78   0
  -5   7   0  200.88    4.03   0
  -6   2   5    7.90    1.33   0
  -6   5   1   37.88    2.02   0
  -1   2  -2  503.38    2.22   0
  -7   4   4   84.28    2.82   0
  -5   6  -1   -0.74    1.19   0
  -3   2  -1   20.44    0.73   0
  -6   4   1    0.38    1.07   0
  -4   2   0    0.80    0.54   0
  -4   3  -1  766.68    4.77   0
  -4   5  -2  203.79    3.13   0
  -4   6  -2   89.09    2.61   0
  -7   3   5   44.55    2.78   0
  -3   3  -2  109.93    1.62   0
  -7   5   2    5.10    1.54   0
  -6   5   0   12.50    1.50   0
  -5   3   0   24.20    1.38   0
  -3   1   0   57.26    1.11   0
  -5  -1  13  137.86    2.95   0
  -2  -3  10  156.52    3.89   0
  -7   0  13   -0.12    1.46   0
  -7   1  13   63.08    2.13   0
  -6  -2  12    7.07    1.57   0
  -5   0  13    1.72    1.52   0
  -4  -2  12    6.01    2.06   0
  -4   1  12   25.24    1.84   0
  -8   4  11    1.65    1.40   0
  -7   3  12   42.39    2.00   0
  -7   4  11    4.50    1.62   0
  -6   0  13  121.03    2.73   0
  -5   2  12  220.17    3.63   0
  -4  -3  11    3.13    1.66   0
  -3   2  10   16.32    1.75   0
  -5  -2  12    5.68    1.77   0
  -5   3  11    5.88    1.66   0
  -4   2  11  181.25    3.88   0
  -4   3  10   15.72    1.73   0
  -7  -1  12    2.66    1.53   0
  -4  -1  12   -0.34    1.58   0
  -4   0  12   69.50    2.47   0
  -3  -2  11   70.73    2.52   0
  -3   0  11  239.69    4.50   0
  -8   2  12   15.55    1.67   0
  -3  -3  10  120.07    3.12   0
  -3  -1  11    0.16    1.43   0
  -8   1  12    6.85    1.46   0
  -5   1  12    8.08    1.79   0
  -6   4  10  133.32    2.94   0
  -5  -1  12   74.27    2.62   0
  -7   0  12    0.43    1.70   0
  -6  -2  11   77.30    2.59   0
  -6   3  11   24.89    1.87   0
  -5   0  12   15.39    1.79   0
  -4  -2  11    5.05    1.73   0
  -4   1  11    0.18    1.34   0
  -7   1  12   82.56    2.92   0
  -6   0  12   -1.03    1.94   0
  -6   1  12   44.10    2.15   0
  -5  -2  11    2.91    1.92   0
  -8   3  11   11.08    1.54   0
  -5   2  11  142.77    3.12   0
  -5   3  10   80.01    2.83   0
  -4   2  10   40.24    2.37   0
  -4   3   9   92.00    2.78   0
  -3  -2  10   -0.36    1.54   0
  -8   4  10   78.49    2.41   0
  -7  -1  11   11.76    1.86   0
  -7   3  11    3.17    1.59   0
  -7   4  10   11.95    1.61   0
  -4  -1  11   55.41    2.49   0
  -4   0  11   14.91    1.66   0
  -5   1  11    0.94    1.55   0
  -8   1  11    9.45    1.66   0
  -6  -2  10  108.33    3.57   0
  -6  -1  11   10.91    1.85   0
  -4  -2  10   86.35    2.79   0
  -9   2  10   46.69    2.05   0
  -7   0  11   14.03    2.21   0
  -7   2  11    2.26    1.43   0
  -6   4   9   -0.24    1.89   0
  -5   0  11    5.48    1.60   0
  -4   1  10  122.69    3.04   0
  -9   4   9   52.03    2.07   0
  -8  -1   9   19.86    2.11   0
  -6   0  11   52.56    2.83   0
  -6   1  11   52.39    2.39   0
  -6   3  10   86.99    2.71   0
  -5  -2  10   47.10    2.23   0
  -7  -1  10   21.62    2.44   0
  -7   1  11  104.16    2.89   0
  -5   2  10   11.85    1.64   0
  -4   0  10   82.14    2.85   0
  -7   3  10   47.04    2.57   0
  -5   3   9   26.73    1.85   0
  -8   4   9    0.87    1.82   0
  -7   4   9   -0.69    1.68   0
  -6  -2   9   25.57    2.78   0
  -6  -1  10  135.60    3.90   0
  -5   1  10  122.39    3.62   0
  -4  -2   9  464.58    5.50   0
  -8   1  10   53.24    2.28   0
  -8   2  10  230.02    3.75   0
  -5   0  10   58.86    2.83   0
  -9   2   9    5.57    1.95   0
  -8  -1   8    9.00    1.86   0
  -7   0  10   16.25    1.94   0
  -7   2  10  124.64    3.22   0
  -5  -2   9   13.60    2.00   0
  -9   5   7   49.66    2.29   0
  -7   1  10   18.73    2.34   0
  -6   0  10  162.60    3.66   0
  -6   1  10    8.01    1.92   0
  -6   3   9  291.81    5.18   0
  -9   0   7   -0.54    1.84   0
  -9   4   8   38.03    2.03   0
  -9   1   8   28.64    2.14   0
  -7   3   9  325.65    4.76   0
  -7   4   8   23.62    2.25   0
  -6  -2   8   26.79    2.57   0
  -5  -1   9    1.47    1.87   0
  -5   3   8  141.57    3.16   0
  -8  -1   7    0.15    1.77   0
  -8   1   9   11.84    1.76   0
  -8   2   9   70.42    3.05   0
  -8   4   8   -0.20    1.67   0
  -6  -1   9   39.85    2.51   0
  -9   3   8    0.01    1.62   0
  -7   0   9    1.50    2.20   0
  -6   2   9    6.26    1.69   0
  -5  -2   8    3.64    1.86   0
  -5   0   9  208.53    3.98   0
  -5   1   9  101.23    3.16   0
 -10   4   6   34.16    1.74   0
  -9   0   6   -0.30    1.96   0
  -9   2   8   57.82    2.32   0
  -7  -1   8  115.38    3.73   0
  -7   2   9  281.82    4.64   0
  -9   5   6   21.02    2.09   0
  -7   1   9   11.73    2.01   0
  -6   1   9  141.74    3.50   0
 -10   3   6   88.33    2.19   0
  -9   4   7   21.30    1.93   0
  -8  -1   6   86.87    3.09   0
  -6  -2   7  131.27    4.17   0
  -6   3   8  146.10    3.41   0
  -6   4   7   35.98    2.21   0
  -9   1   7   21.04    1.91   0
  -9   0   5   17.18    2.05   0
  -8   1   8   41.10    2.57   0
  -8   5   6   27.69    2.25   0
  -7   3   8    4.52    1.64   0
  -6  -1   8   36.41    2.42   0
  -5  -1   8   47.24    2.29   0
  -9   2   7  224.66    3.95   0
  -9   3   7    5.79    1.75   0
  -8   4   7   16.98    1.91   0
  -5  -2   7  172.15    3.81   0
  -8  -1   5   39.18    2.68   0
  -8   0   7   -0.47    1.81   0
  -7  -1   7   -0.49    2.13   0
  -6   2   8   75.65    2.54   0
  -5   0   8  130.59    3.21   0
 -10   3   5   72.96    2.16   0
  -9   0   4  167.23    3.15   0
  -7   1   8    2.37    2.14   0
  -7   2   8    2.22    1.63   0
  -6   0   8   39.93    2.19   0
  -9   1   6    0.62    1.87   0
  -9   4   6   21.34    2.10   0
  -9   5   5    0.14    1.58   0
  -6   1   8    2.68    1.64   0
  -8   3   7   10.97    2.39   0
  -6   3   7   46.38    2.13   0
  -8  -1   4   12.26    2.39   0
  -8   1   7  147.47    3.64   0
  -6  -1   7   61.16    2.79   0
  -6   4   6  274.02    4.35   0
 -10   3   4    8.95    1.64   0
  -9   2   6   49.39    2.53   0
  -9   3   6   27.40    2.19   0
  -8   0   6   20.26    2.15   0
  -8   2   7   68.40    2.78   0
  -8   5   5   -0.54    2.05   0
  -7  -1   6   10.99    2.13   0
  -7   3   7  114.61    3.20   0
  -8   4   6  102.08    3.29   0
  -7   4   6   12.96    2.06   0
  -6   2   7   12.81    1.64   0
 -10   3   3   11.44    1.93   0
 -10   5   2   44.99    2.11   0
  -9   4   5    1.57    1.68   0
  -9   5   4   -0.42    1.73   0
  -7   1   7   -1.23    1.69   0
  -6   0   7   36.38    2.34   0
  -9   2   5    1.41    2.16   0
  -8   1   6   91.75    3.13   0
  -8   3   6   29.20    2.60   0
  -6   1   7   64.41    2.53   0
  -9   3   5   89.61    2.83   0
  -8   0   5    1.12    1.93   0
  -7  -1   5   82.70    3.21   0
 -10   3   2    7.19    1.83   0
  -8   2   6  171.46    3.94   0
 -10   4   2  100.45    2.40   0
  -8   4   5    9.09    2.00   0
  -8   5   4    0.62    1.71   0
 -10   3   1    8.21    1.78   0
  -9   5   3    4.58    1.82   0
 -10   4   1   46.61    2.18   0
  -9   2   4    1.50    1.77   0
  -8   0   4    5.77    2.13   0
  -7  -1   4    4.79    2.68   0
  -7   1   6    1.08    1.63   0
  -7   2   6  270.97    4.89   0
  -9   3   4   66.97    2.62   0
  -8   3   5  126.99    3.84   0
  -6  -1   5  134.99    4.05   0
 -10   4   0   80.89    2.18   0
  -9   1   2   21.87    2.19   0
  -8   2   5    1.47    1.75   0
  -7   0   5   38.93    2.53   0
  -9   2   3   25.57    2.25   0
  -9   5   2   45.18    2.47   0
  -8   0   3   49.72    2.68   0
  -8   4   4  104.19    3.18   0
  -8   5   3   69.12    2.71   0
  -9   1   0    1.19    1.90   0
  -9   3   3  170.46    3.68   0
  -7  -1   3    0.90    2.11   0
  -7   1   5   19.42    2.33   0
  -7   4   4   79.64    2.82   0
  -9   2   2   34.47    2.31   0
  -8   0   2    5.96    2.20   0
  -8   2   4   21.51    2.18   0
  -8   3   4    6.92    1.88   0
  -7   0   4   16.74    2.50   0
  -6  -1   4  180.18    4.08   0
  -9   5   1    5.55    1.72   0
  -7  -1   2   72.91    3.41   0
  -9   3   2   57.75    2.66   0
  -9   6  -2    6.40    1.84   0
  -8   0   1    2.06    2.33   0
  -8   1   3    3.86    1.95   0
  -8   4   3   11.78    2.21   0
  -9   2   1    1.47    1.88   0
  -9   5   0   56.17    2.73   0
  -8   0   0    1.85    2.32   0
  -7  -1   1   13.81    2.55   0
  -7   1   4  269.67    5.21   0
  -9   2   0   11.82    1.86   0
  -9   3   1   17.95    1.93   0
  -8   0  -2    3.01    2.03   0
  -8   0  -1    3.23    2.17   0
  -8   2   3    4.01    1.80   0
  -8   3   3   11.31    2.02   0
  -7   0   3   48.95    2.66   0
  -7   2   4    9.68    1.78   0
  -7   5   2    1.82    1.99   0
  -6  -1   3   57.76    2.83   0
  -6   0   4   72.96    2.76   0
  -7   4   3  180.92    3.94   0
  -9   2  -2    3.86    1.63   0
  -9   5  -1  168.10    3.65   0
  -7  -1   0    2.22    1.97   0
  -9   3   0    3.21    1.95   0
  -9   4   0   24.71    2.25   0
  -8   4   2   79.43    3.01   0
  -8   5   1   66.07    2.72   0
  -9   5  -2    7.19    1.92   0
  -8   2   2  409.62    5.95   0
  -7   0   2   57.71    3.25   0
  -7   1   3  255.63    4.67   0
  -9   3  -4    4.62    1.51   0
  -9   4  -1    0.55    1.55   0
  -9   5  -4   17.24    1.80   0
  -8   3   2   99.70    3.34   0
  -6  -1   2    1.26    2.23   0
  -9   3  -3   16.59    1.78   0
  -9   3  -2   42.16    2.14   0
  -9   5  -3    0.61    1.50   0
  -7   2   3  108.37    3.26   0
  -9   4  -4    5.10    1.80   0
  -9   4  -3    0.62    1.76   0
  -9   4  -2   18.94    1.86   0
  -8   4   1    8.75    1.96   0
  -8   5   0   36.01    2.15   0
  -7   4   2   43.32    2.31   0
  -7   5   1   13.40    1.84   0
  -8   2   1   57.73    2.77   0
  -7   0   1    4.35    2.10   0
  -8   1  -4  493.60    5.22   0
  -8   3   1  105.69    3.32   0
  -7   1   2   69.10    2.78   0
  -6  -1   1    8.57    2.09   0
  -8   1  -2    5.88    2.13   0
  -7   3   2    0.91    1.44   0
  -8   2   0   73.35    3.09   0
  -8   5  -1    4.38    1.71   0
  -7   0   0    3.88    2.11   0
  -7   2   2  392.70    5.70   0
  -8   3   0    1.73    2.19   0
  -8   6  -6   31.49    1.98   0
  -8   6  -5    1.04    1.83   0
  -8   6  -4    9.72    2.13   0
  -8   2  -1  374.53    5.73   0
  -7   1   1   57.14    2.78   0
  -7   4   1   73.96    2.70   0
  -6  -1   0   10.67    2.28   0
  -8   5  -2   14.53    2.22   0
  -7   0  -5   46.75    2.71   0
  -7   0  -1   92.97    3.30   0
  -8   2  -5   17.16    2.19   0
  -8   2  -2   12.58    2.11   0
  -8   3  -1   18.02    2.17   0
  -7   0  -2   71.12    3.41   0
  -7   2   1   74.78    3.31   0
  -7   3   1    6.82    1.87   0
  -8   2  -4   42.26    2.62   0
  -8   2  -3    1.40    1.80   0
  -8   5  -7    8.06    1.75   0
  -7   0  -4   22.41    2.47   0
  -7   0  -3    4.20    2.21   0
  -6  -1  -1   -0.14    2.19   0
  -6   0   1   69.86    2.86   0
  -8   5  -3    2.04    1.64   0
  -7   1   0    1.41    2.03   0
  -7   5  -1    1.20    2.03   0
  -8   3  -6    2.28    1.59   0
  -8   3  -2   26.42    2.32   0
  -8   4  -7    3.43    1.57   0
  -8   5  -6   86.78    2.81   0
  -8   5  -4   45.37    2.34   0
  -7   4   0    2.37    1.57   0
  -6  -1  -2    1.62    2.22   0
  -8   3  -3   35.66    2.36   0
  -8   4  -3  205.66    3.97   0
  -8   5  -5   10.23    1.77   0
  -7   1  -7    7.02    1.98   0
  -8   3  -5   40.45    2.28   0
  -8   3  -4    3.10    1.74   0
  -8   4  -4  117.20    3.79   0
  -7   2   0  241.50    4.77   0
  -7   3   0  120.01    3.32   0
  -6   0   0  294.59    5.68   0
  -8   4  -5   39.12    2.29   0
  -7   6  -8    0.12    1.80   0
  -7   1  -6   41.45    2.68   0
  -7   4  -1  183.72    3.83   0
  -7   5  -2    7.87    1.74   0
  -7   2  -1  109.86    3.47   0
  -7   6  -7   75.82    2.74   0
  -7   6  -6   61.34    2.66   0
  -7   1  -5  130.94    3.55   0
  -7   1  -4   27.54    2.46   0
  -7   2  -8    9.26    1.81   0
  -7   3  -9   11.27    1.85   0
  -7   3  -1  193.64    4.27   0
  -6   0  -1  385.95    5.86   0
  -7   5  -9   66.98    2.01   0
  -7   5  -3  127.39    3.46   0
  -7   2  -2   69.35    2.98   0
  -7   4  -9   39.66    2.15   0
  -7   4  -2  155.50    3.71   0
  -6   0  -7    8.33    2.27   0
  -7   2  -7    2.29    1.83   0
  -7   3  -2   14.75    1.94   0
  -7   5  -4   21.98    2.35   0
  -6   0  -2   36.82    2.66   0
  -7   2  -3   32.31    2.39   0
  -7   3  -8    5.50    2.01   0
  -7   5  -8    1.76    1.63   0
  -6   1  -9   23.75    2.27   0
  -7   2  -6   15.47    2.24   0
  -7   2  -5    3.28    1.94   0
  -7   2  -4   57.43    2.94   0
  -7   3  -3    6.26    2.34   0
  -7   5  -7    9.45    2.11   0
  -7   5  -5   -0.83    1.69   0
  -6   0  -6    2.54    2.24   0
  -6   0  -3  107.79    3.76   0
  -6   1  -1    0.92    1.64   0
  -7   4  -8    1.53    1.67   0
  -7   5  -6   28.06    2.17   0
  -6   0  -5   34.50    2.58   0
  -6   0  -4    7.91    2.15   0
  -7   3  -7  173.28    3.90   0
  -7   3  -4   15.94    2.08   0
  -6   2 -10    6.68    1.92   0
  -7   3  -6  109.01    3.36   0
  -7   3  -5  112.21    3.43   0
  -7   4  -6   26.14    2.08   0
  -7   4  -5   38.70    2.54   0
  -6   1  -2   30.07    2.26   0
  -6   5  -3  265.05    4.49   0
  -5  -1  -3   17.73    2.32   0
  -6   1  -8   26.01    2.26   0
  -5  -1  -4   10.72    2.20   0
  -6   1  -7    3.87    2.53   0
  -6   2  -2   49.18    2.55   0
  -6   5 -10   -0.28    1.64   0
  -6   5  -4   82.38    3.31   0
  -5   0  -9    7.36    2.22   0
  -6   2  -9   47.01    2.46   0
  -6   3 -10   -0.48    1.86   0
  -6   4 -10    1.36    1.63   0
  -6   4  -3    4.45    1.58   0
  -6   2  -3  187.78    4.50   0
  -6   5  -9   19.77    2.08   0
  -6   5  -5   46.25    2.54   0
  -4   4  -9    1.52    2.57   0
  -3   1  -8   46.82    3.70   0
  -2   0  -9   10.28    2.71   0
  -1   3 -15  116.20    3.93   0
   1  -1 -13   75.27    3.96   0
  -3   4 -12   30.79    3.30   0
  -1  -1  -9  105.17    5.08   0
  -4   4  -8   89.52    4.67   0
  -3   5 -12    1.19    2.35   0
  -2   1 -11   24.61    3.39   0
  -1   1 -13   23.87    3.36   0
  -1   2 -14    5.13    3.09   0
  -1   4 -15    8.23    2.42   0
   2   0 -15    0.79    2.64   0
   0  -1 -11   77.50    4.40   0
   0   0 -13   21.37    2.98   0
  -3   2  -9   58.12    3.64   0
  -2   2 -12   12.11    2.95   0
  -2   3 -13    4.36    2.46   0
  -2   6 -13    1.75    2.49   0
   0   2 -15    0.44    2.26   0
   1   0 -14   37.65    3.75   0
   1   1 -15   47.84    3.50   0
  -3   4 -11   11.19    2.89   0
  -2   1 -10   56.03    4.08   0
   1  -1 -12  284.70    7.50   0
  -3   5 -11   39.76    3.39   0
  -2   5 -13   94.44    4.13   0
   0  -1 -10  186.36    6.21   0
   1   3 -16    1.81    2.30   0
  -1   1 -12  165.63    6.10   0
  -1   3 -14   17.58    2.76   0
   2  -1 -13    3.21    2.46   0
  -2   1  -9   22.68    2.90   0
  -2   2 -11    3.19    2.57   0
  -2   3 -12    3.57    2.59   0
  -1   2 -13   58.15    4.09   0
   0   3 -15    8.61    2.30   0
   2   2 -16   81.17    2.98   0
  -3   3  -9  157.90    5.35   0
  -3   4 -10   26.87    3.33   0
  -1   4 -14    0.17    2.49   0
  -3   5 -10   41.78    3.72   0
  -2   6 -12   22.77    2.94   0
  -1   5 -14   -0.10    2.03   0
   0   4 -15   38.31    3.00   0
   1   0 -13   13.01    3.31   0
   2   0 -14   12.21    3.41   0
   0   2 -14   43.89    3.39   0
   1  -1 -11  540.10    9.37   0
   1   2 -15    6.51    2.25   0
   2   1 -15   54.20    3.12   0
  -3   4  -9    4.32    2.60   0
  -2   2 -10   25.58    3.17   0
  -2   4 -12   77.17    4.05   0
  -1   1 -11  705.14   11.16   0
   1   1 -14    6.04    3.06   0
   2   3 -16  179.45    3.78   0
  -2   3 -11   14.98    2.82   0
  -2   5 -12   67.83    4.04   0
  -1   3 -13    0.88    2.39   0
   0   0 -11   21.75    3.04   0
  -3   5  -9    6.79    2.61   0
  -1   2 -12   30.45    3.41   0
  -1   6 -13  101.78    3.80   0
   0   6 -14   56.33    2.95   0
   2  -1 -12    0.49    2.43   0
  -1   1 -10  133.64    5.35   0
  -1   4 -13   36.90    3.00   0
   0   1 -12   17.67    3.46   0
   0   3 -14   41.27    3.15   0
   1   3 -15   22.24    2.59   0
   3   0 -14    8.74    2.91   0
   3   1 -15    1.30    2.47   0
  -2   4 -11   16.55    2.66   0
  -1   5 -13    2.36    2.50   0
   0   2 -13   38.31    3.78   0
   1   0 -12    5.18    2.73   0
   1   4 -15   13.76    2.76   0
  -2   5 -11    7.50    2.38   0
   0   4 -14   47.87    3.32   0
  -1   2 -11   30.23    3.19   0
  -1   3 -12    1.91    2.47   0
   1   2 -14   13.21    2.81   0
   2   1 -14   71.79    4.34   0
   4   1 -15   15.29    2.69   0
  -2   4 -10   85.62    3.92   0
  -1   6 -12    0.91    2.20   0
   2   3 -15  104.27    4.03   0
   0   1 -11   56.40    3.85   0
   0   3 -13  270.08    6.37   0
   0   6 -13  118.05    3.96   0
   3   2 -15   73.22    3.79   0
  -2   5 -10    0.89    2.26   0
  -1   5 -12   73.61    3.51   0
   0   2 -12    0.35    2.86   0
   1   0 -11   11.07    2.48   0
   1   3 -14    3.86    2.86   0
   2   4 -15    9.58    2.29   0
  -1   2 -10   21.96    2.76   0
   4   2 -15   77.75    3.30   0
  -2   4  -9   80.71    4.13   0
   0   4 -13    2.46    2.21   0
   0   5 -13   66.74    3.91   0
   1   4 -14  185.96    5.42   0
   2   0 -12   71.83    3.94   0
   3   0 -13  201.43    5.49   0
   3   1 -14   12.68    2.71   0
   3   3 -15    1.63    2.34   0
   3   4 -15   61.72    2.99   0
   1   2 -13   86.42    4.36   0
   2   2 -14   -0.77    2.19   0
  -2   5  -9   17.54    2.71   0
  -1   6 -11    0.66    2.30   0
   2   1 -13  153.49    5.46   0
   0   3 -12   26.89    3.23   0
   1   6 -13    3.89    2.59   0
  -1   3 -10   23.85    2.69   0
  -1   5 -11    0.75    2.17   0
   0   2 -11   63.93    3.67   0
   0   6 -12   88.84    4.26   0
   2   3 -14   -1.31    2.47   0
   2   5 -14   81.95    3.57   0
   4   0 -13   27.86    3.22   0
   1   3 -13   59.83    3.58   0
   5   1 -14    2.68    2.49   0
   0   4 -12   72.05    4.18   0
   2   4 -14  269.95    5.55   0
   3   5 -14   73.60    2.94   0
  -1   6 -10   19.15    3.20   0
   0   5 -12  106.10    4.17   0
   1   2 -12   97.12    4.23   0
   1   4 -13   28.45    3.28   0
   2   0 -11  292.88    6.67   0
   2   6 -13   60.01    2.73   0
   3   0 -12  159.61    5.23   0
  -1   4 -10  417.05    7.78   0
   2   2 -13   53.83    3.77   0
   3   1 -13   75.36    4.04   0
  -1   5 -10    0.94    2.16   0
   0   3 -11   13.80    2.50   0
   1   7 -11    5.07    2.15   0
   2   1 -12    0.31    2.13   0
   3   3 -14   39.54    3.13   0
   3   4 -14   -1.28    2.60   0
   4   2 -14  115.70    4.03   0
   5   2 -14    0.55    2.56   0
   4   4 -14   21.51    2.58   0
   0   6 -11   93.31    3.87   0
   1   6 -12   38.48    3.04   0
   4   3 -14   14.39    2.92   0
   1   3 -12    7.98    2.37   0
   2   3 -13    6.49    2.26   0
   2   5 -13    9.61    2.34   0
   4   0 -12   59.36    3.89   0
   4   1 -13   61.59    3.89   0
   0   5 -11    0.96    2.29   0
   2   4 -13  271.50    6.38   0
  -1   5  -9   66.63    3.48   0
   1   2 -11  476.21    8.76   0
   1   4 -12   20.75    2.59   0
   3   0 -11  238.90    5.87   0
   4   5 -13  146.00    3.55   0
   5   1 -13  139.73    4.56   0
   0   3 -10   13.97    2.28   0
   2   1 -11    5.85    2.64   0
   2   2 -12   79.82    3.93   0
   2   6 -12    0.43    1.81   0
   3   1 -12   -0.24    2.54   0
   0   6 -10    6.19    2.88   0
   3   6 -12   33.74    2.31   0
   5   0 -12   11.72    2.55   0
   6   2 -13    2.47    2.28   0
   1   6 -11    6.07    3.08   0
   3   3 -13   34.84    2.87   0
   3   4 -13    3.14    2.21   0
   4   2 -13  273.89    5.77   0
   5   4 -13   80.51    2.77   0
   1   3 -11   -1.66    1.96   0
   2   7 -10   36.01    2.59   0
   5   2 -13   19.31    2.96   0
   0   5 -10    5.46    2.12   0
   2   3 -12  225.60    6.13   0
   2   5 -12    1.08    2.25   0
   4   3 -13   21.35    3.03   0
   4   4 -13   11.90    2.37   0
   1   5 -11   97.35    4.11   0
   2   4 -12    5.51    2.13   0
   4   0 -11   12.82    2.89   0
   4   1 -12    0.76    2.14   0
   1   4 -11   52.23    3.15   0
   2   6 -11   16.83    2.63   0
   3   2 -12    4.10    2.26   0
   0   6  -9  167.29    4.76   0
   2   2 -11   13.34    2.19   0
   3   5 -12    4.86    2.40   0
   4   5 -12  178.61    4.05   0
   6   1 -12    9.21    2.72   0
   3   1 -11   -0.70    1.79   0
   3   6 -11  211.64    3.98   0
   5   1 -12   79.21    3.53   0
   1   7 -11    5.26    2.10   0
   2   6 -12   -0.64    1.87   0
   5   3 -12   -0.70    1.81   0
  -1   8  -8    0.22    2.00   0
   2   4 -12    6.37    1.94   0
   3   3 -12  187.00    4.55   0
  -1   7  -9   94.79    3.45   0
   0   4 -10   -0.57    1.62   0
   0   8  -9   62.83    2.61   0
   2   5 -12    0.34    2.05   0
   2   7 -11   60.26    2.37   0
   4   3 -12    8.86    2.50   0
   4   5 -12  183.67    3.49   0
   0   7 -10   17.01    2.27   0
   3   5 -12    5.52    2.44   0
   4   4 -12    0.99    2.19   0
  -2   6  -7   40.42    2.70   0
  -1   6  -9    1.28    1.76   0
   1   6 -11    6.80    2.13   0
   3   2 -11   51.75    3.06   0
   4   6 -11    0.81    1.66   0
   0   5 -10    1.59    1.68   0
   0   6 -10    5.10    2.18   0
   1   3 -10   25.14    2.52   0
   1   8  -9  168.20    3.18   0
   4   2 -11    3.19    2.37   0
   0   8  -8    9.79    2.20   0
   2   6 -11   18.70    2.08   0
   3   6 -11  209.32    4.11   0
   3   7 -10    4.69    1.65   0
   0   7  -9   14.33    2.41   0
   2   4 -11  148.11    4.19   0
   2   7 -10   40.36    2.49   0
   5   4 -11  222.18    3.98   0
  -1   6  -8    8.60    2.04   0
   2   5 -11   20.08    2.19   0
   3   3 -11  136.93    3.82   0
   5   3 -11   16.64    2.22   0
   1   4 -10    8.58    1.78   0
   1   6 -10   27.38    2.76   0
   1   8  -8  149.74    3.15   0
   2   8  -8    5.66    1.61   0
   4   3 -11    3.46    2.20   0
   0   5  -9  167.14    4.13   0
   1   5 -10  264.17    5.57   0
   3   2 -10    0.52    1.89   0
   3   5 -11   48.41    2.65   0
   4   4 -11   44.80    2.77   0
   4   6 -10   19.71    2.26   0
   5   5 -10   44.16    2.24   0
  -1   7  -7  122.05    3.37   0
   0   8  -7   96.22    2.73   0
   3   7  -9    4.38    1.67   0
   0   7  -8    2.64    1.89   0
   2   6 -10   12.99    1.97   0
   3   6 -10  347.04    5.07   0
   4   2 -10   81.49    3.30   0
  -1   6  -7  286.55    4.70   0
   1   8  -7   14.09    1.96   0
   2   4 -10   14.93    1.83   0
   2   7  -9    3.12    1.68   0
   2   8  -7  221.94    3.13   0
   1   4  -9    0.49    1.58   0
   2   5 -10   13.65    2.05   0
   3   3 -10  122.94    3.33   0
   5   4 -10  328.27    4.94   0
   6   4  -9   68.50    2.58   0
   0   6  -8   86.08    3.01   0
   0   8  -6   89.67    2.83   0
   1   6  -9   30.46    2.32   0
   3   5 -10   36.38    2.68   0
   4   5 -10    1.29    1.93   0
   5   3 -10   38.95    2.26   0
  -1   7  -6    0.11    1.54   0
   1   5  -9   91.73    3.04   0
   4   3 -10   71.77    2.91   0
   4   6  -9  113.39    3.05   0
   2   8  -6    8.17    1.79   0
   3   7  -8   29.11    2.15   0
   4   4 -10   86.42    3.10   0
   0   7  -7   62.21    2.63   0
   1   8  -6    4.54    1.67   0
   2   6  -9  151.10    3.63   0
   2   7  -8   21.61    2.12   0
   3   6  -9  201.44    4.11   0
   6   3  -9   23.55    1.89   0
   0   8  -5   20.58    2.12   0
   2   4  -9  838.38    8.17   0
   2   5  -9    2.00    1.74   0
   4   2  -9  498.56    6.18   0
   5   6  -7  287.87    3.33   0
   0   6  -7  320.30    4.99   0
   1   6  -8    5.18    1.93   0
   2   8  -5   15.07    1.57   0
   4   5  -9   13.71    2.12   0
   5   2  -9   17.40    2.02   0
   5   4  -9  134.16    3.68   0
   6   4  -8   40.73    2.28   0
   1   7  -7   79.03    2.87   0
   3   3  -9  167.05    3.68   0
   3   5  -9   15.49    2.02   0
   3   7  -7   65.83    2.53   0
   4   6  -8   85.78    2.72   0
   0   7  -6  121.26    3.43   0
   3   4  -9  301.02    5.14   0
   5   3  -9   21.25    2.02   0
   2   6  -8   25.37    2.12   0
   2   8  -4    5.22    1.53   0
   3   6  -8   33.30    2.29   0
   4   3  -9   42.04    2.42   0
   5   6  -6   48.56    2.15   0
   1   8  -4   29.59    2.04   0
   2   8  -3   66.79    2.10   0
   0   6  -6    0.15    1.53   0
   1   7  -6   46.93    2.46   0
   2   4  -8   26.70    1.88   0
   2   5  -8  203.21    4.55   0
   4   6  -7   83.57    2.96   0
   3   0  -3  336.94    2.35   0
  -1   1   4  488.96    2.66   0
   0   2   4   93.88    1.29   0
   0   2   3   44.90    0.79   0
  -1  -2   3  414.79    1.78   0
   2  -3  -2   48.10    0.94   0
  -1   1   3 2161.08    4.93   0
   2  -4  -1   11.44    0.62   0
   0  -1   0  113.51    0.42   0
   3  -1  -3    1.09    0.40   0
  -1   0   2  456.15    1.76   0
   2   0  -2   72.47    0.91   0
   0   2   2  653.57    2.41   0
   2  -2  -2 1646.78    4.73   0
  -1   2   4   59.97    1.07   0
  -2  -1   5  224.13    2.05   0
   2  -1  -2  482.46    2.40   0
  -1   1   2    3.63    0.31   0
   2   1  -1  939.72    2.47   0
   3   1  -1 1079.83    3.87   0
   1  -4   1 1266.26    4.16   0
  -1   2   3  552.31    2.76   0
   1   0  -1  130.52    0.80   0
  -2   1   4  165.08    1.67   0
   1  -3   0    0.60    0.23   0
   1  -1  -1  246.55    1.23   0
   2  -3  -1    4.36    0.36   0
  -2  -1   4   25.27    0.66   0
   3  -2  -2  106.56    1.50   0
   3  -1  -2  191.12    1.93   0
  -2  -2   5    7.07    0.59   0
   2  -4   0    3.73    0.42   0
  -2   0   3  407.55    2.19   0
  -2   1   3   95.15    1.14   0
   0   2   1  148.89    0.86   0
   2  -2  -1 3850.20    6.77   0
   3   0  -1  224.72    1.86   0
  -2  -2   4  371.17    2.08   0
  -2  -1   3  158.43    1.29   0
  -2   2   3  446.51    2.64   0
  -1   3   3    7.94    0.52   0
   2  -1  -1 1458.12    3.95   0
  -1   0   1  119.68    0.72   0
   3  -1  -1    3.02    0.36   0
  -1   1   1  261.33    1.26   0
  -1  -2   2 1020.91    1.61   0
   2  -4   1  126.84    1.56   0
   1  -2   0    2.18    0.19   0
  -3   0   4 1121.83    4.62   0
  -2   1   2  471.86    2.28   0
   0   3   2  449.97    2.06   0
  -2   0   2   76.48    0.88   0
  -2   2   2 1567.07    4.64   0
  -1   3   2   14.77    0.50   0
   3   0   0    3.19    0.42   0
  -3   1   3    0.24    0.37   0
   3  -2   0  324.11    2.59   0
   3  -1   0   63.13    1.11   0
  -4   4  14    0.02    0.99   0
  -4   5  13   19.30    1.35   0
  -2   3  13    2.07    1.62   0
   1   1   9  135.25    2.90   0
   1   2   8  257.20    4.01   0
  -2   4  12   22.14    1.66   0
   0   4   8    9.13    1.58   0
  -3   4  13    5.13    1.32   0
  -3   2  14   16.42    1.52   0
  -1   2  12    2.89    1.36   0
  -1   4  10    3.46    1.43   0
  -3   1  14    6.13    1.22   0
  -3   6  10   50.91    1.96   0
  -2   6   8   27.87    2.12   0
  -1   0  12    1.99    1.59   0
  -1   3  11   61.71    2.12   0
  -1   5   8  239.68    3.70   0
   0   2  10    8.08    1.45   0
   0   3   9    4.95    1.25   0
   0   4   7  156.42    3.08   0
  -4   7   9    6.85    1.46   0
  -1   1  12  319.57    3.90   0
  -4   3  14   27.18    1.36   0
  -2   1  13    0.22    1.21   0
   0   1  10  179.59    3.11   0
  -5   5  13  207.11    2.26   0
   0   4   6  586.68    5.29   0
  -4   2  14    5.98    1.34   0
  -1   5   7   52.56    2.07   0
   0   2   9   89.89    2.33   0
  -4   4  13   -0.23    1.19   0
  -4   5  12   58.65    1.87   0
  -1   2  11   89.14    2.39   0
  -5   3  14    8.25    1.01   0
  -3   4  12    0.14    1.19   0
  -3   6   9   32.50    2.14   0
  -1   0  11    7.86    1.45   0
  -1   3  10  118.56    2.72   0
  -5   2  14   39.25    1.54   0
  -2   5   9   15.48    1.79   0
  -1   1  11  571.08    5.04   0
  -1   5   6    1.38    1.73   0
  -4   7   8   11.79    1.48   0
  -3   1  13    1.38    1.37   0
  -3   2  13    1.75    1.16   0
  -2   0  12   70.10    2.09   0
  -4   6  10    0.98    1.53   0
  -2   1  12    1.97    1.23   0
  -5   7   9    5.12    1.36   0
  -2   3  11   95.68    2.42   0
  -2   4  10   10.50    1.52   0
  -1   2  10   48.87    1.81   0
  -5   4  13    1.03    1.07   0
  -3   5  10   42.65    1.88   0
  -1   3   9    7.50    1.34   0
  -5   5  12  144.06    2.27   0
  -3   3  12  319.85    3.76   0
  -3   6   8    7.74    1.39   0
  -2   5   8    0.48    1.31   0
  -1   1  10   83.64    2.31   0
  -4   1  13   32.90    1.90   0
  -4   2  13    7.03    1.42   0
  -4   4  12   58.63    1.86   0
  -4   5  11   15.77    1.31   0
  -1   4   7   10.78    1.31   0
  -2   2  11   34.92    1.74   0
  -6   6  11   36.01    1.41   0
  -5   3  13    0.91    1.32   0
  -3   2  12    0.54    1.07   0
  -2   0  11  291.75    3.47   0
  -2   4   9   36.46    1.76   0
  -6   5  12   18.79    1.23   0
  -4   6   9    6.85    1.37   0
  -3   1  12   15.32    1.35   0
  -3   6   7    4.80    1.69   0
  -2   1  11   23.71    1.42   0
  -2   3  10   52.08    2.01   0
  -2   5   7   57.13    2.35   0
  -7   3  13    2.17    0.96   0
  -6   7   9    1.02    1.31   0
  -5   7   8   42.17    1.97   0
  -7   5  12    3.01    1.00   0
  -7   6  11    0.69    0.97   0
  -6   2  13   19.84    1.57   0
  -6   3  13    8.17    1.16   0
  -4   3  12   11.78    1.65   0
  -3   3  11  205.47    3.30   0
  -5   4  12   10.56    1.25   0
  -5   5  11   85.35    2.56   0
  -4   5  10   23.24    2.01   0
  -3   4  10  177.25    3.24   0
  -4   4  11   74.08    2.24   0
  -2   2  10   93.59    2.29   0
  -4   2  12   93.95    2.67   0
  -4   6   8   16.58    1.95   0
  -3   6   6   15.18    1.64   0
  -2   3   9    4.48    1.39   0
  -2   5   6  104.41    2.68   0
  -6   6  10   38.23    1.81   0
  -5   7   7   31.59    2.03   0
  -4   1  12   28.80    1.63   0
  -3   5   8   23.88    1.74   0
  -6   4  12   16.22    1.26   0
  -6   5  11   51.49    1.86   0
  -6   7   8    5.82    1.36   0
  -5   1  12    6.68    1.62   0
  -4   3  11   30.77    2.03   0
  -3   3  10   46.46    1.87   0
  -3   4   9  383.57    4.63   0
  -8   5  11   12.19    1.18   0
  -8   6  10   27.20    1.50   0
  -5   2  12  220.65    3.05   0
  -5   4  11    6.35    1.25   0
  -4   5   9    4.02    1.43   0
  -7   3  12   42.26    1.54   0
  -6   3  12  205.40    2.91   0
  -4   4  10   20.26    1.73   0
  -4   6   7  130.06    3.13   0
  -7   7   8    2.23    1.36   0
  -6   2  12    0.67    1.20   0
  -5   7   6   22.62    1.81   0
  -3   5   7   27.08    1.85   0
  -6   6   9    4.42    1.30   0
  -4   2  11  189.43    2.97   0
  -8   7   8    7.97    1.14   0
  -6   4  11   98.09    2.60   0
  -6   7   7  167.01    3.12   0
  -4   1  11    0.12    1.22   0
  -6   5  10   -0.60    1.29   0
  -3   3   9    0.65    1.11   0
  -3   4   8   72.79    2.29   0
  -7   4  11    4.08    1.47   0
  -4   3  10   15.42    1.57   0
  -4   6   6   18.42    1.67   0
  -8   3  11   11.86    1.48   0
  -7   6   9   30.34    1.65   0
  -5   4  10   11.38    1.44   0
  -5   5   9   28.47    1.84   0
  -5   7   5    4.38    1.49   0
  -4   4   9   34.80    1.98   0
  -3   5   6  187.19    3.64   0
  -8   5  10   50.92    2.01   0
  -8   6   9    2.34    1.13   0
  -7   5  10   26.62    1.66   0
  -7   7   7  102.73    2.70   0
  -6   3  11   29.99    1.87   0
  -5   1  11    0.13    1.37   0
  -5   2  11  144.11    2.75   0
  -6   7   6  153.34    3.43   0
  -5   6   7   -0.69    1.44   0
  -8   7   7   10.54    1.40   0
  -7   2  11    0.86    1.52   0
  -7   3  11    1.82    1.35   0
  -6   2  11   22.95    1.93   0
  -4   2  10   44.60    1.83   0
  -4   5   7   68.78    2.64   0
  -4   6   5   16.38    1.89   0
  -9   6   8    5.33    1.42   0
  -6   4  10  161.35    3.02   0
  -6   5   9   41.34    2.03   0
  -5   3  10   70.95    2.37   0
  -9   5   9   68.54    1.80   0
  -7   6   8   24.98    1.67   0
  -5   5   8    4.38    1.59   0
  -4   3   9   87.26    2.56   0
  -9   7   6   13.49    1.49   0
  -8   6   8  132.57    2.93   0
  -7   4  10   11.50    1.45   0
  -7   7   6    3.20    1.42   0
  -6   7   5    5.02    1.80   0
  -5   4   9   69.99    2.44   0
  -4   4   8  103.60    2.71   0
  -8   2  10  194.32    3.18   0
  -8   5   9    7.48    1.68   0
  -7   5   9   18.92    1.73   0
  -6   6   7   12.14    1.95   0
  -5   2  10   10.47    1.61   0
  -5   6   6    1.87    1.50   0
  -8   3  10   37.29    1.76   0
  -8   7   6   33.85    1.71   0
  -5   1  10  138.59    2.97   0
  -7   3  10   57.27    2.35   0
  -4   5   6  353.35    5.00   0
  -9   3   9   18.97    1.66   0
  -6   1  10    9.71    1.85   0
  -6   2  10   63.44    2.65   0
  -6   4   9   -1.35    1.50   0
  -6   5   8    7.57    1.58   0
  -9   6   7    0.45    1.26   0
  -7   2  10  124.42    2.79   0
  -7   7   5   72.21    2.48   0
  -5   3   9   23.03    1.61   0
  -5   5   7   22.36    1.80   0
  -2   3   9    4.42    1.55   0
  -1  -3   9   79.37    2.80   0
  -2   3   4  318.80    2.57   0
  -1  -3   8  119.28    2.57   0
  -1  -3  10   22.95    1.93   0
  -2   0   4  693.35    3.63   0
  -1  -3  11   -0.88    2.00   0
  -1  -2   4  169.09    1.76   0
  -3   1   8   27.51    1.38   0
  -3   1   9  100.39    2.52   0
  -2  -2   9   58.28    2.04   0
  -2  -2  10   42.94    2.16   0
  -2   1   3   95.24    1.24   0
  -3   0   9   25.50    1.64   0
  -2  -2   8   27.31    1.53   0
  -2  -2  11   11.16    2.34   0
  -3   0   8   72.08    2.01   0
  -3   0  10  276.26    4.30   0
  -3   1   6  317.36    3.34   0
  -3   1  11   73.88    3.07   0
  -3   3   7   29.73    1.47   0
  -3   3   8  169.45    3.11   0
  -3   3   9    0.70    1.58   0
  -2   3   3  297.87    2.30   0
  -1  -3   6  573.98    4.30   0
  -3   0   7   13.60    1.03   0
  -3   3   6  112.07    2.22   0
  -2  -2   7   41.55    1.58   0
  -3   2   5   -0.28    0.70   0
  -3   3  10   45.53    2.37   0
  -3  -1   9   39.04    1.99   0
  -3  -1  10  203.25    4.11   0
  -3   0   6  459.79    4.38   0
  -3   1   5  130.78    2.00   0
  -3  -1  11   -0.10    1.68   0
  -2  -2   6   69.80    1.73   0
  -2   0   3  432.98    2.70   0
  -3  -1   8   56.88    2.16   0
  -4   2   9  191.27    3.63   0
  -4   2  10   42.22    2.65   0
  -3  -1   7  818.61    5.98   0
  -3   4   6    1.02    1.03   0
  -2   2   2 1427.73    4.38   0
  -4   1   9  291.04    4.60   0
  -4   1  10  148.06    3.55   0
  -4   2   8    4.29    1.22   0
  -3   0   5   67.21    1.54   0
  -4   1   8   -0.03    1.10   0
  -4   2   7  248.48    3.72   0
  -4   3   8   13.39    1.57   0
  -3   3   4 1206.58    5.65   0
  -2   1   2  482.60    2.57   0
  -4   0  10   93.53    3.44   0
  -4   3   7    2.12    1.37   0
  -3   4   5   27.15    1.44   0
  -4   1   7    2.57    1.00   0
  -3  -2   9   52.34    2.55   0
  -3  -2  10    0.76    1.77   0
  -3  -1   6  179.41    2.75   0
  -2   3   2   42.56    0.91   0
  -4   0   8   -0.81    1.28   0
  -4   2   6  373.42    3.96   0
  -4   3   6  192.84    3.00   0
  -4   1   6  261.86    3.42   0
  -4   4   8   98.42    2.82   0
  -3  -2   8  588.10    5.80   0
  -3   2   3   91.11    1.51   0
  -4   0   7   19.76    1.43   0
  -4   4   7   68.79    2.33   0
  -3   0   4 1343.69    6.01   0
  -3   4   4    6.11    0.92   0
  -4  -1  10   68.12    3.13   0
  -4   2   5  315.97    3.52   0
  -3   3   3  418.20    3.12   0
  -2  -1   3  152.09    1.70   0
  -4  -1   9  145.27    3.80   0
  -4   3   5  145.74    2.53   0
  -3  -2   7  115.18    2.93   0
  -3  -1   5   44.31    1.35   0
  -3   1   3    0.68    0.45   0
  -2   0   2   77.60    1.10   0
  -5   2   9   21.00    1.98   0
  -5   1  10  147.79    4.03   0
  -5   2   8   27.12    1.94   0
  -5   3   9   24.64    2.19   0
  -4  -1   8   -0.03    1.30   0
  -4   1   5  160.12    2.56   0
  -5   3   8  156.28    3.62   0
  -2  -2   4  360.20    3.13   0
  -5   1   8   31.42    2.00   0
  -5   2   7   31.17    2.01   0
  -4   4   5   49.37    2.00   0
  -5   3   7  121.52    3.01   0
  -4  -1   7    9.78    1.39   0
  -4   2   4  105.35    1.95   0
  -4   3   4    2.98    0.75   0
  -3  -2   6  124.11    2.69   0
  -3   4   3   19.75    0.97   0
  -2   2   1 3597.79    6.67   0
  -5   1   7  508.18    6.10   0
  -4   0   5  113.17    2.33   0
  -3  -1   4  641.96    4.54   0
  -3   0   3  356.72    2.96   0
  -5   2   6   57.01    2.09   0
  -5   3   6   96.08    2.47   0
  -5   4   7    7.37    1.59   0
  -4   1   4   -0.23    0.66   0
  -3   2   2   89.06    1.41   0
  -4   4   4    1.53    0.97   0
  -3   3   2  278.40    2.46   0
  -2   1   1 1534.10    4.31   0
  -4  -1   6  263.80    3.70   0
  -5   4   6   38.72    1.91   0
  -3   1   2  187.36    2.00   0
  -5   2   5   62.96    2.11   0
  -5   3   5   80.68    2.30   0
  -4   2   3   62.02    1.44   0
  -4   3   3   48.47    1.35   0
  -3  -2   5  632.11    5.32   0
  -2   3   1    2.95    0.38   0
  -5  -1   9    1.86    2.40   0
  -2  -1   2   37.21    0.87   0
  -6   2   8   80.09    3.20   0
  -5   1   5    1.27    1.04   0
  -5   4   5    0.62    1.07   0
  -4  -1   5  649.27    5.43   0
  -4   1   3   17.04    0.94   0
  -6   2   7   12.38    1.90   0
  -5  -1   8   43.66    2.57   0
  -4  -2   7    0.29    1.36   0
  -2  -2   3  631.38    3.62   0
  -6   1   8    1.89    1.74   0
  -5   2   4  401.93    4.31   0
  -5   3   4   35.66    1.63   0
  -3  -1   3  112.43    1.77   0
  -2   0   1  351.73    2.17   0
  -6   4   7   42.85    2.42   0
  -3   0   2  563.03    3.55   0
  -6   1   7   67.34    2.76   0
  -5  -1   7    6.61    1.99   0
  -6   2   6  350.53    5.06   0
  -5   4   4  126.98    2.59   0
  -4   2   2   81.05    1.63   0
  -3   2   1    1.05    0.36   0
  -6   4   6  308.06    4.78   0
  -5   1   4  152.33    2.82   0
  -4  -2   6  145.30    3.37   0
  -4   0   3  385.32    3.63   0
  -4   3   2   52.77    1.32   0
  -3  -2   4   21.85    1.08   0
  -4  -1   4    9.15    1.14   0
  -3   3   1   25.03    0.89   0
  -6   1   6  103.06    3.11   0
  -5   3   3    0.67    0.78   0
  -3   1   1    3.08    0.41   0
  -6   2   5    9.16    1.51   0
  -6   4   5   92.62    2.83   0
  -5  -1   6  134.51    3.28   0
  -5   2   3  452.91    4.34   0
  -4   1   2  223.12    2.63   0
  -6   0   7   42.11    2.59   0
  -4   4   2 1695.23    7.47   0
  -5   4   3   12.92    1.23   0
  -6   1   5  142.22    3.35   0
  -5   1   3    8.81    1.05   0
  -4  -2   5  213.91    3.63   0
  -2   2   0 9846.85   11.25   0
  -6   0   6  270.16    5.36   0
  -3  -1   2    6.73    0.62   0
  -6   2   4  219.20    3.98   0
  -6   4   4    0.44    1.24   0
  -5  -1   5   45.74    2.16   0
  -4  -1   3  563.89    4.80   0
  -4   0   2   37.50    1.27   0
  -4   2   1    5.02    0.63   0
  -3   0   1  234.79    2.27   0
  -2  -1   1  910.99    3.71   0
  -5   2   2  195.58    2.88   0
  -3  -2   3    6.90    0.76   0
  -6   1   4   47.13    2.27   0
  -7   3   5   48.94    2.48   0
  -6   0   5   29.24    2.20   0
  -5   4   2    1.16    0.90   0
  -4   1   1  723.36    4.59   0
  -7   4   5  157.63    3.77   0
  -6   2   3  230.72    3.85   0
  -6   4   3   53.56    2.38   0
  -5   1   2    3.97    0.89   0
  -3   2   0  258.21    2.32   0
  -7   2   5  120.30    3.75   0
  -5  -1   4  206.80    3.68   0
  -4  -2   4  178.39    3.16   0
  -2   0   0    4.43    0.37   0
  -3   1   0   58.64    1.14   0
  -3   3   0    0.96    0.53   0
  -7   3   4    3.19    1.63   0
  -7   4   4   76.83    3.21   0
  -6   0   4   73.57    2.84   0
  -6   1   3  135.98    3.21   0
  -7   2   4    7.55    1.84   0
  -5   2   1   19.01    1.10   0
  -4  -1   2  197.16    2.78   0
  -4   0   1  186.11    2.53   0
  -3  -1   1 1096.78    5.33   0
  -6   2   2  113.04    3.15   0
  -6   4   2   17.78    1.91   0
  -4   2   0    0.37    0.56   0
  -4   3   0   -0.09    0.80   0
  -5   4   1   61.47    1.92   0
  -7   3   3   94.50    3.44   0
  -6  -1   5  131.71    4.00   0
  -5   1   1  340.44    3.88   0
  -3  -2   2   13.66    0.84   0
  -3   0   0    3.42    0.50   0
  -7   1   4  246.91    5.86   0
  -7   4   3  196.44    3.95   0
  -4  -2   3   22.58    1.43   0
  -4   1   0  853.61    5.11   0
  -7   2   3  107.91    3.28   0
  -6   0   3    7.94    1.58   0
  -6   1   2   41.09    2.03   0
  -4   4   0  725.59    4.63   0
  -2  -2   1    3.00    0.54   0
  -2  -1   0 2134.97    6.07   0
  -2   1  -1  991.32    3.93   0
  -6  -1   4  165.78    4.32   0
  -6   2   1   54.71    2.19   0
  -6   4   1    2.51    1.32   0
  -5   2   0    0.82    0.82   0
  -3   2  -1   21.13    0.83   0
  -7   3   2   -0.47    1.56   0
  -7   4   2   39.30    2.67   0
  -4  -1   1    9.73    0.96   0
  -4   0   0  193.34    2.70   0
  -3   1  -1   12.02    0.69   0
  -5  -1   2  702.66    6.44   0
  -5   4   0   22.87    1.36   0
  -7   2   2  409.56    6.15   0
  -6   0   2  370.60    6.03   0
  -5   1   0    3.56    0.91   0
  -4   2  -1  307.40    3.26   0
  -3   3  -1  634.19    3.73   0
  -6   1   1  162.39    3.59   0
  -4  -2   2  156.39    2.98   0
  -4   3  -1  741.90    5.04   0
  -3  -1   0   55.68    1.35   0
  -2   0  -1   21.58    0.69   0
  -4   1  -1   60.85    1.57   0
  -6  -1   3   65.51    3.15   0
  -3  -2   1   19.54    0.96   0
  -3   0  -1  165.08    2.16   0
  -7   1   2   63.18    3.19   0
  -7   3   1    7.47    1.71   0
  -7   4   1   77.15    2.86   0
  -6   2   0   -0.20    1.12   0
  -6   4   0   13.69    1.66   0
  -5   2  -1  252.73    3.58   0
  -7   2   1   87.79    3.36   0
  -4   4  -1  176.74    2.44   0
  -6   0   1   78.66    3.24   0
  -5  -1   1  132.98    3.08   0
  -4  -1   0  847.57    6.02   0
  -2   3  -1  274.60    2.01   0
  -6   1   0  195.58    3.97   0
  -5   1  -1  278.11    3.89   0
  -4   0  -1   50.46    1.61   0
  -3   2  -2  223.95    2.55   0
  -6  -1   2    3.79    2.12   0
  -4   2  -2    2.38    0.79   0
  -3   1  -2    2.04    0.74   0
  -7   3   0  128.44    3.93   0
  -7   4   0    4.50    1.73   0
  -4  -2   1  106.44    2.60   0
  -4   3  -2   11.55    1.14   0
  -2  -1  -1  256.87    2.42   0
  -6   2  -1    8.33    1.67   0
  -2   1  -2    5.14    0.48   0
   4   4  -5  211.97    4.29   0
   5   4  -4   11.86    2.18   0
   5   5  -2    9.83    2.14   0
   6   0  -3    4.92    1.67   0
   6   3  -3   34.08    2.43   0
   7  -1   1  301.25    5.35   0
   7   0  -1    4.65    1.71   0
   6   4   0   32.01    1.81   0
   6   4   1   17.42    1.76   0
   7   1  -1   15.99    2.06   0
   4   6  -1    0.98    1.92   0
   6   1  -3   55.61    2.61   0
   6   2  -3  103.15    3.78   0
   7   0   0    5.13    1.93   0
   7   1   3    5.63    1.83   0
   5   5  -1   18.58    1.96   0
   7   0   1   88.23    3.40   0
   7   0   3    5.52    1.95   0
   7   1   1   -0.92    1.99   0
   7   1   2    3.20    1.89   0
   5   2  -4   19.15    1.92   0
   5   4  -3  282.75    5.23   0
   5   5   2  110.26    2.28   0
   7   0   2   84.45    2.82   0
   4   6   0   51.21    2.10   0
   4   6   1   11.50    1.91   0
   4   4  -4    0.62    1.84   0
   4   5  -3  194.35    4.33   0
   6   1  -2    3.00    1.91   0
   6   2  -2   29.99    2.45   0
   6   3  -1   48.69    2.59   0
   5   3  -3   11.84    1.98   0
   6   0  -1   73.83    3.07   0
   6   3   0  206.49    4.11   0
   5   2  -3   -0.53    1.46   0
   6   2  -1    2.10    1.72   0
   6   2   5    0.73    1.75   0
   6   3   1  137.99    3.25   0
   6   3   2   42.24    2.22   0
   4   5  -2   33.85    2.49   0
   6   1  -1   11.00    1.74   0
   4   4  -3    2.99    2.11   0
   5   4  -1   94.81    3.34   0
   6   0   0  286.75    5.19   0
   6   2   0   25.21    2.51   0
   3   5  -3  192.00    4.41   0
   5   3  -2    1.60    1.77   0
   6   2   4    2.28    1.91   0
   3   6  -1  252.78    4.96   0
   4   5  -1   -1.61    2.27   0
   5   4   4  126.79    2.60   0
   6   1   0   13.25    1.98   0
   6   2   1    0.84    1.91   0
   5   2  -2   25.86    2.27   0
   5   4   1    2.83    2.04   0
   5   4   3   17.33    2.20   0
   6   0   1  402.03    5.69   0
   6   1   5  213.29    3.57   0
   6   2   2   14.02    1.92   0
   5   4   2   40.58    2.35   0
   6   0   2   36.70    2.69   0
   6   1   4  265.82    4.45   0
   2   7   2   40.27    2.34   0
   2   7   3  147.17    2.76   0
   3   6   0  246.08    4.81   0
   4   4  -2  124.86    3.55   0
   4   5   0   52.80    2.70   0
   5   3  -1   41.53    2.54   0
   5   3   6    0.92    1.53   0
   6   0   3  106.72    3.15   0
   6   0   4    9.34    1.95   0
   6   1   2    0.67    1.55   0
   6   1   3   49.25    2.51   0
   4   5   4   89.43    2.53   0
   3   5  -2  247.94    4.84   0
   3   6   1    0.58    2.19   0
   4   5   2   48.83    2.80   0
   4   5   3    8.50    2.04   0
   5   2  -1  118.98    3.58   0
   5   2   7  254.85    3.47   0
   5   3   0   67.07    2.99   0
   3   6   2    1.71    2.18   0
   3   6   3    1.57    1.95   0
   5   3   1   11.17    1.92   0
   5   2   0   16.74    1.92   0
   5   3   2    0.42    1.71   0
   5   3   3    0.23    2.14   0
   5   3   4   -0.48    1.87   0
   3   5  -1  105.05    3.44   0
   5   2   6    8.45    2.15   0
   4   3   8    2.53    1.70   0
   4   4   0    7.27    1.97   0
   4   4   6    1.78    1.54   0
   5   1   7    4.09    1.64   0
   5   2   1  112.79    3.67   0
   4   3  -1   17.24    1.88   0
   2   6   0   41.22    2.98   0
   4   4   1    1.93    1.88   0
   4   4   5    7.62    2.12   0
   5   2   2   35.26    2.29   0
   3   5   0  317.00    5.31   0
   5   1   6   62.55    2.46   0
   5   2   3   95.42    3.13   0
   1   7   2    6.86    2.19   0
   1   7   5    0.99    1.50   0
   3   5   6   -0.18    1.68   0
   4   4   2   74.32    2.92   0
   4   4   3   -0.27    1.92   0
   4   4   4    1.31    1.97   0
   5   1   2  244.18    4.41   0
   1   7   3   -0.02    2.02   0
   1   7   4   -0.14    1.99   0
   2   6   1   24.20    2.61   0
   3   4  -1  170.97    3.93   0
   3   5   1  150.44    3.85   0
   4   3   0    4.47    1.67   0
   5   0   4   -0.54    1.74   0
   5   0   5   16.28    1.83   0
   5   1   3   20.56    1.97   0
   5   1   4   15.27    2.33   0
   5   1   5   65.54    2.59   0
   3   5   5    4.16    1.86   0
   2   5  -1    5.56    1.96   0
   2   6   2   12.97    2.39   0
   3   5   4   34.74    2.57   0
   4   2   8    5.71    2.12   0
   4   3   1   42.05    2.67   0
   2   6   4    1.39    1.95   0
   3   5   3   25.03    2.45   0
   4   3   6  368.84    5.05   0
   3   4   0   11.63    1.94   0
   4   3   2    3.31    1.77   0
   1   6   8  189.54    3.24   0
   2   5   8   50.96    2.42   0
   4   3   3   33.73    2.45   0
   4   3   4  103.89    3.64   0
   4   3   5  385.71    5.45   0
   2   5   0    8.54    2.24   0
   3   3   9    9.39    2.05   0
   3   4   7  135.89    3.30   0
   4   1   8    1.21    2.04   0
   4   2   7    0.27    1.80   0
   3   2  10   57.53    2.34   0
   2   3  11   39.46    1.98   0
   4   2   6    0.03    2.23   0
   0   7   6  253.43    3.95   0
   1   6   1    4.64    2.51   0
   2   5   7  203.63    4.03   0
   3   4   2   27.36    2.19   0
   3   4   6   25.41    2.53   0
   4   2   3  350.82    5.15   0
   0   7   3    3.67    2.21   0
   1   6   7   50.52    2.37   0
   2   5   1   18.36    2.26   0
   3   4   3  108.85    3.81   0
   3   4   5   55.38    2.68   0
   4   1   7   28.15    2.22   0
   0   7   4   29.81    2.69   0
   0   7   5   66.90    2.72   0
   3   4   4   41.33    2.58   0
   4   1   6  124.76    3.58   0
   2   5   2    9.91    2.03   0
   2   5   6  331.45    5.37   0
  -1   7   8    1.56    1.75   0
   0   6   9   55.74    2.27   0
   2   5   5  229.95    4.78   0
   3   2   9   19.61    2.26   0
   1   5   9    6.88    2.03   0
   1   6   3   11.92    2.26   0
   1   6   4   97.18    3.43   0
   1   6   5    1.28    1.98   0
   2   5   4   78.63    3.29   0
   3   3   7    8.15    2.26   0
   1   3  12   26.92    1.70   0
   2   2  11   45.26    2.41   0
   2   3  10   60.55    2.46   0
   2   4   8   26.01    2.12   0
   3   3   3   76.99    3.17   0
   3   3   6   47.24    2.87   0
  -1   7   7   35.56    2.51   0
   3   1   9   17.14    2.53   0
   3   2   8   18.57    2.35   0
   3   3   4   90.82    3.19   0
   0   6   8    9.10    2.03   0
  -2   7   9    1.95    1.70   0
  -1   7   6   21.12    2.60   0
   1   5   8   -0.03    1.96   0
   2   4   7   14.16    2.31   0
   3   2   7    5.86    2.29   0
  -1   7   5   61.34    3.40   0
   1   4  10   13.00    2.16   0
   0   3  13    4.32    1.67   0
   0   6   2  342.40    6.25   0
   2   4   3  195.60    4.52   0
   2   4   6   43.74    2.89   0
   3   1   8  256.00    4.58   0
   3   2   6  129.99    3.65   0
   0   5  10   45.86    2.30   0
   1   5   2  145.00    4.13   0
   2   2  10   11.15    2.43   0
   2   4   4   66.96    3.10   0
   2   4   5   34.64    2.56   0
   0   6   3  377.00    6.38   0
   0   6   6    0.41    2.08   0
   1   3  11   81.92    2.95   0
   1   5   6   92.06    3.68   0
  -2   6  11   22.36    1.91   0
  -2   7   8   18.35    2.11   0
   0   6   4  119.37    4.23   0
   0   6   5   29.50    2.66   0
   1   2  12   12.07    1.79   0
   1   5   3   36.69    2.54   0
   1   5   5   48.84    3.25   0
   2   3   8    6.33    2.28   0
  -1   6   9   10.05    2.39   0
   1   4   9    3.82    2.20   0
   2   3   7   76.10    3.54   0
  -2   7   7   62.46    2.87   0
   0   4  11   67.13    2.57   0
   0   5   9   14.77    2.00   0
   2   1  10  216.90    4.12   0
   2   2   9   25.72    2.30   0
  -3   7   9   79.14    2.83   0
  -1   5  11    3.75    1.71   0
   1   4   8    0.86    1.86   0
   2   3   6   11.50    2.00   0
  -2   7   5   -1.05    2.42   0
  -2   7   6   12.49    2.21   0
   0   2  13   58.97    2.39   0
   1   1  12   -0.22    1.89   0
   2   3   5   22.52    2.23   0
   0   3  12    0.99    1.65   0
   1   2  11   54.29    3.01   0
   2   2   8   31.03    2.39   0
  -2   5  12   32.92    2.22   0
  -2   6  10    3.51    1.75   0
   1   4   7    6.91    2.04   0
   2   1   9    2.61    2.29   0
  -3   7   8  122.34    3.56   0
  -1   4  12   45.00    2.72   0
  -1   6   7   34.65    2.70   0
   0   4  10    4.86    2.53   0
   1   4   6  142.15    4.22   0
   2   2   7   13.59    2.54   0
  -1   2  14    0.95    1.43   0
  -1   5  10   36.95    2.44   0
  -1   6   3   40.74    2.76   0
  -1   6   6   30.14    2.97   0
   0   5   7  183.53    4.53   0
   1   3   9  225.90    4.79   0
   1   4   5   11.40    1.93   0
  -3   6  11   29.00    2.08   0
  -1   3  13   85.78    3.05   0
  -1   6   4   15.83    2.40   0
  -1   6   5    0.77    2.17   0
   0   5   6    1.75    2.16   0
  -3   7   7   17.04    2.76   0
  -2   4  13   -0.81    1.97   0
   2   1   8   26.55    2.16   0
  -4   7   9    9.06    1.75   0
  -2   3  14   49.06    2.20   0
   1   1  11  134.18    3.47   0
   1   2  10  128.44    3.63   0
   1   3   8  300.46    5.31   0
   0   2  12   29.83    2.86   0
   0   4   9    6.86    2.13   0
  -2   5  11   13.61    2.02   0
  -4   7   8   15.95    2.13   0
   0   4   8    7.74    2.23   0
  -5   7   9    4.91    1.97   0
  -4   5  13   20.55    1.72   0
  -3   5  12   74.14    2.72   0
  -2   6   7  129.54    4.35   0
  -1   5   8  239.87    5.49   0
   0   3  10  106.75    3.75   0
   1   1  10  537.65    6.52   0
  -4   7   7  106.61    3.79   0
  -1   2  13    9.14    2.03   0
   0   4   7  166.77    4.59   0
  -2   5  10   38.26    2.82   0
  -2   6   6  647.04    8.52   0
  -1   4  10    2.02    2.38   0
  -1   5   7   54.40    3.22   0
   0   1  12    0.89    2.02   0
   0   2  11    1.66    2.32   0
   1   2   8  265.38    5.02   0
  -4   4  14    1.36    1.32   0
  -3   6   9   33.79    2.81   0
   0   4   6  589.34    8.06   0
  -5   7   8   38.81    2.61   0
  -3   4  13    4.95    1.81   0
   0   3   9    4.40    2.04   0
   1   1   9  113.63    3.72   0
  -1   5   5   16.08    2.22   0
  -5   5  13  203.79    3.42   0
  -5   6  11   15.45    2.11   0
  -4   6  10    2.27    1.92   0
  -3   5  11   18.24    2.45   0
  -3   6   8    8.97    2.40   0
  -2   5   9   15.14    2.52   0
  -1   3  11   54.31    3.44   0
  -1   4   9   25.73    3.02   0
  -4   5  12   53.59    2.92   0
  -1   1  13   85.54    3.04   0
   0   2  10    6.66    1.98   0
   0   3   8   38.63    2.98   0
  -3   1  15    0.85    1.69   0
  -2   4  11    7.65    2.09   0
  -1   2  12    2.11    2.07   0
   0   1  11   73.18    3.06   0
  -3   6   7    7.16    2.23   0
  -2   5   8    0.62    2.47   0
  -6   6  11   34.52    2.25   0
  -4   2  15   27.71    1.92   0
  -4   6   9    7.18    2.47   0
  -1   4   8  126.44    4.23   0
  -4   4  13   -1.38    1.92   0
  -3   4  12    1.20    1.76   0
  -3   5  10   41.37    3.00   0
  -3   6   5  176.87    5.09   0
  -3   6   6   23.21    2.45   0
  -1   3  10  108.91    4.10   0
  -5   6  10  102.50    3.51   0
  -2   2  13    0.10    1.78   0
  -2   4  10   13.74    2.62   0
   0   2   9   90.29    3.76   0
  -4   5  11   15.00    2.57   0
  -3   2  14   18.49    2.03   0
  -1   4   7   13.16    2.07   0
   0   1  10  171.76    4.66   0
  -4   6   8   17.58    2.47   0
  -2   5   6  107.10    3.95   0
  -1   1  12  304.78    5.42   0
  -1   2  11   93.38    3.56   0
  -3   5   9   40.01    3.01   0
  -6   6  10   47.26    2.62   0
  -5   6   9  156.79    4.62   0
  -1   3   9    6.30    1.94   0
  -7   6  10   45.90    2.49   0
  -6   5  12   19.60    2.11   0
  -5   4  13   -0.93    1.81   0
  -4   6   7  132.67    4.21   0
  -2   3  11  117.63    3.87   0
  -2   4   9   31.11    2.78   0
  -4   4  12   65.38    3.24   0
  -2   1  13    1.41    1.87   0
  -4   5  10   31.79    2.77   0
  -4   6   6   18.41    2.40   0
  -3   1  14    4.92    1.70   0
  -1   2  10   54.89    3.01   0
  -5   6   8   88.92    3.57   0
  -4   2  14    7.25    1.93   0
  -3   3  12  342.49    6.47   0
  -2   4   8   -0.05    1.76   0
  -6   4  13   69.78    2.52   0
  -6   6   9    1.04    1.88   0
  -4   3  13   -0.14    1.71   0
  -3   2  13    0.94    1.88   0
  -7   4  13  117.61    2.93   0
  -3   4  10  148.99    4.96   0
  -3   5   7   29.30    2.59   0
  -2   3  10   54.38    3.02   0
  -7   6   9   26.25    2.07   0
  -5   6   7    0.90    1.95   0
  -5   4  12    6.96    2.17   0
  -4   4  11   86.66    3.52   0
  -3   5   6  190.38    4.91   0
  -6   6   8    1.46    1.80   0
  -2   1  12    0.72    1.91   0
  -7   5  11   34.91    2.25   0
  -5   3  13    0.52    2.10   0
  -4   1  14  164.17    3.48   0
  -3   3  11  211.23    5.47   0
  -3   4   9  355.81    6.65   0
  -2   3   9    4.75    2.28   0
  -1   0  11    8.84    1.99   0
  -4   3  12   16.22    2.45   0
  -4   5   8   20.15    2.49   0
  -3   1  13    1.65    1.69   0
  -6   4  12   15.24    2.25   0
  -6   5  10    1.02    2.12   0
  -5   5   9   26.37    2.65   0
  -4   4  10   18.08    2.68   0
  -6   3  13    6.06    1.74   0
  -4   0  14    0.27    1.47   0
  -4   5   7   72.61    3.47   0
  -2   0  12   64.55    3.10   0
  -8   5  10   46.23    2.25   0
  -7   3  13    2.78    1.73   0
  -7   5  10   24.94    2.44   0
  -5   1  14    9.03    1.96   0
  -3   3  10   42.97    2.79   0
  -3   0  13  196.84    4.31   0
  -2   1  11   27.24    2.32   0
  -5   3  12   61.60    3.31   0
  -5   5   8    2.27    2.41   0
  -6   5   9   38.99    2.60   0
  -5   2  13  166.53    4.04   0
  -4   1  13   34.40    2.53   0
  -4   3  11   31.63    2.68   0
  -4   4   9   33.79    2.66   0
  -6   4  11   93.40    3.48   0
  -5   0  14    0.10    1.49   0
  -3   1  12   14.98    2.21   0
  -4   1  14  159.14    2.73   0
  -2   1  12    0.92    1.35   0
  -1  -2  11  481.38    4.96   0
  -1   0  11    9.37    1.38   0
  -5   2  14   32.86    1.72   0
  -4  -1  14   13.32    1.59   0
  -3  -2  13    1.87    1.41   0
  -2   2  11   36.16    1.85   0
  -1  -1  11   44.12    2.26   0
  -5  -1  14    2.11    1.20   0
  -5   4  12    7.27    1.59   0
  -4   0  14    0.28    1.13   0
  -4   4  11   73.11    2.52   0
  -3   1  13    2.47    1.29   0
  -2  -2  12   78.41    2.47   0
  -5   3  13   -0.36    1.45   0
  -3   3  11  200.13    3.86   0
  -2   0  12   63.57    2.26   0
  -6   2  14   22.12    1.37   0
  -5   1  14    9.62    1.64   0
  -4   2  13    8.04    1.25   0
  -3   0  13  208.68    3.41   0
  -2  -1  12    1.74    1.49   0
  -2   3   9    5.76    1.65   0
  -5   0  14    0.72    1.27   0
  -4   3  12   16.54    1.60   0
  -6   1  14   18.37    1.42   0
  -2   1  11   20.19    1.79   0
  -3  -2  12    1.48    1.50   0
  -2   2  10   95.97    2.49   0
  -6  -1  13   25.39    1.85   0
  -6   4  12   13.52    1.66   0
  -4  -1  13   69.99    2.46   0
  -3   1  12   16.31    1.86   0
  -2  -2  11   13.76    1.67   0
  -7   3  13    3.05    1.16   0
  -5   2  13  139.97    3.02   0
  -4   0  13   31.38    1.81   0
  -2   0  11  285.32    4.04   0
  -7   0  13    0.36    1.53   0
  -4  -2  12    4.95    1.76   0
  -4   4  10   20.33    1.80   0
  -3   3  10   46.29    2.14   0
  -7   4  12  206.60    2.93   0
  -5   4  11    5.99    1.59   0
  -4   2  12  106.33    2.84   0
  -6   2  13   20.92    1.96   0
  -5   0  13    4.05    1.66   0
  -5   1  13   19.89    1.64   0
  -4   3  11   34.80    2.08   0
  -7   1  13   64.02    2.01   0
  -7   2  13    3.52    1.39   0
  -3  -2  11   62.10    2.35   0
  -6   1  13   48.13    2.42   0
  -4  -1  12    1.72    1.51   0
  -4   1  12   31.35    1.91   0
  -3   1  11   84.83    2.58   0
  -8   3  12   41.65    1.75   0
  -6  -1  12    9.79    2.03   0
  -6   4  11  102.02    2.76   0
  -4   0  12   68.90    2.39   0
  -3  -1  11    1.30    1.68   0
  -3   3   9   -1.12    1.59   0
  -5  -1  12   72.15    2.38   0
  -4  -2  11    2.70    1.67   0
  -4   4   9   34.67    2.38   0
  -3   2  10   17.30    1.72   0
  -7  -1  11    9.22    2.01   0
  -7   0  12    0.38    1.70   0
  -7   3  12   49.38    1.84   0
  -7   5  10   24.54    1.87   0
  -5   4  10   12.42    1.93   0
  -4   2  11  178.78    3.57   0
  -8   0  11  131.79    2.54   0
  -8   2  12   15.47    1.48   0
  -5   1  12    8.07    1.83   0
  -5   3  11    8.20    1.57   0
  -4   3  10   14.01    1.79   0
  -3  -2  10   -0.43    1.60   0
  -8   4  11    1.55    1.38   0
  -7   4  11    4.23    1.41   0
  -6   2  12   -0.05    1.45   0
  -5   0  12   13.17    1.77   0
  -7   1  12   92.34    2.62   0
  -7   2  12   29.25    1.90   0
  -4  -1  11   46.01    2.66   0
  -3   1  10   52.71    2.41   0
  -6   1  12   49.04    2.16   0
  -6   5   9   36.61    2.04   0
  -4   1  11    0.43    1.35   0
  -6  -1  11    8.39    2.26   0
  -4   0  11   18.09    1.62   0
  -6   4  10  130.55    3.51   0
  -5  -1  11  156.29    3.25   0
  -5   2  11  150.03    3.21   0
  -9   5   9   61.06    1.81   0
  -8   3  11   12.36    1.56   0
  -7   3  11    2.93    1.72   0
  -4   2  10   43.33    2.10   0
  -7  -1  10   18.43    1.93   0
  -7   0  11   13.03    1.83   0
  -7   5   9   18.12    1.96   0
  -5   1  11   -0.42    1.66   0
  -5   3  10   69.14    2.51   0
  -5   4   9   64.83    2.48   0
  -4   3   9   89.13    2.81   0
  -8   0  10    4.90    1.72   0
  -8   5   9    7.72    1.73   0
  -7   4  10   11.03    1.85   0
  -6   2  11   24.50    2.19   0
  -9   2  10   48.14    1.79   0
  -9   3  10    7.15    1.44   0
  -7   2  11    1.85    1.95   0
  -6   0  11   56.13    2.36   0
  -7   1  11  102.68    2.63   0
  -6   5   8   10.25    1.98   0
  -4   1  10  141.72    3.04   0
  -9   1   9   27.08    1.87   0
  -6  -1  10  133.89    3.31   0
  -4   0  10   77.13    2.83   0
  -5   2  10   12.15    1.57   0
  -9   4   9   56.72    2.04   0
  -8   3  10   35.92    2.13   0
  -7  -1   9   86.32    3.07   0
  -6   4   9    0.35    1.53   0
  -9   5   8   47.11    1.96   0
  -8   0   9   34.81    2.26   0
  -7   0  10   19.94    1.92   0
  -7   3  10   55.31    2.40   0
  -5   1  10  126.55    3.46   0
  -5   3   9   20.45    2.12   0
  -5   4   8  129.90    3.24   0
  -8   2  10  216.00    3.58   0
  -7   5   8  118.93    2.92   0
  -6   0  10  167.02    3.59   0
  -6   2  10   60.30    2.91   0
  -9   2   9    6.13    1.45   0
  -9   3   9   19.92    1.66   0
  -8   5   8   38.13    2.18   0
  -7   1  10   21.00    2.31   0
  -7   4   9    1.54    1.56   0
  -9   6   6    0.18    1.61   0
  -6  -1   9   41.61    2.86   0
  -6   1  10   10.01    1.84   0
  -9   1   8   25.39    1.79   0
  -6   5   7   16.52    1.77   0
  -5  -1   9    2.92    1.43   0
  -5   2   9   14.11    1.59   0
  -9   4   8   38.33    2.06   0
  -8   3   9   38.93    2.23   0
  -7   0   9   -1.09    2.09   0
  -6   4   8   77.85    2.78   0
  -9   5   7   61.75    2.12   0
  -8   0   8   79.62    2.68   0
  -8   2   9   68.92    2.47   0
  -7   3   9  323.40    4.70   0
  -5   1   9   97.83    3.26   0
  -9   2   8   59.71    2.29   0
  -9   3   8   -0.32    1.85   0
  -7   5   7   16.07    1.87   0
  -6   2   9    3.80    1.85   0
  -5   3   8  145.69    3.18   0
  -5   4   7    6.75    1.57   0
  -9   1   7   19.49    2.05   0
  -8   5   7   51.27    2.46   0
  -7   1   9   10.03    1.85   0
  -7   2   9  254.49    4.39   0
  -7   4   8   22.79    1.97   0
 -10   3   6   88.38    2.35   0
 -10   4   6   34.43    1.72   0
  -9   6   5  137.63    2.93   0
  -6  -1   8   32.45    2.41   0
  -6   1   9  152.01    3.30   0
  -6   5   6   68.07    2.66   0
  -5  -1   8   49.30    2.11   0
  -9   4   7   20.61    1.86   0
  -8   0   7    0.52    2.16   0
  -8   3   8   84.36    3.21   0
  -8   6   5   20.53    2.10   0
  -7   0   8   49.14    2.93   0
  -6   3   8  151.35    3.22   0
  -9   5   6   19.90    1.86   0
  -8   2   8    7.96    2.17   0
  -9   1   6    0.21    1.97   0
  -9   2   7  216.49    3.55   0
  -9   3   7    3.19    2.12   0
  -7   3   8    3.48    1.70   0
 -10   3   5   79.57    2.32   0
 -10   4   5    0.99    1.72   0
  -7   1   8    2.56    2.12   0
  -7   5   6   14.33    2.01   0
  -6   0   8   36.38    2.09   0
  -6   2   8   69.21    2.80   0
  -9   6   4   92.84    2.66   0
  -7   2   8    1.66    1.66   0
  -6  -1   7   46.54    2.91   0
  -6   1   8    2.13    1.53   0
  -9   4   6   22.06    1.98   0
  -8   0   6   18.37    2.22   0
  -8   1   7  141.97    3.47   0
 -10   3   4    7.25    1.78   0
  -9   1   5   10.76    2.08   0
  -9   2   6   46.64    2.32   0
  -9   5   5    0.64    1.69   0
  -8   2   7   66.45    2.89   0
  -8   3   7   12.58    1.87   0
  -8   6   4   12.29    2.00   0
  -6   3   7   46.30    2.14   0
 -10   4   4    0.35    1.52   0
  -9   3   6   26.78    1.92   0
  -6   0   7   37.09    2.49   0
  -6   4   6  278.44    4.52   0
  -9   6   3    7.29    1.61   0
  -8   0   5    1.77    2.30   0
  -8   5   5    0.28    1.53   0
  -7   2   7  121.34    3.20   0
  -7   4   6   13.44    1.98   0
  -7   5   5   31.22    1.97   0
  -6  -1   6  225.16    4.34   0
  -6   2   7   12.88    1.77   0
 -10   3   3   10.92    1.57   0
  -9   1   4    5.80    2.03   0
  -9   4   5    0.11    1.85   0
  -8   1   6   86.71    3.03   0
  -6   1   7   65.29    2.45   0
 -10   4   3   80.73    2.25   0
  -9   2   5   -0.52    1.94   0
  -9   5   4   -0.40    1.98   0
  -7   0   6  146.00    4.32   0
  -9   3   5   82.94    2.88   0
  -8   2   6  151.51    3.50   0
  -8   3   6   33.61    2.33   0
 -10   3   2    5.80    1.56   0
  -9   6   2    0.42    1.87   0
  -6   3   6    5.09    1.74   0
 -10   4   2  103.47    2.44   0
  -9   1   3    4.96    1.79   0
  -8   0   4    4.82    1.95   0
  -7   3   6  350.09    5.42   0
  -9   2   4    0.18    1.94   0
  -9   4   4    3.22    1.87   0
  -8   1   5  130.92    3.75   0
  -8   4   5    8.70    1.84   0
  -8   5   4    0.90    1.68   0
  -6   0   6  286.93    4.53   0
 -10   4   1   49.95    2.12   0
  -9   1   2   22.60    2.18   0
  -9   5   3    3.68    1.74   0
  -7   2   6  291.03    4.80   0
  -7   4   5  156.13    3.44   0
  -7   5   4   22.53    1.93   0
  -6  -1   5  134.53    3.69   0
  -9   3   4   63.91    2.73   0
  -8   3   5  118.27    3.73   0
  -7   0   5   37.94    2.50   0
  -6   1   6   91.17    2.69   0
  -9   6   1   18.70    1.83   0
  -8   0   3   38.06    3.03   0
  -8   2   5    1.93    1.75   0
  -8   6   2    6.84    1.72   0
  -9   1   1   28.96    2.03   0
  -9   1   0    0.43    1.54   0
  -9   4   3   -0.51    1.74   0
  -9   5   2   44.69    2.59   0
  -8   1   4   87.36    3.15   0
  -8   4   4   86.35    2.93   0
  -7   3   5   47.15    2.28   0
  -9   3   3  170.51    3.85   0
  -9   6   0   22.03    2.07   0
  -8   0   2    2.53    2.24   0
  -8   5   3   65.31    2.94   0
  -7   0   4   15.00    2.55   0
  -7   2   5  113.90    3.36   0
  -7   5   3    3.01    1.83   0
  -8   2   4   25.45    2.14   0
  -8   3   4    4.30    1.79   0
  -8   6   1   11.18    1.81   0
  -7   4   4   81.41    2.92   0
  -9   4   2    9.62    1.77   0
  -9   6  -1  120.05    2.85   0
  -8   0   1    1.86    2.04   0
  -9   3   2   60.34    2.55   0
  -8   1   3    4.78    2.02   0
  -9   6  -2    7.57    1.85   0
  -8   0   0    2.41    2.21   0
  -8   4   3    8.97    1.97   0
  -8   5   2  167.48    3.79   0
  -7   3   4    2.51    1.79   0
  -9   6  -3   30.59    1.89   0
  -7   0   3   45.06    2.99   0
  -9   3   1   18.59    1.97   0
  -9   4   1   26.47    1.96   0
  -8   1   2    1.34    2.36   0
  -8   2   3    2.15    1.87   0
  -8   3   3    7.78    1.85   0
  -8   6   0   87.94    2.77   0
  -7   2   4    7.58    1.77   0
  -9   2  -2    4.63    1.88   0
  -7   4   3  179.85    4.05   0
  -7   5   2    3.64    1.49   0
  -8   4   2   71.39    3.31   0
  -9   3   0    4.13    1.82   0
  -9   4   0   24.06    2.01   0
  -8   5   1   75.34    2.84   0
  -8   1   1   32.18    2.38   0
  -8   2   2  437.33    6.00   0
  -8   3   2   84.73    3.66   0
  -8   6  -1   17.20    1.87   0
  -7   0   2   60.83    2.74   0
  -7   1   3  272.76    4.61   0
  -9   4  -1    0.46    1.74   0
  -9   3  -3   19.05    1.84   0
  -9   3  -2   42.49    2.18   0
  -7   5   1   11.70    2.02   0
  -9   4  -4    3.99    1.48   0
  -9   4  -3    0.05    1.79   0
  -9   4  -2   18.12    1.86   0
  -8   1   0   27.33    2.23   0
  -8   4   1   11.34    2.01   0
  -8   5   0   37.16    2.45   0
  -8   6  -2   20.41    2.01   0
  -8   2   1   55.32    2.72   0
  -7   0   1    3.39    1.79   0
  -8   1  -4  495.13    4.93   0
  -8   3   1   92.68    3.45   0
  -8   6  -3   48.73    2.61   0
  -7   1   2   72.41    2.74   0
  -8   1  -3   26.32    2.27   0
  -8   1  -2    7.33    2.01   0
  -7   3   2    0.30    1.46   0
  -8   2   0   76.62    3.02   0
  -8   4   0    6.57    1.92   0
  -8   5  -1    4.80    1.76   0
  -8   6  -6   34.60    1.91   0
  -8   6  -4    9.93    2.05   0
  -7   0   0    4.16    2.35   0
  -7   2   2  386.05    5.44   0
  -8   3   0    2.79    1.58   0
  -8   6  -5    0.99    1.53   0
  -7   5   0    8.19    1.74   0
  -8   2  -1  358.70    5.66   0
  -7   1   1   57.04    2.54   0
  -8   4  -1    3.96    1.83   0
  -8   5  -2   10.97    1.92   0
  -7   0  -1   89.32    3.25   0
  -8   2  -2   12.26    2.23   0
  -8   3  -1   22.43    2.05   0
  -8   5  -7    8.36    1.65   0
  -7   2   1   71.39    3.17   0
  -7   3   1    6.54    1.60   0
  -8   2  -3   -0.22    2.19   0
  -8   5  -3    0.28    1.70   0
  -7   0  -4   23.78    2.40   0
  -7   0  -2   73.86    2.97   0
  -7   5  -1    1.42    1.96   0
  -7   6  -3    1.94    1.69   0
  -8   4  -7    4.99    1.43   0
  -8   5  -4   41.93    2.44   0
  -7   0  -3    3.74    1.97   0
  -7   1   0   -1.14    1.73   0
  -6   0   1   75.59    2.76   0
  -8   3  -6    1.46    1.48   0
  -8   5  -5    9.51    1.76   0
  -8   3  -5   40.17    2.47   0
  -8   3  -3   35.57    2.32   0
  -8   4  -6    0.47    1.87   0
  -8   4  -3  223.85    4.07   0
  -7   6  -8   -0.46    1.67   0
  -7   6  -4   55.78    2.62   0
  -8   3  -4    4.38    1.59   0
  -8   4  -5   38.75    2.04   0
  -7   1  -7    8.92    1.87   0
  -7   1  -1  326.30    5.35   0
  -7   2   0  246.82    4.61   0
  -7   3   0  124.77    3.38   0
  -7   5  -2    6.99    2.17   0
  -7   6  -5   39.19    2.59   0
  -7   6  -7   71.74    2.63   0
  -7   6  -6   61.41    2.61   0
  -6   0   0  304.57    4.92   0
  -7   1  -2   32.11    2.67   0
  -7   1  -6   44.24    2.46   0
  -7   2  -1  109.86    3.21   0
  -7   3  -1  166.01    4.42   0
  -7   1  -3    5.20    2.11   0
  -7   3  -9   10.09    1.76   0
  -7   5  -3  130.69    3.40   0
  -7   1  -5  129.41    3.47   0
  -7   1  -4   32.51    2.46   0
  -6   0  -1  351.09    5.21   0
  -6   5  -2  227.45    4.46   0
  -7   2  -2   67.67    2.95   0
  -7   4  -9   38.18    1.82   0
  -7   5  -8    3.60    1.77   0
  -7   5  -4   22.20    2.11   0
  -7   2  -7   -1.26    2.03   0
  -7   3  -2   15.46    1.94   0
  -7   5  -5    0.30    2.04   0
  -7   2  -3   35.69    2.42   0
  -7   3  -8    5.07    1.89   0
  -7   4  -3    9.95    1.80   0
  -7   5  -7   10.63    1.78   0
  -7   5  -6   27.01    1.89   0
  -6   0  -7    7.93    2.06   0
  -6   0  -2   36.67    2.40   0
  -7   2  -6   16.60    2.00   0
  -7   2  -4   58.53    2.67   0
  -7   3  -3    7.51    1.78   0
  -7   4  -8    1.79    1.57   0
  -2   0   7  398.40    3.36   0
  -1  -3  10   27.67    1.66   0
  -2   0   6  434.53    3.16   0
  -2   0   8  147.65    2.26   0
  -2  -1   7   34.14    1.12   0
  -2  -1   8  123.65    2.12   0
  -2   0   9  383.03    3.85   0
  -2   1   7   24.66    0.95   0
  -1  -3  11    0.69    1.74   0
  -2   1   6  159.72    1.95   0
  -2   1   8   12.99    0.91   0
  -1   1  11  537.60    5.25   0
  -2  -1   6  334.01    2.83   0
  -2  -1  10   45.22    1.79   0
  -2   0   5  322.77    2.49   0
  -1  -3   5  361.35    2.71   0
  -2   1   5  135.16    1.63   0
  -2  -2   8   25.97    1.29   0
  -2  -2   9   51.91    1.80   0
  -2  -1  11    4.66    1.35   0
  -1   2  10   47.29    1.91   0
  -2  -2   7   41.94    1.30   0
  -2  -2  10   49.44    1.94   0
  -2   2   6  161.24    2.06   0
  -2   2   7    1.96    0.63   0
  -2   2   8   83.19    1.88   0
  -2  -2  11   12.84    1.76   0
  -2   0   4  651.01    3.22   0
  -2   1   4  170.05    1.66   0
  -2   1  11   24.06    1.67   0
  -2   2   5   53.14    1.12   0
  -2   2   9  101.77    2.30   0
  -2  -2   6   69.01    1.42   0
  -2   2  10   97.68    2.44   0
  -1  -3   4    1.50    0.41   0
  -1   3   4    0.19    0.41   0
  -3   0   8   59.11    1.68   0
  -3   0   9   26.66    1.33   0
  -2  -3   9   32.11    1.82   0
  -2  -3  10  173.06    3.32   0
  -3   0  10  260.25    3.76   0
  -3   1   8   25.48    1.25   0
  -3   1   9   97.79    2.17   0
  -2  -3   8   48.80    1.73   0
  -2  -3  11   46.72    2.56   0
  -2   2   4   59.86    1.05   0
  -3  -1  10  207.10    3.95   0
  -3   0  11  224.12    4.77   0
  -3   1   7  438.44    3.78   0
  -3   1  10   63.89    2.08   0
  -2  -2   5    7.48    0.67   0
  -3  -1  11    1.42    1.72   0
  -2  -3   7  135.71    2.37   0
  -2   3   6  796.57    4.58   0
  -2   3   7   26.47    1.22   0
  -2   3   8    6.92    1.38   0
  -3   0   6  443.19    3.58   0
  -3   1   6  320.99    3.02   0
  -3   2   8  228.43    3.06   0
  -3   2   9   61.76    2.03   0
  -2   0   3  393.88    2.33   0
  -2   3   5  427.50    3.09   0
  -3  -2   9   62.26    2.14   0
  -3  -2  10    0.51    1.40   0
  -3  -2  11   59.82    2.52   0
  -3   1   5  111.54    1.69   0
  -1   3   3    8.16    0.47   0
  -3  -2   8  589.27    5.18   0
  -3  -1   6  170.64    2.34   0
  -3   0   5   64.93    1.40   0
  -3   2   5    0.62    0.50   0
  -3   3   8  175.08    2.90   0
  -2  -2   4  382.84    2.69   0
  -2  -1   3  159.45    1.57   0
  -3  -2   7  111.09    2.60   0
  -3   3   7   30.92    1.42   0
  -3   3   9    0.71    1.27   0
  -2   3   4  345.97    2.57   0
  -4   0  10  107.02    2.76   0
  -4   1   8    0.94    0.91   0
  -4   1   9  282.75    3.92   0
  -4   1  10  153.97    3.13   0
  -4   0   8    1.25    0.89   0
  -3  -1   5   42.24    1.21   0
  -3   1   4   75.40    1.32   0
  -4  -1  10   71.79    2.95   0
  -4   1   7    1.07    0.77   0
  -4   2   8    4.28    0.96   0
  -4   2  10   48.75    2.16   0
  -4  -1   9  140.33    3.02   0
  -4   0   7   22.46    1.38   0
  -3   0   4 1280.27    5.32   0
  -3   2   4   66.52    1.27   0
  -2   1   2  465.45    2.35   0
  -4   2   7  265.30    3.32   0
  -3  -2   6  140.18    2.24   0
  -3   3   5   17.66    0.87   0
  -4  -1   8    0.34    1.09   0
  -4   1   6  241.35    2.95   0
  -2   0   2   76.19    0.98   0
  -4   2   6  335.40    3.48   0
  -4   0   6  129.52    2.28   0
  -4   3   8   15.74    1.46   0
  -4   3   9   97.15    2.60   0
  -2   3   3  300.77    2.21   0
  -4  -1   7   12.10    1.13   0
  -4   3   7    3.66    1.10   0
  -4  -2   9  512.97    5.67   0
  -4   1   5  163.29    2.40   0
  -3  -1   4  652.08    3.97   0
  -3   3   4 1332.88    5.88   0
  -5   1  10  153.68    3.57   0
  -4   2   5  314.46    3.19   0
  -4   3   6  213.86    2.99   0
  -3  -2   5  715.91    4.57   0
  -3   2   3   88.18    1.42   0
  -5   2   9   19.84    1.73   0
  -3   0   3  348.59    2.68   0
  -2  -2   3  640.93    3.23   0
  -5   1   8   37.63    1.94   0
  -5   2   8   29.25    2.01   0
  -4  -2   8  122.49    2.84   0
  -4  -1   6  253.37    3.24   0
  -4   0   5  108.40    2.01   0
  -2  -1   2   36.79    0.74   0
  -5   1   7  470.25    5.08   0
  -5   2   7   30.90    1.53   0
  -4   3   5  144.52    2.32   0
  -5   3   8  136.49    3.63   0
  -4   1   4   -0.75    0.58   0
  -4   2   4   87.69    1.68   0
  -4  -2   7    1.04    1.20   0
  -3   3   3  527.62    3.59   0
  -5  -1   9    2.75    1.82   0
  -5   2   6   53.13    1.74   0
  -5   3   7  121.28    2.70   0
  -5   1   6  264.67    3.56   0
  -4  -1   5  652.32    4.85   0
  -4   4   6  199.22    2.99   0
  -2   3   2   42.11    0.84   0
  -5  -1   8   51.50    2.27   0
  -3  -1   3  113.25    1.64   0
  -3   1   2  183.65    1.84   0
  -2   1   1 1558.17    4.20   0
  -3  -2   4   23.37    0.92   0
  -3   2   2   97.51    1.41   0
  -3   4   4    5.91    0.82   0
  -5   0   6  250.54    3.55   0
  -5   2   5   60.38    1.78   0
  -4  -2   6  154.51    3.18   0
  -5   1   5    4.40    0.90   0
  -4   1   3   16.39    0.93   0
  -4   2   3   58.73    1.35   0
  -3   0   2  560.79    3.27   0
  -2   0   1  357.31    2.01   0
  -6   2   8   87.93    2.78   0
  -5  -1   7    9.60    1.48   0
  -5   4   7    6.41    1.66   0
  -6   1   8    1.93    1.53   0
  -6   2   7   15.42    1.58   0
  -5   4   6   39.74    1.73   0
  -4  -1   4    6.88    0.98   0
  -6   1   7   70.48    2.52   0
  -6   3   7   54.80    2.68   0
  -5   0   5   23.42    1.42   0
  -5   2   4  480.22    4.41   0
  -4   4   4    1.81    0.94   0
  -3   3   2  281.19    2.51   0
  -6   0   8   40.62    2.32   0
  -5  -1   6  132.43    2.88   0
  -3   4   3   18.72    0.89   0
  -6   2   6  345.96    4.59   0
  -5   3   4   37.07    1.52   0
  -5   4   5    0.39    1.35   0
  -6   3   6    7.94    1.37   0
  -2  -2   2   88.67    1.17   0
  -6   0   7   40.58    2.41   0
  -6   1   6  113.41    2.86   0
  -4   2   2   78.02    1.52   0
  -4   1   2  222.78    2.46   0
  -3  -2   3    8.41    0.74   0
  -3  -1   2    6.47    0.56   0
  -3   1   1    3.08    0.39   0
  -3   2   1    1.15    0.41   0
  -6   2   5    7.79    1.29   0
  -2  -1   1  908.00    3.33   0
  -5  -1   5   52.89    1.95   0
  -5   4   4  139.14    2.61   0
  -2   3   1    3.47    0.40   0
  -6   1   5  138.61    3.15   0
  -5   1   3    7.81    0.93   0
  -5   3   3    0.72    0.74   0
  -4  -1   3  563.95    4.23   0
  -6   4   5   98.48    2.71   0
  -3   3   1   22.63    0.83   0
  -3   4   2   16.47    0.84   0
  -6   2   4  226.82    3.81   0
  -6   3   4    0.14    1.11   0
  -2   1   0  295.48    1.95   0
  -5   4   3   11.14    1.17   0
  -6   0   5   35.60    2.10   0
  -5   0   3    2.09    0.92   0
  -5   2   2  170.10    2.56   0
  -4   2   1    5.48    0.63   0
  -4   4   2 1711.05    7.20   0
  -6   4   4    2.63    1.24   0
  -5  -1   4  220.41    3.37   0
  -5   3   2    3.85    0.86   0
  -2   2   0 8903.87   10.72   0
  -4   3   1  969.25    5.40   0
  -2   0   0    4.27    0.33   0
  -7   3   5   52.68    2.41   0
  -6   2   3  226.35    3.49   0
  -6   3   3   73.23    2.14   0
  -5   1   2    3.31    0.80   0
  -7   2   5  130.74    3.52   0
  -6   5   5   30.03    2.05   0
  -3   2   0  278.63    2.45   0
  -7   4   5  164.37    4.01   0
  -6   0   4   91.68    2.73   0
  -5   4   2    0.58    0.95   0
  -4  -1   2  201.19    2.53   0
  -3  -1   1 1165.06    4.89   0
  -3   1   0   63.62    1.17   0
  -6   4   3   55.59    2.15   0
  -4   0   1  202.80    2.51   0
  -7   3   4    3.75    1.57   0
  -7   2   4   12.39    1.71   0
  -5  -1   3  197.17    3.26   0
  -5   0   2  167.83    2.74   0
  -5   2   1   18.61    1.09   0
  -4   4   1 2158.27    8.18   0
  -3   4   1  531.06    3.53   0
  -6   3   2  106.29    2.65   0
  -3   3   0    1.38    0.45   0
  -4   2   0    1.42    0.55   0
  -6   5   3   -0.02    1.61   0
  -5   1   1  339.68    3.73   0
  -4   1   0  921.79    5.13   0
  -4   3   0    0.67    0.62   0
  -2   3   0  896.26    3.60   0
  -7   1   4  324.80    5.27   0
  -7   3   3  116.09    3.09   0
  -6   0   3    7.08    1.44   0
  -2  -2   1    3.45    0.37   0
  -7   2   3  109.19    3.02   0
  -7   4   3  192.22    3.77   0
  -6   1   2   41.91    1.98   0
  -5   5   2   27.14    1.51   0
  -2  -1   0 2249.87    5.53   0
  -6   2   1   56.19    1.99   0
  -6   5   2   62.67    2.72   0
  -5   2   0    0.82    0.75   0
  -5   3   0   34.58    1.49   0
  -3   2  -1   20.51    0.81   0
  -2   1  -1 1027.12    3.90   0
  -7   1   3  279.70    4.55   0
  -7   3   2    2.21    1.45   0
  -7   5   3    5.45    1.91   0
  -5  -1   2  683.13    6.02   0
  -4   0   0  188.83    2.44   0
  -4   4   0  815.07    5.26   0
  -2   2  -1  749.63    3.42   0
  -7   4   2   42.03    2.20   0
  -3   4   0   17.14    0.95   0
  -7   2   2  417.95    5.77   0
  -6   0   2  434.56    5.05   0
  -5   4   0   22.91    1.37   0
  -4   2  -1  292.41    3.10   0
  -3  -1   0   59.10    1.22   0
  -6   1   1  167.69    3.30   0
  -4   3  -1  668.10    4.70   0
  -2   0  -1   22.66    0.65   0
  -4   1  -1   54.06    1.41   0
  -7   5   2    5.65    1.86   0
  -3   0  -1  157.52    1.91   0
  -7   1   2   69.27    2.91   0
  -7   3   1    8.25    1.59   0
  -7   4   1   66.70    3.06   0
  -6   2   0    0.18    1.08   0
  -6   4   0   11.35    1.51   0
  -5   2  -1  244.45    3.34   0
  -5   3  -1    7.13    1.08   0
  -5   0   0  101.63    2.33   0
  -5   5   0   29.40    1.63   0
  -4   4  -1  187.58    2.61   0
  -2   3  -1  293.17    2.29   0
  -7   5   1   14.76    2.28   0
  -4   5   0   97.01    2.22   0
  -6   1   0  175.65    3.39   0
  -4  -1   0  817.27    5.18   0
  -4   0  -1   44.98    1.36   0
  -3   2  -2  173.35    2.16   0
  -4   2  -2    1.05    0.69   0
  -3   4  -1    3.68    0.58   0
  -7   3   0  134.63    3.47   0
  -7   4   0    4.68    1.59   0
  -6   3  -1    2.11    1.13   0
  -4   3  -2   11.36    0.88   0
  -3   1  -2    1.39    0.56   0
  -6   2  -1    6.89    1.39   0
  -6   4  -1   79.49    2.73   0
  -2  -1  -1  251.71    2.06   0
  -2   1  -2    4.42    0.42   0
  -5   3  -2   12.54    1.18   0
  -4   1  -2    3.20    0.78   0
  -2   2  -2   38.57    0.89   0
  -7   5   0    7.37    2.03   0
  -5   2  -2  741.17    5.98   0
  -5   5  -1  291.33    3.90   0
  -3  -1  -1   52.94    1.28   0
  -4   4  -2   27.60    1.24   0
  -6   0   0  330.72    5.20   0
  -6   1  -1    1.44    1.70   0
  -5   0  -1    1.59    1.10   0
  -4   5  -1   84.27    2.09   0
  -3   0  -2  849.29    4.77   0
  -7   3  -1  200.08    4.18   0
  -7   4  -1  207.97    4.39   0
  -6   4  -2    9.12    1.61   0
  -5   1  -2  443.45    4.65   0
  -6   2  -2   54.04    2.61   0
  -4  -1  -1   19.13    1.35   0
  -4   0  -2   18.46    1.06   0
  -4   2  -3   18.60    1.14   0
  -3   4  -2  141.50    2.14   0
  -2   3  -2  373.20    2.80   0
  -3   1  -3    1.92    0.57   0
  -3   3  -3  484.79    3.99   0
  -6   5  -2  297.14    4.74   0
  -5   2  -3    4.85    1.10   0
  -4   4  -3  242.55    3.38   0
  -4   5  -2  225.86    3.30   0
  -2   4  -1  127.08    1.59   0
  -6   1  -2   30.35    2.03   0
  -6   3  -3   23.42    2.09   0
  -5   0  -2   85.75    2.52   0
  -2   2  -3    5.18    0.52   0
  -1   1  -2 1187.04    3.69   0
  -6   4  -3    4.58    1.75   0
  -5   1  -3   16.67    1.50   0
  -3  -1  -2 1127.51    5.62   0
  -3   0  -3  409.08    3.67   0
  -2  -1  -2  229.03    2.15   0
  -1   0  -2   47.32    0.77   0
  -5   5  -3   37.97    2.02   0
  -4   3  -4  750.72    6.02   0
  -3   4  -3    0.45    0.77   0
  -5   3  -4   22.65    1.77   0
  -3   2  -4   54.28    1.54   0
  -5   4  -4   13.55    1.94   0
  -4  -1  -2    0.41    1.19   0
  -2   3  -3    1.85    0.50   0
  -5   2  -4   18.99    1.57   0
  -4   4  -4   27.52    1.56   0
  -4   5  -3   11.98    1.26   0
  -3   1  -4  139.54    2.33   0
  -3   3  -4   40.73    1.41   0
  -6   3  -4   91.58    3.78   0
  -6   4  -4   37.57    3.02   0
  -6   1  -3   13.08    2.09   0
  -2   4  -2   32.04    0.96   0
  -5   0  -3    1.12    1.43   0
  -5   5  -4   11.55    1.86   0
  -6   5  -4   89.34    3.20   0
  -5   1  -4    6.49    1.52   0
  -2   1  -4 1166.27    5.56   0
  -2   2  -4  240.83    2.59   0
  -4   2  -5    2.97    1.08   0
  -4   3  -5   39.06    1.79   0
  -1   1  -3  661.32    3.21   0
  -8   5  -3    0.87    2.26   0
  -8   6  -6   40.48    2.32   0
  -7   2  -5    2.79    2.54   0
  -7   2  -4   54.24    4.06   0
  -7   2  -3   27.13    3.24   0
  -6   1  -1   -0.20    2.41   0
  -5   0  -7   24.90    3.10   0
  -4  -1  -6  107.33    4.46   0
  -8   5  -5    7.71    2.28   0
  -8   5  -4   49.00    3.15   0
  -8   6  -5   -0.35    2.01   0
  -6   2  -9   45.70    2.92   0
  -7   3  -1  196.64    5.15   0
  -6   1  -2   26.30    3.12   0
  -5   0  -6    9.77    3.21   0
  -5   2 -11  169.02    4.28   0
  -4  -1  -5   49.77    3.31   0
  -7   3  -7  178.44    5.07   0
  -6   1  -5    0.63    2.59   0
  -4   0  -9   20.94    3.08   0
  -6   1  -4   29.78    3.03   0
  -6   1  -3    7.23    2.55   0
  -5   0  -5   14.73    2.65   0
  -5   0  -3   -0.62    2.05   0
  -5   1  -9    5.26    2.63   0
  -7   3  -6  116.49    4.49   0
  -7   3  -2   14.52    2.49   0
  -7   4  -8    0.32    2.06   0
  -7   3  -4   16.73    2.76   0
  -7   4  -2  129.75    4.95   0
  -6   2  -7    1.43    2.87   0
  -5   1  -8  134.89    4.75   0
  -4   0  -8    2.72    2.73   0
  -4   2 -12   10.31    2.50   0
  -7   4  -7   28.09    2.77   0
  -6   3  -9   29.80    3.26   0
  -5   2 -10    4.63    2.71   0
  -7   4  -6   27.43    3.27   0
  -7   4  -3    8.05    2.97   0
  -7   5  -8    1.82    2.17   0
  -6   2  -6    2.01    2.86   0
  -6   2  -2   55.94    3.24   0
  -7   4  -4    4.41    2.68   0
  -7   6  -8   -0.40    2.17   0
  -7   7  -7    2.20    2.09   0
  -6   2  -3  167.86    5.24   0
  -6   4 -10   -0.38    2.16   0
  -5   1  -7  296.18    7.46   0
  -4   0  -7    2.67    2.24   0
  -4   1 -10   39.42    3.12   0
  -6   2  -5  177.59    5.99   0
  -6   2  -4  310.30    7.20   0
  -5   3 -11   41.22    3.20   0
  -6   3  -8   37.19    3.15   0
  -7   5  -6   28.73    2.88   0
  -7   5  -5    1.18    2.60   0
  -7   5  -4   18.35    2.45   0
  -7   6  -7   84.94    3.34   0
  -7   6  -4   49.29    3.47   0
  -5   1  -5   40.33    3.22   0
  -5   2  -9    7.79    2.46   0
  -7   6  -6   70.03    3.36   0
  -7   6  -5   39.67    2.90   0
  -6   3  -7   27.32    2.95   0
  -6   4  -9    1.39    2.19   0
  -6   5 -10   -0.65    1.93   0
  -4   2 -11   10.70    3.09   0
  -5   5 -12   21.69    2.43   0
  -6   3  -6    5.01    2.47   0
  -6   3  -5   10.14    2.64   0
  -6   3  -4   96.99    4.24   0
  -6   6 -10   64.72    2.76   0
  -4   4 -13   35.52    2.23   0
  -6   4  -8    6.25    2.36   0
  -5   4 -11   43.44    3.13   0
  -4   3 -12   45.78    2.73   0
  -6   5  -9   18.66    2.47   0
  -5   2  -7  156.44    5.54   0
  -4   1  -8    2.27    2.53   0
  -6   4  -7   10.07    2.85   0
  -6   7  -9   56.44    2.56   0
  -6   4  -3    3.99    2.18   0
  -5   2  -6   60.32    3.79   0
  -5   3  -9   47.10    3.65   0
  -4   2 -10    7.14    2.45   0
  -3   2 -12    2.52    2.15   0
  -6   4  -6   14.08    2.82   0
  -6   4  -4   34.37    3.03   0
  -6   5  -8   22.86    2.51   0
  -5   2  -5    2.50    1.96   0
  -4   1  -7   68.83    3.82   0
  -4   5 -13   28.27    2.21   0
  -3   1 -10  151.77    5.43   0
  -3   3 -13   14.09    2.54   0
  -5   4 -10   83.89    3.99   0
  -5   5 -11   64.95    3.31   0
  -6   5  -3  258.15    5.48   0
  -6   6  -8    7.42    2.39   0
  -6   7  -7   36.41    2.84   0
  -4   3 -11    9.51    2.80   0
  -6   5  -6   20.37    2.94   0
  -6   5  -4   75.17    3.71   0
  -5   6 -11    1.99    1.82   0
  -4   2  -9    8.96    2.94   0
  -6   6  -7  175.71    4.61   0
  -6   6  -4    4.12    1.96   0
  -6   6  -6    9.04    2.22   0
  -6   6  -5    5.85    2.31   0
  -5   3  -7    1.30    2.08   0
  -5   4  -9    1.36    2.49   0
  -5   8  -9  152.07    3.44   0
  -3   1  -9    2.45    2.06   0
  -5   5 -10  607.73    8.10   0
  -3   2 -11   57.69    3.45   0
  -5   3  -6   10.15    2.11   0
  -5   7 -10   16.19    2.14   0
  -4   5 -12    1.25    2.20   0
  -5   4  -8    6.87    2.67   0
  -4   7 -12   74.18    2.49   0
  -3   3 -12   14.78    2.90   0
  -3   4 -13   31.29    2.38   0
  -5   5  -9   91.87    4.26   0
  -4   2  -7   75.73    4.18   0
  -4   4 -11    8.33    2.39   0
  -4   6 -12  104.57    3.49   0
  -3   1  -8   52.92    3.37   0
  -5   7  -9  105.75    3.89   0
  -2   4 -14    3.72    2.17   0
  -5   4  -7  159.50    4.98   0
  -5   6  -9   79.01    3.63   0
  -4   3  -9   33.89    3.27   0
  -3   2 -10   92.41    4.23   0
  -2   2 -12    7.76    2.40   0
  -5   4  -6  191.69    5.48   0
  -5   5  -8    9.69    2.73   0
  -3   5 -13    5.52    2.00   0
  -2   1 -10   59.05    3.52   0
  -2   3 -13    3.96    2.66   0
  -5   7  -8   10.85    2.34   0
  -4   5 -11   18.02    2.45   0
  -4   8 -10    7.93    2.14   0
  -3   6 -13    3.99    1.99   0
  -4   4 -10   13.97    2.64   0
  -3   3 -11  390.39    8.14   0
  -1   3 -14   11.89    2.45   0
  -5   7  -7   84.50    3.31   0
  -5   7  -6    2.29    2.46   0
  -4   3  -8   92.94    3.90   0
  -4   6 -11    5.95    2.16   0
  -3   2  -9   43.41    3.43   0
  -2   6 -14   79.30    2.76   0
  -5   5  -6    6.21    2.06   0
  -5   5  -5   57.78    3.44   0
  -5   6  -7  276.53    5.66   0
  -5   6  -6   47.03    2.98   0
  -4   3  -7   14.97    2.27   0
  -4   4  -9    0.12    2.41   0
  -4   8  -9   -0.92    2.09   0
  -2   2 -11    4.60    2.53   0
  -4   5 -10    1.07    2.03   0
  -4   6 -10   96.20    3.70   0
  -4   8  -8    1.12    2.08   0
  -3   5 -12    0.30    1.74   0
  -3   7 -12   19.31    2.03   0
  -3   8 -11   15.69    1.95   0
  -2   4 -13   35.88    2.70   0
   0   4 -15   39.28    2.39   0
  -3   4 -11   16.36    2.79   0
  -3   6 -12   11.94    2.09   0
  -2   3 -12    4.14    2.12   0
  -4   4  -8   93.50    4.15   0
  -2   7 -13   53.73    2.45   0
  -1   4 -14    0.29    1.81   0
  -4   7  -9   13.24    2.25   0
  -2   5 -13   90.85    3.70   0
  -1   2 -12   25.18    2.97   0
  -4   4  -7  165.44    4.88   0
  -4   6  -9    1.59    1.98   0
  -3   3  -9  156.36    4.88   0
  -3   8 -10    2.20    2.08   0
  -2   2 -10   21.67    2.49   0
  -2   6 -13    2.62    1.99   0
  -1   3 -13    0.70    2.47   0
  -4   5  -8   41.12    2.83   0
  -4   7  -8   12.34    2.45   0
  -3   5 -11   45.63    2.92   0
  -3   7 -11   14.75    2.13   0
  -1   6 -14   90.63    2.78   0
  -3   4 -10   20.41    2.56   0
  -3   6 -11  134.24    4.74   0
  -4   7  -7   53.40    3.41   0
  -2   3 -11   12.46    2.23   0
   1   4 -15   15.74    2.03   0
  -4   7  -6  146.41    4.40   0
  -3   8  -9    2.27    1.81   0
  -2   8 -11   81.13    2.95   0
  -4   5  -6   46.42    2.83   0
  -2   7 -12   51.24    2.62   0
  -1   7 -13   10.95    2.23   0
  -4   6  -6   80.96    3.31   0
  -3   4  -9    4.47    1.97   0
  -3   5 -10   41.56    3.17   0
  -3   8  -8    2.40    2.15   0
  -2   5 -12   72.95    3.72   0
  -1   2 -11   33.23    2.68   0
  -1   4 -13   39.93    2.80   0
  -4   6  -5   41.46    2.54   0
  -3   6 -10  239.95    5.76   0
  -2   6 -12   27.99    2.51   0
  -1   3 -12    2.11    2.41   0
   0   4 -14   42.10    2.69   0
  -2   4 -11   18.29    2.49   0
   0   6 -14   56.02    2.54   0
  -3   7  -9    2.01    2.07   0
  -2   8 -10    6.13    2.00   0
  -1   5 -13    2.58    1.94   0
  -1   6 -13   92.12    3.32   0
   1   3 -14    4.08    2.10   0
  -3   4  -8   33.22    2.64   0
  -3   5  -9    8.67    1.96   0
  -2   7 -11    8.43    2.25   0
  -1   8 -11   -0.85    1.84   0
   0   2 -12    0.65    2.10   0
   0   3 -13  243.11    5.45   0
  -2   5 -11    6.55    2.46   0
   0   7 -13   33.21    2.20   0
  -3   7  -8  105.65    3.72   0
  -2   6 -11   79.78    3.57   0
  -2   8  -9   40.53    3.02   0
  -1   2 -10   21.91    2.29   0
  -1   7 -12    3.97    1.85   0
  -3   5  -8   10.77    2.03   0
  -2   4 -10   72.06    3.59   0
   1   6 -14    8.73    1.77   0
  -3   6  -8   16.04    2.11   0
  -3   7  -7    9.33    1.81   0
   1   4 -14  178.82    4.49   0
  -3   7  -6   23.12    2.45   0
  -1   5 -12   62.49    3.12   0
  -1   6 -12    0.52    1.77   0
  -1   8 -10   40.58    2.48   0
   0   4 -13    1.75    1.76   0
   0   8 -11   -0.48    1.46   0
  -3   6  -7    6.24    2.14   0
  -2   5 -10    0.37    1.86   0
   0   6 -13  119.37    3.63   0
   2   3 -14    1.57    1.88   0
  -2   6 -10    2.26    1.76   0
   0   2 -11   56.83    3.42   0
   0   3 -12   22.58    2.89   0
   0   5 -13   64.13    3.15   0
  -3   6  -6    3.38    1.93   0
  -2   4  -9   75.12    3.65   0
  -2   7  -9  109.54    4.21   0
  -1   7 -11   11.44    2.16   0
   0   7 -12   39.47    2.34   0
  -1   3 -10   28.05    2.65   0
  -1   4 -11  250.34    5.95   0
  -1   8  -9   -0.39    1.88   0
   1   3 -13   54.16    3.04   0
   2   5 -14   98.07    3.08   0
   0   8 -10   11.08    1.77   0
   1   2 -12   81.84    3.77   0
  -2   5  -9   21.12    2.23   0
  -2   6  -9    1.54    1.81   0
  -2   7  -8  102.86    3.98   0
  -1   5 -11   -0.65    1.71   0
  -1   6 -11    2.00    1.82   0
   1   6 -13    5.92    1.88   0
   3   5 -14   75.54    2.31   0
  -1   8  -8   -0.39    1.79   0
   0   6 -12   89.09    3.50   0
   1   4 -13   26.40    2.68   0
   1   7 -12    8.68    1.63   0
   0   5 -12   94.49    3.57   0
   3   4 -14    0.97    2.00   0
  -2   5  -8  133.54    4.57   0
  -2   6  -8   44.42    2.99   0
  -2   7  -7    4.69    1.82   0
  -1   4 -10  400.61    6.91   0
   0   3 -11   14.62    2.11   0
   0   7 -11    8.17    2.20   0
   0   8  -9   61.82    2.34   0
   2   6 -13   59.09    2.22   0
  -1   6 -10   22.41    2.68   0
  -2   7  -6   40.50    2.54   0
  -1   5 -10    2.36    1.64   0
  -1   7  -9   93.29    3.84   0
   1   3 -12    8.89    2.43   0
   1   8  -9  171.39    2.82   0
   2   3 -13    6.75    1.91   0
  -2   6  -7   46.32    2.87   0
   0   8  -8   11.19    1.79   0
   0   4 -11   20.62    2.36   0
   0   6 -11  104.95    3.52   0
   1   2 -11  491.40    7.23   0
   1   6 -12   33.70    2.45   0
   1   7 -11    6.09    1.74   0
   2   4 -13  276.61    5.35   0
   0   5 -11    2.11    1.55   0
   1   8  -8  153.27    3.00   0
   2   7 -11   65.09    2.43   0
  -1   6  -9    2.58    1.71   0
  -1   7  -8   62.69    2.85   0
   1   5 -12   26.58    2.43   0
  -1   5  -9   69.55    3.15   0
   0   3 -10   12.26    2.07   0
   2   6 -12   -0.11    1.63   0
   3   3 -13   31.94    2.75   0
   3   4 -13    2.24    2.26   0
   3   6 -12   35.73    1.90   0
   0   7  -9   12.11    2.07   0
   1   6 -11    6.64    2.29   0
   0   4 -10    1.13    1.44   0
   1   3 -11   -0.56    1.63   0
   4   3 -13   19.54    2.35   0
   4   4 -13   14.04    1.95   0
   5   3 -13    0.97    1.89   0
  -1   5  -8   72.76    3.07   0
  -1   7  -6    0.32    1.66   0
   0   5 -10    4.19    1.68   0
   2   5 -12    0.75    1.93   0
   0   7  -8    3.40    2.13   0
   1   4 -11   54.30    2.69   0
   1   5 -11  104.05    3.40   0
   3   2 -12    1.84    1.96   0
   4   6 -11    2.73    1.81   0
  -1   6  -7  255.65    4.94   0
   1   7  -9   17.63    2.00   0
   2   2 -11   15.72    2.26   0
   2   6 -11   15.75    1.79   0
   3   5 -12    4.52    1.82   0
   3   7  -9    1.41    1.91   0
   4   5 -12  182.46    3.14   0
   1   6 -10   25.41    2.33   0
   2   7  -9    3.27    1.96   0
   0   5  -9  167.92    4.17   0
   1   3 -10   25.89    2.35   0
   3   3 -12  165.94    3.84   0
   1   7  -8    0.52    1.67   0
   2   5 -11   20.24    2.13   0
   4   2 -12    5.98    2.00   0
   6   3 -12   88.12    2.26   0
   1   4 -10    9.25    1.76   0
   1   5 -10  275.51    5.38   0
   3   7  -8   27.29    1.91   0
   4   4 -12   -1.57    2.09   0
   4   6 -10   17.86    2.22   0
   5   5 -11    3.06    1.64   0
   2   6 -10   12.64    1.87   0
   2   7  -8   23.51    1.94   0
  -3   5  12   60.83    1.93   0
  -1  -2  13   95.27    2.57   0
   0   3  10  104.79    2.70   0
   1   1  10  537.39    5.52   0
  -1   2  13    9.89    1.32   0
  -1   3  12   76.49    2.25   0
   0   1  12    1.95    1.37   0
  -2   2  14   59.43    1.99   0
  -2   4  12   19.97    1.85   0
   0  -1  12   13.74    1.84   0
   0   2  11    1.04    1.42   0
   1   0  10    0.07    1.18   0
   1   2   8  232.59    3.58   0
  -3   0  15    6.26    1.45   0
  -1   4  10    4.30    1.62   0
   0   0  12   20.02    1.71   0
  -3   3  14   43.68    1.65   0
  -3   4  13    4.20    1.38   0
  -2  -1  14   92.37    2.36   0
  -2   3  13    1.84    1.21   0
  -1  -1  13    6.80    1.71   0
   0  -2  11   69.37    2.29   0
   1   1   9  124.13    2.68   0
  -4   0  15   40.22    1.55   0
  -1   1  13   83.14    2.23   0
   0   3   9    4.37    1.50   0
  -4   2  15   29.42    1.36   0
  -2   0  14   12.67    1.63   0
  -2   1  14   69.65    1.90   0
  -1  -2  12  109.93    2.58   0
   0   1  11   68.04    2.24   0
  -3  -1  14   11.66    1.50   0
  -1   2  12    2.06    1.47   0
  -1   3  11   58.67    2.17   0
   0  -1  11   45.66    2.28   0
  -4   1  15   55.02    1.63   0
   0   0  11   23.51    1.60   0
  -5   1  15   19.33    1.30   0
  -3   5  11   18.17    1.44   0
  -2   4  11    7.85    1.56   0
  -1   4   9   28.90    1.79   0
   0   3   8   36.09    1.72   0
  -4   5  12   56.07    1.80   0
  -3   2  14   18.96    1.35   0
  -2   2  13    1.79    1.22   0
  -1  -1  12    3.75    1.64   0
  -4   3  14   23.17    1.44   0
  -2  -1  13  178.07    2.98   0
  -2   3  12   21.37    1.62   0
  -1   1  12  310.81    3.96   0
   0   1  10  187.62    3.22   0
  -3   0  14   10.04    1.48   0
  -3   4  12    1.13    1.45   0
  -1   0  12    4.70    1.29   0
  -1   3  10  101.06    2.51   0
  -5   6  11   10.78    1.29   0
  -4   4  13    0.98    1.13   0
  -3   3  13  183.01    2.78   0
  -2   0  13  120.30    2.53   0
  -2   1  13    1.02    1.17   0
  -1   2  11   88.89    2.37   0
  -1   4   8  118.53    2.85   0
   0   0  10   33.82    1.58   0
  -5   0  14    0.42    1.29   0
  -4   0  14    0.75    1.17   0
  -4   2  14    8.22    1.30   0
  -2   4  10   10.47    1.70   0
  -5   3  14    6.18    1.10   0
  -3   5  10   38.66    1.93   0
  -2   2  12   40.56    1.74   0
  -1  -1  11   52.89    1.83   0
  -1   1  11  524.66    5.04   0
  -4   1  14  161.53    2.50   0
  -3   2  13    0.73    1.13   0
  -2  -1  12    2.32    1.24   0
  -1   3   9    6.47    1.46   0
  -6   1  14   19.58    1.35   0
  -6   3  14  182.79    2.21   0
  -1   2  10   47.00    1.78   0
  -5   1  14   10.35    1.40   0
  -4   3  13   -0.65    1.18   0
  -4   5  11   12.60    1.40   0
  -3   0  13  217.03    3.25   0
  -3   1  13    0.13    1.43   0
  -3   4  11   25.42    1.91   0
  -2   1  12    1.69    1.06   0
  -6   6  11   27.68    1.36   0
  -3   3  12  322.34    3.84   0
  -2   4   9   32.09    1.72   0
  -5   6  10   85.13    2.10   0
  -3  -1  12   -0.00    1.58   0
  -3   5   9   32.13    2.07   0
  -2   2  11   29.86    1.68   0
  -1   1  10   81.19    2.15   0
  -7   4  13  115.35    1.89   0
  -6   4  13   70.10    1.60   0
  -4   0  13   36.00    1.73   0
  -4   2  13    6.53    1.20   0
  -2  -1  11    6.71    1.32   0
  -5   0  13    3.49    1.40   0
  -5   3  13    0.08    1.34   0
  -4   1  13   31.71    1.91   0
  -3   2  12   -0.00    1.13   0
  -2   1  11   22.60    1.41   0
  -7   5  12    3.03    1.00   0
  -5   5  11   92.92    2.39   0
  -4   5  10   27.04    1.64   0
  -3   1  12   16.08    1.40   0
  -3   3  11  205.84    3.30   0
  -3   4  10  167.99    3.02   0
  -2   0  11  301.17    3.68   0
  -6   3  13    7.74    1.34   0
  -5   2  13  160.70    2.75   0
  -5   4  12    9.04    1.27   0
  -4   3  12   16.29    1.34   0
  -2   4   8    1.11    1.14   0
  -7   2  13    1.71    1.29   0
  -6   1  13   49.70    1.86   0
  -6   6  10   40.01    1.74   0
  -5   1  13   18.89    1.45   0
  -3   5   8   22.21    1.83   0
  -2   2  10   83.80    2.24   0
  -5   6   9  135.78    3.01   0
  -3  -1  11   -0.27    1.26   0
  -4   0  12   62.25    2.39   0
  -4   2  12  115.00    2.62   0
  -8   4  12    3.32    1.02   0
  -6   4  12   15.64    1.31   0
  -3   2  11    2.01    1.11   0
  -7   6  10   46.80    1.72   0
  -5   0  12   11.69    1.66   0
  -5   3  12   57.58    1.94   0
  -4   5   9    6.25    1.57   0
  -3   4   9  363.06    4.31   0
  -7   4  12  235.91    2.74   0
  -5   5  10    0.77    1.45   0
  -3   1  11   85.35    2.17   0
  -3   3  10   48.55    1.85   0
  -8   5  11   12.26    1.36   0
  -7   1  12   91.86    2.22   0
  -7   5  11   32.85    1.83   0
  -7   7   8    1.87    1.39   0
  -5   4  11    7.12    1.31   0
  -4   3  11   38.84    1.78   0
  -3   5   7   25.16    1.73   0
  -6   3  12  204.37    3.12   0
  -5   1  12    6.61    1.82   0
  -5   2  12  222.80    3.24   0
  -7   3  12   45.29    1.85   0
  -6   1  12   38.38    2.19   0
  -6   6   9    2.51    1.30   0
  -5   6   8   81.93    2.57   0
  -7   2  12   28.50    1.59   0
  -4   0  11   14.06    1.74   0
  -4   2  11  156.92    3.00   0
  -3   2  10   17.18    1.38   0
  -3   4   8   65.88    2.21   0
  -5   3  11    7.54    1.23   0
  -4   1  11    0.77    1.18   0
  -4   5   8   22.55    1.66   0
  -3   1  10   45.03    1.85   0
  -3   3   9   -1.33    1.11   0
  -8   4  11    2.02    1.14   0
  -7   6   9   27.14    1.85   0
  -5   0  11    4.31    1.63   0
  -5   5   9   25.79    2.10   0
  -4   3  10   13.50    1.64   0
  -8   2  11   27.62    1.76   0
  -7   4  11    4.55    1.41   0
  -5   4  10   12.70    1.51   0
  -8   5  10   44.79    2.02   0
  -7   5  10   27.27    1.79   0
  -5   2  11  132.13    2.80   0
  -9   4  10   74.06    1.69   0
  -8   7   7   10.97    1.47   0
  -6   3  11   26.97    1.67   0
  -6   6   8    0.04    1.43   0
  -5   1  11    0.88    1.32   0
  -5   6   7    0.14    1.37   0
  -9   3  10    5.84    1.21   0
  -7   3  11    1.09    1.46   0
  -6   1  11   49.78    1.93   0
  -4   2  10   43.39    1.86   0
  -7   2  11    0.81    1.49   0
  -4   5   7   66.12    2.34   0
  -6   4  10  164.85    2.98   0
  -5   3  10   66.82    2.23   0
  -4   1  10  136.94    2.71   0
  -9   5   9   68.10    1.83   0
  -7   6   8   21.91    2.05   0
  -5   0  10   63.17    2.29   0
  -5   5   8    5.02    1.50   0
  -4   3   9   89.25    2.53   0
  -9   2   9    4.59    1.50   0
  -7   4  10   12.72    1.59   0
  -7   7   6    1.61    1.55   0
  -5   4   9   69.30    2.39   0
  -4   4   8  102.06    2.58   0
  -8   2  10  200.14    3.03   0
  -8   6   8  123.10    2.64   0
  -7   5   9   19.08    1.57   0
  -5   2  10    9.71    1.36   0
  -5   6   6    1.28    1.47   0
  -8   5   9    8.31    1.47   0
  -8   7   6   30.05    1.82   0
  -7   1  10   18.80    2.10   0
  -6   3  10   82.21    2.56   0
  -6   6   7   15.40    1.59   0
  -5   1  10  154.92    3.04   0
  -9   3   9   19.67    1.78   0
  -7   3  10   51.97    2.15   0
  -7   2  10  118.47    2.85   0
  -6   4   9    0.45    1.22   0
  -5   3   9   24.19    1.63   0
  -8   4   9    1.06    1.53   0
  -7   6   7   47.09    2.29   0
  -7   7   5   68.72    2.54   0
  -5   5   7   19.92    1.80   0
  -9   2   8   53.76    2.23   0
  -9   7   5    4.80    1.26   0
  -8   6   7   20.34    1.97   0
  -7   4   9    1.13    1.31   0
  -5   0   9  187.79    3.28   0
  -8   2   9   66.43    2.72   0
  -8   5   8   40.31    2.21   0
  -8   7   5   18.85    1.89   0
  -7   5   8  127.42    3.09   0
  -6   6   6   67.46    2.65   0
  -5   2   9   15.34    1.75   0
  -9   4   8   35.06    2.11   0
  -7   1   9    8.82    2.03   0
  -6   3   9  318.00    4.73   0
  -5   1   9  113.78    2.73   0
  -9   3   8    0.61    1.69   0
  -7   3   9  293.94    4.42   0
 -10   5   6   53.36    1.71   0
  -8   1   8   40.50    2.35   0
  -7   2   9  239.45    4.62   0
  -6   1   9  150.09    3.12   0
  -6   4   8   75.95    2.73   0
  -6   5   7   15.04    1.92   0
  -9   5   7   56.59    2.28   0
  -9   7   4    1.45    1.56   0
  -7   6   6    4.91    1.84   0
  -5   3   8  127.48    2.90   0
  -5   5   6   13.71    1.87   0
  -8   4   8   -0.25    1.50   0
  -8   6   6  104.49    3.11   0
  -9   2   7  223.92    3.48   0
  -8   7   4    0.24    1.73   0
  -7   4   8   23.71    1.92   0
  -7   5   7   19.15    2.14   0
 -10   6   4    6.30    1.54   0
  -8   2   8    9.39    1.67   0
  -8   3   8   75.50    3.10   0
  -8   5   7   58.17    2.46   0
  -6   6   5    7.55    1.65   0
  -9   4   7   23.38    1.83   0
  -6   3   8  154.34    3.44   0
  -9   3   7    4.55    1.67   0
  -9   7   3    3.00    1.62   0
  -7   1   8    1.58    1.67   0
  -7   3   8    5.31    1.65   0
 -10   4   5    1.96    1.60   0
  -9   5   6   18.38    1.91   0
  -8   1   7  134.39    3.50   0
  -7   2   8    1.85    1.48   0
  -7   6   5   40.86    2.35   0
  -6   1   8    2.27    1.44   0
  -6   4   7   37.83    1.98   0
  -6   5   6   71.06    2.50   0
  -8   4   7   19.08    2.13   0
  -8   6   5   23.48    2.29   0
  -8   7   3   10.26    1.81   0
 -10   6   3    2.46    1.27   0
  -9   2   6   43.83    2.55   0
  -7   4   7   60.25    2.46   0
 -10   3   4    8.46    1.67   0
 -10   5   4    4.82    1.43   0
  -9   4   6   18.72    2.20   0
  -9   7   2    0.63    1.65   0
  -8   5   6   30.74    2.14   0
  -7   5   6   15.58    1.74   0
  -6   6   4   67.72    2.50   0
  -8   2   7   67.75    2.54   0
  -8   3   7   14.26    1.89   0
 -10   4   4    0.06    1.41   0
  -9   5   5    0.20    1.78   0
  -6   3   7   52.81    2.33   0
  -8   7   2   24.37    2.13   0
  -7   1   7    1.06    1.51   0
  -7   3   7  114.67    3.13   0
  -7   6   4    6.89    1.93   0
 -10   3   3    9.00    1.74   0
 -10   5   3   56.56    2.01   0
  -9   7   1   10.13    1.83   0
  -8   1   6   87.28    2.80   0
  -8   6   4   13.94    1.90   0
  -7   2   7  131.16    3.20   0
  -6   1   7   60.12    2.75   0
  -6   4   6  286.41    4.43   0
  -6   5   5   26.80    1.86   0
  -9   2   5    0.93    1.71   0
  -8   5   5    0.90    1.91   0
 -10   4   3   78.99    2.21   0
  -9   4   5    0.72    1.43   0
  -7   4   6   12.07    1.71   0
  -6   6   3  204.17    4.27   0
  -9   5   4   -1.31    1.73   0
  -9   7   0    0.50    1.71   0
  -8   2   6  166.05    3.82   0
  -8   3   6   33.88    2.24   0
  -8   7   1   19.33    1.75   0
 -10   4   2   99.53    2.65   0
  -9   7  -1   -0.64    1.61   0
  -8   6   3   64.52    2.66   0
  -7   1   6    1.94    1.85   0
  -7   3   6  357.83    5.01   0
  -7   6   3   35.76    2.15   0
  -6   3   6    7.71    1.37   0
 -10   5   1    7.80    1.71   0
  -9   2   4    1.58    1.66   0
  -8   4   5    6.13    1.62   0
  -9   4   4    4.78    1.57   0
  -8   5   4    1.29    1.57   0
  -8   7   0   26.02    2.02   0
  -7   2   6  280.76    4.60   0
 -10   4   1   47.97    1.85   0
 -10   5   0   27.86    1.81   0
  -9   5   3    5.23    1.61   0
  -7   4   5  167.77    3.75   0
  -6   6   2  526.37    5.88   0
  -8   2   5    1.79    1.70   0
  -9   2   3   25.50    2.34   0
  -8   6   2    5.65    1.88   0
  -8   7  -1   79.52    2.38   0
  -7   6   2    3.90    1.53   0
   4   2 -10   90.74    3.12   0
   6  -1  -7   62.64    2.79   0
   4   5 -10    2.47    2.09   0
   3   5 -10   36.86    2.33   0
   4   1  -9  129.80    3.76   0
   4   6  -9  105.55    3.15   0
   5   3 -10   40.58    2.77   0
   5   4 -10  341.02    4.96   0
   6   4  -9   71.33    2.71   0
   3   4 -10    9.24    1.89   0
   4   3 -10   70.90    2.98   0
   5   1  -9    1.69    1.48   0
   7   0  -7  231.36    4.65   0
   7   1  -8  109.85    3.36   0
   2   6  -9  132.87    3.33   0
   5   5  -9    6.41    1.86   0
   6   2  -9   28.86    2.51   0
   7   2  -8    2.94    1.82   0
   3   6  -9  206.96    3.97   0
   6   3  -9   30.97    2.24   0
   2   4  -9  892.12    7.73   0
   2   5  -9    5.14    2.15   0
   4   2  -9  492.34    6.66   0
   5   2  -9   18.21    2.07   0
   6   1  -8   29.78    2.61   0
   5   4  -9  143.08    3.77   0
   6   4  -8   43.79    2.31   0
   7   0  -6  140.95    3.93   0
   7   1  -7    2.60    1.66   0
   3   5  -9   13.15    2.32   0
   4   6  -8   75.70    2.60   0
   5   3  -9   21.81    2.10   0
   7   2  -7   12.25    2.06   0
   3   4  -9  290.04    4.87   0
   3   7  -7   65.61    2.63   0
   4   3  -9   44.77    2.41   0
   5   5  -8   36.45    2.27   0
   6   2  -8   22.73    2.30   0
   6   3  -8   57.93    2.97   0
   6   5  -6    0.72    1.69   0
   7   3  -6  185.83    3.79   0
   2   6  -8   26.38    2.31   0
   3   6  -8   31.27    2.57   0
   5   6  -6   45.06    1.96   0
   7   1  -6   10.44    2.07   0
   5   2  -8    2.86    1.96   0
   6   0  -6  291.28    4.82   0
   6   1  -7   54.77    2.58   0
   6   4  -7   66.01    2.63   0
   7   0  -5   37.00    2.27   0
   7   2  -6    2.25    1.96   0
   4   2  -8  119.31    3.37   0
   5   4  -8    1.39    1.94   0
   6   5  -5    0.78    1.47   0
   2   5  -8  195.00    4.04   0
   4   6  -7   73.33    2.82   0
   7   3  -5   86.11    2.64   0
   3   5  -8    9.21    2.13   0
   3   7  -6   42.92    2.36   0
   5   6  -5   73.95    2.27   0
   6   3  -7    3.85    1.81   0
   3   4  -8   75.46    3.26   0
   4   3  -8   16.64    1.98   0
   4   4  -8    5.01    1.92   0
   6   4  -6   16.01    2.31   0
   6   5  -4   14.88    1.61   0
   7   1  -5   80.12    2.90   0
   7   2  -5    3.17    2.08   0
   7   3  -4    0.17    1.60   0
   2   7  -6    2.07    1.96   0
   3   6  -7    5.85    1.80   0
   5   6  -4  107.57    2.35   0
   6   0  -5   34.39    2.17   0
   6   1  -6  216.94    4.26   0
   2   6  -7   74.84    2.75   0
   5   2  -7  180.10    3.88   0
   5   4  -7    4.98    1.76   0
   5   5  -6  121.89    3.61   0
   7   3  -3    8.25    1.92   0
   4   5  -7   79.59    3.13   0
   5   3  -7   30.99    2.31   0
   6   4  -5   31.67    2.64   0
   7   1  -4    4.48    1.76   0
   7   2  -4   46.99    2.42   0
   5   6  -3    3.65    1.41   0
   7   3  -2   12.81    1.90   0
   7   3  -1   39.83    1.89   0
   2   5  -7    0.95    1.49   0
   3   5  -7  140.05    3.81   0
   4   3  -7   34.67    2.43   0
   4   4  -7  150.18    3.84   0
   6   1  -5  141.02    3.52   0
   7   1  -3    1.19    2.02   0
   7   2  -3  203.79    4.14   0
   3   6  -6    0.52    1.77   0
   5   4  -6    2.08    1.74   0
   5   5  -5  154.20    3.77   0
   6   3  -5   53.76    2.77   0
   6   4  -4   50.79    2.58   0
   2   7  -5   23.07    2.14   0
   4   5  -6   45.47    2.62   0
   5   2  -6  434.42    5.96   0
   5   3  -6   25.19    2.42   0
   6   2  -5   71.32    2.91   0
   7   2  -2  175.72    4.01   0
   2   6  -6   79.50    2.80   0
   7   2  -1   13.07    2.06   0
   4   4  -6   32.69    2.19   0
   4   6  -4   37.81    2.63   0
   5   5  -4   61.48    2.70   0
   6   1  -4  167.39    3.79   0
   2   5  -6  647.99    6.82   0
   3   6  -5   69.79    3.28   0
   3   7  -3    5.90    2.00   0
   4   3  -6  381.02    5.52   0
   5   4  -5   18.26    2.24   0
   6   2  -4   18.49    2.39   0
   2   7  -4   59.16    3.30   0
   4   5  -5   31.36    2.80   0
   5   2  -5  174.80    3.88   0
   5   3  -5   52.21    2.54   0
   5   5  -3    6.40    1.93   0
   6   4   1   15.50    1.56   0
   2   6  -5   60.54    2.84   0
   3   7  -2    1.53    1.95   0
   4   6  -3   55.12    2.60   0
   6   4   0   29.75    1.79   0
   5   4  -4   10.85    2.17   0
   6   1  -3   57.70    2.49   0
   6   2  -3  120.80    3.82   0
   3   6  -4    2.39    2.49   0
   4   4  -5  223.99    4.69   0
   5   5  -2    6.74    1.89   0
   2   7  -3   99.79    3.72   0
   3   7  -1    0.37    1.64   0
   4   3  -5   24.51    1.97   0
   4   5  -4   66.26    2.97   0
   4   6  -2  101.54    2.97   0
   6   3  -2    5.43    2.01   0
   2   5  -5    3.54    1.95   0
   5   3  -4    7.60    1.67   0
   5   5  -1   19.65    1.96   0
   3   4  -5   72.90    2.90   0
   4   6  -1   -0.27    1.70   0
   5   4  -3  282.20    5.31   0
   5   5   0   11.60    1.85   0
   5   5   1   68.56    2.26   0
   6   1  -2    2.64    1.90   0
   6   2  -2   31.72    2.38   0
   6   3  -1   39.74    2.41   0
   6   3   3   20.40    1.83   0
   1   7  -3   39.31    2.89   0
   2   6  -4   12.07    2.15   0
   4   6   0   52.50    2.51   0
   1   6  -4  339.08    5.42   0
   1   8   1  126.26    2.82   0
   2   7  -2    3.48    2.50   0
   4   4  -4   -0.22    1.77   0
   4   5  -3  209.06    4.64   0
   4   6   1   13.13    1.64   0
   6   3   0  196.81    4.02   0
   6   3   2   41.37    2.26   0
   5   3  -3   13.24    2.03   0
   5   4  -2  247.45    4.84   0
   6   2  -1    0.11    2.07   0
   6   3   1  133.26    3.19   0
   5   2  -3   -0.38    1.54   0
   6   1  -1    9.06    1.96   0
   2   5  -4  176.29    4.19   0
   2   7  -1   28.03    2.52   0
   4   5  -2   40.03    2.58   0
   6   2   0   22.88    2.06   0
   1   7  -2   18.43    2.23   0
   2   6  -3   44.04    2.81   0
   4   4  -3    3.82    1.79   0
   5   3  -2    3.39    1.92   0
   5   4   4  126.71    2.69   0
   6   1   0   10.63    1.94   0
   6   2   1    0.01    2.08   0
   5   4   0  144.03    3.69   0
   6   2   2    9.79    2.24   0
   1   6  -3   17.71    2.19   0
   3   6  -1  269.63    5.65   0
   4   5  -1   -0.30    2.10   0
   5   2  -2   28.19    2.16   0
   5   4   3   19.34    2.23   0
   2   7   1  260.37    4.75   0
   1   7  -1   18.08    2.79   0
   2   6  -2   29.05    2.85   0
   2   7   2   46.51    2.68   0
   3   6   0  246.41    5.18   0
   4   4  -2  123.99    4.03   0
   4   5   0   50.10    2.82   0
   2   5  -3  742.47    8.23   0
   4   5   4   90.00    2.65   0
   3   5  -2  271.62    5.17   0
   3   6   1    1.33    1.96   0
   3   6   4  289.59    3.89   0
   4   5   1  515.28    6.41   0
   4   5   3    6.10    2.09   0
   5   2  -1  131.23    3.56   0
   3   6   2    1.04    1.91   0
   3   6   3   -1.74    2.11   0
   4   5   2   50.14    2.66   0
   1   6  -2    0.47    1.65   0
   1   7   0   66.47    3.23   0
   4   4  -1   34.50    2.63   0
   5   3   5   -0.02    1.61   0
   2   6  -1   27.54    2.64   0
   5   3   1   10.38    2.07   0
   3   5  -1   95.98    3.70   0
   5   2   0   15.09    2.23   0
   5   3   2    2.37    2.12   0
   5   3   3   -0.79    2.21   0
   5   3   4   -1.99    2.11   0
   1   7   1    1.95    1.95   0
   2   5  -2    1.93    1.78   0
   4   4   0    6.98    2.07   0
   0   7   0    1.56    1.89   0
   4   3  -1   17.28    1.91   0
   4   4   6    2.05    1.64   0
   5   2   1  117.95    3.63   0
   1   6  -1    1.65    2.28   0
   1   7   2    5.14    2.31   0
   1   7   5    1.63    1.62   0
   4   4   1    1.07    2.37   0
   5   2   6    6.07    1.80   0
   1   7   3    0.28    1.90   0
   1   7   4   -0.06    1.85   0
   4   3   8    1.44    1.49   0
   5   2   2   34.46    2.80   0
   2   6   6    4.40    1.73   0
   3   4  -1  167.64    4.62   0
   3   5   1  131.91    4.54   0
   3   5   6   -0.47    1.60   0
   4   4   2   70.19    3.29   0
   0   7   1    6.11    2.18   0
   4   3   0    5.29    1.78   0
   4   4   3    1.58    1.99   0
   5   2   3   86.96    3.05   0
   5   2   4    2.33    1.93   0
   2   6   2   11.64    2.37   0
   2   6   5   -0.02    1.78   0
   3   5   2   21.51    2.37   0
   3   5   5    5.72    2.35   0
   5   1   2  207.81    4.20   0
   2   6   3   49.37    2.88   0
   2   6   4   -2.11    2.11   0
   3   5   3   28.45    2.62   0
   3   5   4   33.00    2.59   0
   0   7   2   13.95    2.59   0
   3   4   0   15.66    2.33   0
   4   3   7   48.53    2.39   0
   5   1   3   19.61    2.14   0
   0   7   6  255.69    4.52   0
   1   6   8  178.63    3.39   0
   2   5   0    8.41    2.05   0
   0   7   3    1.61    2.28   0
   1   6   1    7.60    2.51   0
   0   7   4   34.27    2.69   0
   0   7   5   70.61    2.96   0
   2   5   8   51.18    2.39   0
   4   3   6  378.13    5.46   0
  -1   7   8    2.85    1.79   0
   2   5   1   15.98    2.40   0
   3   4   1   -0.19    1.94   0
   4   2   8    4.98    2.21   0
   4   3   5  364.36    5.83   0
   1   6   2   47.45    3.18   0
   3   4   2   27.50    2.55   0
  -1   7   3   16.94    2.56   0
  -1   7   7   37.79    2.52   0
   1   6   6   11.13    2.59   0
   2   5   2   10.04    2.19   0
   2   5   7  205.43    4.26   0
   3   4   6   21.99    2.45   0
   0   6   1  350.25    6.27   0
   0   6   9   51.08    2.55   0
   1   6   5    1.85    2.15   0
   3   3   9    9.82    2.02   0
   3   4   3  117.04    3.92   0
   3   4   4   40.33    3.33   0
   3   4   5   50.54    3.02   0
   4   2   7   -0.35    2.27   0
  -1   7   4   78.90    3.60   0
  -1   7   5   62.39    3.55   0
  -1   7   6   20.54    2.73   0
   2   5   3    5.39    2.28   0
   2   5   5  219.58    5.33   0
   2   5   6  334.49    5.76   0
   4   2   3  353.57    5.56   0
   2   5   4   70.48    3.59   0
   4   2   4   17.25    2.65   0
   4   2   6   -0.22    2.04   0
  -2   7   8   18.18    2.22   0
   0   6   2  384.49    6.96   0
   4   2   5   23.47    2.51   0
   0   6   8   10.33    2.56   0
   1   5   9    5.68    1.99   0
   2   3  11   40.53    2.12   0
   2   4   9   61.07    2.81   0
   3   2  10   50.64    2.80   0
   3   3   8   59.96    3.06   0
   0   5  11   15.14    1.82   0
  -2   7   7   61.91    2.85   0
   0   6   3  453.90    7.07   0
   1   4  11   25.80    2.31   0
   3   3   7    7.23    2.76   0
  -2   7   6   10.74    2.31   0
   1   5   8    1.48    2.49   0
   2   2  12   13.36    1.69   0
   2   4   8   25.65    2.55   0
   4   1   6  109.21    4.00   0
   0   6   4  126.41    4.33   0
   0   6   5   28.10    3.04   0
   4   1   5   51.64    2.86   0
   1   5   3   39.18    3.00   0
   2   4   3  207.20    5.16   0
   2   4   7   16.45    2.88   0
   3   2   9   16.40    2.50   0
  -1   6   9   12.47    2.20   0
   1   5   7   60.73    3.35   0
   2   3  10   60.56    2.94   0
   0   5  10   47.24    2.73   0
   1   5   4   93.44    3.86   0
   1   5   5   49.53    3.34   0
   1   5   6   88.94    3.91   0
   2   4   4   70.33    3.45   0
   2   4   5   33.60    3.00   0
  -1   6   3   49.27    3.22   0
   0   4  12   12.74    2.20   0
   1   4  10   13.54    2.35   0
   3   1  10    1.76    2.53   0
   3   2   8   17.25    2.74   0
  -2   6  10    1.62    2.22   0
  -1   6   8    2.15    2.31   0
  -3   6  11   26.75    2.25   0
  -1   6   4   14.88    2.48   0
   2   2  11   42.32    3.06   0
   3   2   7    6.45    2.89   0
  -1   6   5   -0.56    2.44   0
  -1   6   6   28.52    3.30   0
  -1   6   7   34.03    2.95   0
   0   5   9   12.62    2.35   0
   1   2  13  281.62    3.94   0
   3   2   6  122.69    4.34   0
   1   4   9    5.52    2.62   0
   2   1  12   39.38    2.76   0
   3   1   9   19.51    3.03   0
   3   2   5    2.00    1.85   0
  -2   6   9   53.27    3.31   0
   0   5   8    5.40    2.38   0
   0   3  13    4.87    1.91   0
   1   4   8    0.41    2.68   0
   0   4  11   75.12    3.25   0
   0   5   4  179.83    5.10   0
   0   5   7  186.30    5.39   0
   2   2  10   14.03    2.87   0
   2   3   7   78.97    3.78   0
  -3   6  10   61.66    2.70   0
  -2   6   8   31.73    2.99   0
  -1   5  10   36.23    3.10   0
   0   2  14   70.32    2.69   0
   0   5   6    1.23    2.43   0
   1   4   7    5.36    2.53   0
   2   3   5   21.37    2.47   0
   2   3   6   10.79    2.27   0
   1   4   5   12.03    2.36   0
   1   4   6  132.25    4.60   0
   3   1   7  521.37    7.32   0
  -2   6   6  623.94    8.84   0
   1   2  12    9.21    2.70   0
  -4   6  10    0.16    2.28   0
  -1   4  12   45.15    3.22   0
   0   4  10    4.63    2.61   0
   1   3  10    9.61    2.66   0
   2   1  11    0.49    2.51   0
   2   2   9   25.97    2.90   0
  -1   5   9  304.74    6.92   0
  -3   5  12   64.71    3.32   0
  -3   6   8    9.67    2.94   0
   0   3  12    1.24    2.14   0
  -3   6   7    6.48    2.93   0
  -2   4  13    2.18    1.78   0
   0   4   9    7.32    2.53   0
   1   3   9  229.48    5.74   0
   2   2   8   31.17    2.91   0
   2   2   7   16.77    2.67   0
  -1   4  11   65.91    3.85   0
  -1   5   6    0.84    2.28   0
   1   3   8  286.73    6.69   0
  -1   3  13   79.34    3.64   0
   0   4   8    9.59    2.66   0
   2   0  11    1.16    2.96   0
  -4   5  12   62.87    3.06   0
  -3   5  11   19.16    3.01   0
   0   1  14  118.13    3.45   0
   0   4   7  156.58    5.44   0
   1   3   7  265.70    6.36   0
  -2   5   9   16.26    3.04   0
   0   4   6  640.10    9.35   0
   1   1  12   -0.08    3.01   0
   2   1   9    2.17    2.55   0
  -2   4  12   22.93    3.00   0
  -1   2  14    3.21    1.97   0
   1   0  13    1.93    2.05   0
  -6   0   3    6.59    1.67   0
  -6   1   5  133.74    3.34   0
  -5   0   1   24.47    1.56   0
  -5   1   2    2.21    0.98   0
  -3   0  -1  151.36    2.13   0
  -4   2   5  308.02    3.16   0
  -4  -1  -1   18.18    1.56   0
  -4   2   4   90.84    1.80   0
  -4  -2  -1  495.56    5.93   0
  -6   0   2  397.18    6.12   0
  -6   1   3  127.63    3.53   0
  -5  -1   0    7.37    1.82   0
  -5   2   6   52.64    1.92   0
  -4   2   3   56.17    1.63   0
  -3  -2  -2  157.46    2.90   0
  -3   2   4   64.99    1.42   0
  -2   1   0  349.34    2.57   0
  -5  -2   0   15.60    2.88   0
  -5   1   1  322.46    4.80   0
  -4   1   0  854.45    6.14   0
  -3   2   3   83.24    1.60   0
  -6  -1   1    9.94    2.44   0
  -6   0   1   77.45    3.45   0
  -6   2   5    8.51    1.69   0
  -6   2   6  328.38    5.33   0
  -7   1   4  227.66    5.94   0
  -6   2   4  224.34    4.67   0
  -5   2   2  186.31    3.44   0
  -3   0  -2  884.84    5.93   0
  -3   2   2  103.00    1.77   0
  -2   0  -2  283.17    2.77   0
  -5   1   0    3.72    1.28   0
  -3   1  -1   13.66    0.90   0
  -5  -1  -1   64.78    2.99   0
  -4  -1  -2    0.03    1.30   0
  -4   2   1    3.93    0.84   0
  -7   1   3  270.19    6.02   0
  -5   0  -1   -0.19    1.52   0
  -7   2   5  124.87    4.71   0
  -6   2   2  118.26    3.74   0
  -4   0  -2   19.65    1.54   0
  -3   2   1    0.90    0.51   0
  -7   2   4    9.49    2.71   0
  -2  -1  -3    0.80    0.57   0
  -7   1   2   63.51    3.70   0
  -4   2   0    0.37    0.79   0
  -6   1   0  189.37    5.00   0
  -6   2   1   51.46    2.82   0
  -5   2   0    2.24    1.01   0
  -4   1  -2    2.39    1.21   0
  -3   1  -2    1.28    0.74   0
  -7   2   2  391.71    8.03   0
  -6   0  -1  382.93    7.03   0
  -6   3   4   -0.66    1.79   0
  -6   3   5  131.20    3.96   0
  -5  -1  -2  241.85    5.40   0
  -5   0  -2   81.35    3.62   0
  -5   3   3    1.01    1.33   0
  -5   3   4   34.24    1.81   0
  -3   0  -3  381.23    4.62   0
  -1  -1  -3  490.49    3.30   0
  -6   2   0   -0.09    1.65   0
  -5   3   2    1.88    1.18   0
  -4  -1  -3  151.02    3.81   0
  -4   2  -1  300.89    4.50   0
  -2   0  -3   13.30    1.13   0
  -7   2   1   81.02    4.11   0
  -7   3   5   45.09    3.89   0
  -6   3   2  105.51    3.70   0
  -5   2  -1  238.41    4.72   0
  -4   0  -3  186.94    4.70   0
  -2   2   2 1468.42    5.46   0
  -7   3   4    2.98    2.64   0
  -4   3   3   56.58    1.83   0
  -4   3   4    4.19    1.01   0
  -3   2  -1   18.34    1.34   0
  -7   3   3  104.90    4.34   0
  -6   3   1  447.35    7.03   0
  -4   3   2   48.73    2.02   0
  -6   2  -1    5.47    2.14   0
  -2   2   1 3702.49    9.90   0
  -7   2   0  244.97    6.69   0
  -6   0  -2   41.38    3.75   0
  -5   0  -3   -0.00    2.40   0
  -5   3   0   22.82    2.15   0
  -4   1  -3    2.47    1.08   0
  -4   2  -2   -0.03    1.08   0
  -7   3   1    6.30    2.40   0
  -6   3   0  147.77    4.70   0
  -4   3   0    0.56    0.93   0
  -2   2   0 9335.10   16.58   0
  -6   2  -2   52.54    3.43   0
  -5   3  -1    5.00    1.55   0
  -3   0  -4   19.01    1.49   0
  -3   2  -2  239.67    3.65   0
  -7   3   0  115.04    5.00   0
  -6   3  -1    0.34    2.02   0
  -4   0  -4  595.22    8.45   0
  -4   3  -1  619.31    6.98   0
  -6   1  -3    5.44    3.55   0
  -6   4   2   14.95    2.65   0
  -6   4   3   50.17    2.84   0
  -4   2  -3   15.93    1.70   0
  -1   0  -3 2121.40    7.20   0
  -7   4   3  188.87    5.63   0
  -4   1  -4  121.25    3.67   0
  -3   3   1   19.19    1.37   0
  -2   2  -1  695.62    4.87   0
  -7   3  -1  193.26    6.67   0
  -6   4   1    0.42    1.89   0
  -3   1  -4  162.68    3.48   0
  -7   4   1   67.78    3.81   0
  -6   2  -3  210.94    6.82   0
  -6   3  -2    5.81    2.09   0
  -5   1  -4    6.57    2.27   0
  -5   4   2    2.24    1.32   0
  -5   4   3    8.60    1.80   0
  -3   2  -3   25.84    1.55   0
  -3   3   3  414.54    3.80   0
  -5   4   1   52.93    2.71   0
  -4   3  -2    9.70    1.47   0
  -3   3  -1  585.45    6.11   0
  -2   2  -2   41.03    1.45   0
  -6   4  -1   64.21    3.58   0
  -5   3  -3   27.58    2.39   0
  -3   0  -5    2.13    1.45   0
  -6   3  -3   17.80    2.62   0
  -5   4  -1   77.40    3.46   0
  -4   3  -3  755.04    8.54   0
  -2   1  -4 1197.28    7.63   0
  -1   1  -2 1306.34    5.08   0
  -6   4  -2    8.19    2.06   0
  -3   3  -2  105.41    2.82   0
  -5   1  -5   54.19    3.39   0
  -5   4  -2    7.76    1.70   0
  -4   4   0  702.90    7.66   0
  -4   4   2 1435.18    9.29   0
  -3   1  -5  306.81    4.74   0
  -5   3  -4   26.60    2.57   0
  -7   5   1   13.30    3.11   0
  -7   5   2    3.44    2.67   0
  -5   2  -5    0.56    2.06   0
  -4   2  -5    1.99    1.61   0
  -4   3  -4  648.64    9.63   0
  -6   4  -3    4.51    2.14   0
  -3   3  -3  470.70    5.72   0
  -1   0  -4  632.11    4.07   0
  -7   5   0    5.24    2.76   0
  -6   5   0   12.13    2.69   0
  -6   5   2   64.13    3.22   0
  -5   4  -3   -1.04    1.64   0
  -4   4  -2   25.67    1.85   0
  -3   2  -5    8.83    1.51   0
  -6   5  -1   48.70    3.26   0
  -5   3  -5  120.56    4.37   0
  -2   2  -4  231.70    3.52   0
  -5   5   1   15.22    2.22   0
  -4   4  -3  233.90    4.75   0
  -3   3  -4   45.43    2.16   0
  -4   2  -6  101.00    3.85   0
  -3   1  -6    2.76    1.38   0
  -2   3  -1  283.73    3.13   0
  -2   3   0  860.75    5.19   0
  -4   4  -4   26.93    2.07   0
  -3   4   0   14.04    1.33   0
  -3   4  -1    3.27    0.93   0
  -2   3  -2  381.91    3.87   0
  -1   1  -4   88.87    1.72   0
  -5   3  -6    9.99    2.55   0
  -5   5  -3   27.75    3.08   0
  -3   3  -5   86.18    2.88   0
  -3   4  -2  155.88    3.27   0
  -3   4   1  534.21    5.14   0
  -4   3  -6    1.37    1.94   0
  -6   5  -4   81.38    4.29   0
  -3   4  -3    1.28    1.06   0
  -2   1  -6  314.17    4.29   0
  -1   2  -1   96.01    1.37   0
  -4   4  -5    3.64    1.73   0
  -4   5   0   95.30    3.01   0
  -1   2  -2  493.33    3.39   0
  -5   5  -4    7.87    2.30   0
  -4   5  -2  208.98    4.78   0
  -6   6  -1    1.00    2.46   0
  -4   5   1    2.01    1.45   0
  -3   4  -4   27.52    1.92   0
  -2   3  -4  576.18    5.64   0
  -2   3   2   40.22    0.95   0
  -6   6  -2    0.64    2.34   0
  -1   2  -3   11.27    0.68   0
  -5   5  -5   67.50    3.82   0
  -4   4  -6    3.58    1.89   0
  -3   2  -7  275.77    6.45   0
  -2   2  -6    0.18    0.92   0
  -4   3  -7   15.12    2.28   0
  -4   5  -4   19.34    2.33   0
  -3   4  -5   83.74    3.09   0
  -2   3  -5    5.63    1.00   0
  -5   6  -2    3.44    2.00   0
  -5   6  -1    1.49    1.92   0
  -1   2  -4   84.08    1.65   0
  -5   5  -6    5.68    2.79   0
  -5   6   0   23.57    2.61   0
  -3   3  -7   28.92    2.61   0
  -2   1  -7   57.42    2.08   0
  -4   4  -7  153.85    6.14   0
  -3   4  -6   22.55    2.31   0
  -3   5  -2   19.91    1.51   0
  -2   2  -7  224.70    3.80   0
  -2   4  -3  540.37    5.31   0
  -4   3  -8  108.66    3.94   0
  -3   5  -1    6.43    1.16   0
  -2   4  -1  121.00    2.35   0
  -5   6  -5   77.01    4.10   0
  -3   5  -4  423.76    6.44   0
  -2   4  -4  351.89    4.57   0
  -4   6  -2   79.47    3.24   0
  -4   6  -1    8.41    1.98   0
  -3   3  -8    4.33    1.71   0
  -3   5  -5  157.39    3.96   0
  -2   4  -5  187.82    3.71   0
  -2   4   0    3.64    0.64   0
  -1   3  -3   95.09    1.93   0
  -4   5  -7    1.20    2.22   0
  -2   3  -7  174.70    3.79   0
  -1   2  -6  311.79    3.47   0
  -1   3  -2   67.21    1.38   0
  -1   3  -4  608.55    4.54   0
  -4   6  -5   40.28    3.17   0
  -2   2  -8   79.68    2.99   0
  -2   4  -6  121.91    3.19   0
  -3   4  -8   28.65    3.20   0
  -1   1  -7  249.51    3.00   0
  -1   3  -5  135.98    2.53   0
   0   1  -3  434.56    2.44   0
  -3   5  -7  166.03    4.83   0
  -2   3  -8    5.29    1.73   0
  -2   4   1   11.45    0.77   0
  -2   4  -7   81.67    3.17   0
  -1   3  -6  539.44    4.97   0
  -1   3   0    0.21    0.33   0
  -3   6  -4   57.13    3.07   0
  -3   6  -3  105.55    3.29   0
   0   1  -5    2.17    0.56   0
  -3   4  -9    4.01    2.37   0
  -3   5  -8   13.69    2.28   0
  -3   6  -5  271.95    6.03   0
  -3   6  -2   18.98    2.00   0
  -2   5  -5    0.50    1.15   0
  -2   5  -2   14.88    1.12   0
  -2   4  -8  245.75    4.88   0
  -2   5  -6    1.55    1.48   0
  -3   6  -6    4.13    2.16   0
  -2   3  -9  125.65    4.27   0
  -1   2  -8   77.20    2.24   0
  -1   4  -5 1009.78    7.20   0
  -1   4  -3  321.85    3.57   0
   0   2  -4  861.28    4.42   0
   0   2  -3  691.93    3.69   0
  -4   7  -3   38.11    3.24   0
  -3   6  -1  205.05    4.02   0
  -2   5  -1   11.84    1.07   0
  -3   6  -7    4.67    2.11   0
  -2   5  -7   98.96    4.02   0
  -1   4  -6   34.63    1.65   0
  -1   4  -2   13.11    0.87   0
   0   1  -6  119.32    1.71   0
   0   2  -5  602.94    4.04   0
   0   2  -2  146.16    1.56   0
  -1   4  -7   13.25    1.52   0
   0   0  -6  100.82    1.36   0
  -2   5   0  499.18    4.40   0
  -1   3   1    0.00    0.31   0
  -1   4  -1 1260.99    6.24   0
   0   1  -7   77.16    1.57   0
   0   3  -4  399.47    3.54   0
  -2   6  -4   -0.16    1.43   0
  -1   3  -9   35.56    2.25   0
   0   2  -7    2.16    0.81   0
   0   2  -1  868.01    3.38   0
   0   3  -5   25.82    1.14   0
  -3   7  -5  191.46    5.66   0
  -3   7  -4   18.69    2.84   0
  -2   4 -10   55.01    4.25   0
  -2   6  -6    9.46    1.88   0
  -2   6  -3  120.59    3.33   0
   0   3  -6  160.96    2.69   0
   0   3  -3  471.67    3.54   0
  -3   7  -3   62.10    3.56   0
  -2   6  -7   46.01    2.98   0
  -2   6  -8   36.79    3.62   0
  -2   6  -2  306.48    4.76   0
  -1   4  -9  135.76    3.80   0
  -1   4   0  149.67    2.01   0
  -1   5  -7   17.78    1.98   0
   0   2  -8  151.88    2.63   0
   0   3  -2  230.37    2.33   0
  -1   3 -10   25.76    2.33   0
  -1   5  -8  102.06    3.46   0
  -1   5  -2    6.51    1.08   0
   0   3  -8  657.29    5.79   0
   0   4  -6   62.06    1.99   0
   0   4  -5   12.27    1.11   0
   0   4  -4    0.90    0.93   0
   0   4  -7  110.22    2.81   0
   0   2  -9  275.15    4.64   0
   0   2   0    0.42    0.24   0
   0   3  -9  170.46    3.30   0
   0   3  -1   65.59    1.21   0
   0   4  -8   73.00    2.51   0
  -2   7  -5   13.17    2.41   0
  -1   5  -1   70.23    1.85   0
  -1   6  -6  139.94    4.17   0
  -1   6  -5  106.27    3.37   0
  -2   7  -4  219.16    5.17   0
  -1   6  -7  248.80    5.85   0
   1   1  -4   79.03    1.23   0
   1   2  -5  140.50    2.07   0
  -8   5  -6   86.97    3.26   0
  -8   6  -7    4.79    1.68   0
  -8   5  -1    3.75    2.10   0
  -8   5  -5   10.30    2.53   0
  -8   6  -1   15.97    2.24   0
  -6   2  -7   -1.72    2.14   0
  -6   3  -9   25.75    2.43   0
  -5   1  -7  278.60    6.67   0
  -8   5  -4   44.69    3.15   0
  -8   5  -2   12.42    2.37   0
  -8   6  -6   42.04    2.29   0
  -8   6  -2   18.71    2.90   0
  -8   7  -3  130.43    3.56   0
  -7   3  -5  115.17    4.27   0
  -7   3  -1  213.34    5.07   0
  -6   4 -10    0.74    1.73   0
  -8   6  -5    1.08    1.89   0
  -8   6  -3   57.99    3.33   0
  -8   7  -5    0.70    1.76   0
  -8   7  -4   27.97    2.38   0
  -7   3  -4   11.85    2.60   0
  -7   3  -3    8.80    2.68   0
  -7   3  -2   12.57    2.36   0
  -6   2  -6    1.57    2.22   0
  -5   2  -9    2.15    2.21   0
  -7   4  -7   28.03    2.79   0
  -7   4   0    3.85    1.95   0
  -7   6  -9   41.88    2.16   0
  -5   1  -6   80.25    4.14   0
  -7   5  -8    3.80    2.31   0
  -5   1  -5   46.56    3.02   0
  -7   4  -6   27.15    2.81   0
  -7   4  -1  206.52    4.87   0
  -7   5   0    5.77    2.04   0
  -6   2  -4  314.66    6.62   0
  -6   2  -3  160.67    5.17   0
  -7   4  -5   34.59    3.11   0
  -5   2  -8   10.09    2.85   0
  -7   4  -4    2.29    2.52   0
  -7   4  -3    5.91    2.55   0
  -7   4  -2  153.53    4.74   0
  -7   5  -7   10.18    2.13   0
  -7   6  -8   -1.16    1.78   0
  -6   3  -7   26.35    3.36   0
  -6   4  -9    0.52    2.03   0
  -6   5 -10    0.29    2.09   0
  -5   4 -11   39.60    2.70   0
  -7   5  -1    1.85    1.94   0
  -7   7  -8  103.89    3.20   0
  -7   8  -7   45.27    2.02   0
  -7   5  -6   20.73    2.65   0
  -7   5  -2    4.90    2.53   0
  -7   8  -4   10.47    2.11   0
  -5   2  -7  154.33    5.25   0
  -7   5  -5    0.88    1.92   0
  -7   6  -7   78.36    3.37   0
  -7   7  -7    1.10    2.17   0
  -7   8  -6   -0.18    1.69   0
  -7   8  -5   44.18    2.57   0
  -6   6 -10   57.83    2.90   0
  -4   1  -7   60.08    3.53   0
  -7   5  -4   19.68    2.59   0
  -7   6  -2   16.45    2.15   0
  -6   3  -5    5.82    2.03   0
  -6   7 -10    3.23    1.83   0
  -5   3  -9   47.85    3.18   0
  -7   6  -6   66.74    3.10   0
  -7   7  -3    0.14    1.88   0
  -6   3  -4   90.66    3.89   0
  -6   3  -3   17.42    2.23   0
  -6   5  -9   15.88    2.29   0
  -5   2  -6   67.03    3.51   0
  -7   6  -5   41.94    3.01   0
  -7   6  -4   69.76    3.58   0
  -7   6  -3    4.75    2.01   0
  -7   7  -5    2.76    2.30   0
  -7   7  -4    4.91    2.71   0
  -4   2  -9    8.65    2.61   0
  -6   4  -7    8.69    2.43   0
  -6   8  -9   13.98    1.91   0
  -5   4 -10   79.76    3.46   0
  -5   5 -11   66.72    2.86   0
  -5   3  -8   30.61    3.25   0
  -6   4  -6    8.68    2.50   0
  -6   5  -8   18.00    2.51   0
  -6   6  -9   14.65    2.14   0
  -6   7  -9   52.07    2.48   0
  -6   4  -5   26.25    2.50   0
  -6   4  -4   31.32    2.75   0
  -6   4  -3    2.22    1.78   0
  -5   7 -11   -0.44    1.82   0
  -4   2  -8    6.97    2.22   0
  -4   3 -10    0.34    2.54   0
  -6   5  -7   52.71    3.14   0
  -6   6  -8    7.50    2.36   0
  -5   3  -7    0.03    1.81   0
  -5   4  -9    0.63    2.19   0
  -4   5 -12   -0.29    1.96   0
  -6   7  -8   35.48    2.80   0
  -4   4 -11    9.16    2.75   0
  -6   5  -2  282.29    5.50   0
  -6   8  -7   75.53    2.77   0
  -6   5  -5   43.19    2.89   0
  -6   5  -3  266.76    5.70   0
  -6   6  -7  173.05    4.76   0
  -6   6  -2    0.10    2.16   0
  -6   8  -6    4.25    2.04   0
  -6   8  -5    0.39    2.10   0
  -5   8 -10   69.57    2.41   0
  -4   2  -7   84.86    3.75   0
  -6   5  -4   87.89    3.52   0
  -6   7  -7   46.18    2.89   0
  -6   7  -3    6.96    2.37   0
  -5   6 -10   97.99    3.99   0
  -5   9  -8   11.27    1.74   0
  -4   6 -12  102.44    3.00   0
  -4   7 -12   70.36    2.65   0
  -3   5 -13    2.36    1.68   0
  -6   6  -6   10.07    2.30   0
  -6   6  -3   68.57    3.39   0
  -5   7 -10   14.85    2.20   0
  -4   3  -9   24.61    2.84   0
  -6   6  -4    5.92    1.84   0
  -6   7  -5   -0.74    1.98   0
  -6   7  -4   32.88    2.51   0
  -5   5  -9   83.02    3.84   0
  -5   9  -7   18.18    1.90   0
  -5   4  -7  165.87    4.77   0
  -3   4 -12   21.70    2.42   0
  -3   6 -13    4.03    1.79   0
  -5   8  -9  139.32    3.53   0
  -4   4 -10   16.02    2.52   0
  -4   5 -11   16.74    2.44   0
  -4   8 -11   29.21    2.16   0
  -5   4  -6  204.24    5.76   0
  -5   5  -8    8.47    2.65   0
  -5   6  -9   79.85    3.52   0
  -4   3  -8   99.26    3.90   0
  -5   7  -9  115.62    3.55   0
  -5   4  -5   48.40    2.90   0
  -4   6 -11    7.52    2.05   0
  -4   7 -11   29.96    2.46   0
  -4   9  -9   35.74    1.93   0
  -5   5  -7   10.91    2.36   0
  -5   6  -8   42.97    3.19   0
  -3   3 -10  331.95    6.65   0
  -5   7  -8   10.37    2.29   0
  -5   8  -7   10.12    2.06   0
  -4   4  -9    1.62    1.93   0
  -3   5 -12   -0.09    1.74   0
  -5   5  -6    8.36    1.96   0
  -5   8  -6    3.96    2.04   0
  -5   8  -5   21.77    2.31   0
  -4   8 -10    6.32    1.79   0
  -4   9  -8   46.66    2.13   0
  -3   4 -11   11.11    2.15   0
  -5   5  -5   53.29    3.45   0
  -5   7  -7   79.98    3.48   0
  -5   7  -3   15.84    2.39   0
  -4   9  -7   23.67    2.28   0
  -3   7 -12   18.08    2.14   0
  -4   6 -10   93.54    3.78   0
  -4   7 -10   10.22    2.19   0
  -2   5 -13   78.01    2.93   0
  -5   6  -6   44.32    2.97   0
  -5   6  -3   36.41    2.43   0
  -5   7  -6    0.83    1.80   0
  -5   7  -5  116.67    4.23   0
  -5   7  -4  388.30    6.47   0
  -5   6  -4  114.39    3.80   0
  -4   5  -9  185.49    5.30   0
  -4   8  -9    1.20    1.66   0
  -3   3  -9  160.09    4.34   0
  -3   8 -11   16.10    1.86   0
  -2   3 -11   10.03    2.35   0
  -2   6 -13    1.77    1.66   0
  -3   5 -11   39.80    3.19   0
  -3   9  -9   71.25    2.36   0
  -2   4 -12   64.90    3.26   0
  -4   4  -7  145.21    4.92   0
  -4   6  -9    5.15    1.85   0
  -4   7  -9   13.43    2.54   0
  -3   4 -10   27.49    2.61   0
  -4   5  -8   41.85    2.81   0
  -3   7 -11   18.93    2.47   0
  -3   9  -8  195.02    3.79   0
  -4   8  -7   22.13    2.31   0
  -3   8 -10    3.39    1.67   0
  -3   9  -7   32.52    2.34   0
  -4   5  -7    4.79    1.81   0
  -4   6  -8   84.50    3.94   0
  -4   7  -8   12.15    2.21   0
  -4   8  -6    0.51    1.73   0
  -4   8  -5    9.88    2.12   0
  -2   7 -12   45.96    2.80   0
  -3   4  -9    6.52    1.88   0
  -2   3 -10  110.77    4.26   0
  -2   9  -9   10.53    1.87   0
   0   5 -14    2.30    1.62   0
   0   6 -14   52.55    2.27   0
  -4   5  -6   45.49    2.66   0
  -4   6  -7  292.88    6.02   0
  -3   7 -10    0.10    2.21   0
  -2   4 -11   19.31    2.37   0
  -2   8 -11   87.72    2.77   0
  -1   5 -13    2.38    1.75   0
  -1   8 -12    0.70    1.54   0
  -3   6 -10  255.39    5.40   0
  -3   8  -9    0.39    1.86   0
  -2   9  -8    0.30    1.77   0
  -1   6 -13   94.98    2.96   0
  -4   6  -6   88.49    3.46   0
  -4   7  -5   17.04    2.19   0
  -4   7  -4   67.94    3.19   0
  -4   6  -5   43.12    2.61   0
  -3   5  -9    5.96    1.97   0
  -3   8  -8    1.23    2.18   0
  -2   9  -7   37.22    2.35   0
  -3   7  -9    1.03    1.82   0
  -2   5 -11    7.05    2.03   0
  -2   7 -11    9.16    1.84   0
  -1   4 -12   53.15    3.07   0
   0   7 -13   31.71    2.20   0
  -3   6  -9  183.67    5.25   0
  -2   6 -11   82.86    3.83   0
  -2   8 -10    6.27    1.75   0
  -1   3 -11  149.19    4.16   0
  -1   9  -8    1.13    1.60   0
   0   4 -13    0.57    2.05   0
  -2   4 -10   90.78    3.44   0
  -1   7 -12    5.07    1.72   0
  -1   8 -11   -0.16    1.59   0
  -3   5  -8   13.55    2.29   0
  -3   7  -8   99.67    3.93   0
  -3   8  -6  101.67    3.48   0
  -1   5 -12   67.33    3.17   0
  -3   6  -8   14.09    2.28   0
   0   5 -13   57.95    3.28   0
   0   6 -13  115.34    3.53   0
  -2   7 -10   22.87    2.31   0
  -3   5  -7  139.58    4.18   0
  -2   6 -10   -0.12    2.14   0
   0   8 -11    1.42    1.41   0
   2   5 -14   85.91    2.64   0
  -3   6  -7    6.18    1.59   0
  -3   7  -6   24.15    2.47   0
  -2   4  -9   90.62    3.69   0
  -2   8  -8   59.25    2.84   0
  -1   4 -11  255.09    5.50   0
  -1   8 -10   44.36    2.29   0
  -3   7  -5  202.40    5.07   0
  -3   7  -4   21.61    2.39   0
  -1   3 -10   26.79    2.17   0
  -1   7 -11   11.38    1.94   0
   0   7 -12   43.78    2.47   0
  -2   8  -7  224.79    5.25   0
  -2   5  -9   15.10    1.99   0
  -2   8  -6   44.31    2.89   0
  -1   5 -11    1.02    1.83   0
  -1   6 -11    1.03    1.71   0
   0   4 -12   69.30    3.14   0
   1   4 -13   24.64    2.51   0
   1   6 -13    5.52    1.83   0
  -2   6  -9    1.61    1.63   0
  -2   8  -5   37.27    2.36   0
   0   8 -10   12.02    1.64   0
   1   5 -13   24.26    2.44   0
  -2   7  -8  117.96    3.78   0
  -1   7 -10  268.99    5.69   0
   0   3 -11   12.04    2.23   0
   0   5 -12  100.01    3.44   0
   1   7 -12    7.72    1.45   0
  -1   4 -10  434.42    6.84   0
  -1   8  -8   -2.12    2.08   0
   2   6 -13   62.68    2.07   0
   2   7 -12  225.60    2.92   0
  -2   5  -8  164.98    4.23   0
  -2   6  -8   39.93    2.81   0
   0   7 -11   10.89    2.05   0
  -1   5 -10    1.49    1.92   0
  -1   6 -10   20.28    2.21   0
  -1   7  -9   99.00    3.78   0
  -2   7  -6   48.45    2.59   0
  -1   8  -6    3.11    1.76   0
   0   4 -11   19.86    2.28   0
   0   6 -11   94.32    3.69   0
   1   6 -12   39.19    2.59   0
   1   8  -9  189.88    3.00   0
   2   4 -13  238.84    4.82   0
   2   5 -13    7.66    1.99   0
  -2   6  -7   38.85    2.53   0
  -2   7  -5   10.60    1.81   0
   0   8  -8   14.20    1.77   0
   1   7 -11    5.48    1.64   0
   1   4 -12   15.96    1.99   0
   1   5 -12   29.38    2.44   0
   2   7 -11   64.70    2.29   0
   3   5 -13   18.60    1.96   0
  -1   6  -9    1.31    1.52   0
  -1   7  -8   59.79    2.92   0
   0   8  -7  101.66    2.92   0
   1   8  -8  165.55    2.87   0
   1   8  -7   16.91    1.81   0
   2   6 -12   -0.26    1.54   0
   3   4 -13    4.27    1.95   0
   1   8  -6    3.64    1.76   0
  -1   7  -7  137.15    3.57   0
   0   6 -10    6.26    1.77   0
   0   7  -9   14.04    1.98   0
   1   3 -11   -1.45    1.64   0
   1   6 -11    5.84    1.85   0
   1   7 -10   34.26    2.10   0
   2   3 -12  224.66    4.55   0
   3   7 -10    5.86    1.79   0
   4   4 -13   12.48    1.86   0
  -1   6  -8    9.48    1.73   0
   0   4 -10    0.76    1.31   0
   0   5 -10    4.26    1.93   0
   2   5 -12    0.72    1.98   0
  -1   5  -8   83.00    3.06   0
  -1   7  -6   -0.15    1.58   0
   2   4 -12    5.04    1.81   0
   2   7 -10   40.07    1.93   0
   0   7  -8    4.35    1.79   0
   1   4 -11   58.05    2.42   0
   4   6 -11    1.29    1.67   0
  -1   6  -7  279.13    4.65   0
   0   6  -9  168.61    4.12   0
   1   7  -9   20.60    1.80   0
   2   6 -11   16.27    1.84   0
   1   6 -10   25.81    2.36   0
   3   5 -12    5.69    1.68   0
   3   6 -11  208.84    3.58   0
   3   7  -9    2.08    1.44   0
   4   5 -12  183.96    2.90   0
   0   7  -7   61.22    2.48   0
   2   7  -9    2.27    1.54   0
   0   5  -9  151.55    3.85   0
  -3  -3  -3   83.90    3.81   0
  -1   0  -2   56.55    1.30   0
  -7   1   3  289.41    6.99   0
  -4   2   1    5.41    0.95   0
  -2   1  -1 1064.69    5.90   0
  -5  -1  -2  232.42    6.61   0
  -5   1  -1  268.18    5.65   0
  -3   2   2   86.25    1.71   0
  -7   1   2   58.61    4.71   0
  -6   1   0  161.39    5.56   0
  -6   2   2  126.41    4.24   0
  -4  -2  -3  346.02    7.85   0
  -3   0  -3  390.67    5.64   0
  -2  -2  -4  307.07    5.68   0
  -5   0  -2   73.26    4.32   0
  -3   1  -2    1.42    0.88   0
  -2   0  -3   16.34    1.23   0
  -1  -2  -4  602.19    6.22   0
  -6   0  -1  403.34    8.66   0
  -4   0  -3  160.97    4.80   0
  -4   2   0    0.53    0.84   0
  -3   2   1    1.83    0.68   0
  -6   2   1   52.06    3.20   0
  -5   2   0    1.30    1.20   0
  -3  -2  -4    5.18    2.48   0
  -2  -1  -4   84.49    2.66   0
  -6   1  -1    0.68    2.22   0
  -5   1  -2  394.41    7.31   0
  -6   2   0    0.32    2.29   0
  -5  -1  -3   16.33    3.12   0
  -3   2   0  253.12    3.65   0
  -2   1  -2    4.63    0.72   0
  -5   0  -3    3.59    2.23   0
  -4  -1  -4    6.11    2.96   0
  -4   1  -3    2.03    1.44   0
  -1  -1  -4  470.62    5.33   0
  -4  -2  -4   17.02    3.74   0
  -3   1  -3    1.37    1.04   0
  -1   0  -3 2122.13    9.02   0
  -7   2   1   82.88    4.96   0
  -6   1  -2   27.98    3.78   0
  -4   2  -2    1.17    1.24   0
  -2  -2  -5 1071.05   10.95   0
  -7   2   0  208.86    7.01   0
  -3  -2  -5    1.70    2.74   0
  -3  -1  -5    0.94    2.05   0
  -2  -1  -5  137.97    4.10   0
  -6   2  -2   46.25    4.10   0
  -5   3   1    1.24    1.31   0
  -3   1  -4  144.04    4.24   0
  -6   1  -3    6.83    3.37   0
  -4  -1  -5   58.38    4.29   0
  -3   0  -5    1.27    1.72   0
  -3   2  -2  200.38    3.82   0
  -6   3   0  138.11    5.13   0
  -5   1  -4    6.84    2.61   0
  -5   2  -3    2.85    1.68   0
  -5   3   0   28.64    2.00   0
  -4   2  -3   16.88    1.88   0
  -7   3   1    4.16    3.35   0
  -2   0  -5   19.69    1.99   0
  -1  -1  -5  385.14    5.19   0
  -1   0  -4  488.60    5.58   0
  -7   3   0  100.30    5.70   0
  -6   2  -3  163.99    6.90   0
  -6   3  -1    0.26    1.98   0
  -3   2  -3   25.24    1.69   0
  -2   1  -4 1202.98    9.58   0
  -4   1  -5  184.89    5.63   0
  -4   3   0    0.12    0.84   0
  -5   3  -2   10.46    2.06   0
  -4   2  -4  253.07    6.13   0
  -4   3  -1  584.49    7.09   0
  -7   3  -1  158.70    6.81   0
  -6   3  -2    5.57    2.22   0
  -5   1  -5   48.21    4.05   0
  -2   2   0 9289.48   16.59   0
  -1   1  -2 1078.89    5.42   0
  -4   0  -6   77.59    4.92   0
  -2   2  -1  712.88    4.69   0
  -6   2  -4  310.98    9.36   0
  -3   2  -4   60.95    2.74   0
  -5   3  -3   29.87    2.83   0
  -5   2  -5    1.33    2.04   0
  -4   2  -5    3.95    1.63   0
  -2   1  -5  357.92    5.66   0
  -4   3  -3  704.02    9.34   0
  -1   1  -3  795.22    5.12   0
  -5   3  -4   23.66    2.83   0
  -3   2  -5    7.96    1.65   0
  -2   2  -3    4.97    0.90   0
  -6   4   0   11.94    2.22   0
  -4   3  -4  641.34   10.63   0
  -3   0  -7  139.07    5.70   0
  -6   4  -1   56.53    3.73   0
  -5   2  -6   59.63    4.71   0
  -3   3  -1  674.00    6.43   0
  -6   4  -2    5.90    2.35   0
  -3   3   0    1.19    0.73   0
  -1   1  -4   88.81    2.05   0
   0  -1  -5  895.40    6.12   0
  -5   3  -5  119.97    5.08   0
  -5   4  -1   76.49    3.43   0
  -4   1  -7   65.46    4.66   0
  -2   0  -7  125.16    4.41   0
  -1   0  -6   89.65    2.72   0
  -5   4  -2    8.39    1.98   0
  -4   3  -5   26.27    2.89   0
  -3   1  -7   38.07    3.62   0
  -3   2  -6  332.97    6.85   0
  -3   3  -3  481.86    5.91   0
  -6   4  -3    1.73    2.42   0
  -5   4  -3   -0.99    1.76   0
  -3   3  -4   40.24    2.32   0
  -2   2  -5  115.10    3.11   0
  -1   1  -5   37.04    1.72   0
  -5   3  -6   10.27    2.73   0
  -4   2  -7   97.36    4.68   0
  -6   4  -4   32.43    3.44   0
  -4   3  -6    2.69    2.48   0
  -3   0  -8   19.93    3.26   0
  -3   2  -7  375.27    7.77   0
  -3   3  -5   74.96    3.22   0
  -3   1  -8   41.13    4.02   0
  -5   4  -5   51.56    4.14   0
  -2   0  -8    5.41    2.03   0
  -1   1  -6   21.38    1.59   0
   0  -1  -6 2039.41    9.14   0
  -4   2  -8    4.25    2.78   0
  -4   3  -7   18.18    2.87   0
  -3   3  -6    0.97    1.62   0
   0   0  -5  727.11    5.68   0
  -4   4  -5    1.45    1.97   0
  -6   5  -2  230.69    6.13   0
  -6   5  -3  235.48    7.24   0
  -2   3  -3    1.19    0.77   0
  -4   4  -6    2.97    2.28   0
  -3   1  -9    0.60    2.97   0
  -1   2  -4   81.79    1.78   0
  -1   2  -3   11.59    0.71   0
  -4   3  -8   87.53    4.63   0
  -2   3  -5    6.64    1.05   0
  -1   2  -2  505.46    3.55   0
  -5   5  -3   24.51    2.44   0
  -3   4  -3    1.00    1.11   0
  -1   2  -5   61.78    1.83   0
  -5   5  -4    5.26    2.11   0
  -3   4  -2  153.98    3.15   0
  -2   2  -8  115.73    3.78   0
  -4   4  -7  177.35    6.31   0
  -3   2  -9   38.74    3.55   0
  -3   3  -8    1.22    2.15   0
  -2   1  -9   30.07    2.55   0
  -2   3  -6   24.52    1.98   0
  -1   2  -6  261.67    4.21   0
  -5   5  -5   51.99    4.16   0
  -1   1  -8    3.74    1.60   0
  -3   4  -6   20.78    2.27   0
  -3   4  -1    4.73    0.88   0
  -2   3  -7  137.08    4.03   0
   0   1  -4  804.92    4.18   0
  -4   5  -4   18.89    2.52   0
  -2   2  -9   58.69    4.37   0
   0   1  -3  491.94    2.82   0
  -4   5  -5   21.91    2.66   0
  -4   5  -3   10.62    1.72   0
  -2   3  -8    4.50    1.63   0
   0   1  -6  118.07    2.15   0
  -1   1  -9   99.38    3.29   0
  -3   4  -8   29.07    3.19   0
  -1   2  -8   52.79    2.81   0
  -4   5  -7    4.35    2.04   0
  -3   4   0   15.34    0.87   0
   0   0  -8   63.20    1.80   0
   0   1  -7   50.92    1.91   0
  -2   2 -10   27.01    2.83   0
  -2   4  -4  350.38    4.33   0
  -1   3  -5  131.52    2.61   0
  -1   3  -4  617.17    4.62   0
  -3   4  -9    1.73    2.22   0
  -1   2  -9   94.42    3.00   0
  -3   5  -6   91.29    3.59   0
  -3   5  -4  493.78    6.10   0
  -1   3  -7  333.48    5.04   0
  -1   3  -3  108.64    1.84   0
   0   1  -8   30.69    1.86   0
  -3   5  -7  140.87    5.07   0
  -3   5  -3    0.07    0.86   0
  -2   3 -10  129.84    4.63   0
  -2   4  -2   32.75    1.38   0
   0   2  -6  350.47    3.58   0
   0   2  -5  624.22    4.21   0
   0   2  -4  928.63    4.69   0
  -4   6  -5   32.86    2.75   0
  -3   5  -2   20.32    1.28   0
   0   1  -9  108.82    2.49   0
  -4   6  -4    1.54    1.57   0
   0   2  -8   96.00    3.18   0
  -4   6  -3  650.22    7.07   0
   0   2  -3  721.93    3.66   0
   1   0  -6   61.61    1.37   0
  -2   4  -1  131.91    1.88   0
  -2   5  -6    1.25    1.17   0
  -1   3 -10   27.90    2.20   0
   0   2  -9  223.62    5.15   0
  -2   5  -7  106.51    3.65   0
   1   0  -7   52.92    1.42   0
   1   0  -4  211.07    1.56   0
  -3   5  -1    6.03    0.90   0
  -3   6  -6    4.93    2.03   0
  -2   5  -4  107.54    2.55   0
  -1   4  -4  113.18    2.23   0
  -3   6  -7    4.16    1.96   0
  -3   6  -5  283.72    4.99   0
  -1   3  -1   76.38    1.16   0
  -1   4  -9  112.65    3.82   0
   0   3  -6  124.68    2.46   0
   0   2  -2  151.14    1.47   0
   0   3  -5   25.22    1.15   0
   1   1  -7  170.58    2.22   0
   1   1  -6  395.96    3.14   0
  -3   6  -4   59.84    2.47   0
  -2   5  -3   49.22    1.75   0
   0   3  -9  106.47    3.49   0
   0   3  -4  397.58    3.33   0
   1   1  -8  102.20    1.96   0
  -3   6  -3  102.07    2.86   0
   1   1  -4   76.79    1.12   0
   1   1  -9   50.25    1.67   0
  -2   4   0    2.48    0.45   0
  -2   5  -2   13.46    1.03   0
  -1   5  -8   68.47    3.08   0
  -2   6  -6    8.48    1.62   0
  -1   4  -2   11.54    0.83   0
   0   3  -3  460.32    3.22   0
   1   2  -8    0.23    0.74   0
   0   3 -11    6.95    2.04   0
   1   2  -9    3.00    1.43   0
  -2   6  -5    0.59    1.26   0
   0   4  -9    3.22    1.51   0
   0   4  -5   11.22    0.98   0
   1   1  -3   50.94    0.83   0
   0   2  -1  859.71    3.06   0
   1   2 -10  216.65    3.64   0
  -2   6  -4   -0.13    1.09   0
  -1   3   0    0.43    0.25   0
   1   2  -4  171.60    1.91   0
  -3   7  -5  217.71    4.63   0
   1   3  -7   46.76    1.60   0
  -2   5  -1    9.90    0.80   0
   0   3  -2  208.89    2.00   0
   0   4  -4    1.11    0.63   0
   1   3  -9  100.50    3.06   0
   1   3  -6  612.00    4.80   0
  -1   5  -3   48.91    1.66   0
  -1   4  -1 1143.37    5.12   0
   1   3  -5  363.46    3.48   0
   0   5  -7   40.02    2.03   0
   0   5  -6    2.56    1.11   0
   1   2  -3  410.84    2.73   0
   1   3 -11    1.38    1.68   0
   2   0  -7  365.60    2.74   0
   2   0  -6  469.72    2.89   0
   2   1  -8  120.01    2.02   0
   2   1  -7   33.34    1.07   0
   1   1  -2   40.97    0.69   0
   1   3  -4    2.11    0.57   0
   1   4  -9   -0.23    1.40   0
   1   4  -7  202.63    3.55   0
   2   1  -9  192.43    3.27   0
   2   1  -6  313.34    2.75   0
   1   4 -10    7.83    1.81   0
  -2   7  -5    9.98    2.32   0
   1   4  -6  146.07    2.87   0
   2   0  -5  314.19    2.19   0
   2   2  -9   54.82    1.88   0
   2   2  -7   43.52    1.36   0
   0   3  -1   65.72    1.12   0
  -1   6  -4  224.26    4.08   0
   2   2 -10   51.76    2.06   0
   2   2  -6   74.49    1.64   0
   0   4  -2  875.23    4.94   0
   0   5  -4  153.54    2.93   0
   1   4  -5  492.14    4.67   0
   1   2  -2  977.31    4.02   0
   1   3  -3   61.62    1.35   0
   2   3  -9   27.55    1.85   0
   2   2  -5    8.55    0.72   0
   2   3 -10  172.19    3.99   0
   2   3  -7  127.69    2.76   0
  -1   4   0  131.00    1.65   0
   2   0  -4  688.62    3.07   0
   2   1  -4   25.24    0.78   0
  -1   6  -3   80.32    2.48   0
   0   6  -6    1.06    1.63   0
   1   4  -4   94.14    2.07   0
   1   5  -7   90.55    2.86   0
   2   3  -6  218.26    3.16   0
   0   5  -3  197.66    3.22   0
  -1   5  -1   60.86    1.54   0
   1   5  -6   11.01    1.64   0
   2   2  -4  385.23    3.26   0
   0   6  -5  151.06    3.74   0
   2   3  -5  659.63    5.15   0
   2   4  -8   28.42    2.02   0
  -1   7  -5   58.21    2.95   0
   1   3  -2  111.87    1.73   0
   2   4  -7   98.25    3.14   0
  -1   3   1    0.56    0.25   0
   0   4  -1   85.35    1.64   0
   2   1  -3  170.33    1.86   0
   3   1  -9   45.66    2.05   0
   3   1  -8   63.03    1.82   0
   0   6  -4   50.87    2.32   0
   3   1  -7  848.85    5.51   0
   3   2  -9   64.56    2.24   0
   3   2  -8  607.82    5.65   0
   3   3  -9  165.28    3.70   0
   3   5  -9   15.10    1.96   0
   6   1  -8   36.21    2.42   0
   6   4  -8   45.42    2.33   0
   7  -1  -5   16.40    2.34   0
   7   3  -7   70.45    2.50   0
   3   4  -9  296.66    4.88   0
   5   3  -9   22.66    2.23   0
   6   0  -7   43.39    2.48   0
   7   1  -7    0.67    1.96   0
   3   6  -8   31.63    2.36   0
   4   4  -9  121.86    3.46   0
   5   1  -8   53.18    2.61   0
   6   5  -6    1.42    1.70   0
   7   0  -6  152.10    3.75   0
   7   2  -7   13.59    2.06   0
   8   1  -4   11.29    1.93   0
   6   2  -8   29.25    2.22   0
   6   3  -8   58.59    2.63   0
   7   3  -6  192.30    3.68   0
   8   1  -3    7.77    1.95   0
   4   6  -7   80.07    2.82   0
   5   2  -8    3.46    1.94   0
   5   4  -8    0.99    2.17   0
   6   4  -7   65.35    2.67   0
   7   1  -6   11.87    2.32   0
   4   2  -8  118.41    3.25   0
   4   5  -8   33.57    2.29   0
   6   0  -6  285.62    4.89   0
   6   1  -7   61.12    2.77   0
   6   5  -5   -0.20    1.49   0
   3   5  -8    5.41    1.64   0
   5   3  -8   90.15    3.16   0
   7   0  -5   37.50    2.21   0
   4   3  -8   15.15    1.91   0
   5   1  -7    8.28    1.59   0
   6   2  -7  137.37    3.71   0
   6   3  -7    2.31    1.88   0
   7   3  -5   86.00    2.70   0
   3   4  -8   78.14    2.79   0
   3   6  -7    7.23    2.18   0
   6   4  -6   15.98    2.32   0
   6   5  -4   13.90    1.51   0
   7   1  -5   83.85    3.05   0
   4   6  -6   -0.39    2.13   0
   5   4  -7    2.50    1.75   0
   7   0  -4   15.60    1.99   0
   3   7  -5  224.28    3.65   0
   4   5  -7   81.15    3.04   0
   5   2  -7  177.00    3.86   0
   5   5  -6  120.79    3.38   0
   6   0  -5   32.31    2.15   0
   5   3  -7   34.57    2.26   0
   6   2  -6   30.63    2.34   0
   6   3  -6   58.70    2.74   0
   7   3  -3    9.18    2.02   0
   2   5  -7    1.03    1.66   0
   6   4  -5   33.85    2.40   0
   7   0  -3   42.39    2.56   0
   7   1  -4    4.05    1.71   0
   7   2  -4   45.75    2.47   0
   4   3  -7   29.82    2.03   0
   7   3  -2   13.80    1.70   0
   3   4  -7   23.89    1.96   0
   3   6  -6    1.00    1.86   0
   4   6  -5   24.21    2.42   0
   5   5  -5  170.57    3.94   0
   6   1  -5  131.88    3.58   0
   7   3  -1   40.27    1.80   0
   3   7  -4  199.17    3.52   0
   5   4  -6    1.87    1.74   0
   6   3  -5   56.26    2.68   0
   6   4  -4   53.45    2.62   0
   7   1  -3    1.71    1.53   0
   5   2  -6  410.13    5.81   0
   5   3  -6   28.82    2.15   0
   6   2  -5   73.52    2.90   0
   7   2  -2  185.17    4.00   0
   5   5  -4   65.32    2.89   0
   6   4  -3   61.96    2.56   0
   7   1  -2   66.60    2.61   0
   3   5  -6  192.93    4.08   0
   3   7  -3    6.02    1.89   0
   4   4  -6   33.22    2.31   0
   5   4  -5   19.27    2.36   0
   6   1  -4  155.13    3.77   0
   6   3  -4   56.86    2.75   0
   7   2  -1   16.54    1.82   0
   7   2   0   40.54    2.20   0
   7   2   1   -0.32    1.69   0
   2   5  -6  617.66    6.47   0
   3   6  -5   59.90    2.89   0
   4   3  -6  390.11    5.52   0
   6   4  -2    6.13    1.90   0
   7   1  -1   14.79    2.19   0
   3   4  -6 1070.36    8.74   0
   5   2  -5  155.50    3.89   0
   5   5  -3    2.80    1.92   0
   6   4  -1    4.51    1.63   0
   6   4   1   14.18    1.76   0
   7   1   0    2.19    1.65   0
   2   6  -5   58.40    2.69   0
   3   7  -2    1.55    1.54   0
   6   3  -3   32.88    2.51   0
   5   4  -4    9.10    2.04   0
   5   5  -2    6.40    2.10   0
   6   1  -3   60.63    2.72   0
   3   5  -5   59.34    2.91   0
   3   6  -4    3.67    1.83   0
   3   7  -1   -0.56    1.86   0
   4   4  -5  222.50    4.60   0
   4   6  -2  100.29    3.04   0
   6   2  -3  106.14    3.48   0
   4   3  -5   24.16    1.87   0
   4   5  -4   63.42    3.08   0
   2   5  -5    1.47    1.79   0
   3   7   0   57.05    2.27   0
   5   2  -4   17.91    1.82   0
   5   3  -4    8.23    1.73   0
   5   5  -1   21.04    1.98   0
   5   5   2  109.31    2.25   0
   3   7   1    0.08    1.45   0
   4   6  -1   -1.09    1.82   0
   5   4  -3  273.07    5.24   0
   5   5   0    9.34    1.79   0
   5   5   1   69.11    2.23   0
   6   1  -2    3.31    1.64   0
   6   2  -2   29.53    2.23   0
   6   3   3   18.48    1.83   0
   2   6  -4    8.97    1.85   0
   4   6   2  105.42    2.48   0
   2   7  -2    1.77    2.33   0
   3   6  -3  139.90    3.96   0
   4   4  -4    0.70    1.61   0
   4   5  -3  206.41    4.56   0
   4   6   1   13.68    1.70   0
   6   3   0  196.10    3.75   0
   6   3   1  136.60    3.31   0
   3   5  -4  142.22    3.65   0
   5   3  -3    9.91    1.85   0
   5   4  -2  238.36    4.58   0
   6   1  -1    9.48    1.95   0
   6   2  -1    1.48    1.76   0
   5   2  -3    0.07    1.56   0
   6   2   0   22.24    2.43   0
   6   2   4    0.33    1.75   0
   2   7  -1   27.13    2.73   0
   4   5  -2   39.77    2.56   0
   6   1   0   10.34    2.20   0
   1   7  -2   14.99    2.52   0
   2   6  -3   42.35    2.72   0
   4   4  -3    4.19    1.77   0
   5   3  -2    2.33    1.63   0
   5   4   4  121.57    2.47   0
   6   2   1    0.62    1.63   0
   6   2   2    9.99    2.26   0
   6   2   3   21.12    1.88   0
   6   1   1    1.96    2.10   0
   2   7   0   88.46    3.07   0
   4   5  -1    1.65    1.88   0
   5   4   1    1.50    1.88   0
   5   4   2   38.97    2.48   0
   6   1   2   -0.17    2.07   0
   1   6  -3   13.01    2.07   0
   5   3  -1   40.52    2.63   0
   2   7   1  274.51    4.30   0
   4   4  -2  119.37    3.76   0
   4   5   0   54.48    2.78   0
   1   7  -1   18.29    2.36   0
   2   7   2   43.06    2.24   0
   2   7   3  147.41    2.97   0
   4   5   4   93.18    2.60   0
   5   2  -1  137.67    3.74   0
   2   5  -3  739.30    8.07   0
   3   6   1   -0.63    2.30   0
   3   6   4  290.74    3.71   0
   4   5   1  522.58    6.27   0
   4   5   2   44.72    2.86   0
   4   5   3    7.76    1.76   0
   3   6   2    2.65    2.21   0
   3   6   3    1.31    2.06   0
   5   3   5    1.14    1.53   0
   4   4  -1   35.06    2.51   0
   1   6  -2    1.17    1.90   0
   1   7   0   68.23    3.01   0
   5   2   0   15.92    1.98   0
   5   3   2   -1.24    1.96   0
   5   3   3   -0.55    2.19   0
   5   3   4   -0.09    1.75   0
   2   5  -2    1.76    1.97   0
   4   4   0    5.44    1.89   0
   4   4   6    3.37    1.58   0
   5   2   6    6.29    1.82   0
   1   7   1   -0.49    2.07   0
   4   3  -1   17.27    1.94   0
   2   6   0   47.36    2.69   0
   3   5   0  320.96    5.76   0
   4   4   1    1.22    1.75   0
   5   2   2   35.88    2.76   0
   5   2   5  153.11    3.76   0
   1   6  -1    1.16    2.04   0
   1   7   2    7.87    2.16   0
   1   7   5    2.93    1.55   0
   4   4   2   71.44    3.42   0
   5   2   3   83.58    3.41   0
   5   2   4    1.78    2.21   0
   1   7   3   -0.57    1.86   0
   1   7   4    0.13    1.72   0
   2   6   6    4.84    1.60   0
   3   5   1  140.24    4.36   0
   3   5   6   -0.30    1.55   0
   4   3   0    4.51    2.07   0
   4   4   3    1.40    1.91   0
   4   4   4    1.60    2.06   0
   5   1   2  207.75    4.79   0
   2   5  -1    8.96    2.20   0
   2   6   5   -0.83    1.74   0
   3   5   2   18.76    2.30   0
   3   5   5    3.12    1.95   0
   4   3   7   45.49    2.30   0
   5   1   3   19.43    2.21   0
   0   7   1    6.61    2.12   0
   2   6   3   49.73    2.84   0
   2   6   4    1.66    1.96   0
   3   5   3   28.95    2.60   0
   3   5   4   38.09    2.62   0
   5   1   4   13.57    2.03   0
   3   4   0   13.56    2.38   0
   1   6   8  184.53    3.48   0
   4   3   2    3.59    2.31   0
   4   3   6  363.53    5.17   0
   0   7   2   14.41    2.29   0
   4   2   8    5.34    1.86   0
   0   7   6  261.68    4.15   0
   2   5   8   54.10    2.33   0
   3   4   1    3.63    2.15   0
   4   3   4  101.89    3.45   0
   4   3   5  389.96    5.64   0
   0   7   3    3.15    2.15   0
   0   7   4   37.04    2.80   0
   0   7   5   67.18    3.28   0
   1   6   1    7.65    2.14   0
   2   5   1   15.99    2.37   0
   3   3   9    9.16    2.15   0
   4   2   7    0.78    2.46   0
  -1   7   8    1.99    1.79   0
   2   5   7  194.60    4.12   0
   3   4   2   24.39    2.55   0
   3   4   6   25.48    2.38   0
   2   5   2   10.73    2.33   0
   3   4   3  107.83    3.81   0
   3   4   5   46.60    3.36   0
   1   6   3   14.11    2.57   0
   1   6   6   12.47    2.37   0
   2   5   6  338.71    5.94   0
   3   4   4   45.41    2.88   0
   4   2   3  366.72    5.59   0
   4   2   6    1.46    1.86   0
   0   6   9   51.16    2.20   0
   1   6   5    0.90    1.90   0
   2   3  11   36.92    2.16   0
   2   5   3    4.22    2.16   0
   2   5   5  234.74    5.26   0
   4   2   4   18.70    2.21   0
   4   2   5   20.41    2.60   0
  -1   7   3   18.16    2.69   0
  -1   7   7   39.13    2.36   0
   0   6   1  355.77    6.19   0
   2   5   4   71.02    3.56   0
   3   3   8   61.02    2.94   0
  -1   7   4   75.03    3.74   0
  -1   7   6   21.57    2.71   0
   1   5   9    7.60    2.20   0
  -1   7   5   68.40    3.42   0
   0   6   2  392.80    6.45   0
   0   6   8   12.74    2.14   0
   3   3   7    7.82    2.25   0
   4   1   5   52.44    2.67   0
  -2   7   8   21.94    2.28   0
   2   4   8   25.09    2.49   0
   3   2   9   15.98    2.71   0
   3   3   3   87.01    3.12   0
   1   5   8   -1.15    2.13   0
   0   6   3  435.42    6.95   0
   0   6   7   23.46    2.47   0
  -3   7   9   77.51    2.61   0
  -2   7   7   67.28    3.15   0
   0   6   4  128.03    4.15   0
   1   3  12   28.55    2.18   0
   2   4   3  197.02    4.83   0
   2   4   7   14.60    2.29   0
  -2   7   5    0.95    2.00   0
   1   5   7   59.05    3.25   0
   2   4   4   71.97    3.52   0
   2   4   6   45.32    3.02   0
   3   2   8   16.50    2.18   0
   0   4  12   17.11    2.07   0
   0   5  10   45.01    2.52   0
   1   2  13  303.14    3.60   0
   1   4  10   15.63    2.07   0
   1   5   4   93.34    3.69   0
   1   5   6   85.42    3.72   0
   2   2  11   44.00    2.75   0
   2   4   5   32.39    2.76   0
   1   5   5   43.71    3.02   0
   2   3   9   12.89    2.75   0
   3   1   9   16.88    2.67   0
   3   2   7    8.02    2.31   0
   3   2   6  124.71    4.16   0
  -1   6   3   44.19    3.44   0
   3   2   5    2.72    1.70   0
  -1   4  13  104.62    2.77   0
   0   3  13    2.15    1.97   0
   0   5   9   14.22    2.18   0
   1   4   9    5.80    2.20   0
  -2   6  10    4.10    1.85   0
  -1   5  11    2.13    1.95   0
  -1   6   4   19.78    2.78   0
  -1   6   7   37.25    3.20   0
   3   1   8  255.40    5.15   0
  -3   6  11   28.57    2.28   0
  -1   6   5   -0.61    2.85   0
  -1   6   6   28.86    3.25   0
   2   2  10   11.32    2.27   0
   0   4  11   75.01    3.13   0
   0   5   8    3.71    2.23   0
   1   4   8    1.58    2.21   0
   3   1   7  548.33    7.12   0
  -2   5  12   32.01    2.48   0
  -2   6   9   50.47    3.30   0
   2   1  11    1.03    2.09   0
   2   3   5   18.20    2.34   0
   2   3   6   11.33    2.13   0
   0   5   4  162.90    4.76   0
   0   5   7  187.58    4.98   0
   1   2  12   10.55    2.11   0
   1   4   7    6.60    2.39   0
  -1   5  10   35.48    2.79   0
   0   5   6    5.24    2.17   0
   1   4   5   10.52    2.21   0
   1   4   6  131.83    4.32   0
   2   2   9   23.98    2.63   0
  -2   6   8   30.51    2.80   0
   0   4  10    5.31    2.74   0
  -4   6  11    6.51    2.04   0
  -3   6  10   55.71    2.70   0
  -1   4  12   43.01    2.73   0
   2   2   8   32.61    3.07   0
  -2   6   6  564.45    8.88   0
  -2   6   7  127.04    4.37   0
  -1   5   9  273.36    6.62   0
   2   1  10  241.30    5.29   0
  -2   5  11   10.51    2.21   0
   1   2  11   46.81    3.36   0
   1   3   9  225.72    5.40   0
   2   2   7   15.71    2.23   0
  -3   6   9   36.94    3.13   0
  -2   4  13    2.27    1.80   0
   0   1  14  111.60    2.86   0
   0   2  13   57.11    2.65   0
   0   4   9    4.65    2.56   0
  -1   5   8  230.30    5.91   0
   1   1  12    2.54    2.38   0
   1   3   8  294.63    6.29   0
  -4   6  10    1.41    1.89   0
  -1   3  13  100.22    3.40   0
  -1   4  11   64.46    3.56   0
   0   3  11   25.79    3.08   0
   2   1   9    2.47    2.02   0
  -3   6   8    7.58    2.37   0
  -2   5  10   33.42    3.06   0
  -1   5   5   17.71    2.71   0
  -1   5   6    1.09    2.63   0
   0   4   8    9.92    2.39   0
   1   3   7  247.75    5.87   0
  -3   6   6   16.39    2.91   0
  -3   6   7    5.47    2.41   0
  -2   3  14   45.06    2.45   0
  -1   2  14    0.92    1.73   0
   0   4   7  152.55    4.83   0
   1   2  10  117.07    3.98   0
  -4   6   9    8.21    2.57   0
   0   4   6  606.56    8.62   0
  -4   4  14    0.56    1.74   0
  -2   4  12   21.01    2.90   0
  -1   4  10    2.76    2.54   0
   0   2  12   32.53    3.09   0
  -4   5  12   61.66    2.71   0
   1   2   9   52.73    3.32   0
  -4   6   8   16.32    2.42   0
  -3   4  13    5.70    1.94   0
  -2   5   8   -0.93    2.06   0
  -1   0  15    7.28    1.87   0
  -1   4   9   26.63    2.88   0
   1   2   8  270.43    5.13   0
  -6   5  12   17.16    1.95   0
  -5   5  12  139.06    3.47   0
  -3   5  10   37.71    3.05   0
  -2   3  13    0.73    2.53   0
  -2   4  11   10.04    2.23   0
  -2   5   7   53.31    3.34   0
  -4   5  11   13.39    2.72   0
  -3   3  14   44.62    2.37   0
  -2   5   6  117.35    4.19   0
  -1   1  14   39.49    2.84   0
  -1   4   8  116.75    4.53   0
  -1   3  11   59.97    3.37   0
   0   3   8   35.93    3.00   0
  -4   4  13    1.89    1.79   0
  -3   4  12   -0.20    1.99   0
  -3   5   9   36.46    3.13   0
  -2   1  15   17.27    1.81   0
  -2   2  14   56.84    2.89   0
  -1   4   7    9.71    2.06   0
   1   0  11   42.72    2.96   0
   5   2   6    8.56    1.80   0
   5   4  -1   93.63    2.56   0
   5   4   3   20.63    1.50   0
   5   3  -2    1.75    1.40   0
   5   4   0  146.74    2.97   0
   5   4   2   36.05    1.89   0
   4   5  -2   36.09    2.20   0
   5   1   6   55.98    2.00   0
   5   4   1    2.56    1.35   0
   4   2   8    3.50    1.43   0
   4   5   4   91.45    2.21   0
   5   0   5   13.99    1.68   0
   5   3   4    1.32    1.67   0
   4   4  -3    4.07    1.49   0
   5   2   5  149.13    2.89   0
   4   5  -1    0.71    1.81   0
   5   0   4    0.32    1.17   0
   5   1   5   61.36    2.27   0
   5   3   0   67.63    2.45   0
   5   3   3   -0.21    1.45   0
   4   3   7   47.78    1.80   0
   4   5   3    7.94    1.42   0
   5   3   1    8.16    1.58   0
   5   3   2    0.55    1.43   0
   4   5   0   50.53    2.23   0
   4   5   2   49.16    2.38   0
   5   1   4   13.75    1.56   0
   5   2   0   14.46    1.68   0
   3   4   8  176.79    2.47   0
   3   6   4  294.44    3.13   0
   4   4  -2  130.79    3.15   0
   5   1   2  212.49    3.85   0
   5   2   1  106.69    2.94   0
   5   2   2   28.35    1.88   0
   5   2   3   89.64    2.67   0
   3   6  -1  261.92    3.99   0
   4   4   5    5.85    1.46   0
   3   6   3   -0.22    1.76   0
   4   1   7   25.68    1.99   0
   4   2   7    1.18    1.39   0
   3   5   6   -0.27    1.21   0
   3   6   0  245.62    3.78   0
   4   3   6  364.32    4.12   0
   4   4  -1   36.53    1.98   0
   2   7   0   84.57    2.56   0
   2   7   3  155.73    2.57   0
   3   6   1    0.35    1.70   0
   4   4   4    2.12    1.49   0
   2   7   1  260.72    3.67   0
   2   7   2   46.23    2.12   0
   3   5  -2  255.78    4.04   0
   4   4   3    0.87    1.57   0
   4   1   6  109.43    2.71   0
   4   2   6    0.58    1.53   0
   4   4   1    0.85    1.57   0
   4   4   2   71.86    2.62   0
   2   5   8   52.70    1.69   0
   2   6   6    4.59    1.55   0
   3   3   8   55.22    1.98   0
   3   4   7  144.15    2.67   0
   3   5   5    4.90    1.56   0
   2   4   9   57.22    2.00   0
   3   5  -1   94.39    3.10   0
   4   3   0    3.67    1.40   0
   4   3   4  107.44    2.87   0
   4   1   5   56.35    2.10   0
   4   2   5   24.09    1.76   0
   4   3   1   40.80    2.15   0
   4   3   3   33.58    2.27   0
   3   2   8   15.51    1.63   0
   3   5   4   38.72    2.05   0
   4   3   2    3.89    1.52   0
   2   6   5   -1.05    1.77   0
   3   4   6   27.42    1.92   0
   3   5   0  320.66    4.57   0
   2   6  -1   29.92    2.36   0
   3   3   7    7.23    1.55   0
   3   5   2   18.27    1.90   0
   1   7   5    1.10    1.43   0
   2   5   7  209.07    3.15   0
   3   4  -1  164.86    3.33   0
   0   8   4    4.48    1.37   0
   1   5   9    6.22    1.56   0
   2   3   9   13.87    1.86   0
   2   6   4    0.77    1.62   0
   3   4   5   51.02    2.32   0
   1   4  10   12.11    1.41   0
   2   4   8   25.84    2.12   0
   2   6   0   47.45    2.21   0
   3   2   7    7.27    1.48   0
   0   8   1    7.99    1.83   0
   0   8   3   57.67    2.35   0
   1   7   0   66.33    2.80   0
   1   7   4    0.56    1.52   0
   2   6   1   24.57    2.09   0
   2   6   3   53.37    2.23   0
   3   3   6   51.16    2.17   0
   3   4   0   11.73    1.70   0
   3   4   4   42.98    2.19   0
   0   7   7  269.40    3.22   0
   0   8   2    4.38    1.62   0
   1   6   7   53.71    2.02   0
   1   7   3    1.74    1.93   0
   2   5   6  349.59    4.37   0
   3   4   1    1.74    1.40   0
   3   4   3  112.34    3.03   0
   1   7   1    0.36    1.74   0
   1   7   2    5.04    1.73   0
   3   4   2   25.79    1.99   0
   2   5  -1    5.76    1.85   0
  -1   8   6    1.16    1.30   0
   0   5  10   45.70    1.89   0
   2   3   8    6.41    1.79   0
   2   5   5  241.25    3.96   0
   3   3   4   90.73    2.56   0
   1   6   6   13.26    1.92   0
   3   2   5    4.13    1.35   0
   3   3   3   81.48    2.46   0
  -1   6  10   27.77    1.53   0
   0   7   6  256.56    3.87   0
   2   5   0    8.08    1.84   0
   2   5   4   79.90    2.64   0
   1   4   9    5.79    1.59   0
   1   6  -1    0.41    1.87   0
   2   2   8   26.67    1.76   0
   2   5   1   15.62    2.08   0
   2   5   3    2.90    1.83   0
  -1   5  11    4.32    1.39   0
  -1   7   8    2.25    1.53   0
   0   6   8    7.84    1.81   0
   1   6   5    1.19    1.66   0
   2   4   6   47.88    2.27   0
   2   5   2   12.07    1.85   0
   2   3   7   73.90    2.53   0
   0   7   5   68.48    2.60   0
   1   5   7   67.51    2.47   0
   1   6   0  242.90    4.14   0
   1   6   4   94.62    2.84   0
   5   0  -8  117.26    3.80   0
   2   2  -5    7.22    0.83   0
   3   2  -8  613.24    6.81   0
   4   1  -7    8.98    1.32   0
   5  -1  -5    2.88    1.07   0
   3   1  -4  631.35    5.12   0
   3   2  -7  119.78    2.98   0
   4   0  -4  165.01    2.79   0
   5   0  -7  182.65    4.16   0
   6  -2  -6  335.82    5.17   0
   0   3  -5   23.99    0.92   0
   6  -1  -8    0.96    1.96   0
   1   3  -6  677.60    5.20   0
   4   1  -6  239.13    4.07   0
   2   0  -1  362.89    2.15   0
   3  -1  -1    2.86    0.35   0
   5  -2  -3  391.20    3.78   0
   1   2  -3  441.53    2.96   0
   3   0  -2  547.24    3.57   0
   3   2  -6  134.29    3.01   0
   5  -1  -4  137.47    2.78   0
   6  -1  -7   70.26    2.97   0
   2   2  -4  350.94    3.69   0
   2   3  -7  142.64    3.19   0
   5   1  -9    1.55    1.98   0
   6  -2  -5    6.75    1.61   0
   2   1  -2   38.57    0.95   0
   4  -1  -2  201.86    2.50   0
   4   1  -5  587.74    5.90   0
   4   2  -9  492.28    7.40   0
  -1   3  -4  518.09    2.61   0
   1   3  -5  429.39    3.95   0
   4   2  -8  124.69    3.63   0
   5   1  -8   52.13    2.71   0
   6  -1  -6   84.21    3.26   0
   3   1  -3  112.55    2.02   0
   3   2  -5  666.13    5.85   0
   3   3 -10  126.44    4.23   0
   0   3  -4  387.61    2.90   0
   2   3  -6  210.94    3.54   0
   5   1  -7   11.45    2.03   0
   0   2  -2  144.24    1.30   0
   4   2  -7   -1.11    1.48   0
   1   1  -1  402.85    2.09   0
   3   3  -8   67.00    2.75   0
   5  -1  -3    6.41    1.18   0
   1   4  -8  312.45    4.47   0
   2   2  -3  645.00    4.46   0
   4   1  -4    8.92    1.04   0
   6  -1  -5  128.12    3.24   0
   6   0  -7   36.59    2.55   0
   1   3  -4    1.08    0.68   0
   4   2  -6  158.74    3.72   0
   5  -2  -2  176.51    2.50   0
   5   0  -4   18.69    1.64   0
   5   1  -6  128.65    3.62   0
   3   2  -4   21.22    1.27   0
   1   2  -2  986.72    4.15   0
   1   4  -7  288.50    3.88   0
   6   0  -6  275.09    5.30   0
   2   4  -8   29.32    2.33   0
   3   1  -2    5.78    0.65   0
   3   3  -6   11.12    1.44   0
   4   0  -2   32.79    1.20   0
   5   1  -5   47.81    2.43   0
   4  -1  -1  681.23    4.15   0
   4   2  -5  215.60    4.01   0
   6  -1  -4   46.37    2.41   0
   0   3  -3  451.96    3.00   0
   1   4  -6  165.17    2.95   0
   2   1  -1  911.06    4.01   0
   2   3  -4   31.63    1.47   0
   4   1  -3  555.13    5.19   0
   2   4  -7  112.71    3.00   0
   5  -1  -2    3.39    1.01   0
   5   0  -3    1.47    1.00   0
   6   0  -5   30.70    2.24   0
   2   2  -2   92.37    1.60   0
   3  -1   0   50.72    0.88   0
   3   2  -3    8.13    0.92   0
   3   3  -5    0.54    0.98   0
   0   4  -5   10.93    0.78   0
   2   0   0    4.29    0.31   0
   4   3  -7   31.74    2.50   0
  -1   3  -3   87.74    1.02   0
   1   4  -5  491.89    4.72   0
   2   4  -6    0.83    1.53   0
   4   2  -4  177.60    3.63   0
   5   2  -6  428.01    6.31   0
   3   4  -8   78.41    3.24   0
   4   3  -6  390.67    6.31   0
   2   3  -3  466.16    4.26   0
   3   3  -4    0.20    0.95   0
   3   4  -7   23.37    2.35   0
   4   1  -2  192.01    2.91   0
   6   0  -4   87.27    2.89   0
   1   2  -1  478.86    2.93   0
   3   1  -1 1165.06    5.58   0
   4   0  -1  186.46    2.48   0
   5   2  -5  177.55    4.54   0
   2   4  -5  510.44    5.95   0
   3   2  -2   14.06    1.00   0
   1   4  -4   89.16    2.11   0
   3   0   0    3.10    0.52   0
   3   4  -6 1070.38   10.21   0
   4   2  -3   24.35    1.53   0
   4   3  -5   21.95    2.06   0
   6   1  -5  141.54    3.89   0
   0   3  -2  236.91    2.15   0
   1   1   0  385.12    2.14   0
   2   2  -1    3.41    0.54   0
   5  -1  -1  303.35    3.26   0
   2   1   0 2152.09    6.34   0
   3   3  -3  297.49    4.30   0
   5   2  -4   22.53    2.14   0
   6   0  -3    5.90    1.61   0
   2   3  -2  166.84    2.66   0
   2   4  -4  135.69    2.99   0
   2   5  -7    1.14    2.22   0
   4   3  -4  385.73    5.96   0
   6   1  -4  186.47    4.39   0
   1   4  -3   69.26    1.75   0
   3   2  -1   19.70    1.09   0
   4   2  -2  161.42    3.31   0
   5   1  -2  671.41    7.12   0
   3   1   0   53.09    1.31   0
   4   0   0  184.38    2.43   0
   5   0  -1   25.46    1.55   0
   1   5  -5   61.56    2.33   0
   5   2  -3    1.15    1.56   0
   1   3  -1  116.15    1.83   0
   3   3  -2  862.07    7.05   0
   4   3  -3  353.79    6.00   0
   6   0  -2  413.39    5.58   0
   6   1  -3   60.30    3.17   0
  -1   3  -2   60.57    0.91   0
   1   2   0   44.42    1.01   0
   2   2   0  547.53    3.88   0
   2   3  -1  158.62    2.58   0
   2   5  -5    3.23    1.69   0
   3  -1   1   11.80    0.56   0
   0   3  -1   63.75    1.22   0
   1   4  -2    3.78    0.92   0
   5  -1   0    2.45    0.93   0
   1   5  -4    0.91    1.16   0
   3   0   1  165.47    1.94   0
   3   4  -3  260.96    4.74   0
   4   1   0  810.19    6.00   0
   4   2  -1   91.57    2.64   0
   0   4  -2  867.66    5.26   0
   0   2   0    0.61    0.25   0
   2   1   1  260.17    2.38   0
   2   5  -4  178.21    4.10   0
   3   2   0   11.84    0.98   0
   3   3  -1  216.44    3.70   0
   4   3  -2   40.85    2.25   0
   4  -1   1   65.28    1.41   0
   5   0   0   90.16    2.37   0
   6   1  -2    2.72    1.87   0
   6   0  -1   84.31    2.79   0
   1   3   0   30.07    1.10   0
   4   0   1   43.87    1.41   0
   2   3   0  487.88    4.52   0
   3   4  -2   84.99    2.99   0
   0   5  -3  205.36    3.14   0
   2   2   1   57.73    1.45   0
   2   5  -3  770.84    8.02   0
   4   2   0  770.24    6.64   0
   5   2  -1  122.02    4.12   0
   2   4  -1  151.57    3.30   0
   4   3  -1   17.52    1.92   0
   5   1   0   11.32    1.51   0
   0   4  -1   81.63    1.78   0
   3   3   0  181.85    3.44   0
   4   1   1   21.13    1.42   0
  -1   4  -2   13.10    0.69   0
   3   2   1   52.90    1.67   0
   6   1  -1   11.36    2.21   0
   3   4  -1  176.88    4.15   0
  -1   3  -1   70.79    1.07   0
   2   5  -2    1.68    1.64   0
   5   0   1   -0.24    1.30   0
   2   1   2  241.55    2.67   0
   3   0   2  868.68    5.10   0
   1   3   1   63.08    1.58   0
   2   0   2  292.58    2.32   0
   4   3   0    6.66    1.90   0
   5   2   0   16.79    2.03   0
   0   2   1  169.40    1.80   0
   0   4   0  164.87    2.68   0
   1   5  -1  419.55    5.18   0
   3  -1   2    1.63    0.48   0
   3   3   1    2.59    1.33   0
   4   0   2   19.13    1.18   0
   5   1   1   64.59    2.47   0
   1   6  -3   17.63    2.57   0
   2   2   2   96.62    2.06   0
   2   5  -1    6.44    2.01   0
   3   4   0   12.67    2.06   0
   4  -1   2    3.70    0.76   0
  -1   4  -1 1333.66    6.10   0
   0   3   1 1403.68    6.65   0
   1   1   2   24.22    0.78   0
   1   2   2  314.77    3.11   0
   3   2   2  150.17    3.06   0
   4   1   2   -0.03    1.08   0
   1   4   1  111.48    2.78   0
   2   3   2   50.21    1.99   0
   2   4   1  533.53    6.44   0
   4   3   1   40.07    2.53   0
   5   2   1  119.90    3.87   0
  -1   3   0    0.10    0.39   0
   1   3   2  356.03    3.97   0
   1   5   0  352.91    5.13   0
   1   6  -2    0.44    1.86   0
   5   0   2   79.02    2.57   0
   0   4   1   30.43    1.36   0
   0   5   0  288.66    4.44   0
   1   0   2   55.00    0.90   0
   2   1   3    0.29    0.59   0
   3   1   3  111.16    2.38   0
   3   3   2  243.46    4.42   0
   3   4   1    4.00    1.65   0
   5   1   2  238.87    4.81   0
  -1   4   0  127.87    2.25   0
   2   2   3   58.99    1.83   0
  -1   5  -1   61.00    1.78   0
   0   2   2  656.06    3.97   0
   1   6  -1    1.82    2.37   0
   0   3   2  451.77    4.12   0
   1   2   3  733.00    5.43   0
   1   4   2    8.95    1.37   0
   2   0   3   17.49    0.83   0
   2   4   2  536.49    6.76   0
   4   1   3  146.05    3.32   0
   0   6  -1   16.65    2.17   0
   1   5   1   32.12    2.08   0
   1   1   3  498.26    3.67   0
   2   3   3   33.97    1.84   0
   2   5   1   16.13    2.05   0
   0   5   1  258.99    4.71   0
   1   3   3  233.25    3.70   0
   3  -1   3    1.66    0.67   0
   4   2   3  333.64    5.61   0
  -1   3   1   -0.44    0.43   0
  -1   5   0   32.48    1.53   0
   1   6   0  231.33    5.36   0
   0   1   2   22.53    0.71   0
   5   1   3   20.67    2.45   0
   0   6   0  146.77    3.89   0
   2   2   4  256.64    4.31   0
   3   1   4    8.13    1.26   0
   0   3   3    4.39    0.84   0
   1   4   3   12.44    1.47   0
   2   4   3  205.69    4.57   0
   3   0   4   16.74    1.31   0
   3   2   4    5.44    1.55   0
   4   1   4    4.32    1.86   0
  -1   5   1    3.27    1.19   0
   0   5   2    3.87    1.40   0
   1   2   4  574.85    5.40   0
   2   3   4   13.53    1.75   0
   4   0   4  563.00    6.20   0
   0   4   3   33.86    1.80   0
   1   3   4   79.87    2.56   0
  -1   4   2    1.37    0.73   0
   0   6   1  357.85    5.78   0
   1   1   4  507.95    4.25   0
   4   2   4   20.40    2.23   0
   1   4   4   84.22    3.15   0
   0   1   3 3932.83   10.13   0
   0   3   4    0.59    0.90   0
   0   5   3   34.65    2.45   0
   3   1   5    0.59    1.44   0
  -1   5   2  102.38    3.00   0
   0   2   4   94.98    2.22   0
   2   1   5  147.86    3.08   0
   3  -1   4  151.95    2.57   0
   3   2   5    3.26    1.89   0
  -1   6   1   21.09    2.03   0
   0   6   2  361.73    6.49   0
   1   2   5   39.26    1.78   0
  -1   2   2   23.97    0.81   0
  -1   3   3    8.83    0.88   0
  -1   4   3  517.28    5.54   0
   1   3   5    1.40    1.28   0
   3   0   5    0.89    1.01   0
   4   1   5   58.90    2.90   0
   1   1   5  371.48    4.55   0
   2   0   5   19.05    1.38   0
  -2   4   0    3.24    0.66   0
  -1   5   3  191.81    4.14   0
  -1   6   2   23.52    2.54   0
   1   4   5    9.56    1.96   0
   0   1   4   35.50    1.22   0
   0   3   5   32.00    1.99   0
  -1   2   3  584.20    4.24   0
   0   2   5   78.39    2.49   0
   3   1   6   47.05    2.83   0
  -2   4   1   11.68    0.95   0
  -2   5   1  427.75    4.60   0
  -1   3   4    1.12    0.79   0
   1   2   6    3.38    1.32   0
   2  -1   4 1213.94    6.17   0
   2   1   6  260.11    4.66   0
   2   3   6    9.98    2.26   0
   3   2   6  122.22    4.05   0
   1   3   6   14.13    2.03   0
  -1   5   4  116.47    3.46   0
  -1   6   3   46.31    2.91   0
   3  -1   5  314.73    4.10   0
   3   0   6   23.69    2.22   0
  -2   4   2   10.07    0.92   0
  -2   5   2  303.76    4.26   0
   0   3   6  490.94    6.74   0
   1   0   5  162.49    2.85   0
   2   0   6  111.76    3.21   0
  -1   3   5   70.52    2.41   0
   0   2   6  280.89    4.88   0
   0   4   6  639.23    9.00   0
  -2   4   3    2.70    1.03   0
  -2   5   3  226.07    4.67   0
   2   2   7   13.15    2.54   0
  -1   5   5   16.02    2.56   0
  -1   6   4   17.46    2.95   0
   1   2   7   -0.15    1.62   0
   1   3   7  259.05    6.09   0
   2   1   7  131.33    4.05   0
   3   1   7  554.81    8.81   0
  -2   3   1    3.26    0.48   0
   2  -1   5  365.98    4.43   0
  -2   3   2   49.03    1.47   0
  -2   4   4  444.84    5.65   0
  -2   5   4    1.86    1.64   0
  -1   3   6  160.81    4.11   0
  -1   4   6   26.80    2.40   0
   0   3   7    3.04    1.76   0
   1   1   7  556.78    7.52   0
   0   1   6 1966.27   11.68   0
   0   2   7   27.70    2.14   0
   0   4   7  162.16    5.24   0
   1   0   6   96.80    2.76   0
  -1   1   2    3.54    0.43   0
  -1   5   6   -0.07    2.24   0
   2   0   7  125.66    3.98   0
  -2   4   5    7.96    1.55   0
  -2   5   5    6.89    2.14   0
  -1   2   6    5.28    1.25   0
   2   1   8   25.16    2.98   0
  -1   1   4  471.13    4.65   0
  -1   3   7   65.30    3.12   0
  -1   4   7   11.44    2.44   0
   2  -1   6  324.39    4.71   0
   0   1   7  208.05    4.60   0
   0   3   8   43.76    3.19   0
   1  -1   4   59.42    1.72   0
   1   1   8  123.34    4.49   0
  -2   6   5   58.75    4.26   0
   0   0   5  763.57    6.39   0
   0   2   8    9.79    2.12   0
   1   0   7 1178.57   10.38   0
  -1   1   5   46.60    1.78   0
  -1   2   7  655.82    8.54   0
   2   0   8    6.95    2.61   0
  -2   3   6  837.15    9.30   0
  -1   3   8   65.38    3.93   0
  -1   4   8  118.34    5.53   0
   1  -1   5   33.39    1.71   0
  -9   0   5   13.22    1.85   0
  -8   0   8   82.53    2.97   0
  -8   3   9   37.01    1.93   0
  -7   0   9    2.11    1.69   0
  -6  -2   7  134.38    3.36   0
  -8   2   9   71.95    2.35   0
  -7   3   9  289.79    4.01   0
  -5   0   9  218.82    3.76   0
  -9   2   8   57.61    2.08   0
  -6   0   9  223.79    3.87   0
  -6   2   9    5.69    1.62   0
  -9   1   7   19.91    1.83   0
  -8   4   8    1.03    1.68   0
  -7   1   9    9.46    1.63   0
  -7   4   8   20.36    1.96   0
  -6   1   9  119.48    3.39   0
  -5  -2   7  176.35    3.56   0
 -10   3   6   86.58    2.21   0
  -7  -1   7    2.25    1.89   0
  -6  -2   6   31.07    2.35   0
  -5  -1   8   51.90    2.06   0
  -8   1   8   40.16    2.27   0
  -9   1   6    2.09    1.68   0
  -9   4   7   21.21    1.71   0
  -8   2   8    7.57    2.03   0
  -8   3   8   86.38    2.66   0
  -6  -2   5   68.31    3.02   0
  -6   3   8  146.24    3.00   0
  -9   3   7    4.55    1.79   0
  -7  -1   6    8.19    2.32   0
  -7   3   8    3.82    1.89   0
  -6  -1   7   49.83    2.45   0
  -6   0   8   39.45    2.09   0
 -10   3   5   68.35    2.00   0
  -9   5   6   19.70    1.68   0
  -8   0   6   16.99    2.49   0
  -7   1   8    2.94    1.70   0
  -8   1   7  137.69    3.65   0
  -7   2   8    2.00    1.65   0
  -6   1   8    1.84    1.32   0
  -6   2   8   74.93    2.38   0
  -8   4   7   16.59    1.87   0
  -7   0   7  248.07    4.48   0
 -10   5   4    4.91    1.48   0
  -9   2   6   45.59    2.31   0
  -5  -2   5  164.10    3.51   0
 -10   3   4    7.70    1.52   0
  -8   0   5    3.03    1.76   0
  -8   2   7   63.50    2.52   0
  -6  -1   6  205.92    4.05   0
 -10   4   4   -1.95    1.66   0
  -9   1   4    5.62    1.60   0
  -9   3   6   24.58    1.98   0
  -6   0   7   45.23    2.15   0
  -7  -1   4    3.82    2.36   0
  -7   1   7   -1.39    1.58   0
  -6   3   7   46.25    1.96   0
 -10   3   3   10.82    1.50   0
  -9   1   3    5.56    1.89   0
  -9   2   5    0.79    2.07   0
  -9   5   5    1.71    1.51   0
  -8   0   4    5.65    2.32   0
  -7   2   7  133.03    3.41   0
  -7   3   7  119.27    2.96   0
 -10   5   3   57.34    2.06   0
  -6   1   7   70.82    2.46   0
 -10   3   2    5.70    1.46   0
 -10   4   3   77.31    2.33   0
  -9   1   2   18.94    2.18   0
  -8   4   6  107.39    2.86   0
  -7  -1   3    0.30    2.37   0
  -9   1   1   24.39    2.15   0
  -9   3   5   85.37    2.61   0
  -8   0   3   37.87    2.66   0
  -8   2   6  172.81    3.71   0
  -7   4   6   11.24    1.94   0
  -6   0   6  267.37    4.40   0
  -9   2   4    0.90    1.69   0
  -8   1   5  127.58    3.42   0
  -8   3   6   31.32    2.13   0
  -8   5   5   -0.34    1.56   0
  -7   0   5   37.56    2.40   0
  -7   1   6    1.24    1.93   0
 -10   4   2  103.38    2.60   0
  -9   6   3    8.33    1.78   0
  -8   0   2    3.63    2.23   0
  -9   5   4    0.03    1.66   0
  -8   0   1    1.02    1.95   0
  -6  -1   4  156.53    3.74   0
  -9   3   4   68.57    2.83   0
  -7   2   6  290.48    4.58   0
  -7   3   6  382.96    4.94   0
  -6   1   6   92.38    2.67   0
  -9   2   3   26.05    2.26   0
  -8   1   4   87.73    3.31   0
  -8   2   5    1.28    1.62   0
  -8   4   5    9.53    2.11   0
  -7   0   4   15.50    2.47   0
 -10   4   0   73.76    2.15   0
  -8   3   5  122.91    3.68   0
 -10   5   0   26.41    1.81   0
  -9   2   2   32.97    2.64   0
  -7   1   5   23.32    2.06   0
  -6  -1   3   59.71    2.91   0
  -9   5   3    5.53    1.74   0
  -9   6   2    0.47    1.75   0
  -8   5   4    0.73    1.61   0
  -7   4   5  164.92    3.42   0
  -9   2  -2    3.29    1.79   0
  -8   2   4   21.22    2.43   0
  -7   0   3   40.24    3.17   0
  -9   2   0   11.08    2.17   0
  -9   4   3    1.99    1.59   0
  -7   2   5  130.64    3.39   0
  -6  -1   2    3.43    2.27   0
  -9   2  -1  112.40    2.81   0
  -8   1   2    1.41    2.38   0
  -8   4   4   89.58    2.79   0
  -6   0   4   81.92    2.87   0
  -9   3   2   55.52    2.55   0
  -8   3   4    6.51    1.86   0
  -7   1   4  313.39    5.14   0
  -9   5   2   49.27    2.28   0
  -9   6   1   22.09    1.90   0
  -9   7  -1    0.26    1.55   0
  -7   0   2   57.31    2.91   0
  -9   3   1   18.10    2.18   0
  -9   4   2    9.23    1.78   0
  -8   1   1   26.18    2.32   0
  -8   2   3    5.35    1.86   0
  -8   5   3   71.07    2.50   0
  -8   6   2    5.52    1.91   0
  -8   1   0   21.71    2.70   0
  -7   0   1    4.31    2.21   0
  -7   2   4    9.57    1.69   0
  -7   4   4   91.12    2.75   0
  -9   3   0    3.11    2.33   0
  -8   1  -2    6.22    2.15   0
  -8   1  -1   54.76    3.25   0
  -8   3   3    6.51    1.76   0
  -7   1   3  262.02    4.80   0
  -7   3   4    2.40    1.92   0
  -9   3  -3   15.50    2.03   0
  -9   4   1   23.26    2.13   0
  -9   6   0   24.01    1.92   0
  -8   2   2  398.36    5.99   0
  -7   0   0    5.08    2.44   0
  -9   3  -1  100.15    2.90   0
  -7   0  -1   68.99    3.33   0
  -7   5   3    4.32    1.62   0
  -9   4   0   24.70    1.90   0
  -9   5   0   56.56    2.48   0
  -9   6  -1  116.84    2.66   0
  -8   2   1   46.96    3.24   0
  -8   5   2  163.74    3.65   0
  -8   6   1    8.67    2.17   0
  -7   2   3  100.28    3.12   0
  -9   4  -1    1.50    2.08   0
  -8   2  -5   15.76    2.05   0
  -8   3   2   98.80    3.50   0
  -8   4   2   78.57    3.36   0
  -7   4   3  199.62    4.02   0
  -9   4  -4    4.03    1.54   0
  -9   5  -1  158.53    3.78   0
  -9   6  -2    7.29    1.89   0
  -7   3   3   96.44    2.95   0
  -9   4  -3   -0.05    1.69   0
  -9   4  -2   18.59    2.04   0
  -9   5  -4   21.78    1.93   0
  -9   5  -2    4.96    1.71   0
  -8   2  -4   44.33    2.57   0
  -8   3   1   94.79    3.39   0
  -8   5   1   73.29    3.08   0
  -7   1   1   61.17    2.86   0
  -7   5   2    4.26    1.83   0
  -6   0   1   69.97    2.92   0
  -9   5  -3   -0.48    1.65   0
  -8   6   0   95.23    2.80   0
  -7   2   2  390.82    6.08   0
  -8   2  -3   -0.15    1.86   0
  -8   2  -2    8.81    2.10   0
  -8   4   1    9.89    2.03   0
  -7   1   0    1.38    2.28   0
  -8   3   0    1.49    1.89   0
  -7   3   2    0.26    1.76   0
  -7   4   2   35.72    2.52   0
  -6   0   0  320.74    5.50   0
  -8   3  -6    3.29    1.85   0
  -8   4   0    4.69    1.90   0
  -8   5   0   41.91    2.40   0
  -8   6  -1   17.48    1.91   0
  -8   7  -3  118.39    3.03   0
  -7   1  -1  318.88    5.77   0
  -7   2   1   83.97    3.03   0
  -8   3  -1   20.60    2.24   0
  -7   1  -4   23.72    2.46   0
  -7   1  -3    5.67    2.45   0
  -7   1  -2   30.65    2.43   0
  -7   5   1   10.46    2.20   0
  -8   3  -5   36.04    2.26   0
  -8   3  -2   24.52    2.40   0
  -8   7  -4   27.34    2.10   0
  -7   6   0    6.16    1.81   0
  -8   3  -3   32.13    2.34   0
  -8   4  -1    5.31    1.92   0
  -8   6  -2   23.08    2.34   0
  -8   7  -5   -0.01    1.52   0
  -7   2   0  241.91    5.00   0
  -7   3   1    5.38    1.83   0
  -7   2  -7    0.42    1.94   0
  -8   4  -6    1.77    1.93   0
  -8   4  -2   79.72    2.92   0
  -8   6  -7    3.27    1.65   0
  -8   5  -7    8.06    1.59   0
  -8   5  -2   14.53    2.12   0
  -8   6  -3   54.65    2.43   0
  -8   4  -5   41.88    2.41   0
  -8   4  -4  121.78    3.43   0
  -8   4  -3  215.91    4.54   0
  -8   6  -6   35.59    2.24   0
  -7   3   0  127.16    3.56   0
  -7   5   0    8.27    1.77   0
  -7   6  -1    6.90    1.80   0
  -8   5  -6   88.61    2.62   0
  -8   5  -3    2.17    1.77   0
  -7   2  -6   12.79    2.16   0
  -7   4   0    3.63    1.61   0
  -7   7  -3    0.48    1.97   0
  -8   5  -5    8.26    1.95   0
  -8   5  -4   45.96    2.32   0
  -7   2  -5    1.00    2.28   0
  -7   3  -8    6.97    2.02   0
  -7   2  -4   50.05    2.98   0
  -7   2  -3   33.37    2.43   0
  -7   3  -1  175.53    4.38   0
  -6   1  -1   -0.62    1.68   0
  -7   5  -1    0.13    1.62   0
  -7   6  -2   15.13    2.20   0
  -7   7  -4    6.07    2.15   0
  -7   4  -1  193.81    4.13   0
  -7   7  -8  107.13    2.46   0
  -6   1  -2   23.65    2.74   0
  -7   3  -7  156.67    3.78   0
  -7   3  -2   16.08    2.06   0
  -7   7  -5    4.07    1.98   0
  -6   1  -6   45.97    3.04   0
  -6   2  -9   37.43    2.14   0
  -7   5  -9   66.78    2.27   0
  -7   6  -9   40.46    1.79   0
  -7   7  -7    0.34    1.60   0
  -7   7  -6   -2.64    2.02   0
  -6   1  -5    0.15    2.46   0
  -6   1  -3    8.33    2.05   0
  -7   3  -3    8.52    1.95   0
  -7   4  -8    1.13    2.10   0
  -7   4  -2  161.56    3.96   0
  -7   6  -3    4.50    1.75   0
  -6   1  -4   29.66    2.56   0
  -7   3  -5  106.18    3.51   0
  -7   3  -4   15.31    2.24   0
  -6   3 -10    0.64    1.77   0
  -7   4  -3    7.77    1.91   0
  -7   6  -8   -0.39    1.50   0
  -7   6  -4   65.78    2.94   0
  -7   4  -7   28.61    2.25   0
  -7   5  -8    1.74    1.69   0
  -7   6  -7   83.91    2.86   0
  -7   6  -5   43.19    2.77   0
  -6   2  -8    2.28    1.92   0
  -6   6  -2    0.48    1.58   0
  -7   4  -6   24.50    2.39   0
  -7   4  -5   31.86    2.37   0
  -7   4  -4    3.21    2.03   0
  -7   5  -7   10.73    2.07   0
  -7   5  -4   18.73    2.23   0
  -6   2  -2   56.75    2.69   0
  -7   5  -6   23.30    2.19   0
  -7   5  -5    0.46    1.78   0
  -6   2  -7    0.52    2.23   0
  -6   7  -5   -0.12    1.90   0
  -6   2  -6   -0.52    1.97   0
  -6   2  -4  297.99    5.51   0
  -6   3  -9   29.24    2.18   0
  -6   5  -2  276.51    4.82   0
  -6   6  -3   67.08    2.69   0
  -6   7  -9   53.11    2.14   0
  -6   2  -5  177.60    4.53   0
  -6   7  -6   13.60    2.15   0
  -5   1  -8  109.60    3.76   0
  -6   4  -2    7.51    1.71   0
  -6   6 -10   61.32    2.27   0
  -6   7  -7   37.75    2.24   0
  -6   3  -8   36.61    2.53   0
  -6   3  -3   19.18    2.06   0
  -6   5 -10    2.18    1.53   0
  -6   6  -4    4.52    2.07   0
  -5   2 -10    5.61    1.87   0
  -6   4  -9    1.85    2.18   0
  -6   5  -3  278.90    4.71   0
  -5   1  -7  280.91    5.39   0
  -6   3  -4   96.77    3.30   0
  -6   4  -3    4.55    1.57   0
  -6   6  -9   13.30    1.74   0
  -5   1  -6   91.08    3.59   0
  -5   3 -11   39.82    2.47   0
  -6   3  -6    6.36    1.99   0
  -6   3  -5    9.72    1.71   0
  -6   5  -9   17.07    2.14   0
  -6   6  -5    6.75    1.78   0
  -5   1  -5   38.29    2.47   0
  -5   5 -12   20.17    1.64   0
  -4   2 -12   11.99    1.99   0
  -6   4  -8    5.40    1.91   0
  -6   4  -4   36.83    2.43   0
  -6   6  -6    9.69    1.93   0
  -5   2  -9    7.65    2.32   0
  -5   7 -10   15.46    1.96   0
  -6   4  -7   11.85    1.99   0
  -6   4  -5   27.42    2.16   0
  -6   5  -8   18.72    2.15   0
  -6   5  -5   44.39    2.49   0
  -6   4  -6   18.21    2.06   0
  -6   5  -7   57.37    2.80   0
  -6   5  -6   21.35    2.09   0
  -5   2  -8    8.71    2.37   0
  -5   3 -10   85.14    3.31   0
  -5   4 -11   43.93    2.23   0
  -5   6 -11    1.51    1.43   0
  -5   7  -9  111.12    2.82   0
  -5   7  -8    9.74    2.14   0
  -5   7  -7   77.02    3.08   0
  -5   5 -11   74.58    2.85   0
  -5   6  -4  105.64    3.08   0
  -5   2  -7  155.61    3.96   0
  -5   2  -6   69.83    2.95   0
  -5   2  -5    0.60    1.77   0
  -4   1  -9   70.54    3.26   0
  -4   2 -11   10.46    2.23   0
  -4   5 -13   27.03    1.70   0
  -4   7 -11   29.60    2.05   0
  -5   4 -10   80.46    2.83   0
  -5   6  -5   78.85    2.78   0
  -4   3 -12   42.52    2.54   0
  -5   5 -10  580.09    6.33   0
  -3   2 -13    0.15    1.89   0
  -5   3  -8   34.52    2.53   0
  -5   6  -8   41.31    2.74   0
  -5   6  -7  271.77    4.78   0
  -5   6  -6   48.20    2.43   0
  -4   1  -8    2.03    2.15   0
  -4   6 -12  103.89    2.43   0
  -4   7 -10   10.56    2.02   0
  -5   3  -7    0.55    1.65   0
  -5   3  -5   99.32    3.19   0
  -5   4  -9    0.70    1.69   0
  -5   5  -9   96.55    3.34   0
  -3   4 -14    6.28    1.68   0
  -3   5 -14   87.10    2.21   0
  -3   7 -12   19.24    1.83   0
  -5   3  -6   10.31    1.69   0
  -5   5  -5   61.22    2.56   0
  -4   1  -7   64.69    3.12   0
  -4   2 -10    4.54    1.87   0
  -4   4 -12   13.80    1.76   0
  -4   7  -9   13.09    1.89   0
  -4   7  -8    9.53    2.08   0
  -5   4  -8    4.99    1.77   0
  -5   4  -5   56.87    2.39   0
  -5   5  -8    8.21    1.88   0
  -5   5  -7   13.09    2.21   0
  -4   5 -12   -0.13    1.58   0
  -5   4  -7  167.38    3.87   0
  -5   4  -6  223.18    4.51   0
  -4   2  -9   11.68    2.42   0
  -3   7 -11   17.03    1.93   0
  -2   2 -14   71.72    2.52   0
  -3   2 -12    4.19    2.10   0
  -3   3 -13   16.45    1.80   0
  -4   4 -11   10.88    1.88   0
  -4   5 -11   17.69    1.89   0
  -4   2  -8    7.22    1.61   0
  -4   6  -6   80.20    2.81   0
  -3   1 -10  163.12    4.16   0
  -3   5 -13    3.74    1.72   0
  -3   7 -10   -0.03    1.48   0
  -4   2  -7   79.02    2.84   0
  -4   6  -9   -0.29    1.77   0
  -4   6  -7  265.47    4.81   0
  -3   4 -13   28.01    1.90   0
  -1   2 -15   13.29    1.66   0
  -4   3  -9   29.74    2.21   0
  -4   4 -10   15.71    2.09   0
  -4   5 -10    3.88    1.64   0
  -4   3  -8   81.29    2.79   0
  -4   4  -9   -0.48    1.56   0
  -4   5  -9  193.38    3.98   0
  -3   1  -9    1.03    1.67   0
  -3   2 -11   66.96    2.73   0
  -2   1 -12   16.33    2.17   0
  -2   5 -14   31.55    1.74   0
  -4   3  -7   13.72    1.63   0
  -4   5  -8   45.82    2.23   0
  -4   5  -6   49.03    2.14   0
  -3   5 -12   -0.29    1.37   0
  -3   6 -11  136.71    3.09   0
  -2   2 -13   46.38    2.48   0
  -2   4 -14    0.54    1.76   0
  -2   6 -13    2.12    1.49   0
  -1   5 -15   -0.10    1.33   0
  -4   4  -8   99.63    2.96   0
  -3   4 -12   29.90    2.19   0
  -1   6 -14   84.26    1.93   0
  -4   4  -7  171.98    3.63   0
  -3   1  -8   48.72    2.34   0
  -3   6 -10  239.89    4.27   0
  -3   3 -11  365.49    5.38   0
  -1   4 -15    8.10    1.42   0
  -3   5 -11   43.50    2.15   0
  -3   6  -9  170.98    3.49   0
  -3   6  -7    3.61    1.79   0
  -2   6 -12   35.11    2.26   0
  -3   4 -11   13.49    1.79   0
  -3   6  -8   15.98    1.67   0
  -2   5 -13   89.57    2.56   0
 -10   5   3   55.53    2.01   0
  -6   2   7   12.39    1.62   0
 -10   3   2    5.06    1.52   0
  -9   1   0   -0.33    1.80   0
  -7  -1   3    3.44    1.91   0
 -10   3   1    8.18    1.76   0
  -9   1   1   25.98    2.21   0
  -9   4   5    0.00    1.96   0
  -8   0   3   45.76    2.79   0
  -8   2   6  168.40    3.77   0
  -6   0   6  275.12    4.69   0
  -9   2   4   -0.11    1.61   0
  -8   1   5  129.55    3.60   0
  -8   3   6   30.52    2.25   0
  -7  -1   2   60.47    3.22   0
  -7   0   5   37.89    2.66   0
  -7   1   6    2.04    1.93   0
  -8   0   0    3.41    2.18   0
  -8   0   2    5.73    2.10   0
  -7  -1   1   13.67    2.37   0
 -10   4   2   99.01    2.44   0
 -10   5   2   44.70    1.74   0
  -9   5   4    1.51    1.79   0
  -8   0   1    0.40    1.99   0
  -9   2   3   23.90    2.47   0
  -7   2   6  286.60    4.59   0
  -7   3   6  337.32    4.68   0
  -6   1   6   94.43    2.81   0
 -10   4   1   45.56    1.95   0
  -9   3   4   72.93    2.80   0
  -8   1   4   93.68    3.36   0
  -8   2   5    0.57    2.12   0
  -7   0   4   17.31    2.37   0
 -10   4   0   77.87    2.26   0
  -9   4   4    4.30    1.91   0
  -8   4   5    8.62    2.15   0
  -6  -1   3   64.59    3.04   0
  -9   2   2   34.92    2.50   0
  -8   3   5  132.84    3.47   0
  -7   1   5   22.62    2.25   0
  -9   2  -2    3.94    1.75   0
  -8   1   3    2.85    2.34   0
  -9   2  -1  109.66    3.40   0
  -9   2   1    1.43    1.95   0
  -9   3   3  169.61    3.97   0
  -9   5   3    5.62    2.05   0
  -8   2   4   24.14    2.80   0
  -7   4   5  153.86    3.73   0
  -6  -1   2    2.13    1.98   0
  -9   6   2    2.15    1.85   0
  -8   5   4   -0.73    1.77   0
  -6   0   4   85.05    3.45   0
  -8   1   2    2.29    2.04   0
  -7   0   2   49.68    3.45   0
  -7   1   4  282.76    5.37   0
  -7   3   5   48.34    2.35   0
  -6  -1   1    6.78    2.70   0
  -9   3   2   59.35    2.80   0
  -8   4   4  102.86    3.36   0
  -8   1  -2    5.90    2.56   0
  -8   2   3    2.50    2.43   0
  -7   0   1    4.60    2.76   0
  -6  -1   0    7.45    2.29   0
  -9   3   1   16.84    2.43   0
  -9   4   2   11.24    2.43   0
  -9   5   2   43.87    2.78   0
  -8   1  -1   54.79    3.47   0
  -8   1   0   23.67    2.71   0
  -9   6   1   21.04    2.13   0
  -7   0  -2   65.21    3.05   0
  -7   0  -1   75.96    3.67   0
  -7   0   0    3.18    2.21   0
  -6   0   3    4.97    2.00   0
  -9   3   0    3.50    2.21   0
  -8   5   3   72.97    3.11   0
  -7   1   3  284.30    5.52   0
  -7   2   4   11.98    1.80   0
  -9   3  -2   34.62    2.45   0
  -9   3  -1   98.53    3.25   0
  -9   7  -1   -2.13    1.79   0
  -8   2  -5   18.35    2.19   0
  -8   2   2  402.01    6.94   0
  -8   3   3    7.83    2.23   0
  -7   4   4   79.22    2.98   0
  -9   4   1   27.17    2.31   0
  -9   5   1    5.63    2.26   0
  -8   4   3    9.75    2.11   0
  -7   3   4    3.69    1.58   0
  -7   1   2   66.16    3.08   0
  -6   0   2  413.75    6.44   0
  -9   4   0   20.76    2.26   0
  -9   6   0   25.84    1.99   0
  -9   7  -2    1.37    1.66   0
  -8   2   1   54.00    3.13   0
  -9   4  -4    4.90    1.67   0
  -8   2  -4   41.41    2.85   0
  -8   3   2  108.05    3.69   0
  -7   2   3  121.53    3.86   0
  -9   4  -3    0.57    1.72   0
  -9   4  -1    1.89    1.87   0
  -8   2   0   66.87    3.40   0
  -8   5   2  145.76    4.09   0
  -7   1   1   62.43    3.10   0
  -6   0   1   79.01    3.25   0
  -8   2  -3    0.24    2.06   0
  -8   2  -2   13.79    2.81   0
  -9   5  -1  177.10    3.89   0
  -8   3  -6    3.67    1.94   0
  -8   3   1  102.02    4.04   0
  -8   6   1   10.18    2.28   0
  -7   1   0    1.92    2.46   0
  -7   4   3  197.52    4.06   0
  -6   0   0  308.55    5.99   0
  -9   5  -4   17.59    1.92   0
  -9   5  -3   -2.25    2.07   0
  -9   5  -2    7.85    1.84   0
  -9   6  -4    0.10    1.90   0
  -9   6  -2    5.97    1.82   0
  -7   1  -4   23.85    2.95   0
  -7   2   2  404.40    6.57   0
  -7   1  -1  283.85    5.87   0
  -8   3   0    2.27    1.88   0
  -8   4   1   11.55    2.18   0
  -8   5   1   65.67    2.98   0
  -7   1  -3    6.51    2.26   0
  -7   1  -2   25.70    2.76   0
  -8   3  -5   36.39    2.45   0
  -8   4  -7    3.73    1.97   0
  -7   3   2   -1.43    2.00   0
  -7   5   2    4.98    2.13   0
  -8   3  -1   20.60    2.38   0
  -8   6   0   91.08    3.00   0
  -7   2   1   90.82    3.53   0
  -8   3  -2   22.47    2.58   0
  -8   4   0    5.58    2.09   0
  -7   4   2   43.41    2.47   0
  -8   5   0   41.47    2.77   0
  -7   2  -6   14.23    2.64   0
  -8   7  -2  112.83    3.10   0
  -7   2   0  248.10    5.50   0
  -8   4  -1    5.84    2.08   0
  -8   6  -1   18.42    2.14   0
  -7   3  -8    4.86    1.81   0
  -7   3   1    6.79    1.83   0
  -8   5  -7    8.95    1.81   0
  -8   7  -3  135.38    3.47   0
  -7   2  -5    2.15    2.68   0
  -7   2  -1  110.84    3.91   0
  -7   5   1   13.87    2.19   0
  -8   4  -5   42.85    2.57   0
  -8   4  -4  120.92    3.96   0
  -8   4  -3  211.47    5.14   0
  -8   4  -2   83.62    3.29   0
  -8   6  -7    4.81    1.78   0
  -7   4   1   77.90    3.08   0
  -8   5  -2   15.02    2.59   0
  -8   6  -2   23.27    2.25   0
  -8   7  -4   24.41    2.28   0
  -7   2  -4   54.75    3.31   0
  -7   2  -3   26.15    2.71   0
  -7   3   0  108.83    4.20   0
  -7   6   0    6.23    2.17   0
  -6   1  -1    1.41    1.84   0
  -8   7  -5   -0.07    1.61   0
  -8   5  -5    8.14    1.99   0
  -8   5  -4   44.73    2.88   0
  -8   5  -3    1.93    2.08   0
  -8   6  -6   42.85    2.17   0
  -7   3  -7  162.93    3.98   0
  -6   1  -5    0.51    2.20   0
  -6   1  -2   25.15    2.52   0
  -8   6  -5    1.81    1.64   0
  -7   3  -1  183.49    4.67   0
  -7   5   0    4.81    2.25   0
  -6   1  -4   25.84    2.67   0
  -6   1  -3    9.44    2.41   0
  -6   2  -8   -0.13    2.18   0
  -7   3  -6   98.44    3.76   0
  -7   3  -2   13.41    2.21   0
  -7   4  -8    0.74    2.16   0
  -7   6  -1    7.56    2.25   0
  -7   8  -6    0.79    1.77   0
  -7   3  -3    8.28    2.53   0
  -7   4  -1  159.20    4.62   0
  -7   3  -4   15.76    2.52   0
  -7   5  -1    0.75    2.02   0
  -7   6  -9   37.95    2.17   0
  -7   7  -3    0.71    2.09   0
  -6   2  -7   -0.38    2.20   0
  -7   4  -2  146.25    4.17   0
  -7   6  -2   11.92    2.45   0
  -6   3  -9   25.94    2.58   0
  -7   5  -8    1.66    2.03   0
  -6   2  -6   -0.07    2.30   0
  -6   2  -2   50.23    2.93   0
  -7   4  -6   25.82    2.55   0
  -7   4  -3    7.37    2.17   0
  -7   6  -8   -0.37    1.95   0
  -7   7  -4    7.11    2.07   0
  -6   4 -10    0.95    1.98   0
  -7   4  -5   33.78    2.61   0
  -7   4  -4    5.79    2.07   0
  -7   5  -7    8.90    2.32   0
  -7   6  -3    3.10    1.93   0
  -7   7  -6    1.83    1.99   0
  -7   7  -5    4.16    1.81   0
  -6   2  -5  194.24    4.82   0
  -6   2  -4  293.84    5.77   0
  -5   3 -11   32.24    2.48   0
  -7   5  -3  130.62    4.00   0
  -7   6  -7   85.31    3.21   0
  -6   3  -8   32.68    3.06   0
  -7   5  -6   25.91    2.46   0
  -7   5  -5    0.30    2.16   0
  -7   5  -4   21.08    2.46   0
  -5   1  -6   79.38    3.51   0
  -7   6  -6   68.64    2.81   0
  -6   7 -10    3.77    1.71   0
  -6   8  -8   58.93    2.33   0
  -5   1  -5   37.29    2.80   0
  -5   2  -9    4.31    2.36   0
  -6   4  -9    0.24    2.33   0
  -6   5 -10    0.55    1.61   0
  -6   8  -7   75.71    2.64   0
  -6   8  -6    2.23    1.88   0
  -6   6 -10   60.85    2.53   0
  -6   3  -3   17.04    2.17   0
  -6   6  -2    0.37    1.67   0
  -5   5 -12   18.93    1.98   0
  -6   3  -5    6.78    2.05   0
  -6   3  -4   94.60    3.43   0
  -6   4  -2    6.79    1.68   0
  -6   7  -9   53.34    2.47   0
  -5   2  -8   11.33    2.67   0
  -6   5  -9   18.12    2.12   0
  -6   5  -2  269.78    4.86   0
  -6   7  -4   35.74    2.39   0
  -5   3 -10   85.67    3.27   0
  -6   4  -3    3.35    1.67   0
  -6   6  -9   15.48    2.19   0
  -6   6  -3   68.63    2.87   0
  -5   4 -11   40.81    2.27   0
  -6   4  -7   11.08    2.15   0
  -6   7  -5    0.14    1.73   0
  -5   2  -7  148.16    4.30   0
  -6   4  -6   13.13    2.20   0
  -6   4  -5   20.15    2.30   0
  -6   4  -4   33.93    2.50   0
  -6   5  -8   14.45    2.23   0
  -6   7  -7   43.07    2.42   0
  -6   7  -6   13.03    2.03   0
  -5   7 -11    0.93    1.73   0
  -5   8  -9  153.33    3.10   0
  -6   5  -4   76.03    3.39   0
  -6   6  -8    5.05    1.82   0
  -6   6  -4    5.98    1.81   0
  -5   2  -6   73.57    3.23   0
  -5   2  -5    2.41    1.97   0
  -5   3  -9   42.90    2.76   0
  -6   5  -7   57.75    2.88   0
  -6   5  -6   18.87    2.47   0
  -6   5  -5   41.05    2.77   0
  -6   6  -5    4.06    1.87   0
  -5   5 -11   73.99    2.65   0
  -5   8  -8  119.84    3.21   0
  -5   8  -7    4.06    1.94   0
  -4   2 -10    4.70    2.41   0
  -4   5 -13   26.15    1.99   0
  -6   6  -6    9.31    2.13   0
  -5   4 -10   80.44    3.15   0
  -5   6 -11   -0.20    1.52   0
  -5   3  -8   33.15    2.82   0
  -5   7 -10   11.67    1.86   0
  -5   5 -10  563.98    7.00   0
  -4   3 -11    6.26    2.24   0
  -4   4 -12   13.55    1.95   0
  -4   7 -12   70.75    2.41   0
  -5   6 -10   92.27    3.11   0
  -5   6  -3   33.88    2.07   0
  -5   7  -5  112.44    3.66   0
  -4   2  -9   12.98    2.19   0
  -4   8 -10    5.99    1.92   0
  -5   3  -5   89.94    3.49   0
  -5   4  -8    3.79    2.38   0
  -5   7  -8   10.80    1.96   0
  -5   7  -7   81.17    3.12   0
  -5   7  -6    3.28    1.63   0
  -4   5 -12    0.20    1.93   0
  -4   8  -9    0.87    1.81   0
  -5   5  -9   95.85    3.26   0
  -5   6  -9   77.01    3.07   0
  -5   6  -4  109.57    3.02   0
  -4   2  -8    4.44    2.10   0
  -4   6 -12  110.81    2.74   0
  -4   8  -8    2.27    1.83   0
  -5   4  -7  155.89    4.13   0
  -4   3 -10    3.66    1.95   0
  -4   7 -11   30.36    2.17   0
  -3   8 -11   13.94    1.83   0
  -5   4  -6  223.06    4.70   0
  -5   4  -5   57.75    2.58   0
  -5   5  -8    5.94    2.03   0
  -5   6  -5   84.16    2.91   0
  -4   4 -11   11.13    2.03   0
  -3   2 -11   56.63    2.73   0
  -3   4 -13   29.69    2.15   0
  -5   5  -7   14.10    1.93   0
  -5   5  -5   65.10    2.66   0
  -5   6  -6   44.42    2.41   0
  -4   2  -7   86.94    3.22   0
  -5   5  -6    5.36    1.62   0
  -4   5 -11   17.07    2.18   0
  -4   6 -11    4.49    2.15   0
  -3   3 -12   16.54    2.24   0
  -3   6 -13    4.34    1.71   0
  -3   8 -10    2.21    1.79   0
  -4   3  -9   34.06    2.45   0
  -3   5 -13    3.56    1.61   0
  -3   7 -12   20.86    1.75   0
  -3   8  -9    1.68    1.85   0
  -4   3  -8   82.56    3.58   0
  -4   7  -9   15.07    1.93   0
  -3   2 -10   85.58    3.18   0
  -2   4 -14    2.43    1.47   0
  -2   6 -14   75.34    2.09   0
  -2   8 -11   73.39    2.13   0
  -4   5 -10    1.77    1.61   0
  -4   6 -10  101.26    3.11   0
  -4   7  -8   13.23    1.84   0
  -4   7  -7   57.30    2.78   0
  -4   7  -6  173.19    3.87   0
  -4   4  -9    1.41    1.79   0
  -3   3 -11  384.16    6.03   0
  -3   4 -12   32.65    2.33   0
  -1   4 -15    8.05    1.61   0
  -4   6  -9    1.21    1.75   0
  -3   6 -12    9.45    1.71   0
  -2   2 -12    8.57    1.92   0
  -2   3 -13    6.58    2.09   0
  -2   8 -10    5.37    1.79   0
  -4   4  -8   83.40    3.53   0
  -4   5  -9  176.63    4.58   0
  -4   6  -5   36.31    2.34   0
  -3   2  -9   46.47    2.46   0
  -3   5 -12    1.12    1.47   0
  -4   4  -7  171.23    4.17   0
  -4   5  -8   44.52    2.48   0
  -4   6  -7  311.83    4.90   0
  -4   6  -6   82.88    2.82   0
  -3   7 -10    0.41    1.87   0
  -4   5  -7    4.47    1.44   0
  -4   5  -6   41.84    2.57   0
  -3   6 -11  130.54    3.48   0
  -2   6 -13    1.78    1.53   0
  -1   3 -14   15.66    1.98   0
  -3   5 -11   39.92    2.62   0
  -3   7  -9    1.86    1.88   0
  -1   6 -14   94.80    2.56   0
  -3   7  -8   96.45    3.21   0
  -3   7  -7    9.08    2.09   0
  -2   2 -11    2.12    1.79   0
  -2   5 -13   95.46    2.82   0
   0   3 -15    9.32    1.74   0
  -3   3  -9  154.11    4.05   0
  -3   6 -10  238.76    4.64   0
  -2   3 -12    4.21    1.68   0
  -3   4 -10   27.81    2.20   0
  -2   7 -11   10.60    1.84   0
  -1   4 -14    0.13    1.40   0
  -1   5 -14    0.17    1.75   0
   0   5 -15    5.96    1.71   0
  -3   5 -10   41.66    2.60   0
  -2   6 -12   32.22    1.93   0
   0   4 -15   41.02    2.00   0
  -1   7 -12    4.23    1.50   0
   0   2 -14   36.42    2.15   0
  -3   4  -9    5.13    1.53   0
  -3   6  -8   14.86    1.95   0
  -2   2 -10   20.52    1.90   0
  -2   5 -12   73.82    2.74   0
  -2   7 -10   21.95    1.91   0
  -3   5  -9    6.95    1.63   0
  -3   6  -7    3.69    1.76   0
  -3   6  -6    3.51    1.38   0
  -2   3 -11   13.23    1.85   0
  -1   3 -13    0.60    1.79   0
  -1   6 -13  102.29    2.69   0
   0   6 -14   51.58    1.95   0
  -3   4  -8   33.48    2.00   0
  -2   6 -11   87.76    2.88   0
  -2   7  -9  110.29    3.02   0
  -1   2 -12   24.26    2.51   0
  -3   5  -8   12.91    1.71   0
  -2   7  -8  109.05    3.05   0
  -1   7 -11   12.12    1.79   0
   0   7 -12   34.39    1.98   0
   1   5 -15   10.18    1.78   0
  -3   5  -7  154.92    3.60   0
  -2   4 -11   19.96    2.02   0
  -2   5 -11    3.94    1.55   0
  -1   5 -13    2.86    1.47   0
   0   3 -14   38.81    2.31   0
  -2   3 -10  119.60    3.68   0
  -2   6 -10   -0.66    1.59   0
   0   5 -14    3.80    1.44   0
   1   3 -15   23.84    1.69   0
   1   6 -14    6.84    1.34   0
   1   7 -12    6.87    1.56   0
  -1   6 -12    0.23    1.39   0
  -1   7 -10  262.43    4.06   0
   0   6 -13  110.54    2.63   0
   1  -3   0    0.28    0.22   0
  -2   0  -3   12.35    0.77   0
  -1   1   6  297.69    2.92   0
   0   0   5  848.79    4.34   0
  -1   1  -1   22.24    0.57   0
   1  -4   1 1232.16    5.94   0
   1  -2   1   89.76    1.12   0
  -3   3   0    1.10    0.51   0
  -2   2  -1  691.93    4.05   0
  -1  -2  -3  664.59    3.90   0
  -1  -1  -3  418.63    3.04   0
   1  -2   4   77.74    1.66   0
   0  -2  -2  659.31    1.63   0
   1  -2   2  511.78    3.05   0
  -2   1  -3 1860.31    8.28   0
   1  -3   1   73.95    1.29   0
   1  -3   2   54.24    1.32   0
  -2   2  -2   45.02    1.21   0
   0  -1   5    2.72    0.50   0
   0   0   2    1.44    0.20   0
  -2   2  -3    5.29    0.63   0
   0  -1  -2   19.57    0.33   0
  -1   0   6   65.07    1.67   0
  -1   0  -4  461.46    3.94   0
  -1   1  -3  724.38    4.00   0
   0   0   1  624.74    1.51   0
  -2   3   0  882.07    4.78   0
   2   3 -12  244.17    5.70   0
   3   2 -12    0.58    1.88   0
   6   2 -12    9.48    2.05   0
   1   3 -11    1.55    1.62   0
   2   6 -12    1.03    1.68   0
   3   1 -11   -0.02    1.66   0
   3   6 -12   35.24    2.25   0
   2   2 -11   11.95    2.05   0
   0   4 -10    0.92    1.93   0
   4   0 -10   86.35    3.63   0
   4   2 -12    6.13    2.17   0
   6   1 -11   11.87    2.67   0
   7   1 -10   18.02    2.18   0
   2   5 -12   -0.77    1.79   0
   3   3 -12  186.68    4.71   0
   4   1 -11   56.59    2.78   0
   5   0 -10   65.15    3.34   0
   5   4 -12  104.35    3.07   0
   1   4 -11   58.04    2.72   0
   1   6 -11    6.15    1.94   0
   4   5 -12  183.37    3.39   0
   5   3 -12    0.37    1.96   0
   7   2 -10  106.67    2.98   0
   0   5 -10    1.88    1.69   0
   1   5 -11   98.18    3.20   0
   3   4 -12  149.51    4.06   0
   3   5 -12    6.22    1.88   0
   4   3 -12    9.19    2.02   0
   4   6 -11    0.24    1.83   0
   2   3 -11   50.99    2.77   0
   3   1 -10  171.61    4.83   0
   3   2 -11   54.33    2.97   0
   4   4 -12   -0.44    1.67   0
   6   2 -11   80.09    2.92   0
   6   3 -11    2.86    2.09   0
   1   3 -10   29.80    2.18   0
   5   5 -11    4.52    1.59   0
   2   6 -11   16.65    2.04   0
   2   7 -10   34.57    2.09   0
   4   2 -11    5.14    1.81   0
   6   1 -10  132.00    3.64   0
   7   3  -9    1.73    1.75   0
   2   5 -11   18.64    2.20   0
   3   3 -11  130.23    4.02   0
   5   0  -9  176.11    4.20   0
   1   4 -10    8.89    1.72   0
   4   5 -11   66.99    2.57   0
   5   1 -10  158.79    4.10   0
   5   3 -11   20.30    2.17   0
   5   4 -11  222.34    3.81   0
   7   2  -9   50.46    2.49   0
   1   6 -10   23.74    2.11   0
   3   5 -11   51.86    2.51   0
   4   3 -11    4.30    1.97   0
   6   2 -10  112.06    3.45   0
   0   5  -9  152.27    3.78   0
   1   5 -10  300.62    4.90   0
   2   3 -10  158.65    4.27   0
   3   2 -10   -0.86    1.43   0
   4   4 -11   47.31    2.57   0
   4   6 -10   16.83    1.88   0
   6   3 -10   -0.11    1.81   0
   5   5 -10   40.87    2.14   0
   1   7  -9   17.02    1.79   0
   2   6 -10   13.72    2.11   0
   3   7  -9    1.61    1.57   0
   4   2 -10   86.25    3.23   0
   6   1  -9   45.06    2.36   0
   2   5 -10   15.73    2.25   0
   2   7  -9    0.82    1.64   0
   3   3 -10  124.10    3.58   0
   5   1  -9    3.86    1.63   0
   5   4 -10  327.66    4.99   0
   7   2  -8    3.13    1.61   0
   1   4  -9    1.31    1.71   0
   4   5 -10    0.93    1.61   0
   5   3 -10   38.57    2.43   0
   6   2  -9   25.59    2.43   0
   1   6  -9   30.16    2.48   0
   3   4 -10    8.09    2.11   0
   3   5 -10   38.73    2.43   0
   4   3 -10   69.89    2.93   0
   6   3  -9   26.24    2.41   0
   1   5  -9   99.23    2.99   0
   4   4 -10   90.08    3.00   0
   5   5  -9    6.47    1.70   0
   3   7  -8   27.22    2.22   0
   6   1  -8   31.10    2.52   0
   1   7  -8    0.58    1.60   0
   2   6  -9  154.80    3.65   0
   4   2  -9  534.32    6.50   0
   5   2  -9   14.15    2.15   0
   7   2  -7   10.89    1.96   0
   2   7  -8   25.19    2.41   0
   5   4  -9  151.69    3.87   0
   2   5  -9    4.89    2.07   0
   2   8  -6    6.82    1.75   0
   3   3  -9  170.29    3.92   0
   4   5  -9   14.72    2.36   0
   5   1  -8   52.70    2.43   0
   5   3  -9   20.34    2.42   0
   4   6  -8   74.87    3.00   0
   6   2  -8   28.30    2.21   0
   6   3  -8   53.45    2.52   0
   7   3  -6  170.25    3.31   0
   1   6  -8    5.56    2.08   0
   3   4  -9  284.90    5.24   0
   3   5  -9   15.08    2.05   0
   4   3  -9   40.87    2.35   0
   4   4  -9  111.78    3.64   0
   5   5  -8   36.65    2.28   0
   3   7  -7   68.76    2.79   0
   5   6  -6   45.73    2.18   0
   6   1  -7   52.01    2.78   0
   7   2  -6    2.14    1.93   0
   1   5  -8   61.81    2.38   0
   5   2  -8    4.75    1.91   0
   1   7  -7   76.58    2.56   0
   2   6  -8   26.92    2.21   0
   2   8  -5   14.41    1.86   0
   5   4  -8   -1.08    2.17   0
   7   3  -5   81.11    2.66   0
   2   7  -7   82.01    2.93   0
   4   5  -8   35.14    2.71   0
   5   3  -8   93.14    3.31   0
   6   2  -7  143.89    3.70   0
   2   5  -8  209.34    4.52   0
   4   6  -7   72.27    2.88   0
   5   5  -7  126.51    3.49   0
   5   6  -5   74.53    2.43   0
   6   3  -7    1.19    1.80   0
   3   5  -8    8.03    2.22   0
   4   3  -8   16.01    1.96   0
   7   2  -5    1.75    1.62   0
   7   3  -4    0.42    1.78   0
   3   4  -8   80.23    3.12   0
   4   4  -8    5.04    1.84   0
   6   1  -6  212.56    4.27   0
   2   8  -4    4.48    1.53   0
   1   7  -6   42.67    2.48   0
   3   6  -7    7.65    1.88   0
   5   2  -7  182.64    3.89   0
   5   4  -7    0.74    1.93   0
   5   6  -4  106.72    2.39   0
   7   3  -3    9.35    1.86   0
   2   6  -7   78.27    2.79   0
   2   7  -6    1.39    1.82   0
   4   5  -7   86.20    3.10   0
   4   6  -6    2.89    1.96   0
   5   5  -6  116.46    3.45   0
   6   2  -6   33.42    2.26   0
   6   3  -6   59.16    2.60   0
   1   8  -4   30.43    2.26   0
   2   8  -3   66.94    2.22   0
   5   6  -3    1.57    1.78   0
   6   4  -5   33.80    2.35   0
   4   3  -7   32.94    2.20   0
   4   4  -7  162.49    4.01   0
   6   1  -5  134.84    3.64   0
   2   8  -2   60.95    2.24   0
   3   4  -7   23.52    2.13   0
   3   6  -6    0.46    1.92   0
   4   6  -5   25.93    2.67   0
   5   4  -6    1.24    1.87   0
   5   5  -5  154.66    3.85   0
   1   6  -6  154.66    3.55   0
   2   7  -5   23.47    2.14   0
   5   2  -6  405.72    5.81   0
   6   2  -5   71.09    3.00   0
   6   4  -4   54.94    2.44   0
   1   7  -5    2.99    1.71   0
   1   8  -3    0.14    1.68   0
   2   6  -6   81.10    2.98   0
   4   5  -6   44.49    2.66   0
   4   6  -4   43.75    2.86   0
   5   5  -4   62.75    2.91   0
   6   4  -3   62.78    2.55   0
   3   5  -6  182.89    4.28   0
   4   3  -6  403.15    5.82   0
   4   4  -6   29.94    2.35   0
   5   4  -5   18.94    2.21   0
   6   3  -4   53.14    2.87   0
   1   8  -2  218.32    3.58   0
   6   2  -4   20.38    2.38   0
   6   4  -2    6.35    2.00   0
   1   6  -5  229.79    4.24   0
   1   7  -4   86.89    3.16   0
   3   4  -6 1094.83    9.24   0
   4   5  -5   30.81    2.47   0
   5   2  -5  161.02    4.04   0
   4   6  -3   53.27    2.74   0
   5   5  -3    4.77    2.09   0
  -8   3  -4    3.70    1.89   0
  -8   3  -2   24.39    2.65   0
  -8   4   0    4.01    2.16   0
  -7   4   2   40.62    2.16   0
  -8   7  -2  120.09    3.14   0
  -7   2  -6   11.25    2.11   0
  -7   2   0  234.86    4.74   0
  -8   4  -6    0.20    1.69   0
  -8   4  -1    5.14    2.03   0
  -8   6  -1   20.32    1.99   0
  -7   3  -8    4.05    1.91   0
  -7   3   1    6.50    1.84   0
  -8   5  -7    9.64    1.59   0
  -8   5  -1    1.57    1.79   0
  -8   7  -3  124.30    3.26   0
  -7   5   1   10.72    1.86   0
  -8   4  -2   80.11    3.04   0
  -7   2  -5    2.09    2.06   0
  -8   4  -4  129.82    3.55   0
  -8   4  -3  203.03    4.54   0
  -8   5  -2   14.14    2.35   0
  -8   6  -7    3.72    1.45   0
  -8   6  -2   23.33    2.07   0
  -8   7  -5   -0.33    1.73   0
  -8   7  -4   24.47    1.88   0
  -7   2  -4   48.61    3.09   0
  -7   2  -3   31.24    2.86   0
  -7   2  -2   54.36    3.00   0
  -7   6   0    5.52    1.78   0
  -8   5  -6   91.19    2.78   0
  -7   3   0  122.88    3.69   0
  -6   1  -1    0.24    1.81   0
  -8   5  -5   11.44    2.26   0
  -8   5  -3    1.70    1.86   0
  -8   6  -6   40.43    2.08   0
  -8   5  -4   46.59    2.45   0
  -8   6  -5    2.10    1.59   0
  -8   6  -4   12.14    2.04   0
  -7   3  -7  151.10    3.59   0
  -7   3  -1  190.48    4.84   0
  -7   4   0    4.28    1.48   0
  -7   5   0    5.90    1.63   0
  -7   7  -2   15.34    2.28   0
  -7   8  -5   44.41    2.25   0
  -6   1  -2   25.31    2.39   0
  -7   8  -6   -0.40    1.75   0
  -6   1  -3    6.73    2.11   0
  -7   6  -1    6.83    1.79   0
  -7   3  -6  101.17    3.51   0
  -7   3  -2   14.38    2.02   0
  -7   4  -8    0.10    2.00   0
  -7   4  -1  195.06    4.67   0
  -7   3  -5  104.71    3.66   0
  -7   3  -3   10.27    2.23   0
  -7   7  -3    0.10    1.82   0
  -7   6  -9   38.53    1.84   0
  -7   6  -2   13.28    2.40   0
  -7   4  -2  153.36    4.03   0
  -6   2  -7   -0.20    2.28   0
  -7   5  -8    3.00    2.02   0
  -7   5  -2    9.14    1.90   0
  -7   7  -4    7.04    2.02   0
  -7   4  -6   25.45    2.16   0
  -7   4  -3   11.80    2.02   0
  -7   6  -8   -0.06    1.87   0
  -7   6  -3    2.45    1.78   0
  -7   7  -6    1.38    1.98   0
  -7   7  -5    3.86    1.90   0
  -6   3  -9   25.25    2.27   0
  -6   6  -1    2.71    1.98   0
  -7   4  -5   37.00    2.60   0
  -7   4  -4    5.28    1.84   0
  -6   2  -6    0.69    1.88   0
  -6   2  -3  172.06    4.34   0
  -7   5  -7   11.33    1.94   0
  -7   6  -7   87.16    3.19   0
  -6   2  -5  189.80    4.74   0
  -6   2  -4  302.07    5.60   0
  -6   4 -10    2.80    1.62   0
  -6   8  -8   61.02    2.22   0
  -6   8  -6    4.46    1.99   0
  -7   5  -6   29.61    2.34   0
  -7   5  -5    0.36    2.04   0
  -7   5  -4   25.90    2.29   0
  -7   6  -6   64.62    2.71   0
  -7   6  -5   40.63    2.66   0
  -6   8  -7   70.99    2.59   0
  -6   3  -8   32.68    2.61   0
  -6   5  -1   54.58    2.44   0
  -6   7 -10    4.39    1.44   0
  -6   6  -2   -0.20    1.52   0
  -6   4  -9    1.06    2.25   0
  -6   5 -10   -0.15    1.57   0
  -5   2  -9    4.98    2.33   0
  -6   3  -7   24.32    2.72   0
  -6   3  -3   22.15    2.12   0
  -6   6 -10   61.40    2.30   0
  -6   7  -4   34.41    2.44   0
  -6   3  -6    5.83    2.06   0
  -6   3  -4   98.52    3.36   0
  -6   5  -2  276.15    4.76   0
  -6   7  -5    0.42    1.56   0
  -6   4  -3    4.43    1.69   0
  -6   5  -9   18.46    2.18   0
  -6   6  -9   15.37    2.20   0
  -6   7  -7   45.50    2.63   0
  -6   7  -6   17.52    2.23   0
  -5   2  -8    8.29    2.46   0
  -5   8  -9  156.65    3.04   0
  -6   6  -4    4.23    1.91   0
  -5   3 -10   83.42    3.15   0
  -5   8  -8  133.81    3.06   0
  -6   4  -7   11.66    2.13   0
  -6   4  -6   15.95    2.50   0
  -6   4  -4   39.28    2.42   0
  -6   5  -8   16.81    2.48   0
  -6   6  -8    5.68    2.06   0
  -5   4 -11   40.83    2.20   0
  -5   7 -11   -0.46    1.44   0
  -4   4 -13   33.60    2.02   0
  -6   4  -5   21.96    2.23   0
  -6   5  -4   89.36    2.97   0
  -6   5  -7   58.76    2.71   0
  -6   5  -6   15.34    2.49   0
  -6   5  -5   44.61    2.51   0
  -6   6  -7  174.45    4.08   0
  -6   6  -6   10.00    1.93   0
  -5   2  -6   65.35    3.11   0
  -4   3 -12   39.14    2.07   0
  -5   2  -5    1.87    1.84   0
  -5   3  -9   45.96    2.64   0
  -5   5 -11   76.64    2.60   0
  -5   6 -11    0.65    1.47   0
  -4   8 -10    6.62    1.74   0
  -5   6  -3   35.85    2.14   0
  -5   7  -5  107.94    3.21   0
  -4   2 -10    5.27    2.24   0
  -5   3  -8   33.94    2.49   0
  -4   8  -9    0.55    1.84   0
  -5   6 -10   99.15    2.99   0
  -5   7  -8    8.17    2.04   0
  -5   7  -6    2.22    1.67   0
  -5   3  -7    2.44    1.58   0
  -5   6  -4  108.00    3.03   0
  -5   7  -7   88.49    2.91   0
  -4   3 -11    6.87    2.22   0
  -4   4 -12   16.50    1.80   0
  -5   6  -9   80.62    3.12   0
  -3   3 -13   15.78    2.01   0
  -5   4  -8    5.68    1.86   0
  -5   5  -9   92.71    3.25   0
  -5   6  -5   70.60    2.59   0
  -4   2  -9    9.73    2.04   0
  -4   5 -12    0.31    1.76   0
  -4   6 -12  107.65    2.60   0
  -5   6  -8   41.41    2.45   0
  -5   6  -6   45.97    2.48   0
  -5   4  -7  161.50    3.91   0
  -5   4  -6  195.04    4.32   0
  -5   4  -5   56.46    2.52   0
  -5   5  -8    9.03    1.95   0
  -5   5  -5   58.27    2.45   0
  -5   5  -7   14.65    1.88   0
  -5   5  -6    6.88    1.59   0
  -4   2  -8    5.21    1.70   0
  -4   3 -10    2.99    1.78   0
  -4   7 -10   10.31    1.77   0
  -4   6 -11    6.71    1.62   0
  -4   7  -6  164.11    3.94   0
  -4   2  -7   88.77    3.03   0
  -4   5 -11   17.17    1.85   0
  -4   7  -9   12.03    1.75   0
  -3   2 -11   60.64    2.90   0
  -3   4 -13   27.08    1.90   0
  -3   6 -13    4.21    1.38   0
  -4   3  -9   25.64    2.41   0
  -4   7  -8   12.06    1.90   0
  -4   7  -7   66.19    2.59   0
  -3   5 -13    4.36    1.76   0
  -4   4 -10   15.03    2.00   0
  -4   6 -10   86.20    2.83   0
  -2   6 -14   84.71    2.29   0
  -2   7 -13   50.86    1.78   0
  -4   5 -10    4.69    1.82   0
  -3   7 -11   16.66    2.02   0
  -4   3  -8   93.94    3.27   0
  -4   6  -9    0.66    1.95   0
  -4   6  -5   38.24    2.01   0
  -2   4 -14    2.78    1.63   0
  -4   4  -9   -0.16    1.58   0
  -3   2 -10   80.86    3.28   0
  -3   6 -12   11.02    1.64   0
  -2   5 -14   29.90    1.88   0
  -4   5  -9  180.83    4.09   0
  -4   6  -7  285.01    4.51   0
  -4   6  -6   82.54    2.72   0
  -3   7 -10    0.75    1.90   0
  -1   5 -15    0.27    1.44   0
  -4   4  -8   93.80    3.13   0
  -3   3 -11  403.59    5.73   0
  -3   5 -12    0.07    1.40   0
  -2   7 -12   50.57    1.93   0
  -1   2 -14    3.01    1.63   0
  -1   4 -15    8.47    1.41   0
  -1   7 -13    8.24    1.53   0
  -4   4  -7  151.09    3.66   0
  -4   5  -8   45.22    2.36   0
  -4   5  -7    2.57    1.61   0
  -3   7  -9    1.08    1.61   0
  -3   7  -8   98.24    3.24   0
  -3   7  -7    7.91    1.54   0
  -2   3 -13    6.50    1.86   0
  -3   2  -9   50.72    2.39   0
  -3   6 -11  155.86    3.29   0
  -2   2 -12   10.23    1.81   0
  -2   6 -13    3.46    1.47   0
  -3   4 -11   12.60    1.89   0
  -2   7 -11    7.88    2.00   0
  -1   6 -14   89.87    2.14   0
  -3   3 -10  349.95    5.37   0
  -3   5 -11   43.76    2.22   0
  -2   5 -13   99.47    2.91   0
  -3   6 -10  248.29    4.14   0
  -1   7 -12    3.87    1.66   0
  -2   6 -12   34.37    2.31   0
  -2   7 -10   24.15    1.85   0
  -1   3 -14   14.57    1.86   0
  -3   4 -10   22.32    1.93   0
  -3   5 -10   43.23    2.45   0
  -3   6  -6    4.90    1.69   0
  -2   2 -11    3.02    1.88   0
  -2   3 -12    2.40    2.10   0
  -2   7  -9  109.80    3.16   0
  -1   5 -14    2.84    1.58   0
   0   5 -15    6.29    1.66   0
  -3   6  -8   16.07    1.74   0
  -3   6  -7    5.51    1.43   0
  -2   7  -8  103.89    2.87   0
  -1   2 -13   50.10    2.68   0
   0   3 -15    6.83    1.77   0
   0   7 -12   35.12    1.78   0
  -3   5  -9    3.93    1.55   0
  -2   5 -12   70.29    3.07   0
  -1   6 -13   97.94    2.50   0
  -1   7 -11   12.88    1.63   0
   0   6 -14   50.27    1.82   0
  -3   4  -9    4.12    1.55   0
  -2   4 -12   79.02    2.67   0
  -2   6 -11   90.47    2.82   0
  -3   5  -8   16.08    1.63   0
  -3   4  -8   29.76    2.00   0
  -2   2 -10   22.89    1.89   0
  -2   3 -11   12.30    1.74   0
   0   2 -14   49.18    2.42   0
   0   7 -11    9.36    1.77   0
  -1   3 -13    0.80    1.59   0
  -1   5 -13    3.45    1.53   0
   1   5 -15    9.55    1.44   0
   4   4  -3    2.97    1.80   0
   5   1   7    5.95    1.62   0
   5   4   3   18.20    1.62   0
   5   4   1    3.25    1.59   0
   5   4   2   36.26    2.03   0
   4   3   8    2.05    1.39   0
   5   3   5    0.72    1.38   0
   4   5  -1    0.74    1.64   0
   4   5   4   90.14    2.07   0
   5   0   6    9.33    1.85   0
   5   2   6    9.21    1.59   0
   5   1   6   61.27    2.38   0
   5   2  -1  122.64    3.14   0
   5   3   0   64.54    2.55   0
   5   3   4    0.02    1.37   0
   3   6  -1  250.60    4.10   0
   4   4  -2  119.37    3.11   0
   4   5   0   50.50    2.30   0
   4   5   3    6.74    1.79   0
   4   4   6    3.00    1.28   0
   4   5   1  518.74    5.18   0
   5   0   5   15.87    1.61   0
   5   2   0   13.27    1.71   0
   5   3   1   11.75    1.77   0
   5   3   2    0.51    1.52   0
   5   3   3    0.25    1.54   0
   3   6   4  296.59    3.22   0
   4   2   8    5.99    1.67   0
   5   0   4    0.25    1.39   0
   5   1   5   60.62    2.26   0
   3   6   0  241.49    3.77   0
   4   3   7   49.48    2.10   0
   5   2   1  106.40    2.96   0
   5   2   4    1.60    1.58   0
   2   7   1  250.67    3.62   0
   2   7   3  154.29    2.62   0
   3   5  -2  238.26    4.23   0
   3   6   1   -0.70    2.01   0
   3   6   2    3.12    1.77   0
   4   1   8    2.02    1.55   0
   4   4  -1   34.36    2.04   0
   4   4   5    5.85    1.82   0
   5   1   2  218.14    3.90   0
   5   1   4   14.47    1.64   0
   5   2   2   32.52    1.97   0
   5   2   3   94.25    2.81   0
   2   7   2   42.18    1.90   0
   3   3   9   10.44    1.56   0
   3   4   8  171.02    2.53   0
   4   4   0    6.47    1.62   0
   3   5   6    0.35    1.46   0
   4   3  -1   17.90    1.66   0
   4   4   4    2.76    1.56   0
   3   5  -1   97.98    3.00   0
   4   2   7   -0.63    1.39   0
   4   4   1    0.80    1.63   0
   4   4   2   73.52    2.54   0
   4   4   3   -0.35    1.69   0
   4   1   7   24.80    1.87   0
   2   6   6    3.97    1.39   0
   3   5   5    5.19    1.58   0
   4   3   0    5.56    1.57   0
   4   3   5  361.77    4.63   0
   3   2   9   17.79    1.62   0
   3   4   7  142.13    2.91   0
   3   5   0  314.51    4.76   0
   4   2   6   -0.74    1.62   0
   3   5   4   36.33    2.29   0
   4   1   6  118.16    2.87   0
   4   3   1   45.29    2.10   0
   4   3   4  106.91    3.02   0
   3   3   8   59.25    2.13   0
   3   5   1  152.20    3.33   0
   3   5   3   27.43    2.34   0
   4   3   2    2.40    1.49   0
   4   3   3   37.41    2.07   0
   2   3  10   58.91    2.03   0
   2   6   0   44.50    2.65   0
   2   6   5   -0.75    1.44   0
   4   1   5   57.28    2.24   0
   2   4   9   58.62    1.90   0
   4   2   3  340.23    4.63   0
   4   2   4   18.57    1.73   0
   2   6   1   23.79    2.22   0
   2   6   4   -1.58    1.74   0
   3   2   8   17.28    2.00   0
   1   7   1    0.54    1.69   0
   1   7   4    1.07    1.51   0
   2   5   7  208.17    3.31   0
   2   6   2   11.89    1.74   0
   3   1   8  251.78    3.83   0
   3   3   7    6.45    1.65   0
   3   4   0   13.39    1.57   0
   1   7   2    7.43    1.88   0
   1   7   3   -0.27    1.69   0
   3   4   5   54.26    2.34   0
   2   5  -1    5.48    1.59   0
   3   4   4   40.74    2.26   0
   1   6   7   54.09    1.94   0
   3   2   7    6.98    1.96   0
   3   4   2   29.30    2.01   0
   3   4   3  108.26    3.05   0
   2   3   9   13.18    1.69   0
   3   1   7  550.42    5.58   0
   0   6   9   54.41    1.71   0
   1   4  10   14.81    1.51   0
   2   5   0    5.82    1.88   0
   2   5   5  230.79    4.05   0
   3   2   6  129.00    3.15   0
   3   3   5   42.47    2.16   0
  -1   8   5   27.75    1.98   0
   0   7   6  261.46    3.70   0
   1   6   6   16.48    1.76   0
   2   5   1   15.32    2.14   0
   3   3   3   77.13    2.51   0
   3   3   4   90.60    2.80   0
   1   5   8    0.44    1.87   0
   1   6   0  240.47    4.29   0
   2   2   9   22.74    1.86   0
   2   4   7   14.38    1.84   0
   2   5   4   82.09    2.80   0
  -1   8   4   17.26    1.93   0
   0   5  10   43.12    2.12   0
   1   6   5    2.73    2.00   0
   2   3   8    5.94    1.72   0
   2   5   3    4.97    1.76   0
  -1   6  10   27.89    1.69   0
  -1   7   8    1.16    1.60   0
  -1   8   3    3.38    1.91   0
   0   4  11   72.08    2.08   0
   0   6   8   11.36    1.67   0
   0   7   1    5.48    2.22   0
   1   3  10    8.71    1.82   0
   1   4   9    5.10    1.83   0
   1   6   1    6.04    1.69   0
   2   4   6   50.85    2.38   0
   0   7   4   31.85    2.25   0
   1   6   2   48.54    2.61   0
   1   6   3   11.23    1.82   0
   2   2   8   36.04    2.17   0
  -1   4  12   43.51    1.80   0
   0   7   2   15.29    2.02   0
   0   7   3    2.84    1.75   0
   1   5   7   64.91    2.51   0
   2   3   7   72.49    2.68   0
   2   4   5   38.42    2.17   0
  -1   5  11    4.46    1.32   0
   2   4   4   70.58    2.60   0
  -2   8   6   -0.89    1.74   0
  -1   7   7   39.17    2.22   0
   0   6   7   20.15    2.21   0
   2   4   3  209.04    3.92   0
  -2   7   9    2.37    1.34   0
   0   3  11   24.99    2.01   0
   0   5   9   17.08    1.81   0
   2   2   7   16.27    1.67   0
  -1   6   9   13.32    1.86   0
   1   3   9  202.15    3.59   0
  -2   8   5   98.41    2.96   0
   0   4  10    5.26    1.58   0
   1   5   5   48.04    2.47   0
   2   3   5   19.62    1.81   0
  -3   7  10  135.38    2.25   0
  -1   7   6   20.35    2.08   0
  -2   8   4  109.31    3.28   0
   1   4   7    4.83    1.95   0
   1   5   2  145.52    3.40   0
   1   5   4   88.51    2.81   0
  -2   8   3  263.06    4.58   0
   0   5   8    4.70    1.70   0
   0   6   5   28.81    2.28   0
   1   2   9   52.86    2.19   0
  -2   6  10    2.15    1.83   0
  -2   7   8   22.88    1.79   0
  -1   4  11   60.67    2.49   0
  -1   6   8    1.03    1.64   0
  -1   7   4   83.61    3.21   0
   0   4   9    4.25    2.13   0
   0   6   2  361.68    5.37   0
   0   6   3  399.10    5.77   0
   1   4   6  137.99    3.48   0
  -1   7   2    5.54    1.97   0
  -1   7   3   21.19    2.14   0
   0   3  10  101.31    2.71   0
  -3   8   6   34.64    2.33   0
  -2   4  12   22.78    1.79   0
  -2   5  11   11.76    1.83   0
   1   2   8  256.37    4.01   0
   1   3   7  281.94    4.55   0
   1   4   5   10.20    1.57   0
  -3   7   9   92.04    2.36   0
  -2   7   7   69.05    2.64   0
  -3   5  12   71.40    1.93   0
  -1   5   9  286.68    4.62   0
  -1   6   7   40.83    2.31   0
  -4   7  10    9.64    1.69   0
  -3   8   5    2.77    2.02   0
  -2   6   9   47.49    2.56   0
   0   5   6    2.51    1.68   0
  -1   3  11   53.39    2.29   0
  -1   4  10    3.05    2.12   0
   0   3   9    4.89    2.06   0
  -4   8   7   44.55    2.47   0
  -3   8   3  122.05    3.68   0
  -3   8   4    3.95    1.97   0
  -1   6   6   26.85    2.40   0
   0   5   5  103.09    3.29   0
  -3   7   8  114.93    3.55   0
  -3   6  10   62.09    2.22   0
  -2   7   5   -0.98    1.90   0
  -1   5   8  253.40    4.50   0
  -1   6   5    0.65    2.10   0
   0   4   7  168.33    3.54   0
   0   5   4  174.26    3.71   0
  -4   4  13    0.41    1.32   0
  -4   6  11    4.41    1.64   0
  -2   6   8   32.36    2.33   0
  -4   8   6  480.45    5.89   0
  -2   4  11    4.31    1.65   0
  -2   7   3    1.86    2.09   0
  -2   7   4   60.25    2.85   0
  -1   6   4   16.87    2.14   0
   0   2   9  101.00    2.68   0
   0   3   8   37.91    1.99   0
  -5   7  10   14.46    1.64   0
  -4   5  12   67.07    2.15   0
  -4   7   9    7.73    1.68   0
  -3   4  12    1.16    1.73   0
  -3   5  11   17.17    1.72   0
  -1   4   9   30.45    2.06   0
  -1   6   2   24.68    2.01   0
  -1   6   3   39.73    2.41   0
   0   4   6  629.77    6.76   0
  -3   7   7   18.74    2.07   0
  -1   3  10  119.96    3.06   0
  -1   5   7   52.81    2.67   0
  -4   8   5    3.88    1.76   0
  -2   6   7  121.87    3.79   0
  -5   8   7    3.19    1.57   0
  -4   8   4   10.68    2.28   0
  -3   6   9   35.79    2.64   0
  -2   5   9   20.45    2.11   0
  -1   5   6    2.18    1.56   0
  -5   4  13    0.20    1.34   0
  -5   6  11   15.77    1.67   0
  -4   7   8   16.85    2.09   0
  -2   3  11   82.54    2.75   0
  -2   4  10   10.55    2.18   0
  -6   7  10   12.03    1.43   0
  -5   8   6   94.30    3.27   0
  -4   6  10   -0.03    1.63   0
  -2   6   6  668.60    7.82   0
  -5   7   9    5.69    1.54   0
  -3   3  12  270.07    4.04   0
  -3   7   5    3.40    1.85   0
  -1   3   9    6.51    1.64   0
  -1   5   5   17.99    1.85   0
  -6   8   7   39.51    2.26   0
  -3   4  11   22.64    2.30   0
  -3   6   8    6.79    1.94   0
  -2   5   8    0.40    1.63   0
  -5   8   5   60.67    2.84   0
  -4   4  12   59.61    2.23   0
  -4   7   7  118.05    3.79   0
  -3   7   4   17.75    2.27   0
  -1   4   7   12.40    1.65   0
  -3   7   2    2.17    1.86   0
  -3   7   3  237.88    5.15   0
  -2   6   4   45.25    2.56   0
  -7   8   7    0.41    1.55   0
  -5   8   4   64.26    2.88   0
  -4   6   9    8.08    2.09   0
  -6   5  12   16.73    1.67   0
  -6   7   9    4.07    1.70   0
  -6   8   6    7.51    1.61   0
  -5   7   8   50.96    2.62   0
  -3   6   7    7.91    1.87   0
  -2   3  10   48.88    2.33   0
  -2   5   7   59.60    2.96   0
  -3   5   9   44.92    2.45   0
  -7   6  11    0.06    1.21   0
  -6   8   5   61.64    2.84   0
  -7   5  12    2.89    1.24   0
  -7   8   6    0.69    1.63   0
  -4   5  10   27.97    2.56   0
  -4   7   5    8.08    2.23   0
  -3   4  10  147.16    4.03   0
  -3   6   6   21.65    2.37   0
  -7   7   9   39.99    1.95   0
  -6   8   4    4.77    2.01   0
  -5   4  12    9.45    1.68   0
  -5   7   7   33.50    2.51   0
  -4   3  12   13.18    1.56   0
  -4   6   8   18.79    2.37   0
  -2   4   8   -0.62    1.51   0
  -2   5   6  101.68    3.61   0
  -4   4  11   80.70    2.77   0
  -8   8   5   17.67    1.67   0
  -7   8   5   15.07    1.67   0
  -6   6  10   43.15    2.24   0
  -6   7   8    3.83    1.82   0
  -5   6   9  149.64    4.03   0
  -4   7   4   12.88    2.29   0
  -3   5   8   28.53    2.28   0
  -2   3   9    4.24    1.91   0
  -4   7   3  673.57    8.31   0
  -7   8   4    2.02    1.58   0
  -7   6  10   47.88    2.25   0
  -7   7   8    4.16    1.78   0
  -6   4  12   16.13    1.47   0
  -4   5   9    5.45    1.76   0
  -3   6   4  196.10    4.76   0
  -8   6  10   29.00    1.67   0
  -8   7   8    6.64    1.66   0
  -5   5  10    0.14    1.97   0
  -3   5   7   31.78    2.21   0
  -5   3  12   62.03    2.34   0
  -5   7   5    3.48    1.87   0
  -6   6   9    3.57    1.53   0
  -5   4  11    5.49    1.59   0
  -5   6   8   89.92    3.23   0
  -4   3  11   35.40    2.23   0
  -4   4  10   18.32    2.06   0
  -4   6   6   18.16    2.41   0
  -5   7   4    0.62    2.08   0
  -6   7   6  160.44    4.09   0
  -6   3  12  201.36    3.38   0
  -5   7   3   14.08    2.09   0
  -4   5   8   21.82    2.11   0
  -3   4   8   81.98    2.82   0
  -7   6   9   30.46    2.09   0
  -6   5  10    1.06    1.45   0
  -5   5   9   25.80    2.43   0
  -5   6   7    0.75    1.67   0
  -9   7   6   13.11    1.45   0
  -8   6   9    1.06    1.43   0
  -7   3  12   50.06    2.00   0
  -6   6   8    2.23    1.56   0
  -6   7   5    4.74    1.93   0
  -3   2  10   17.68    1.70   0
  -3   3   9    0.03    1.46   0
  -7   7   6    2.54    1.63   0
  -9   7   5    4.30    1.55   0
  -8   7   6   32.23    1.99   0
  -7   5  10   27.20    2.29   0
  -6   7   4   67.02    3.01   0
  -5   3  11    5.55    1.72   0
  -5   4  10   14.92    1.86   0
  -4   5   7   70.11    2.92   0
  -4   6   4  114.90    3.73   0
  -9   6   8    5.78    1.60   0
  -8   4  11    1.82    1.54   0
  -8   5  10   51.80    2.00   0
  -7   4  11    3.59    1.77   0
  -5   6   6    1.56    1.73   0
  -4   3  10   13.99    1.87   0
  -9   7   4    1.09    1.53   0
  -7   6   8   19.87    2.05   0
  -6   7   3   22.83    2.51   0
  -8   6   8  118.59    3.25   0
  -8   7   5   20.75    1.95   0
  -6   5   9   38.00    2.24   0
  -6   6   7   13.89    2.10   0
  -5   5   8    4.85    1.85   0
  -7   7   4  145.32    3.80   0
  -8   7   4   -0.00    1.88   0
  -5   6   5   -0.50    1.76   0
  -4   4   8   79.87    3.07   0
  -4   5   6  374.36    5.77   0
  -9   6   7    0.86    1.64   0
  -7   7   3   11.37    1.96   0
  -5   2  11  129.57    3.20   0
  -8   3  11   10.80    1.76   0
  -8   7   3    6.13    1.59   0
  -7   6   7   43.86    2.68   0
  -6   6   6   67.07    3.24   0
  -8   5   9    6.71    1.66   0
  -8   6   7   22.79    1.99   0
  -7   3  11    0.30    1.46   0
  -5   3  10   75.22    2.78   0
  -5   5   7   20.01    2.12   0
  -5   6   4   59.48    2.81   0
  -6   5   8    7.62    1.74   0
  -5   6   3   11.20    1.81   0
  -9   3  10    5.91    1.48   0
  -9   5   8   50.30    2.25   0
  -8   2  11   26.65    1.92   0
  -6   6   5    8.39    1.69   0
  -7   5   8  124.05    3.25   0
  -6   4   9   -1.05    1.48   0
  -5   5   6   13.00    2.00   0
  -9   4   9   55.68    1.94   0
  -8   5   8   39.96    2.19   0
  -7   2  11    1.85    1.38   0
  -6   3  10   81.43    2.69   0
  -9   6   5  127.87    3.20   0
  -6   5   7   13.96    1.95   0
  -6   6   4   63.60    2.84   0
  -8   3  10   34.93    2.24   0
  -8   6   5   20.16    2.28   0
  -7   4   9   -0.12    1.44   0
  -5   2  10   13.06    1.54   0
  -5   3   9   24.60    1.86   0
  -9   5   7   59.70    2.25   0
  -9   6   4   90.98    2.63   0
  -8   4   9    0.15    1.52   0
  -7   3  10   54.58    2.25   0
  -8   2   0   65.50    3.65   0
  -8   3   2   86.21    3.84   0
  -7   2   3  125.46    4.11   0
  -6   0   1   87.60    3.78   0
  -5  -1  -3   16.02    2.70   0
  -9   4  -3   -0.48    1.95   0
  -9   4  -2   15.44    2.41   0
  -9   5   0   48.95    3.35   0
  -8   2  -3   -0.15    2.24   0
  -8   2  -2    9.86    3.14   0
  -8   2  -1  308.37    6.56   0
  -7   1   1   62.51    3.55   0
  -5  -1  -2  247.80    5.68   0
  -7   1   0    0.24    2.61   0
  -7   2  -7    0.76    2.00   0
  -6   0  -4    7.33    2.41   0
  -6   0   0  297.19    6.75   0
  -9   6  -1  121.88    3.44   0
  -8   4   2   72.94    3.37   0
  -7   3   3  104.45    3.91   0
  -6   0  -3  117.12    4.84   0
  -6   0  -1  364.22    7.37   0
  -8   3   1  112.23    3.97   0
  -7   1  -2   29.07    3.27   0
  -7   1  -1  271.13    7.02   0
  -7   2   2  389.46    6.91   0
  -6   0  -2   36.30    3.12   0
  -6   1  -7    3.67    2.19   0
  -9   5  -2    7.18    2.10   0
  -9   6  -2    6.71    2.19   0
  -8   3  -5   37.97    2.85   0
  -9   6  -4    2.69    1.71   0
  -9   6  -3   32.39    2.43   0
  -8   3  -4    2.47    2.63   0
  -8   4   1   11.35    2.64   0
  -7   2  -6   14.98    2.61   0
  -7   3  -8    4.91    2.12   0
  -8   3  -3   37.66    3.49   0
  -8   3  -1   21.94    2.98   0
  -8   3  -2   26.49    2.88   0
  -8   4  -6    1.90    2.41   0
  -8   5   1   61.79    2.98   0
  -7   3   2    2.18    1.90   0
  -7   2   0  209.19    5.84   0
  -5   0  -5   16.55    3.04   0
  -8   4   0    7.34    2.41   0
  -8   5  -7    8.87    1.92   0
  -6   2  -8    0.01    2.41   0
  -8   4  -5   41.02    2.98   0
  -7   2  -4   51.64    3.55   0
  -7   3  -7  157.08    5.04   0
  -6   1  -5    1.74    2.42   0
  -5   0  -4   -0.66    2.00   0
  -8   5   0   37.15    2.82   0
  -7   2  -3   33.80    3.12   0
  -7   2  -2   54.57    3.68   0
  -7   3   1    4.77    2.15   0
  -6   1  -4   30.73    3.42   0
  -6   1  -1    0.27    1.90   0
  -8   4  -4  129.80    4.44   0
  -8   4  -2   75.86    3.81   0
  -8   6  -7    3.20    1.97   0
  -8   5  -6   85.17    3.29   0
  -8   5  -1    3.78    2.18   0
  -6   2  -7   -0.57    2.81   0
  -6   3  -9   29.68    2.83   0
  -8   5  -5    8.00    2.27   0
  -7   4   1   65.08    3.30   0
  -5   1  -7  291.10    6.81   0
  -8   5  -4   41.29    3.25   0
  -8   5  -2   12.00    2.51   0
  -8   6  -6   36.16    2.47   0
  -7   3  -5  104.75    4.63   0
  -6   4 -10   -0.20    2.22   0
  -8   6  -2   18.73    2.62   0
  -8   7  -3  138.30    3.65   0
  -5   2  -9    5.33    2.69   0
  -8   6  -5    0.67    2.03   0
  -8   6  -3   54.44    3.61   0
  -8   7  -5    0.11    1.84   0
  -8   7  -4   25.70    2.56   0
  -7   3  -3    6.43    2.40   0
  -7   3  -2   14.63    2.61   0
  -7   4  -7   29.64    3.18   0
  -6   2  -6   -0.05    2.41   0
  -7   4   0    3.34    2.05   0
  -7   6  -9   36.40    2.23   0
  -5   1  -6   86.99    4.23   0
  -7   5  -8    4.90    2.41   0
  -6   3  -8   34.08    3.16   0
  -7   4  -6   28.20    3.19   0
  -6   2  -4  301.40    7.02   0
  -5   1  -5   49.71    3.24   0
  -7   4  -1  201.04    5.11   0
  -7   5   0    4.08    2.16   0
  -6   2  -3  152.07    5.33   0
  -7   4  -5   32.81    2.91   0
  -7   4  -2  125.44    5.35   0
  -6   4  -9    0.58    2.53   0
  -5   2  -8    8.26    2.60   0
  -7   4  -4    3.09    2.30   0
  -7   4  -3    7.97    2.24   0
  -7   5  -7    9.80    2.38   0
  -7   6  -8    1.90    1.92   0
  -6   3  -7   29.30    3.01   0
  -6   5 -10    1.56    1.87   0
  -7   5  -1    1.01    2.05   0
  -7   7  -8   99.23    3.03   0
  -7   5  -6   24.95    3.10   0
  -7   6  -1    5.27    2.16   0
  -7   5  -2    5.50    2.22   0
  -7   6  -7   77.61    3.84   0
  -7   8  -6   -0.22    2.08   0
  -7   8  -4    8.41    2.33   0
  -4   1  -7   56.59    4.02   0
  -7   5  -5   -0.82    2.17   0
  -7   7  -7    1.74    2.25   0
  -7   8  -5   43.52    2.71   0
  -6   6 -10   55.83    2.81   0
  -7   5  -4   18.24    2.69   0
  -7   6  -2   13.84    2.18   0
  -6   3  -5    6.91    2.23   0
  -6   7 -10    4.77    1.70   0
  -5   3  -9   44.71    3.30   0
  -7   6  -6   70.37    3.36   0
  -7   6  -3    2.88    2.52   0
  -7   7  -3    0.37    2.11   0
  -6   3  -4   89.30    4.19   0
  -6   3  -3   15.07    2.44   0
  -6   5  -9   17.31    2.53   0
  -5   2  -6   65.06    3.73   0
  -7   6  -5   42.26    3.19   0
  -7   6  -4   70.91    3.53   0
  -7   7  -5    4.50    2.18   0
  -7   7  -4    7.51    2.41   0
  -6   4  -7   15.27    2.93   0
  -5   4 -10   75.06    3.80   0
  -5   5 -11   73.97    3.30   0
  -4   2  -9    9.98    2.39   0
  -6   8  -9   11.49    1.74   0
  -6   6  -9   15.12    2.64   0
  -5   3  -8   31.38    3.09   0
  -6   4  -6   10.58    2.66   0
  -6   5  -8   17.77    2.59   0
  -6   7  -9   48.48    2.92   0
  -6   4  -5   22.53    2.99   0
  -6   4  -4   33.08    2.94   0
  -6   4  -3    4.86    1.83   0
  -5   7 -11    0.22    1.94   0
  -4   2  -8    6.54    2.54   0
  -4   3 -10    3.32    2.65   0
  -6   5  -7   58.40    3.36   0
  -6   6  -8    6.74    2.18   0
  -5   3  -7    0.47    1.98   0
  -5   4  -9   -1.14    2.26   0
  -4   5 -12    1.17    1.72   0
  -6   7  -8   37.31    2.48   0
  -4   4 -11    9.33    2.87   0
  -6   5  -6   16.44    2.87   0
  -6   5  -2  283.42    5.85   0
  -6   8  -4   29.68    2.55   0
  -6   5  -5   44.71    3.10   0
  -6   5  -3  259.25    5.83   0
  -6   6  -7  177.17    5.15   0
  -6   6  -2    0.10    1.90   0
  -6   8  -6    4.37    2.08   0
  -6   8  -5   -0.71    1.93   0
  -5   8 -10   75.20    2.57   0
  -4   2  -7   91.83    3.88   0
  -3   5 -13    4.03    2.04   0
  -6   5  -4   78.59    3.74   0
  -6   7  -7   46.44    2.86   0
  -6   7  -3    5.44    2.53   0
  -5   3  -5   89.83    4.20   0
  -5   6 -10   95.70    4.17   0
  -4   6 -12  105.88    3.25   0
  -4   7 -12   64.74    2.78   0
  -6   6  -6    9.26    2.36   0
  -6   6  -3   72.37    3.59   0
  -5   5  -9   85.74    4.35   0
  -5   7 -10   11.47    2.08   0
  -5   9  -7   22.55    2.19   0
  -4   3  -9   28.16    2.97   0
  -6   6  -4    3.47    1.98   0
  -6   7  -5    0.90    2.17   0
  -6   7  -4   39.23    2.57   0
  -3   4 -12   23.16    2.87   0
  -5   4  -7  168.48    5.15   0
  -5   8  -9  131.49    4.00   0
  -4   4 -10   14.44    2.97   0
  -4   5 -11   19.19    2.79   0
  -3   6 -13    3.31    1.64   0
  -4   8 -11   27.28    2.30   0
  -5   4  -6  215.21    6.06   0
  -5   5  -8   10.66    2.47   0
  -5   6  -9   71.16    3.74   0
  -4   3  -8   99.77    4.23   0
  -5   4  -5   51.97    3.12   0
  -4   6 -11    6.67    2.16   0
  -4   7 -11   30.26    2.38   0
  -5   5  -7   12.87    2.55   0
  -5   8  -7    8.49    2.48   0
  -4   3  -7   15.58    2.34   0
  -4   4  -9   -0.85    2.53   0
  -3   3 -10  344.80    6.86   0
  -3   5 -12    2.59    2.26   0
  -5   7  -8   11.67    2.32   0
  -5   5  -6    6.35    2.17   0
  -5   8  -6    2.09    2.11   0
  -5   8  -5   20.83    2.41   0
  -4   8 -10    8.40    1.89   0
  -3   4 -11   10.11    2.40   0
  -5   5  -5   59.88    3.23   0
  -5   7  -7   81.94    3.64   0
  -5   7  -3   13.67    2.60   0
  -4   9  -7   21.86    2.10   0
  -3   7 -12   18.97    1.93   0
  -2   5 -13   81.09    3.32   0
  -1   5 -14    1.86    1.87   0
  -5   6  -6   43.63    3.33   0
  -5   7  -6    3.82    2.28   0
  -4   6 -10   93.29    3.94   0
  -4   7 -10    9.92    1.96   0
  -5   6  -3   31.29    2.52   0
  -5   7  -4  402.09    6.86   0
  -3   3  -9  152.43    4.73   0
  -5   6  -4  104.60    3.96   0
  -4   8  -9    3.53    1.71   0
  -3   8 -11   16.06    1.96   0
  -3   9  -9   74.40    2.68   0
  -2   3 -11    9.91    2.51   0
  -2   6 -13    0.53    1.77   0
  -4   4  -7  148.23    5.19   0
  -3   5 -11   43.65    3.05   0
  -2   4 -12   63.35    3.31   0
  -2   8 -12  121.96    3.17   0
  -4   6  -9    1.63    2.02   0
  -4   7  -9   15.00    2.19   0
  -3   4 -10   21.85    2.76   0
  -4   5  -8   42.94    3.05   0
  -3   6 -11  123.16    4.58   0
  -3   7 -11   17.42    2.62   0
  -3   9  -8  195.39    3.86   0
  -4   8  -7   22.43    2.71   0
  -4   6  -8   86.72    4.31   0
  -4   8  -6   -0.04    2.17   0
  -3   8 -10    1.93    1.83   0
  -3   9  -7   28.98    2.14   0
  -2   5 -12   63.26    3.64   0
  -4   5  -7    5.00    1.99   0
  -4   8  -5    8.64    2.07   0
  -2   7 -12   45.80    2.85   0
   0   5 -14    1.28    1.92   0
  -3   4  -9    3.25    2.09   0
  -2   3 -10  116.82    4.33   0
  -2   9  -9   10.42    1.68   0
  -4   5  -6   49.17    2.78   0
  -4   6  -7  299.35    6.26   0
  -3   7 -10   -0.94    2.01   0
  -3   8  -9    2.54    2.29   0
  -2   4 -11   18.29    2.48   0
  -2   8 -11   84.22    3.00   0
  -1   5 -13    4.94    1.82   0
  -4   7  -6  154.87    4.82   0
  -3   6 -10  231.35    5.62   0
  -2   9  -8    0.43    1.88   0
  -1   6 -13   97.82    3.11   0
  -4   6  -6   89.86    3.55   0
  -4   7  -5   17.41    2.25   0
  -4   7  -4   72.46    3.34   0
  -4   6  -5   44.86    2.69   0
  -3   5  -9    8.84    2.14   0
  -3   8  -8    0.95    2.26   0
  -2   9  -7   34.03    2.18   0
  -3   7  -9    1.86    1.98   0
  -2   5 -11    8.23    2.21   0
  -2   7 -11    7.69    1.83   0
  -2   8 -10    3.12    2.19   0
  -1   4 -12   55.19    3.23   0
   0   7 -13   34.51    2.26   0
  -3   6  -9  182.05    5.25   0
  -2   6 -11   81.25    3.94   0
  -1   3 -11  142.85    4.31   0
  -1   9  -8    1.23    1.72   0
   0   4 -13    1.05    2.08   0
   1   5 -14   39.09    2.43   0
  -3   8  -6  103.81    3.79   0
  -2   4 -10   84.73    3.48   0
  -1   7 -12    4.69    1.86   0
  -1   8 -11    0.21    1.64   0
  -3   5  -8   13.67    2.23   0
  -3   7  -8   99.55    3.73   0
  -3   8  -5   66.22    3.06   0
  -1   5 -12   66.07    3.30   0
  -3   6  -8   16.60    2.20   0
   0   5 -13   59.35    3.33   0
   0   6 -13  116.87    3.37   0
  -2   7 -10   22.67    2.55   0
  -3   5  -7  146.78    4.35   0
  -2   6 -10    0.51    2.20   0
   0   8 -11   -1.00    1.47   0
   2   5 -14   84.79    2.75   0
  -3   6  -7    7.29    1.69   0
  -3   7  -6   22.82    2.51   0
  -2   4  -9   86.87    3.55   0
  -2   8  -8   60.06    2.95   0
  -1   3 -10   22.89    2.47   0
  -1   4 -11  253.34    5.55   0
  -1   8 -10   39.85    2.36   0
  -3   7  -5  197.97    5.16   0
  -3   7  -4   19.16    2.45   0
  -1   7 -11   10.72    2.05   0
   0   7 -12   44.91    2.47   0
  -2   8  -7  220.36    5.07   0
  -2   5  -9   18.79    2.04   0
  -2   8  -6   42.26    3.05   0
  -2   8  -5   35.10    2.66   0
  -1   5 -11    1.71    1.73   0
  -1   6 -11    2.80    1.75   0
   0   4 -12   73.57    3.27   0
   1   4 -13   24.83    2.25   0
   1   6 -13    4.36    1.90   0
  -2   6  -9    2.19    1.68   0
   0   8 -10   12.40    1.64   0
   1   5 -13   21.49    2.52   0
  -2   7  -8  117.51    3.78   0
  -1   7 -10  261.05    5.81   0
   0   3 -11   12.20    2.40   0
   0   5 -12  100.53    3.50   0
   1   7 -12    8.80    1.57   0
  -1   4 -10  443.82    6.97   0
  -1   8  -8   -0.82    2.13   0
   0   7 -11    9.81    2.44   0
   2   6 -13   58.78    2.15   0
   2   7 -12  222.02    2.97   0
  -2   5  -8  158.10    4.41   0
  -2   6  -8   40.10    2.85   0
  -1   5 -10   -0.87    2.09   0
  -1   6 -10   17.16    2.28   0
  -1   8  -7   50.50    3.02   0
  -1   7  -9   94.56    3.82   0
   2   5 -13    9.95    2.30   0
  -2   6  -7   39.50    2.67   0
  -2   7  -6   48.65    2.63   0
  -1   8  -6    5.04    1.89   0
   0   6 -11   94.01    3.74   0
   1   6 -12   43.51    2.53   0
   1   8  -9  189.08    3.07   0
   2   4 -13  240.35    4.86   0
  -2   7  -5   10.39    1.84   0
   0   7 -10   15.93    2.63   0
   0   8  -8   14.21    1.87   0
   1   4 -12   17.63    2.29   0
   1   7 -11    6.49    1.71   0
   1   5 -12   25.62    2.13   0
   1   8  -8  164.58    3.07   0
   3   5 -13   18.14    2.09   0
  -1   6  -9    1.59    1.58   0
  -1   7  -8   61.12    2.88   0
   2   6 -12   -0.92    1.92   0
   0   8  -6   85.76    2.77   0
   1   8  -7   16.89    1.84   0
   3   4 -13    2.54    2.04   0
   3   6 -12   34.77    2.10   0
  -1   7  -7  129.96    3.74   0
   0   7  -9   12.99    2.35   0
   1   7 -10   30.87    2.38   0
   1   8  -6    3.87    1.84   0
  -1   6  -8    7.30    2.00   0
   0   4 -10    0.20    1.62   0
   0   6 -10    5.81    1.83   0
   1   3 -11   -0.19    1.65   0
   1   6 -11    5.17    1.93   0
   2   3 -12  235.08    4.54   0
   3   7 -10    4.75    1.83   0
   4   4 -13   14.41    1.94   0
   0   5 -10    5.06    1.61   0
   2   5 -12    0.92    2.09   0
  -1   5  -8   78.79    3.02   0
  -1   7  -6   -0.23    1.63   0
   2   4 -12    5.14    1.87   0
  -1   7  -4    2.78    1.81   0
   0   7  -8    3.91    1.97   0
   1   4 -11   57.06    2.53   0
   4   6 -11    0.98    1.50   0
  -1   6  -7  262.53    4.88   0
   0   6  -9  167.06    4.22   0
   1   7  -9   20.26    1.86   0
   2   6 -11   19.59    1.75   0
   3   5 -12    5.16    2.01   0
   3   7  -9    1.77    1.86   0
   1   6 -10   28.15    2.07   0
   3   6 -11  204.37    3.22   0
   4   5 -12  180.87    2.99   0
   0   5  -9  146.10    4.00   0
   0   7  -7   58.53    2.50   0
   2   7  -9    1.37    1.61   0
   3   3 -12  150.98    3.73   0
   3   4 -12  128.24    3.74   0
   0   6  -8   88.52    2.95   0
   0   7  -6  120.71    3.34   0
   3   7  -8   27.35    1.80   0
   5   4 -12   92.78    2.46   0
   1   4 -10    7.54    1.81   0
   2   3 -11   51.98    2.28   0
   2   6 -10   12.65    1.73   0
   4   4 -12   -0.80    1.94   0
   4   6 -10   18.02    1.71   0
   5   5 -11    2.98    1.51   0
   0   7  -4   27.56    1.98   0
   1   6  -9   27.67    2.19   0
   1   7  -7   81.07    2.63   0
   2   4 -11  159.11    3.49   0
   3   7  -7   66.56    2.35   0
   3   6 -10  362.50    4.36   0
   4   3 -12    6.66    2.06   0
   0   6  -7  339.27    4.95   0
   1   7  -6   43.87    2.03   0
   2   7  -7   81.81    2.52   0
   3   7  -6   41.49    1.81   0
   4   5 -11   66.00    2.19   0
   3   2   9   21.51    2.06   0
   3   3   8   61.96    2.14   0
   4   1   6  128.40    2.94   0
   2   4   9   62.80    2.13   0
   2   5   7  211.01    2.99   0
   3   4   5   49.39    2.46   0
   4   1   4    5.78    1.36   0
   4   1   5   57.34    2.23   0
   1   4  11   26.79    1.47   0
   1   6   7   49.47    2.00   0
   3  -1   8   56.85    2.04   0
   3   0   9   -0.32    1.57   0
   3   4   4   45.65    2.24   0
   0   3  13    3.84    1.19   0
   2   0  11    4.30    1.51   0
   2   3  10   59.25    2.02   0
   3   1   9   23.27    1.80   0
   3   3   7    7.86    1.56   0
   2   1  11    2.95    1.35   0
   2   5   6  348.93    4.02   0
   3   2   8   16.72    1.96   0
   1   5   9    7.77    1.51   0
   0   4  12   16.95    1.41   0
   0   6   9   52.81    1.78   0
   1   2  12    9.58    1.35   0
   1   6   6   14.19    1.77   0
   2   4   8   27.41    1.78   0
   2   5   5  243.80    3.78   0
   3   0   8   22.76    1.72   0
   3   1   8  249.75    3.86   0
   3   3   6   52.30    2.20   0
   1   1  12   -0.10    1.69   0
   2   2  10   12.40    1.89   0
   3   2   7    6.21    1.47   0
   2   0  10    2.84    1.41   0
   2   3   9   14.30    1.60   0
   2   5   4   78.19    2.45   0
   3   3   3   83.19    2.55   0
   3   3   4   96.92    2.69   0
   1   3  11   70.79    2.17   0
   1   4  10   15.94    1.48   0
   1   6   5    1.29    1.80   0
   2   1  10  223.52    3.45   0
   3   1   7  547.10    5.51   0
   3   2   6  136.03    2.99   0
  -1   7   8    0.65    1.45   0
   3   2   5    3.82    1.16   0
   0   5  10   46.07    2.03   0
   1   0  11   47.21    2.03   0
   2   0   9    8.12    1.36   0
   2   2   9   23.25    1.76   0
   2   3   8    6.36    1.59   0
  -1   6  10   28.59    1.40   0
   0   6   8   10.41    1.44   0
   1   2  11   49.43    1.98   0
   2   4   6   47.00    2.19   0
  -1   3  13   88.23    1.99   0
   0   4  11   66.28    1.98   0
   1   1  11  123.59    2.64   0
   1   4   9    6.17    1.56   0
   1   3  10   10.73    1.58   0
   1   5   7   64.53    2.30   0
   2   4   5   38.17    2.01   0
   0   1  12    1.46    1.59   0
   0   2  12   28.29    1.63   0
   2   2   8   28.18    1.81   0
   2   3   7   76.61    2.39   0
   2   4   3  207.55    3.56   0
   2   4   4   69.01    2.29   0
  -2   6  11   24.34    1.28   0
  -1   2  13    8.29    1.21   0
  -1   5  11    4.67    1.26   0
  -1   7   7   35.88    1.79   0
   0   6   7   22.76    2.01   0
   1   0  10    0.02    1.66   0
  -2   4  13   -0.22    1.04   0
  -2   7   9    1.27    1.13   0
   0   5   9   14.54    1.87   0
   1   5   6   92.66    2.68   0
   2   3   6   11.18    1.43   0
  -2   5  12   30.87    1.63   0
   1   4   8   -0.09    1.43   0
   2   2   7   18.01    1.52   0
   0   3  11   30.08    1.66   0
   0   4  10    6.52    1.76   0
   1   3   9  214.21    3.52   0
   1   5   5   48.29    2.48   0
  -1   7   6   20.45    1.77   0
   0   6   6    0.33    1.59   0
   1   4   7    8.18    1.84   0
   1   5   4   89.97    2.60   0
  -2   3  13    1.81    1.30   0
  -1   3  12   76.06    2.05   0
   0   1  11   65.53    2.46   0
   0   2  11    0.02    1.39   0
   0   5   8    2.43    1.59   0
   1   2   9   50.87    2.08   0
   1   5   3   35.81    1.97   0
  -3   8   7  157.33    2.61   0
  -2   7   8   21.73    1.74   0
  -1   5  10   36.10    1.80   0
  -1   7   5   61.04    2.61   0
   0   6   5   30.98    1.99   0
   1   1   9  117.09    2.55   0
   1   3   8  288.76    4.15   0
  -2   2  13    0.32    1.23   0
  -2   6  10    2.08    1.44   0
  -1   2  12    2.90    1.50   0
  -1   4  11   62.27    1.99   0
  -3   4  13    3.84    1.14   0
   0   3  10  110.57    2.66   0
   0   4   9    6.39    1.58   0
  -3   6  11   29.88    1.45   0
  -2   5  11   13.46    1.64   0
   1   2   8  238.53    3.62   0
  -3   5  12   68.22    2.02   0
   1   3   7  276.44    4.02   0
   1   4   5    9.16    1.46   0
  -3   8   6   28.67    1.96   0
  -2   7   7   67.99    2.55   0
   0   1  10  185.40    3.05   0
   0   2  10    9.46    1.38   0
  -3   3  13  186.83    2.73   0
  -1   6   7   40.96    2.09   0
   0   4   8    9.15    1.57   0
  -4   7  10    8.86    1.25   0
  -2   3  12   22.21    1.79   0
  -2   6   9   53.40    2.19   0
  -1   4  10    5.64    1.53   0
   0   3   9    5.27    1.38   0
   0   5   6    2.32    1.48   0
  -4   4  13    0.42    1.26   0
  -2   2  12   43.94    2.03   0
  -3   6  10   54.06    2.34   0
  -2   4  11    5.27    1.54   0
  -2   5  10   37.58    2.00   0
  -2   7   6   13.90    1.87   0
  -1   6   6   29.81    1.98   0
   0   4   7  159.38    3.51   0
   0   5   5  110.69    2.81   0
  -4   6  11    6.50    1.31   0
  -4   8   7   42.73    2.00   0
  -3   4  12    0.90    1.31   0
   0   3   8   39.97    2.26   0
  -5   4  13    0.18    1.24   0
  -4   3  13    0.56    1.11   0
  -3   5  11   21.32    1.57   0
  -2   6   8   33.55    2.30   0
  -1   4   9   30.17    2.14   0
   0   5   4  172.24    3.24   0
  -2   7   5    0.93    1.83   0
  -1   6   5    0.61    1.50   0
  -5   7  10   16.14    1.53   0
  -5   8   8   10.71    1.34   0
  -4   7   9    9.40    1.49   0
   0   4   6  668.57    5.98   0
  -3   3  12  303.32    3.65   0
  -2   3  11   98.89    2.48   0
  -1   2  10   55.32    2.05   0
  -1   5   7   57.82    2.30   0
  -1   6   4   17.57    2.07   0
  -4   8   6  446.97    5.17   0
  -3   2  12   -0.61    1.50   0
  -3   7   7   20.52    2.16   0
  -5   5  12  137.51    2.26   0
  -5   6  11   13.38    1.57   0
  -3   6   9   37.76    2.19   0
  -2   2  11   33.82    1.72   0
  -2   4  10   11.23    1.65   0
  -1   3   9    8.33    1.59   0
  -4   4  12   66.10    1.92   0
  -4   6  10    1.37    1.62   0
  -6   7  10    9.57    1.42   0
  -6   5  12   16.78    1.43   0
  -5   8   7    5.33    1.38   0
  -4   5  11   14.63    1.57   0
  -4   8   5    1.12    1.69   0
  -5   7   9    5.27    1.56   0
  -4   3  12   12.67    1.66   0
  -3   7   6  119.74    3.31   0
  -2   3  10   43.57    2.31   0
  -2   5   8   -0.42    1.46   0
  -2   6   6  589.30    7.03   0
  -6   6  11   36.68    1.58   0
  -3   6   8    7.55    1.67   0
  -1   4   7   11.65    1.45   0
  -5   4  12   10.82    1.48   0
  -1   5   5   17.20    1.65   0
  -2   2  10   86.08    2.36   0
  -5   6  10  115.66    2.78   0
  -5   8   6   89.59    2.88   0
  -4   6   9    8.80    1.69   0
  -3   2  11    0.83    1.24   0
  -3   4  10  155.16    3.73   0
  -3   5   9   37.13    2.13   0
  -3   7   5    3.05    1.51   0
  -2   6   5   58.18    2.36   0
  -6   4  12   13.95    1.38   0
  -6   8   7   43.52    2.06   0
  -5   3  12   56.54    1.94   0
  -6   7   9    2.59    1.36   0
  -3   6   7    6.53    1.69   0
  -5   7   8   59.84    2.33   0
  -3   7   4   14.57    2.14   0
  -2   4   8   -0.02    1.28   0
  -2   6   4   48.95    2.34   0
  -7   7   9   32.93    1.80   0
  -6   6  10   47.71    1.84   0
  -5   8   5   64.00    2.48   0
  -4   3  11   41.26    1.76   0
  -4   7   6    1.81    1.96   0
  -3   3  10   46.35    1.91   0
  -5   4  11    4.56    1.59   0
  -4   6   8   19.05    1.81   0
  -6   8   6    8.47    1.53   0
  -6   7   8    4.18    1.80   0
  -5   5  10   -0.73    1.49   0
  -4   5   9    6.62    1.38   0
  -3   2  10   19.09    1.49   0
  -6   4  11   94.87    2.36   0
  -5   3  11    6.08    1.44   0
  -4   7   5    8.42    1.69   0
  -7   4  11    5.69    1.54   0
  -7   8   6    0.32    1.47   0
  -6   8   5   60.35    2.64   0
  -3   5   7   29.42    2.05   0
  -3   6   5  171.01    4.27   0
  -7   7   8    2.82    1.26   0
  -6   6   9    4.22    1.42   0
  -4   3  10   12.70    1.79   0
  -3   3   9    0.13    1.19   0
  -8   7   8    8.69    1.43   0
  -6   3  11   24.26    1.85   0
  -3   4   8   74.96    2.43   0
  -6   7   7  158.51    3.31   0
  -5   4  10   12.27    1.45   0
  -4   5   8   22.52    1.87   0
  -4   7   4   13.69    1.90   0
  -7   5  10   29.63    1.78   0
  -7   6   9   27.80    1.73   0
  -6   8   4    5.49    2.03   0
  -5   5   9   29.92    1.93   0
  -4   2  10   38.20    1.97   0
  -8   6   9    0.45    1.16   0
  -7   8   5   17.13    1.61   0
  -3   6   4  227.78    4.18   0
  -3   5   6  193.23    3.80   0
  -8   8   5   17.41    1.50   0
  -7   7   7  111.75    2.75   0
  -6   4  10  130.30    2.86   0
  -6   6   8    0.35    1.65   0
  -5   7   5    4.57    1.68   0
  -9   5   9   62.98    1.71   0
  -8   4  10   78.79    2.06   0
  -6   8   3   11.43    2.03   0
  -5   6   7    1.09    1.34   0
  -9   6   8    6.45    1.43   0
  -8   7   7   12.22    1.49   0
  -7   4  10   12.67    1.46   0
  -7   8   4    2.37    1.77   0
  -4   3   9   87.34    2.51   0
  -4   5   7   71.69    2.56   0
  -5   5   8    5.81    1.40   0
  -4   4   8   83.51    2.84   0
  -4   6   5   15.75    2.10   0
  -9   4   9   51.79    1.81   0
  -8   8   4   47.42    2.07   0
  -7   6   8   23.74    1.81   0
  -6   3  10   79.97    2.32   0
  -5   7   4    0.27    1.94   0
  -8   5   9    8.83    1.39   0
  -8   6   8  144.71    2.81   0
  -9   7   6   15.91    1.41   0
  -7   7   6    2.12    1.37   0
  -7   8   3   33.94    2.01   0
  -6   6   7   14.64    1.72   0
  -6   7   5    4.28    1.93   0
  -5   6   6    0.11    1.40   0
  -8   7   6   32.72    1.81   0
  -8   8   3  192.90    3.14   0
  -6   4   9    1.10    1.20   0
  -6   5   8    9.15    1.80   0
  -5   3   9   22.66    1.82   0
  -5   7   3   13.04    2.05   0
  -4   5   6  365.94    5.11   0
  -4   6   4  123.89    3.22   0
  -9   5   8   46.00    1.84   0
  -9   6   7    2.29    1.25   0
  -8   4   9   -0.35    1.74   0
  -7   8   2   31.70    2.17   0
  -5   5   7   18.54    1.97   0
  -7   4   9    1.10    1.35   0
  -7   6   7   53.13    2.37   0
  -9   7   5    3.82    1.28   0
  -8   6   7   25.77    1.68   0
  -7   5   8  110.46    2.81   0
  -5   2   9   13.49    1.66   0
  -8   7   5   21.63    1.71   0
  -6   6   6   70.07    2.65   0
  -5   7   2   34.90    2.37   0
  -9   4   8   34.15    1.68   0
  -9   3   8    0.20    1.46   0
  -7   3   9  294.02    4.12   0
  -9   6   6    1.18    1.29   0
  -9   7   4    2.05    1.52   0
  -7   6   6    5.10    1.72   0
  -6   7   3   23.24    1.96   0
  -5   3   8  127.59    2.87   0
  -5   5   6   13.32    1.57   0
  -5   6   4   51.75    2.75   0
  -8   4   8   -0.91    1.40   0
  -8   6   6  107.60    2.89   0
  -7   4   8   22.39    1.99   0
  -6   6   5    6.61    1.58   0
  -5   4   7    5.45    1.22   0
 -10   6   4    7.08    1.47   0
  -8   5   7   50.65    2.13   0
  -7   5   7   19.86    1.76   0
  -7   7   3   15.46    2.14   0
  -6   7   2   14.17    1.80   0
 -10   5   5   31.85    1.79   0
  -9   4   7   20.56    1.94   0
  -9   6   5  151.33    3.00   0
  -6   3   8  134.10    2.88   0
  -7   6   5   40.92    2.17   0
  -6   5   6   69.93    2.47   0
  -5   5   5  125.74    3.41   0
  -5   6   3   12.21    1.57   0
 -10   6   3    2.11    1.40   0
  -9   3   7    5.65    1.59   0
  -9   5   6   20.62    1.73   0
  -9   7   2    1.80    1.39   0
  -8   6   5   24.79    1.92   0
  -7   3   8    4.02    1.41   0
  -6   4   7   38.78    2.10   0
  -6   7   1    1.84    1.94   0
  -7   7   2   34.99    2.06   0
 -10   4   5    2.36    1.26   0
  -8   4   7   17.15    1.80   0
  -8   5   6   31.99    1.92   0
  -8   7   2   24.04    1.75   0
  -7   2   8   -0.31    1.70   0
  -7   5   6   15.23    1.67   0
  -6   2   8   67.70    2.29   0
 -10   5   4    5.11    1.30   0
  -9   6   4  100.13    2.73   0
  -9   7   1   10.53    1.50   0
  -6   7   0    2.47    1.92   0
  -9   4   6   18.35    2.05   0
  -9   7   0    2.77    1.56   0
  -7   6   4    6.91    1.56   0
  -7   7   1    4.72    1.82   0
 -10   6   1   11.69    1.52   0
  -9   5   5    0.02    1.51   0
  -9   7  -1   -0.41    1.38   0
  -8   6   4   14.02    1.73   0
  -8   7   1   17.88    1.76   0
  -6   5   5   26.13    1.81   0
  -6   6   3  216.25    4.03   0
  -8   3   7   11.16    1.62   0
  -6   3   7   46.00    1.98   0
 -10   5   3   57.96    1.94   0
  -9   3   6   23.53    1.99   0
  -9   6   3    9.84    1.69   0
  -8   7   0   25.19    2.23   0
  -7   5   5   30.89    2.25   0
  -7   7   0   42.10    2.18   0
  -6   4   6  295.25    4.45   0
  -8   5   5   -0.28    1.37   0
  -7   6   3   36.54    2.38   0
  -8   6   3   68.90    2.55   0
  -8   7  -2  110.94    2.83   0
  -8   7  -1   83.68    2.42   0
  -7   4   6   13.73    1.64   0
  -7   7  -1   91.06    2.89   0
 -10   5   2   43.00    1.70   0
  -9   5   4    0.23    1.32   0
  -9   6   2    1.66    1.47   0
  -7   2   7  124.60    3.14   0
  -6   2   7   10.04    1.60   0
  -6   5   4   38.94    2.19   0
  -6   6   2  548.23    6.13   0
 -10   3   3    9.39    1.37   0
 -10   5   1    6.59    1.36   0
  -8   3   6   27.50    2.22   0
 -10   5   0   26.69    1.70   0
  -9   3   5   77.97    2.74   0
  -9   6   1   20.73    1.73   0
  -8   5   4    0.26    1.41   0
  -8   6   2    6.02    1.61   0
  -7   5   4   20.81    1.82   0
  -6   3   6    6.37    1.36   0
  -9   2   5   -0.38    1.40   0
  -9   5   3    4.82    1.55   0
  -8   4   5    8.59    1.74   0
  -6   6   1  904.22    7.43   0
  -9   4   4    3.80    1.55   0
  -7   4   5  164.59    3.30   0
  -4   1  -7   54.18    4.19   0
   1   0  -5   88.78    1.92   0
  -4   2  -2    0.85    0.81   0
  -3   2  -3   24.96    1.25   0
   1   0  -6   58.66    2.14   0
   1   0  -4  179.62    2.44   0
   2  -1  -6   93.79    2.56   0
  -4   2  -5    2.42    1.46   0
  -3   2  -5    8.30    1.15   0
  -3   2  -2  229.18    2.72   0
  -1   0 -10    0.47    2.07   0
  -3   1  -9    0.70    2.08   0
  -2   1  -9   21.13    2.67   0
   0   1  -5    3.21    0.65   0
  -5   2  -5    1.92    1.63   0
  -3   2  -7  210.82    6.15   0
  -2   2  -6    1.24    1.00   0
   0   0 -10   28.78    3.04   0
   0   1  -7   70.88    2.42   0
   0   1  -4  833.58    4.91   0
   2  -1  -8    6.99    1.49   0
  -2   2  -7  214.58    4.87   0
  -3   2  -8   92.74    3.92   0
  -3   2  -1   19.98    0.75   0
   0   1  -8   39.23    1.90   0
  -2   2  -8   51.15    3.46   0
  -4   2  -8    4.84    2.14   0
  -1   2  -6  333.66    4.13   0
  -2   2  -9   56.34    3.60   0
  -1   2  -7  107.06    3.06   0
  -1   2  -8   47.50    2.97   0
   0   1 -10   63.09    4.03   0
  -4   3  -6    2.55    1.57   0
  -3   3  -5   72.19    2.16   0
   1   0 -11    5.81    2.37   0
  -1   2  -3   11.73    0.62   0
   1   1  -6  403.40    4.04   0
  -2   3  -7  124.40    3.71   0
  -2   3  -6   26.47    1.46   0
   2   0  -8  122.54    2.74   0
  -2   3  -8    4.10    1.39   0
   0   2  -8  130.56    3.41   0
   0   2  -7    1.09    0.87   0
   2   0  -6  503.90    4.07   0
  -2   3  -9  102.82    4.55   0
   0   2  -6  344.58    4.11   0
   1   1 -10   14.26    2.32   0
  -1   3  -8   19.53    1.82   0
  -1   3  -7  349.80    5.12   0
  -3   3  -2   98.49    1.69   0
  -1   3  -6  517.38    5.43   0
  -4   4  -7  128.74    4.10   0
  -4   4  -6    2.74    1.27   0
  -1   3 -10   14.68    2.79   0
  -4   4  -5    2.30    1.10   0
  -3   4  -7  155.79    3.67   0
  -3   4  -6   17.92    1.91   0
   0   2  -4  909.36    4.93   0
   1   2  -9    2.21    1.41   0
  -2   4  -8  188.64    4.70   0
  -2   4  -7   84.18    2.82   0
   1   2  -7   12.07    1.05   0
  -1   3  -4  606.88    4.42   0
   0   3  -9  133.38    3.60   0
   0   3  -8  470.71    6.26   0
   2   0  -4  685.65    2.98   0
  -2   4 -10   63.09    3.59   0
   0   3  -7   13.41    1.13   0
  -2   3  -2  359.56    2.62   0
   0   2  -3  742.56    3.78   0
   0   3 -11   10.80    2.20   0
   0   3  -6  148.21    2.87   0
  -3   3  -1  573.14    3.04   0
  -1   4  -9   94.28    4.16   0
  -1   4  -8   23.10    2.10   0
  -1   4 -10  367.17    7.82   0
  -1   4  -7   12.73    1.53   0
   2   1  -6  333.50    3.28   0
  -4   5  -7    3.94    1.73   0
  -3   4  -3    1.39    0.49   0
  -3   5  -8   11.69    2.04   0
   0   3  -5   25.52    1.15   0
  -3   5  -7  130.58    3.82   0
  -1   4  -6   35.33    1.59   0
  -4   5  -5   33.36    1.91   0
  -3   5  -6  102.13    2.83   0
   1   3  -9   73.08    3.37   0
  -2   5  -9   15.60    2.19   0
  -2   5  -8  169.60    4.67   0
  -1   4  -5 1035.07    6.94   0
   1   3 -11   -0.71    1.82   0
   1   3  -8  126.61    3.17   0
   2   1  -5  207.38    2.41   0
  -3   5  -5  171.82    3.34   0
   0   4  -9    5.49    1.54   0
  -4   5  -4   25.13    1.53   0
   0   4  -8   49.40    2.49   0
   1   2  -4  171.84    2.10   0
   2   2  -8   26.34    1.56   0
  -3   4  -2  124.15    1.74   0
  -2   5  -6    1.32    1.00   0
   0   2  -2  157.03    1.49   0
   0   4  -7  105.05    2.74   0
  -2   3  -1  249.42    1.97   0
  -3   5  -4  486.32    4.86   0
  -1   4  -4  118.81    2.25   0
  -1   5  -9   67.94    3.09   0
  -1   5  -8   86.67    3.18   0
  -1   5  -7   19.94    1.79   0
  -4   5  -3   10.26    0.92   0
   2   2  -6   66.30    1.70   0
  -4   6  -6   76.51    3.06   0
  -3   6  -7    6.22    1.86   0
   2   1  -4   21.98    0.78   0
  -2   4  -2   35.01    1.07   0
  -1   5  -6  248.92    4.00   0
   1   3  -5  406.77    3.85   0
   1   4 -10    6.96    1.88   0
  -3   3   0    1.08    0.31   0
  -3   5  -3   -0.08    0.67   0
  -3   6  -6    2.17    1.69   0
   0   4  -5    9.50    1.01   0
   1   4  -9   -1.06    1.38   0
  -4   6  -5   45.32    2.20   0
  -2   6  -8   50.33    2.65   0
   1   2  -3  459.61    2.81   0
  -3   4  -1    3.23    0.43   0
  -1   5  -5  354.41    4.31   0
   0   5  -8   73.84    2.84   0
   2   2  -5    7.13    0.79   0
  -3   6  -5  315.36    4.38   0
   0   4  -4    0.24    0.66   0
   0   5  -7   45.40    2.18   0
   1   3  -4    2.39    0.64   0
  -2   5  -3   52.17    1.63   0
  -1   6  -8    9.32    1.81   0
   0   2  -1  897.62    3.19   0
   1   4  -6  143.79    2.92   0
   3   1  -6  184.08    2.12   0
  -3   6  -4   69.28    2.29   0
  -1   2   0    2.39    0.20   0
  -1   5  -4   41.13    1.60   0
   0   3  -2  241.52    2.15   0
   0   5  -6    3.55    1.07   0
  -2   6  -5    0.33    1.12   0
  -1   4  -2   13.28    0.72   0
  -1   6  -7  286.39    4.89   0
  -2   4  -1  112.99    1.60   0
  -1   6  -6  156.26    3.60   0
   2   1  -3  161.95    1.48   0
   2   2  -4  396.76    3.01   0
   0   4  -3  436.78    4.07   0
   0   5  -5  283.30    4.14   0
   1   2  -2 1016.23    3.91   0
   3   2  -7  114.04    2.21   0
  -2   5  -2   13.14    0.96   0
  -2   6  -4    1.29    1.02   0
   1   3  -3   63.05    1.37   0
  -3   6  -3  111.24    2.40   0
  -1   5  -3   49.50    1.55   0
  -1   6  -5  109.49    2.96   0
   3   1  -5   37.25    0.90   0
   0   6  -7  335.05    5.54   0
   2   4  -7   96.58    2.86   0
   3   2  -6  136.02    2.22   0
  -3   5  -1    6.48    0.72   0
  -3   7  -5  238.93    4.20   0
   0   5  -4  144.73    2.92   0
   1   4  -4   82.40    2.07   0
  -1   4  -1 1400.97    5.54   0
   1   1  -1  394.85    1.78   0
   1   5  -6   13.79    1.52   0
  -2   6  -3  114.40    2.62   0
   0   4  -2  887.39    5.14   0
   0   6  -6    1.02    1.62   0
  -1   6  -4  255.65    4.24   0
   2   4  -6    1.15    1.10   0
  -3   6  -2   18.68    1.25   0
  -3   7  -4   26.06    1.92   0
  -2   7  -5   14.14    1.78   0
  -1   5  -2    5.83    0.74   0
   2   3  -4   33.64    1.16   0
   3   3  -7    0.65    1.12   0
  -2   4   0    3.05    0.42   0
  -2   5  -1    9.95    0.74   0
   1   3  -2  112.76    1.64   0
   0   6  -5  164.65    3.44   0
   3   2  -5  706.62    4.46   0
   0   2   0    0.71    0.21   0
   2   4  -5  529.06    5.35   0
   3   1  -4  643.13    3.27   0
  -2   6  -2  296.94    4.03   0
  -2   7  -4  220.18    4.11   0
  -1   6  -3   83.40    2.38   0
   1   2  -1  479.34    2.59   0
   2   1  -2   36.60    0.69   0
   3   3  -6    8.80    1.07   0
  -3   7  -3   79.67    2.54   0
   2   5  -7    1.01    1.51   0
   1   5  -4   -0.75    0.90   0
  -3   5   0  169.41    2.16   0
   0   4  -1   82.44    1.58   0
   0   6  -4   50.61    2.18   0
  -3   6  -1  221.05    3.00   0
  -2   3   1    2.99    0.31   0
   0   5  -2  200.99    3.22   0
   1   6  -6  138.24    3.70   0
   2   5  -6  589.79    7.21   0
  -2   7  -3  122.47    3.17   0
   1   4  -2    5.42    0.74   0
   3   2  -4   24.82    0.95   0
   3   3  -5    0.39    0.91   0
   0   3   0  793.80    3.63   0
   1   3  -1  113.72    1.61   0
  -2   6  -1    3.94    1.12   0
   1   5  -3   63.84    2.20   0
   1   6  -5  231.70    4.63   0
  -3   7  -2    2.72    1.27   0
   0   6  -3  190.91    3.77   0
   2   5  -5    2.64    1.72   0
   3   1  -3  104.25    1.36   0
  -2   4   1   12.16    0.58   0
   2   3  -2  159.83    2.17   0
  -2   7  -2   30.86    1.88   0
  -1   7  -3   -0.04    1.43   0
   0   5  -1   72.17    1.85   0
   3   3  -4    0.46    0.96   0
   0   4   0  166.10    2.10   0
   1   6  -4  385.68    5.74   0
   3   0  -3  301.65    1.65   0
   3   2  -3    7.14    0.70   0
  -3   6   0  240.91    3.10   0
  -1   6  -1   61.67    1.94   0
   1   1   0  395.52    1.91   0
   3   4  -5   87.54    2.30   0
   0   6  -2   22.43    1.67   0
   1   5  -2  367.47    4.51   0
  -2   6   0    4.33    1.08   0
  -1   4   1   60.69    1.18   0
  -1   7  -2   80.39    2.79   0
   0   2   1  160.71    1.40   0
   1   3   0   29.50    0.88   0
  -2   5   1  420.40    3.46   0
   0   3   1 1415.18    4.93   0
   1   6  -3   17.15    1.76   0
   2   4  -2    0.26    0.79   0
   3   3  -3  321.93    3.43   0
   2   3  -1  161.72    2.18   0
   0   5   0  271.04    3.44   0
  -1   6   0   -0.16    0.89   0
   0   6  -1   17.26    1.41   0
   1   5  -1  426.59    4.54   0
   3   1  -2    5.78    0.47   0
   3   2  -2   14.38    0.75   0
  -1   5   1    3.05    0.75   0
   0   4   1   28.56    1.01   0
  -1   7  -1  331.62    5.22   0
   1   6  -2    0.25    1.32   0
  -2   3   2   36.96    0.74   0
  -2   4   2   10.54    0.65   0
   2   4  -1  165.20    2.81   0
   3   3  -2  909.86    5.80   0
  -2   6   1    1.51    0.86   0
  -1   3   2   15.45    0.59   0
   1   2   1   59.81    1.06   0
   2   2   0  521.79    3.28   0
   2   5  -2    2.12    1.26   0
  -1   4   2    0.48    0.55   0
   1   3   1   56.71    1.21   0
   0   6   0  152.31    3.17   0
   2   3   0  505.78    3.84   0
  -1   2   2   21.35    0.53   0
   1   5   0  309.07    4.30   0
  -1   6   1   18.08    1.35   0
   0   3   2  470.76    3.07   0
   1   6  -1   -0.23    1.34   0
   3   0  -2  551.47    2.41   0
   3   2  -1   18.91    0.89   0
   3   4  -2   70.81    2.25   0
   1   1   1  145.75    1.33   0
   1   4   1  118.66    2.12   0
   2   5  -1    7.96    1.41   0
   3   1  -1 1139.44    4.77   0
   4   2  -3   26.02    1.19   0
  -1   5   2   98.44    1.99   0
   0   2   2  652.43    3.14   0
   0   4   2  211.73    2.47   0
   2   4   0  351.27    3.97   0
   4   3  -3  304.29    4.51   0
  -2   7   1   58.32    2.19   0
   2   2   1   53.86    1.25   0
   1   3   2  320.44    2.93   0
   1   5   1   30.36    1.65   0
   1   6   0  236.59    4.29   0
   2   3   1   81.07    1.68   0
  -1   5 -14    0.84    1.52   0
   2   0 -11  238.43    6.80   0
  -2   7 -13   61.80    2.26   0
   0   1 -11   45.75    3.66   0
   1   1 -12    2.82    1.92   0
  -3   3  -9  124.83    5.24   0
  -2   3 -11    7.82    2.40   0
  -2   4 -12   53.20    3.82   0
   0   4 -14   53.77    2.84   0
  -3   4 -10   20.28    2.82   0
   0   2 -12    1.84    2.12   0
   3   3 -14   46.07    2.49   0
  -1   3 -12    1.65    2.04   0
   2   1 -12    1.18    1.84   0
   2   3 -14   -0.14    1.78   0
  -3   6 -11  127.69    4.21   0
   0   5 -14    3.98    1.67   0
   0   6 -14   60.40    2.52   0
   3   4 -14    0.68    1.83   0
  -3   7 -11   18.96    2.01   0
   1   1 -11   37.31    3.11   0
   3   2 -13    0.49    1.70   0
  -1   5 -13    3.06    1.70   0
  -1   7 -13   11.74    1.90   0
  -3   4  -9    4.75    1.96   0
  -3   5 -10   35.52    3.04   0
   1   5 -14   53.23    2.66   0
   1   6 -14    7.07    1.57   0
  -2   7 -12   51.30    2.20   0
  -1   6 -13   85.00    2.88   0
   0   4 -13    1.04    1.91   0
   2   5 -14   98.90    2.60   0
  -3   8 -10    1.89    1.63   0
  -1   3 -11  160.87    4.78   0
   0   2 -11   43.66    3.16   0
   0   7 -13   33.29    1.78   0
   2   3 -13    6.67    1.80   0
   3   3 -13   34.89    2.42   0
  -3   7 -10    1.98    1.71   0
  -2   8 -11   78.34    2.48   0
   0   5 -13   72.09    2.78   0
   2   2 -12   68.00    3.39   0
  -3   5  -9    4.09    2.02   0
  -1   5 -12   77.07    2.89   0
   3   2 -12    1.42    1.70   0
   3   4 -13    3.43    1.95   0
   3   5 -13   20.12    1.87   0
  -2   6 -11   78.16    3.29   0
  -2   7 -11    8.35    1.67   0
  -1   3 -10   14.17    2.16   0
  -1   6 -12   -0.39    1.27   0
  -1   7 -12    4.29    1.59   0
   1   5 -13   25.00    2.31   0
   0   3 -11    9.38    2.16   0
   1   6 -13    6.46    1.61   0
  -3   8  -9    1.97    1.48   0
   2   5 -13    9.86    1.78   0
  -2   5 -10    2.80    1.50   0
   2   3 -12  236.42    5.18   0
  -3   5  -8   12.51    1.84   0
  -3   7  -9    1.82    1.47   0
  -2   4  -9   80.03    3.25   0
  -2   8 -10    6.67    1.65   0
   0   5 -12  106.41    2.90   0
   0   7 -12   36.60    2.22   0
   2   2 -11   13.13    1.75   0
   3   3 -12  187.40    3.91   0
  -1   5 -11    1.24    1.56   0
   1   4 -12   24.51    1.97   0
   3   2 -11   48.75    2.80   0
   3   6 -12   34.60    1.86   0
  -2   6 -10    1.81    1.68   0
   0   6 -12   97.18    2.93   0
   1   7 -12   10.09    1.38   0
  -2   7 -10   22.67    1.78   0
  -1   4 -10  409.68    6.35   0
  -1   6 -11    0.75    1.45   0
  -1   7 -11   13.44    1.80   0
   0   4 -11   14.48    2.04   0
   0   8 -11    0.19    1.18   0
   3   4 -12  135.55    3.46   0
  -3   6  -8   14.01    2.02   0
  -3   8  -8   -0.35    1.56   0
   0   3 -10   12.08    1.66   0
   1   5 -12   29.28    1.99   0
   2   4 -12    6.03    1.69   0
   3   5 -12    6.67    1.78   0
  -2   5  -9   15.17    2.06   0
   1   6 -12   39.30    2.14   0
  -2   8  -9   44.14    2.37   0
  -2   9  -8    0.66    1.39   0
   0   5 -11   -0.60    1.47   0
   2   3 -11   44.22    2.46   0
  -1   5 -10    1.00    1.14   0
   0   7 -11   12.15    1.75   0
   1   4 -11   57.42    2.37   0
   2   7 -11   58.75    2.15   0
   3   3 -11  131.24    3.39   0
  -2   6  -9    0.46    1.40   0
  -2   7  -9  111.64    3.20   0
   0   6 -11  103.27    2.88   0
   3   2 -10   -0.24    1.31   0
  -3   6  -7    4.05    1.67   0
  -1   6 -10   25.90    1.86   0
   0   4 -10    0.08    1.13   0
   1   7 -11    5.03    1.44   0
   3   6 -11  201.78    3.19   0
   1   5 -11  103.03    2.90   0
   1   8 -10  316.62    3.50   0
   2   4 -11  150.99    3.56   0
   3   4 -11   59.30    2.61   0
  -3   7  -7    9.30    1.50   0
  -2   5  -8  155.88    3.86   0
   1   6 -11    7.04    1.69   0
   3   5 -11   49.04    2.34   0
  -2   9  -7   28.95    1.82   0
  -1   9  -8    0.99    1.17   0
  -2   8  -8   58.56    2.15   0
  -1   5  -9   66.86    2.55   0
   0   5 -10    4.03    1.36   0
   2   3 -10  189.22    3.77   0
  -2   6  -8   52.74    2.12   0
   0   7 -10   16.87    1.90   0
   1   4 -10    5.20    1.54   0
   3   3 -10  116.81    3.32   0
   4   5 -10    2.62    1.64   0
  -2   7  -8  122.91    2.97   0
   0   6 -10    7.28    1.43   0
   2   7 -10   39.64    1.89   0
  -1   6  -9    1.93    1.33   0
   1   7 -10   31.46    1.73   0
   3   6 -10  330.65    4.40   0
  -1   9  -7    0.64    1.42   0
   1   5 -10  283.05    4.84   0
   1   8  -9  162.99    2.81   0
   2   4 -10   19.08    1.76   0
   3   7  -9    1.18    1.32   0
  -2   9  -6    9.07    1.37   0
   1   6 -10   28.08    1.97   0
   3   4 -10    8.20    1.64   0
  -2   8  -7  253.07    3.81   0
  -1   8  -8    0.29    1.49   0
   2   6 -10   11.92    1.53   0
   3   5 -10   36.52    1.96   0
  -1   5  -8   90.87    2.59   0
   0   5  -9  167.15    3.50   0
   0   7  -9   11.76    1.67   0
   2   8  -8    5.78    1.36   0
  -2   6  -7   51.04    2.12   0
  -2   7  -7    8.85    1.52   0
   0   6  -9  179.77    3.65   0
   2   7  -9    0.62    1.79   0
   0   8  -8   10.61    1.49   0
   1   4  -9    0.07    1.01   0
   1   7  -9   19.97    1.85   0
   3   3  -9  159.49    3.35   0
   4   5  -9    9.86    1.56   0
   1   8  -8  137.46    2.94   0
   3   6  -9  203.36    3.72   0
   4   4  -9  102.99    2.92   0
   4   6  -8   72.06    2.31   0
  -2   8  -6   46.77    2.39   0
   1   5  -9   92.85    2.96   0
  -1   8  -7   59.18    2.20   0
   1   6  -9   28.09    2.00   0
   2   4  -9  929.12    7.68   0
   2   6  -9  152.19    3.48   0
   2   8  -7  207.54    3.23   0
   3   4  -9  280.10    4.55   0
   0   7  -8    2.00    1.85   0
   3   5  -9   14.51    1.78   0
  -2   7  -6   52.35    2.03   0
  -2   9  -4   42.00    1.94   0
  -1   9  -5   24.40    1.73   0
   0   5  -8   72.03    2.36   0
  -1   7  -7  126.85    3.00   0
   0   6  -8   97.47    2.80   0
   0   8  -7   91.85    2.60   0
   1   7  -8   -1.10    1.75   0
   1   8  -7   13.79    1.65   0
   4   5  -8   31.47    2.07   0
  -2   8  -5   44.71    2.19   0
  -1   8  -6    1.74    1.82   0
   2   8  -6    6.66    1.71   0
   3   6  -8   32.19    1.98   0
   4   4  -8    6.80    1.79   0
   4   6  -7   73.50    2.35   0
   1   5  -8   59.87    2.54   0
   1   6  -8    4.42    1.49   0
  -1   9  -4   17.40    1.48   0
   2   4  -8   26.28    1.79   0
   2   6  -8   24.42    2.00   0
  -2   7  -5   14.03    1.67   0
   0   7  -7   63.48    2.51   0
   0   8  -6   88.28    2.50   0
   0   9  -4   41.97    1.69   0
   1   8  -6    3.95    1.87   0
   2   7  -7   81.47    2.87   0
   3   4  -8   78.16    2.49   0
   3   5  -8    6.63    1.56   0
  -1   7  -6    1.76    1.29   0
   1   7  -7   78.77    2.51   0
  -2   8  -4   16.59    1.73   0
   0   6  -7  344.26    4.83   0
   2   8  -5   11.90    1.67   0
   4   5  -7   76.58    2.75   0
   4   6  -6   -1.39    1.81   0
  -1   6  -6  146.24    3.05   0
  -1   8  -5  147.53    3.31   0
  -1   9  -3   23.93    1.55   0
   0   9  -3   31.62    1.80   0
   4   4  -7  142.86    3.55   0
   0   7  -6  127.96    3.45   0
   1   5  -7   90.60    2.69   0
   1   6  -7   60.37    2.43   0
   1   8  -5   -0.68    1.58   0
   2   6  -7   78.93    2.71   0
  -2   7  -4  216.47    3.70   0
  -1   9  -2    3.29    1.24   0
   0   9  -2   18.38    1.39   0
   2   7  -6    0.58    1.65   0
   2   8  -4    6.21    1.54   0
   3   5  -7  134.50    3.42   0
   3   7  -5  226.85    3.46   0
  -2   8  -3   98.71    2.67   0
   1   7  -6   49.66    2.42   0
   2   5  -7    1.55    1.33   0
   3   4  -7   21.71    1.81   0
   4   6  -5   21.15    2.21   0
  -1   9  -1    0.83    1.45   0
   0   6  -6    2.81    1.28   0
   0   9  -1   67.95    1.79   0
   1   8  -4   31.71    2.29   0
   2   8  -3   63.53    2.22   0
   5   5  -4   55.59    2.28   0
   3   7  -4  186.98    3.66   0
  -1   9   1    8.45    1.38   0
   0   7  -5   82.03    2.76   0
   1   6  -6  139.88    3.31   0
   2   6  -6   79.66    2.88   0
   2   7  -5   24.16    2.01   0
   2   8  -2   60.59    2.20   0
   4   4  -6   29.28    2.28   0
  -2   7  -3  126.55    2.93   0
  -2   8  -2   71.83    2.36   0
  -1   8  -3   24.78    1.85   0
   1   7  -5    2.25    1.46   0
  -1   7  -4    2.11    1.56   0
   1   8  -3    0.65    1.58   0
   2   8  -1   20.43    1.81   0
   3   5  -6  184.04    4.02   0
   2   5  -6  642.36    6.90   0
   2   8   0    5.12    1.50   0
   3   4  -6 1073.66    8.67   0
   3   7  -3    4.48    1.57   0
   5   5  -3    3.38    1.47   0
   0   6  -5  152.67    3.58   0
   2   7  -4   64.53    3.00   0
  -2   8  -1    0.38    1.52   0
  -1   8  -2    5.21    1.63   0
   0   7  -4   29.28    2.18   0
   1   6  -5  234.47    4.25   0
   1   7  -4   80.24    3.03   0
   2   6  -5   59.54    2.69   0
   3   7  -2    0.99    1.63   0
   5   5  -2    5.11    1.75   0
  -2   7  -2   28.59    1.84   0
  -1   7  -3    0.26    1.61   0
   4   4  -5  208.38    4.17   0
   2   7  -3   96.42    3.49   0
   3   5  -5   61.42    2.49   0
   3   7  -1    0.67    1.40   0
   4   6  -2   96.68    2.63   0
  -1   8  -1   32.51    1.89   0
   2   5  -5    1.84    1.66   0
   3   7   0   56.08    2.25   0
   0   6  -4   52.37    2.31   0
   0   8  -1    3.28    1.56   0
   3   7   1    1.67    1.33   0
   4   6  -1    0.62    1.79   0
   5   5   0    6.31    1.68   0
   2   6  -4    9.21    1.74   0
  -2   7  -1  155.19    3.28   0
  -1   8   0  130.05    3.39   0
   1   6  -4  371.23    5.13   0
   2   7  -2    3.39    1.81   0
   3   6  -3  132.64    3.79   0
  -1   7  -2   90.59    2.72   0
   0   8   0  115.86    2.89   0
   3   5  -4  139.80    3.72   0
   4   4  -4    0.82    1.46   0
   4   5  -3  200.07    4.21   0
   4   6   1   12.90    1.52   0
   0   8   4    1.48    1.41   0
  -1   8   1   96.01    2.60   0
   0   8   1    9.69    1.69   0
   1   7  -2   19.99    2.21   0
   2   7  -1   29.91    2.30   0
  -1   8   2   26.69    2.03   0
   0   8   2    6.14    1.52   0
   2   5  -4  171.96    3.86   0
   2   6  -3   38.96    2.64   0
   3   6  -2  104.63    3.46   0
  -1   7  -1  335.64    5.08   0
  -1   8   3    1.25    1.68   0
  -1   8   4   18.12    1.78   0
   1   6  -3   14.80    1.71   0
   2   7   0   84.94    3.01   0
   4   5  -2   38.30    2.32   0
   1   7  -1   23.62    2.38   0
   2   7   4   33.63    1.61   0
   2   7   3  157.67    3.05   0
   3   6  -1  280.34    5.05   0
   4   4  -3    3.39    1.71   0
   2   6  -2   30.10    2.60   0
   2   7   2   45.68    2.06   0
  -1   7   0  252.51    4.50   0
   1   7   0   69.57    3.18   0
   4   5  -1    0.00    1.77   0
   1   6  -2    0.19    1.47   0
   2   5  -3  726.86    7.83   0
   3   6   0  241.80    4.51   0
   3   6   1    1.66    2.02   0
   4   5   0   48.93    2.82   0
   1   7   1    2.07    1.73   0
   2   6  -1   32.41    2.44   0
   4   4  -2  131.06    3.50   0
   5   4   1    2.65    2.01   0
  -1   7   1   74.78    2.71   0
   1   7   2    7.43    2.02   0
   3   6   2    1.16    1.72   0
   3   6   3   -0.09    1.68   0
   5   4   2   30.65    2.26   0
   5   4   3   17.59    1.93   0
   0   7   1    9.24    1.68   0
   1   7   3   -0.77    1.78   0
   1   7   4    0.56    1.51   0
   1   6  -1    0.74    1.55   0
   2   5  -2    0.78    1.53   0
   2   6   0   46.75    3.04   0
   4   5   2   45.36    2.32   0
   4   5   3    5.87    1.76   0
  -1   7   2    6.19    1.71   0
   0   7   2   15.50    2.10   0
   4   4  -1   34.78    2.75   0
  -1   7   3   21.43    2.09   0
   0   7   3    2.27    1.72   0
   0   7   4   31.13    2.09   0
   0   7   5   70.46    2.37   0
   2   6   1   22.17    2.28   0
   2   6   6    2.77    1.51   0
  -1   7   4   75.80    2.95   0
  -1   7   6   17.45    1.70   0
   1   6   0  258.41    5.02   0
   3   5   0  328.83    5.61   0
  -1   7   5   62.90    2.57   0
   2   5  -1    7.14    1.85   0
   2   6   2   10.63    1.98   0
   2   6   5   -1.37    1.88   0
   4   4   0    6.67    1.99   0
   2   6   3   53.09    2.79   0
   2   6   4   -1.13    1.53   0
   5   3   1    9.50    2.32   0
   5   3   6    0.11    1.54   0
   1   6   1    4.28    1.68   0
   3   5   1  148.65    3.95   0
   3   4  -1  174.84    3.98   0
   3   5   6   -0.04    1.45   0
   4   4   1    2.03    1.81   0
   1   6   2   50.43    2.73   0
   2   5   0    8.78    1.92   0
   3   5   2   18.21    2.21   0
   5   3   2    0.60    1.81   0
   5   3   5   -0.22    1.87   0
   3   5   3   24.53    2.38   0
   3   5   4   32.81    2.50   0
   3   5   5    5.64    1.75   0
   4   4   2   72.97    3.39   0
   5   3   3    0.45    1.79   0
   5   3   4    0.08    2.03   0
  -1   6   2   26.15    1.87   0
   1   6   3   13.49    2.12   0
   1   6   6   13.09    1.99   0
   4   4   5    5.54    1.73   0
   3   0   2  864.27    5.06   0
   4   2  -3   23.92    1.72   0
   5   2  -5  162.08    4.40   0
   6  -2   2   45.63    2.53   0
   6  -1   1    0.41    1.47   0
   3  -1   3    0.56    0.54   0
   4   1   0  846.03    6.68   0
   5  -2   3    5.51    1.09   0
   2  -1   3 2027.74    5.62   0
   5   0   1    1.69    0.99   0
   4  -1   3    2.30    0.72   0
   5   2  -4   24.35    2.14   0
   6   0   0  323.87    6.18   0
   2   2  -1    4.22    0.61   0
   3   1   1   51.62    1.44   0
   4   0   2   19.35    1.17   0
   6   1  -2    2.33    2.29   0
   5   2  -3    0.09    2.13   0
   3  -2   4   54.97    1.22   0
   5   1   0    7.88    1.77   0
   4   1   1   18.49    1.32   0
   6  -1   2   29.59    2.26   0
   1   0   2   44.71    0.73   0
   3   3  -4    1.31    1.29   0
   4   2  -1   90.69    2.70   0
   5  -1   3   15.84    1.42   0
   6  -2   3  195.42    4.02   0
   1   1   1  139.61    1.45   0
   2   2   0  551.04    3.91   0
   2   3  -4   26.97    1.21   0
   6   0   1  361.87    6.47   0
   6   1  -1    8.78    2.04   0
   3   2   0   11.98    1.01   0
   2   3  -3  488.83    3.74   0
   3   1   2 1175.46    6.39   0
   3   3  -3  300.51    3.93   0
   4   0   3  183.56    3.00   0
   4   3  -4  333.65    5.63   0
   2   1   2  230.88    2.44   0
   3  -1   4  138.06    1.94   0
   5   1   1   62.17    2.77   0
   4  -1   4  111.43    2.23   0
   4   1   2    0.93    0.96   0
   5   2  -1  125.91    3.93   0
   1   2   0   46.90    1.02   0
   2   3  -2  168.57    2.36   0
   3   3  -2  863.63    6.21   0
   4   3  -3  345.38    5.17   0
   6  -1   3    9.43    2.28   0
   2   2   1   55.74    1.48   0
   5  -1   4    6.26    1.64   0
   5   0   3    1.19    1.30   0
   3   3  -1  216.06    3.50   0
   4   3  -2   38.64    2.17   0
   5   2   0   14.93    2.09   0
   1   1   2   22.69    0.68   0
   1   3  -3   61.80    1.18   0
   2   3  -1  153.89    2.33   0
   3   0   4   17.69    1.15   0
   3   1   3  109.51    2.18   0
   5   1   2  257.52    4.61   0
   2   1   3    0.31    0.68   0
   1   2   1   58.64    1.24   0
   4   1   3  151.07    2.96   0
   4   3  -1   18.84    1.79   0
   2   0   4  314.39    2.81   0
   2   2   2   87.94    1.95   0
   3   2   2  169.07    2.87   0
   3   3   0  179.01    3.24   0
   4  -1   5  211.60    3.12   0
   5   2   1  111.73    3.65   0
   1   3  -1  113.24    1.71   0
   3  -1   5  283.02    2.93   0
   4   2   2  138.00    3.18   0
   5   0   4    0.84    1.40   0
   4   3   0    4.93    1.73   0
   1   1   3  429.42    2.95   0
   2   3   1   84.10    1.96   0
   3   3   1    1.54    1.11   0
   2   2   3   55.54    1.69   0
   2   4  -3  101.32    2.13   0
   3   0   5    1.59    0.97   0
   3   2   3    1.51    1.03   0
   3   4  -2   78.66    2.62   0
   4   1   4    6.07    1.36   0
   2   4  -2    0.53    1.05   0
   4   0   5  548.64    5.20   0
   4   3   1   45.04    2.35   0
   2  -1   5  335.22    2.64   0
   1   3   1   54.18    1.38   0
   2   4  -1  165.66    2.99   0
   3   3   2  231.22    3.97   0
   3   4  -1  167.79    3.36   0
   2   0   5   19.91    0.89   0
   1   0   4  535.28    3.01   0
   1   2   3  711.20    4.51   0
   1   4  -3   67.90    1.56   0
   1   4  -2    4.66    0.88   0
   2   4   0  346.88    4.14   0
   3   1   5    1.29    1.11   0
   3   2   4    9.49    1.42   0
   3   4   0   11.49    1.77   0
   0   2   1  147.12    1.52   0
   1   1   4  440.78    3.27   0
   2   2   4  306.81    3.66   0
   4   1   5   54.76    2.40   0
   1   3   2  340.23    3.47   0
   1   4  -1  208.25    2.74   0
   2   1   5  157.41    2.50   0
   3   3   3   82.69    2.74   0
   4   2   4   17.77    1.86   0
   1  -1   4   72.13    0.91   0
   2   3   3   38.53    1.69   0
   3   0   6   23.05    1.46   0
   4   0   6   87.34    2.47   0
   0   1   2   19.83    0.55   0
   0   3  -1   59.93    1.08   0
   1   4   0   25.68    1.25   0
   0   3   0  748.61    3.89   0
   1   2   4  598.26    4.49   0
   1   3   3  255.59    3.22   0
   0   3   1 1370.84    5.71   0
   2   0   6  111.17    2.04   0
   2   4   2  578.68    5.89   0
   3   1   6   46.83    1.99   0
   3   4   2   30.05    2.18   0
   1   0   5  155.75    1.90   0
   1   1   5  379.36    3.35   0
   2   3   4   13.85    1.36   0
   0   1   3 3877.49    7.85   0
   2   1   6  277.93    3.66   0
   2   5  -1    7.20    1.92   0
   0   2   3   44.64    1.10   0
   0   3   2  457.11    3.57   0
   1   4   2   10.17    1.20   0
   1   2   5   41.48    1.44   0
   2   5   0    7.49    2.10   0
   0   4  -1   77.29    1.54   0
   0   4   0  163.74    2.38   0
   0   3   3    5.37    0.85   0
   0   4  -2  868.50    4.48   0
   1   4   3   14.84    1.36   0
   1   5  -1  424.86    4.59   0
   2   2   6  319.61    4.30   0
   2   3   5   23.50    1.79   0
   3   2   6  138.65    3.38   0
   0   2   4   96.59    1.87   0
   1   5   0  367.06    4.44   0
   2   5   1   17.99    1.92   0
   0   1   4   33.92    0.91   0
   1  -1   5   37.36    0.86   0
   1   1   6  106.25    2.04   0
   1   0   6   98.51    1.77   0
   1   3   5    1.73    1.08   0
   2   0   7  126.00    2.38   0
   2   1   7  145.33    2.99   0
   2   4   4   67.06    2.83   0
   1   4   4   92.88    2.96   0
   0   2   5   90.67    1.84   0
   0   4   3   39.92    1.55   0
   0   1   5  862.00    4.65   0
   2   2   7   18.07    1.99   0
   0   5  -1   74.60    2.02   0
   0   5   1  290.13    4.24   0
   1   3   6   15.36    1.68   0
   0   0   4 1090.30    4.10   0
   0   4   4  410.20    4.71   0
   1   1   7  563.73    5.02   0
   1   4   5   11.67    1.72   0
   0   5   2    4.77    1.35   0
   1   2   7    0.78    1.11   0
  -1   3   1    0.42    0.48   0
  -1   3   2   15.00    0.87   0
   1   0   7 1256.37    6.56   0
   2   1   8   23.63    2.17   0
  -1   3   0   -0.24    0.40   0
  -1   4   1   62.03    1.54   0
   0   3   6  493.89    5.56   0
   0   4   5  293.59    4.41   0
  -1   2   2   22.30    0.71   0
  -1   2   3  516.49    3.40   0
  -1   4   0  139.48    2.11   0
   0   0   5  710.78    4.20   0
   1   3   7  256.35    4.85   0
   1   4   6  135.25    3.98   0
  -1   2   1 1375.19    4.62   0
  -1   4   3  631.09    5.11   0
  -1   2   4   65.17    1.41   0
  -1   4  -1 1414.10    5.90   0
  -1   4   4  675.74    5.91   0
  -1   5   1    3.51    1.14   0
   0   2   7   28.30    1.59   0
  -1   5   0   31.62    1.58   0
  -1   5   2  112.16    2.59   0
   0   1   7  192.33    3.14   0
   0   6   2  399.70    5.87   0
  -1   2   5    0.61    0.62   0
  -1   3  -1   76.07    1.17   0
   0   5   5   99.35    3.53   0
  -1   4   5    3.76    1.09   0
   0   0   6  126.98    1.82   0
  -1   3   6  157.85    3.06   0
  -1   5  -1   70.61    1.80   0
  -1   5   4  119.01    3.16   0
   0   2   8    9.78    1.62   0
   0   4   7  158.72    4.34   0
  -1   1   3 2150.56    5.97   0
  -1   1   4  487.53    3.22   0
  -1   4   6   28.07    1.87   0
   0   3   8   42.60    2.64   0
  -1   5   5   17.83    2.01   0
  -1   6   1   21.12    2.04   0
  -1   4  -2   11.71    0.69   0
  -1   6   0    0.78    1.48   0
  -1   6   3   48.48    2.55   0
   0   0   7   21.39    1.16   0
  -1   1   2    3.92    0.34   0
  -1   2   7  683.88    5.80   0
  -2   4   3    1.63    0.76   0
  -1   4   7   12.81    1.85   0
  -1   5   6    2.38    1.72   0
  -1   6   4   20.95    2.34   0
  -2   4   4  434.54    4.69   0
  -1   1   6  326.87    3.62   0
   0   2   9  106.74    3.36   0
  -2   3   3  309.35    3.24   0
  -2   3   4  347.85    3.77   0
  -2   4   5    7.04    1.15   0
  -2   5   2  306.80    4.03   0
  -2   3   5  450.60    4.74   0
  -2   5   1  503.49    4.86   0
  -2   5   4    0.20    1.17   0
  -1   3   8   54.68    2.55   0
  -2   3   2   47.74    1.29   0
  -2   5   5    8.97    1.56   0
  -1   1   7   52.05    1.75   0
   0   1   9    3.45    1.40   0
  -2   4   6   52.85    2.34   0
  -2   5   6  103.95    3.79   0
  -2   6   3   30.47    2.16   0
  -2   4   0    3.59    0.70   0
  -2   4   7  254.39    5.00   0
  -2   5   0  515.05    4.79   0
  -2   6   1    0.97    1.33   0
  -2   6   4   46.71    2.76   0
  -2   2   4   66.99    1.51   0
  -2   2   5   51.83    1.58   0
  -2   3   7   23.76    1.76   0
  -1   3   9    5.24    1.97   0
  -2   5   7   52.28    3.33   0
  -1   1   8   84.22    2.33   0
  -1   2   9  343.28    5.55   0
  -2   3   8    6.40    1.53   0
  -2   4   8   -0.50    1.61   0
  -2   2   7    1.18    0.87   0
  -2   5  -1   11.33    1.00   0
  -3   5   4   24.60    1.92   0
  -2   2   2 1532.72    5.87   0
  -3   4   4    6.60    0.94   0
  -3   4   5   26.17    1.55   0
  -3   5   3   53.11    2.19   0
  -3   5   5   -0.28    1.23   0
  -2   3   0  933.42    4.70   0
  -1   0   6   51.36    1.57   0
  -1   1   9   37.22    2.19   0
  -3   4   6   -0.67    1.07   0
  -3   5   6  181.44    4.44   0
  -3   6   3   82.81    3.15   0
  -3   6   4  198.66    5.11   0
  -2   3   9    5.16    1.74   0
  -2   4  -1  129.80    1.89   0
  -3   5   2   28.62    1.55   0
  -3   4   7  146.78    4.07   0
  -3   5   7   27.70    2.41   0
  -3   6   2   17.48    1.63   0
  -1   0   7   52.90    1.61   0
  -3   3   5   19.60    1.28   0
  -2   2   9   95.96    3.39   0
  -3   4   8   60.07    3.23   0
  -3   5   1   49.88    1.69   0
  -3   6   1   24.20    1.86   0
  -2   1   6  134.92    2.60   0
  -2   2   1 3590.16    8.61   0
  -3   3   3  523.60    4.59   0
  -3   4   1  568.85    4.57   0
  -2   1   8    8.16    1.41   0
  -2   2  10   77.45    3.40   0
  -3   3   2  290.57    3.24   0
  -3   3   9    0.45    1.90   0
  -4   5   5  138.28    3.63   0
  -4   5   6  334.21    5.51   0
  -3   2   5    0.30    0.68   0
  -2   1   3  104.09    1.56   0
  -4   6   4  123.21    3.78   0
  -2   1   9   70.71    2.81   0
  -2   3  -1  265.14    2.16   0
  -4   4   5   47.82    1.96   0
  -4   6   3    0.93    1.40   0
  -4   4   4    1.29    1.15   0
  -4   4   7   68.29    2.91   0
  -4   4   8   86.75    3.31   0
  -4   6   2   21.35    1.91   0
  -3   4   0   15.95    0.95   0
  -4   5   2    1.87    1.16   0
  -4   4   3  137.29    2.77   0
  -4   3   6  164.33    3.47   0
  -4   3   7    3.05    1.18   0
  -2   1   2  519.32    3.13   0
  -4   3   5  141.51    2.84   0
  -3   2  10   15.20    2.10   0
  -4   6   1    4.29    1.34   0
  -4   3   4    3.24    0.89   0
  -4   4   2 1597.73    8.53   0
  -4   5   1    1.45    1.15   0
  -2   0   7  252.77    3.62   0
  -5   5   6   13.25    2.15   0
  -5   6   5    0.27    1.72   0
  -3   2   2  100.03    1.77   0
  -5   5   5  140.31    3.62   0
  -5   5   7   20.90    2.16   0
  -5   6   4   50.58    2.88   0
  -4   3   3   54.32    1.75   0
  -3   1   5  111.45    2.14   0
  -5   4   7    5.23    1.60   0
  -5   6   3   10.76    1.88   0
  -3   3   0    1.09    0.57   0
  -5   4   5    1.01    1.36   0
  -4   2   6  275.97    4.09   0
  -4   2   8    4.31    1.39   0
  -4   4   1 2244.81    9.43   0
  -3   4  -1    3.76    0.55   0
  -5   5   3   20.08    1.60   0
  -4   2   9  123.87    3.66   0
  -3   1   4   71.04    1.59   0
  -4   5   0   84.10    1.87   0
  -5   4   4  117.01    3.00   0
  -5   6   2   83.61    2.55   0
  -4   2   4   83.32    2.08   0
  -4   2  10   35.90    2.61   0
  -9   3   7    3.84    1.73   0
  -9   5   7   50.33    1.88   0
  -8   4   8    0.01    1.61   0
  -7   0   6  139.02    3.83   0
 -10   4   5    1.94    1.49   0
  -9   4   7   19.13    2.15   0
  -6   1   8    2.52    1.54   0
  -9   2   5   -0.94    2.18   0
  -7   4   8   22.57    2.04   0
  -6  -1   4  160.72    3.90   0
  -9   6   6    1.39    1.59   0
  -8   2   7   69.53    2.82   0
  -7   0   5   36.05    2.82   0
  -7   1   7    0.66    1.72   0
  -7   3   8    4.52    1.91   0
  -6  -1   3   54.48    3.24   0
 -10   4   4   -1.61    1.72   0
  -9   3   6   24.51    1.95   0
  -6   2   8   78.09    2.60   0
  -6   3   8  143.75    3.14   0
  -8   5   7   48.84    2.45   0
  -6   0   6  274.75    5.08   0
 -10   4   3   73.85    2.57   0
  -7   0   4   14.74    2.31   0
 -10   5   4    5.71    1.45   0
  -9   2   1    3.09    1.74   0
  -9   4   6   23.51    2.05   0
  -9   5   6   21.21    1.88   0
  -8   1   4   83.15    3.33   0
  -8   4   7   15.64    2.19   0
  -9   3   5   77.36    2.97   0
  -7   0   3   36.82    2.78   0
  -7   1   6    2.39    1.88   0
  -8   1   1   20.09    2.68   0
  -8   1   2    0.49    2.38   0
  -8   1   3    4.11    2.12   0
  -6   0   5   34.66    2.40   0
 -10   5   3   55.44    2.11   0
  -9   6   5  152.06    2.97   0
  -7   3   7  118.25    3.46   0
  -7   4   7   59.47    2.81   0
  -6   2   7   10.07    2.03   0
  -9   3   4   63.50    3.17   0
  -9   7   4    1.39    1.73   0
  -8   2   5    1.53    2.10   0
 -10   5   2   44.53    2.32   0
  -9   4   5    1.47    1.55   0
  -8   3   6   34.84    2.44   0
  -7   1   5   22.88    2.38   0
  -6   1   6  113.55    3.44   0
  -6   3   7   50.16    2.16   0
 -10   5   1    7.56    1.87   0
 -10   6   2   16.32    1.87   0
  -9   5   5   -0.12    1.85   0
  -8   5   6   33.00    2.22   0
  -7   2   6  292.78    5.21   0
  -6   0   4   89.68    3.40   0
  -9   3   3  165.34    4.12   0
  -8   2   4   23.49    2.51   0
  -7   1   4  321.32    5.45   0
 -10   6   1    9.07    1.52   0
  -9   3   0    2.72    2.32   0
  -9   4   4    4.61    1.92   0
  -8   3   5  126.72    3.95   0
  -8   6   5   22.51    2.28   0
  -7   5   6   12.13    1.86   0
  -9   5   4    0.65    2.06   0
  -9   7   3    2.04    1.79   0
  -7   1   3  258.92    5.34   0
  -7   4   6   13.59    1.94   0
  -9   4  -3   -0.53    1.86   0
  -9   4   3    2.05    1.88   0
  -8   2   2  362.48    6.55   0
  -8   5   5   -0.97    2.09   0
  -8   2   1   45.81    3.29   0
  -8   3   4    4.88    2.14   0
  -7   1   2   61.06    3.11   0
  -6   4   6  297.49    4.58   0
  -9   4   2    6.53    2.08   0
  -9   5   3    4.48    2.02   0
  -7   1   0    1.15    2.20   0
  -7   2   4   10.47    2.11   0
  -7   3   5   54.88    2.59   0
  -9   4  -2   17.20    2.03   0
  -9   4   1   27.69    2.36   0
  -9   7   2    0.21    1.59   0
  -8   6   4   14.62    2.37   0
  -9   4  -1    0.70    1.86   0
  -9   5   2   51.14    2.86   0
  -8   3   3   10.63    2.15   0
  -7   5   5   36.04    2.22   0
  -9   6   2    1.05    2.19   0
  -8   5   4    0.43    2.06   0
  -8   7   3    6.61    1.75   0
  -8   3   2  106.20    4.13   0
  -7   2   3  118.84    3.88   0
  -9   5   1    5.64    1.89   0
  -7   3   4    5.53    1.82   0
  -9   5  -3   -0.49    1.75   0
  -9   6   1   23.13    2.59   0
  -8   4   3   11.57    2.11   0
  -7   6   4    5.00    1.85   0
  -9   5  -1  162.90    4.09   0
  -9   5   0   59.10    2.81   0
  -8   6   3   64.23    2.71   0
  -8   8   1  165.95    3.42   0
  -9   6  -4    1.28    1.63   0
  -9   7   0    0.51    1.75   0
  -8   3  -2   23.88    2.57   0
  -8   3   0   -0.19    2.13   0
  -7   5   4   19.34    2.53   0
  -9   6   0   25.81    2.30   0
  -8   4   2   82.80    3.58   0
  -8   7   2   24.24    2.28   0
  -7   2   1   69.35    3.35   0
  -7   3   3  117.15    3.83   0
  -9   6  -2    6.16    2.23   0
  -9   6  -1  115.34    3.30   0
  -9   7  -2   -1.57    1.62   0
  -7   2  -2   50.24    3.50   0
  -7   2   0  207.20    4.86   0
  -8   4   1   10.58    2.16   0
  -8   6   2    7.72    2.09   0
  -8   8   0   16.67    2.10   0
  -6   5   4   36.37    2.44   0
  -8   4  -4  122.02    4.03   0
  -7   3   2    1.54    1.84   0
  -7   6   3   39.57    2.42   0
  -8   4   0    6.69    2.29   0
  -8   7   1   18.47    2.10   0
  -7   5   3    1.81    2.01   0
  -8   4  -3  186.38    4.66   0
  -8   5   1   73.97    3.25   0
  -7   7   2   35.13    2.32   0
  -8   4  -2   73.13    3.40   0
  -8   8  -1    5.47    1.99   0
  -7   3   1    5.91    1.91   0
  -8   5  -5    7.07    2.31   0
  -7   4   2   36.69    2.93   0
  -8   5   0   37.28    2.85   0
  -8   7   0   28.91    2.26   0
  -8   5  -1    3.73    2.31   0
  -8   6  -6   40.28    2.18   0
  -8   8  -2   25.34    2.06   0
  -7   6   2    6.20    1.92   0
  -7   8   0    3.76    1.94   0
  -8   5  -4   46.36    2.87   0
  -8   5  -2   15.70    2.56   0
  -7   3  -4   14.31    2.42   0
  -7   3  -1  164.75    4.40   0
  -8   6  -1   16.39    2.26   0
  -8   7  -6   32.09    1.95   0
  -8   8  -5   -0.12    1.50   0
  -8   8  -4   -1.22    1.94   0
  -7   3  -3    7.53    2.27   0
  -7   3  -2   13.86    2.35   0
  -7   4   1   67.55    3.16   0
  -7   5  -8    1.67    1.97   0
  -7   7   1    5.31    1.87   0
  -8   6  -4   10.47    2.19   0
  -8   6  -3   49.90    3.11   0
  -8   6  -2   21.87    2.41   0
  -8   7  -5    0.17    1.77   0
  -7   4  -6   24.77    2.73   0
  -8   7  -4   28.49    2.20   0
  -8   7  -3  141.14    3.52   0
  -7   4   0    4.59    1.78   0
  -7   5   1   16.43    1.96   0
  -7   6   1   14.51    2.04   0
  -7   8  -1    9.20    2.31   0
  -6   2  -3  145.15    4.42   0
  -6   6   2  465.13    6.10   0
  -7   7   0   42.53    2.76   0
  -7   9  -5    8.71    1.73   0
  -7   4  -5   32.20    2.91   0
  -7   4  -1  162.45    4.38   0
  -7   5  -7   10.42    2.10   0
  -7   5   0    8.95    1.81   0
  -7   6  -8   -1.15    2.00   0
  -7   4  -4    5.81    2.04   0
  -7   4  -3    9.23    2.12   0
  -7   8  -2    0.59    1.84   0
  -7   7  -1   88.76    3.31   0
  -7   5  -6   25.51    2.60   0
  -7   5  -1    1.93    1.71   0
  -7   8  -3    1.34    2.10   0
  -6   6   1  740.64    7.30   0
  -6   8  -1   57.78    2.80   0
  -7   6  -7   71.36    3.29   0
  -7   6  -1    8.21    2.00   0
  -7   5  -5   -0.37    1.90   0
  -7   5  -2    5.85    1.92   0
  -7   7  -7   -0.24    2.05   0
  -7   8  -6   -0.98    1.67   0
  -7   8  -5   46.72    2.53   0
  -6   3  -5    9.81    2.40   0
  -6   7   0    3.23    1.92   0
  -6   9  -4    1.75    1.78   0
  -7   5  -4   22.43    2.38   0
  -7   5  -3  136.26    4.06   0
  -7   6  -2   16.53    2.07   0
  -7   6  -3    4.37    2.09   0
  -7   7  -6    0.98    2.19   0
  -7   7  -3    0.21    1.96   0
  -6   3  -4   94.58    3.33   0
  -6   3  -3   18.81    2.27   0
  -6   5  -9   14.99    2.11   0
  -6   9  -5    2.86    1.82   0
  -7   6  -5   46.80    2.91   0
  -7   6  -4   62.08    2.94   0
  -7   7  -5    5.44    1.75   0
  -7   7  -4    8.96    2.13   0
  -6   6   0  114.72    3.38   0
  -6   8  -2   20.27    2.14   0
  -6   9  -6   71.06    2.27   0
  -6   4  -7   11.52    2.08   0
  -6   8  -9   11.81    1.58   0
  -6   6  -9   13.87    1.88   0
  -6   8  -3  158.38    4.00   0
  -6   4  -6   13.88    2.22   0
  -6   4  -2    9.67    1.68   0
  -6   5  -8   18.37    2.29   0
  -6   5  -1   50.53    2.50   0
  -6   6  -1    1.20    1.76   0
  -6   4  -5   25.72    2.32   0
  -6   7  -2   11.74    2.24   0
  -6   8  -8   60.29    2.35   0
  -6   4  -4   36.23    2.51   0
  -6   8  -7   77.85    2.77   0
  -6   8  -4   50.48    2.51   0
  -5   6 -11    0.46    1.72   0
  -5   7 -11   -0.61    1.56   0
  -5   9  -5   65.17    2.29   0
  -6   5  -7   63.20    2.98   0
  -6   5  -2  264.49    5.02   0
  -6   6  -2   -0.74    1.77   0
  -6   7  -8   34.99    2.56   0
  -6   8  -6    5.53    1.75   0
  -5   9  -8   11.74    1.62   0
  -5   9  -6    7.85    1.85   0
  -5   4  -9   -1.09    2.24   0
  -5   7  -1   20.46    1.99   0
  -5   9  -7   22.57    1.69   0
  -6   5  -6   18.63    2.34   0
  -6   5  -5   49.89    3.02   0
  -6   5  -4   85.50    3.36   0
  -6   5  -3  288.40    5.21   0
  -6   6  -7  177.69    4.54   0
  -6   7  -7   36.56    2.75   0
  -5   8 -10   69.34    2.17   0
  -6   7  -6   14.32    2.35   0
  -6   7  -5    0.14    1.97   0
  -5   3  -6    8.82    2.32   0
  -5   8  -3    2.29    1.65   0
  -6   6  -6   11.62    1.89   0
  -6   6  -5    5.35    1.77   0
  -6   6  -4    6.24    1.76   0
  -5   6 -10   97.50    3.16   0
  -5   7 -10   12.80    2.07   0
  -5   8  -9  147.71    3.27   0
  -4   9  -9   36.38    1.89   0
  -5   4  -8    3.80    1.97   0
  -5   8  -4  106.09    3.10   0
  -4   6 -12   98.37    2.71   0
  -4   9  -6   59.41    2.23   0
  -5   5  -9   82.25    3.09   0
  -4   8 -11   30.55    1.95   0
  -4   9  -8   42.95    1.94   0
  -4   9  -7   19.95    1.66   0
  -5   4  -7  166.50    4.21   0
  -5   8  -8  138.39    3.15   0
  -5   6  -2    0.28    1.48   0
  -5   7  -9  105.95    3.11   0
  -5   8  -7    9.00    1.75   0
  -5   4  -6  212.28    4.38   0
  -5   5  -8   10.01    2.24   0
  -5   4  -5   52.11    2.55   0
  -5   7  -8   12.13    1.74   0
  -5   7  -4  404.86    5.57   0
  -4   5 -11   17.25    2.17   0
  -3   9  -8  166.16    2.94   0
  -3   9  -7   26.62    1.93   0
  -5   6  -8   38.11    2.46   0
  -4   4 -10   14.26    2.02   0
  -4   7 -11   26.63    1.99   0
  -4   8 -10    8.97    1.53   0
  -4   8  -4    1.71    1.54   0
  -3   6 -13    5.20    1.41   0
  -5   7  -7   88.97    2.91   0
  -5   7  -6    2.73    1.63   0
  -4   6 -11    5.71    1.67   0
  -5   5  -6    6.72    1.57   0
  -5   5  -5   57.46    2.49   0
  -5   6  -7  267.73    5.04   0
  -5   6  -4  116.62    3.33   0
  -4   8  -9    2.43    1.80   0
  -4   8  -5   10.33    1.85   0
  -5   6  -6   43.54    2.49   0
  -5   6  -5   78.02    2.90   0
  -4   4  -9    0.87    1.87   0
  -4   5 -10    2.62    1.94   0
  -4   7 -10    9.42    1.76   0
  -4   7  -3   39.58    2.10   0
  -4   8  -8    5.48    1.73   0
  -4   8  -6    0.38    1.49   0
  -3   8 -11   16.28    1.59   0
  -3   7 -12   20.82    1.60   0
  -3   5 -12   -0.81    1.86   0
  -4   7  -9   13.56    1.84   0
  -4   7  -4   70.69    2.52   0
  -3   6 -12    8.63    1.82   0
  -3   8 -10    2.40    1.70   0
  -2   7 -13   60.32    2.11   0
  -4   4  -8  103.71    3.19   0
  -4   5  -9  188.69    3.91   0
  -3   8  -5   64.26    2.53   0
  -4   6  -9    2.62    1.57   0
  -4   7  -8   14.33    1.73   0
  -4   7  -5   16.85    1.77   0
  -3   4 -11   11.80    1.84   0
  -4   4  -7  162.70    3.70   0
  -4   7  -7   72.09    2.73   0
  -3   7 -11   18.33    1.77   0
  -3   8  -6  100.30    2.94   0
  -2   8 -11   74.43    2.33   0
  -4   6  -8   96.55    3.12   0
  -3   8  -8    1.25    1.50   0
  -3   8  -7   61.09    2.34   0
  -2   6 -13    1.74    1.63   0
  -4   6  -7  261.15    5.17   0
  -4   6  -5   30.51    2.28   0
  -3   5 -11   36.15    2.18   0
  -2   5 -13   87.05    2.53   0
  -4   5  -7    2.65    1.41   0
  -4   6  -6   82.64    2.77   0
  -3   7 -10    1.12    1.49   0
  -2   7 -12   51.78    2.17   0
  -1   6 -14   87.85    2.12   0
  -3   4 -10   21.26    1.90   0
  -3   7  -4   20.67    1.82   0
  -2   8  -6   38.99    1.97   0
  -1   5 -14    0.06    1.47   0
  -1   7 -13   10.48    1.71   0
  -2   8  -9   45.84    1.99   0
  -2   8  -7  240.30    3.94   0
  -3   5 -10   47.04    2.44   0
  -3   6 -10  217.69    4.11   0
  -3   7  -9    2.64    1.44   0
  -3   7  -5  207.50    3.73   0
  -2   4 -12   76.46    2.72   0
  -2   8  -8   54.93    2.25   0
  -3   7  -8   98.55    2.87   0
  -3   7  -6   26.95    2.04   0
  -2   6 -12   31.96    2.21   0
  -3   4  -9    5.24    1.42   0
  -2   7 -11    8.86    1.46   0
  -1   8  -9   -0.41    1.62   0
   0   8 -10    8.65    1.55   0
  -3   6  -9  177.75    3.90   0
  -1   8  -8    0.98    1.33   0
  -1   6 -13   87.11    2.37   0
  -1   7 -12    4.09    1.41   0
   0   6 -14   49.69    1.80   0
  -3   4  -8   33.27    1.87   0
  -3   6  -8   15.93    1.64   0
  -2   7 -10   22.35    1.82   0
  -3   5  -8   12.89    1.46   0
  -3   6  -7    4.46    1.48   0
  -3   6  -6    3.69    1.23   0
  -2   4 -11   17.79    2.00   0
  -2   6 -11   87.31    2.70   0
  -2   7  -5   10.30    1.87   0
  -1   4 -13   37.24    1.84   0
  -1   5 -13    5.43    1.68   0
  -2   3 -10  126.88    3.29   0
  -2   5 -11    3.33    1.77   0
   1   4 -15   14.37    1.46   0
  -3   5  -7  152.65    3.23   0
  -2   7  -7    7.57    1.71   0
  -2   7  -6   45.86    2.09   0
  -1   7 -11   13.74    1.57   0
   0   4 -14   39.38    2.00   0
   0   5 -14    2.43    1.32   0
  -2   6 -10    1.06    1.31   0
  -1   6 -12    0.20    1.54   0
   1   6 -14    4.60    1.20   0
  -2   4 -10   88.28    2.57   0
  -2   5 -10    2.03    1.46   0
  -1   7 -10  279.15    4.03   0
   0   6 -13  121.22    2.58   0
  -2   6  -9    1.68    1.29   0
   0   7 -11    8.78    1.39   0
  -4  -2   3   23.96    1.43   0
  -4   1   4   -0.27    0.57   0
  -2  -1   0 2096.98    5.48   0
  -5  -1   5   50.16    1.86   0
  -3  -1   1 1066.12    4.76   0
  -3   2   6   75.96    1.43   0
  -5  -2   5  177.59    3.63   0
  -5   0   5   21.71    1.25   0
  -5   1   7  523.04    4.96   0
  -5   1   8   37.75    1.77   0
  -5   1   9  105.11    3.26   0
  -3  -2   1   18.07    0.85   0
  -2   2   5   51.12    0.92   0
  -3   1   2  196.45    1.98   0
  -3   2   5    0.32    0.46   0
  -4  -3   3  387.14    4.45   0
  -4  -1   2  190.99    2.65   0
  -3   0   1  247.63    2.30   0
  -5   0   4   16.06    1.21   0
  -4   1   3   15.53    0.85   0
  -4   2   6  382.67    3.65   0
  -4   2   7  267.47    3.20   0
  -6   0   8   32.77    2.25   0
  -5   1   5    2.63    0.86   0
  -4  -2   2  163.05    2.81   0
  -4   0   2   37.38    1.22   0
  -2   2   4   58.67    1.03   0
  -6   0   7   36.46    2.64   0
  -5  -2   4   22.45    1.72   0
  -4   2   5  306.44    3.13   0
  -2   0   0    4.40    0.40   0
  -2   1   1 1590.78    4.39   0
  -6  -1   6  213.98    4.31   0
  -6   0   6  271.45    4.57   0
  -5   1   4  149.95    2.78   0
  -6   1   8    2.27    1.50   0
  -5  -1   3  192.81    3.42   0
  -5   0   3    1.74    0.93   0
  -5   2   7   34.65    1.68   0
  -5   2   8   27.95    2.04   0
  -4   2   4   97.23    1.82   0
  -5   2   6   60.89    2.05   0
  -4   1   2  237.02    2.87   0
  -3   2   3   90.05    1.43   0
  -6  -1   5  148.17    3.59   0
  -6   0   5   36.42    2.21   0
  -6   1   6  106.09    2.95   0
  -4  -1   1   10.50    1.04   0
  -3  -1   0   57.24    1.30   0
  -3   1   1    3.40    0.42   0
  -2   2   3  449.45    2.63   0
  -5  -2   3    0.81    1.46   0
  -5   1   3    9.09    1.03   0
  -5   2   5   71.71    2.15   0
  -6   1   5  143.58    3.24   0
  -4   2   3   59.10    1.45   0
  -5   2   4  478.57    5.10   0
  -4  -2   1  101.26    2.40   0
  -6  -1   4  162.29    4.43   0
  -6   0   4   90.55    2.80   0
  -6   2   7   15.90    1.86   0
  -6   2   8   90.15    2.96   0
  -5  -1   2  726.23    6.36   0
  -6   1   4   41.53    2.10   0
  -6   2   6  330.41    5.05   0
  -2  -1  -1  264.95    2.28   0
  -5   1   2    4.33    0.90   0
  -6   2   5    8.42    1.50   0
  -5   2   3  419.49    4.71   0
  -4   2   2   71.44    1.65   0
  -6  -1   3   64.34    3.19   0
  -3   1   0   51.24    1.15   0
  -5   0   1   27.34    1.53   0
  -5   3   6   91.24    2.50   0
  -4  -1   0  833.83    5.87   0
  -5  -1   1  133.81    3.19   0
  -5   3   5   79.88    2.29   0
  -5   1   1  322.33    4.18   0
  -4   3   4    3.72    0.76   0
  -3  -1  -1   52.40    1.41   0
  -6   0   2  394.09    5.60   0
  -6   2   3  225.88    4.24   0
  -6   3   6    8.54    1.89   0
  -6   3   7   43.87    2.69   0
  -4   1   0  844.58    5.78   0
  -4   2   1    4.41    0.69   0
  -7   1   4  270.95    5.33   0
  -6   1   2   42.15    2.12   0
  -6  -1   2    4.87    2.36   0
  -6   3   5  143.47    3.54   0
  -4   3   3   56.86    1.70   0
  -5   3   3    0.06    0.91   0
  -3   3   4 1299.40    5.91   0
  -7   2   4   10.75    2.11   0
  -6   2   2  107.74    3.60   0
  -6   3   4   -0.80    1.41   0
  -5   2   1   18.45    1.29   0
  -5   0   0   99.81    2.63   0
  -4   0  -1   51.91    1.74   0
  -4   3   2   44.86    1.76   0
  -3   3   3  511.38    3.99   0
  -7   2   3   97.55    3.47   0
  -6   3   3   88.26    2.78   0
  -5  -1   0    9.40    1.54   0
  -5   3   2    3.97    0.97   0
  -4  -1  -1   20.67    1.47   0
  -4   2   0    1.21    0.61   0
  -3   1  -1   13.95    0.76   0
  -3   2   0  296.44    2.86   0
  -2   1  -1 1018.09    4.43   0
  -7   1   2   76.54    3.32   0
  -5   2   0    1.60    0.96   0
  -3   3   2  287.90    3.11   0
  -4   3   1  946.01    6.33   0
  -2  -1  -2  242.45    2.37   0
  -7   3   3  115.34    3.75   0
  -5   3   1    1.00    0.91   0
  -6   1   0  177.76    3.84   0
  -6   4   5   97.81    3.01   0
  -5   0  -1    0.52    1.16   0
  -3   0  -2  810.88    5.37   0
  -6   3   1  464.82    6.23   0
  -6   4   4    0.60    1.43   0
  -5   4   4  129.96    2.90   0
  -3  -1  -2 1186.55    6.22   0
  -2   0  -2  293.34    2.55   0
  -2   2   0 8649.79   13.64   0
  -7   3   2   -0.05    1.73   0
  -6   2   0    0.77    1.37   0
  -7   2   1   81.83    3.37   0
  -6   4   3   57.35    2.45   0
  -5   4   3   13.36    1.46   0
  -4   0  -2   18.37    1.50   0
  -3   2  -1   23.08    1.00   0
  -3   3   1   25.34    1.05   0
  -7   4   4   97.48    3.58   0
  -5   2  -1  254.82    4.13   0
  -5   3   0   31.15    1.55   0
  -4   3   0    0.24    0.73   0
  -5   4   2   -0.00    1.33   0
  -4   1  -2    2.50    0.94   0
  -7   3   1    4.07    2.36   0
  -7   4   3  209.88    4.81   0
  -6   3   0  153.76    3.94   0
  -6   4   2   18.54    1.83   0
  -6   1  -1    0.16    1.55   0
  -4   4   3  143.73    2.63   0
  -5   1  -2  427.58    5.88   0
  -6   4   1    3.05    1.54   0
  -5   0  -2   81.13    2.85   0
  -5   3  -1    6.11    1.15   0
  -5   4   1   62.33    2.35   0
  -4   2  -2    1.36    0.80   0
  -4   4   2 1618.20    8.56   0
  -2   1  -2    4.71    0.51   0
  -4   3  -1  774.51    6.35   0
  -7   3   0  137.54    4.38   0
  -3   2  -2  223.20    2.80   0
  -7   4   1   81.87    3.41   0
  -6   3  -1    0.62    1.54   0
  -4   4   1 2197.84   10.32   0
  -6   4   0   11.91    1.63   0
  -5   4   0   23.87    1.65   0
  -3   0  -3  423.37    3.86   0
  -6   1  -2   27.59    2.54   0
  -4   0  -3  175.77    3.26   0
  -4   1  -3    2.42    0.89   0
  -3   1  -3    0.64    0.80   0
  -3   3  -1  714.68    5.46   0
  -2   3   2   40.50    0.99   0
  -6   2  -2   55.73    3.05   0
  -6   5   3    0.65    1.57   0
  -5   3  -2   11.58    1.37   0
  -7   3  -1  174.46    5.10   0
  -7   4   0    2.58    2.03   0
  -6   5   2   68.12    3.06   0
  -4   3  -2    9.79    1.17   0
  -4   4   0  825.89    6.91   0
  -2   0  -3   15.57    0.81   0
  -7   5   2    4.35    2.13   0
  -6   3  -2    5.64    2.15   0
  -6   4  -1   55.93    3.09   0
  -5   1  -3   13.74    1.91   0
  -5   4  -1   83.33    2.73   0
  -2   3   1    4.46    0.53   0
  -5   2  -3    4.73    1.46   0
  -2  -1  -3    0.06    0.48   0
  -6   5   1   40.72    2.52   0
  -5   5   2   25.98    2.18   0
  -2   2  -2   41.72    1.14   0
  -7   4  -1  174.17    4.96   0
  -7   5   1   15.89    2.40   0
  -4   4  -1  179.70    3.40   0
  -3   2  -3   25.19    1.16   0
  -5   5   1   14.01    2.02   0
  -3   3  -2  121.72    2.38   0
  -6   2  -3  215.84    4.71   0
  -6   4  -2    8.83    1.64   0
  -6   5   0   11.43    1.87   0
  -5   3  -3   30.38    1.97   0
  -4   3  -3  790.16    7.18   0
  -3   4   1  499.03    4.24   0
  -2   3   0  857.95    4.72   0
  -5   5   0   30.07    2.09   0
  -4   2  -4  291.97    4.29   0
  -4   4  -2   28.98    1.65   0
  -3   0  -4   18.05    1.21   0
  -3   1  -4  163.29    2.59   0
  -3   4   0   16.59    1.09   0
  -1   1  -2 1267.56    4.17   0
  -5   1  -4    6.78    1.90   0
  -5   2  -4   17.50    1.95   0
  -5   4  -3    0.31    1.14   0
  -5   5  -1  283.39    5.06   0
  -3   3  -3  481.82    4.77   0
  -2   2  -3    5.98    0.74   0
  -6   4  -3    5.37    1.71   0
  -4   5   1    2.77    1.33   0
  -3   4  -1    3.58    0.80   0
  -6   5  -2  237.08    5.75   0
  -4   3  -4  816.85    7.63   0
  -6   3  -4   94.02    4.34   0
  -4   4  -3  246.97    4.27   0
  -4   5   0   87.79    2.50   0
  -2   0  -4  316.73    3.02   0
  -1   0  -3 2125.74    5.42   0
  -6   6   1  701.61    9.03   0
  -2   1  -4 1232.96    5.84   0
  -4   5  -1   79.20    2.76   0
  -3   4  -2  145.09    2.78   0
  -2   3  -2  361.17    3.36   0
  -1   2  -1   90.30    1.19   0
  -6   4  -4   35.99    2.85   0
  -6   6   0  131.39    4.07   0
  -5   4  -4   17.46    1.98   0
  -4   2  -5    2.60    1.61   0
  -3   3  -4   35.15    1.65   0
  -6   5  -3  279.08    6.08   0
  -5   2  -5    0.82    1.72   0
  -4   1  -5  212.26    3.81   0
  -6   6  -1    2.43    1.95   0
  -5   3  -5  108.19    3.47   0
  -5   5  -3   39.26    2.43   0
  -4   5  -2  215.39    4.52   0
  -3   1  -5  287.67    3.69   0
  -2   2  -4  233.33    2.86   0
  -1   1  -3  706.86    3.50   0
  -3   2  -5    7.37    1.05   0
  -3   4  -3   -0.35    0.88   0
  -5   6   0   29.58    2.64   0
  -2   3  -3    2.86    0.66   0
  -6   6  -2    0.48    2.17   0
  -1   2  -2  479.57    2.94   0
  -5   4  -5   63.01    2.93   0
  -5   5  -4    8.61    1.89   0
  -5   6  -1    0.78    1.80   0
  -3   3  -5   85.20    2.34   0
  -2   1  -5  357.52    3.62   0
  -5   6  -2    1.89    1.86   0
  -4   4  -5    4.93    1.43   0
  -3   4  -4   28.32    1.61   0
  -4   2  -6  100.83    3.01   0
  -3   5   0  163.74    2.89   0
  -2   3  -4  593.44    4.72   0
  -2   4   0    2.98    0.72   0
  -5   3  -6   10.50    2.15   0
  -4   3  -6    4.89    1.50   0
  -4   5  -4   25.04    1.96   0
  -3   5  -1    5.90    1.11   0
  -2   0  -5   17.23    0.87   0
  -2   4  -1  105.48    2.03   0
  -1   0  -4  545.56    3.02   0
  -1   2  -3   10.75    0.61   0
  -5   5  -5   68.71    3.38   0
  -3   2  -6  317.90    4.37   0
  -2   4   1   10.54    0.70   0
  -3   1  -6    2.63    1.18   0
  -2   4  -2   29.70    1.21   0
  -4   4  -6    2.99    1.87   0
  -3   4  -5   89.97    2.68   0
  -4   5  -5   30.76    2.36   0
  -4   6  -1    9.55    1.63   0
  -3   5  -3    0.16    1.09   0
  -2   3  -5    5.03    1.11   0
  -4   6  -2   72.57    2.90   0
  -5   5  -6    6.01    2.04   0
  -1   2  -4   75.67    1.46   0
  -4   2  -7   77.99    3.35   0
  -4   3  -7   18.83    2.08   0
  -4   6  -3  642.34    8.28   0
  -2   1  -6  295.44    3.33   0
  -2   2  -6    0.83    0.76   0
  -1   3  -1   69.00    1.25   0
  -5   6  -5   66.83    3.95   0
  -2   4  -4  331.92    4.14   0
  -1   3   0    0.33    0.33   0
  -4   6  -4    1.93    1.99   0
  -3   2  -7  419.87    5.17   0
  -1   1  -5   39.41    1.09   0
  -3   3  -7   38.12    2.02   0
  -3   5  -5  145.07    3.95   0
  -1   3  -3   98.23    1.69   0
  -2   4  -5  183.57    3.35   0
  -1   0  -5  151.95    1.83   0
  -1   2  -5   59.86    1.45   0
  -3   4  -7  151.56    3.90   0
  -1   3  -4  579.02    4.27   0
  -4   5  -7    4.67    2.13   0
  -3   5  -6   84.31    3.30   0
  -2   2  -7  207.18    3.33   0
  -4   3  -8  113.18    3.93   0
  -2   4  -6  117.29    2.97   0
  -3   6  -3  102.34    3.14   0
  -3   6  -2   18.79    1.54   0
  -2   1  -7   53.45    1.80   0
  -2   5  -3   49.09    1.83   0
  -1   1  -6   19.94    1.20   0
  -1   3  -5  142.89    2.36   0
  -3   3  -8    2.74    1.70   0
  -3   6  -4   61.60    3.08   0
  -2   5  -4  117.79    2.93   0
  -2   5  -1    9.70    1.04   0
  -3   5  -7  161.69    4.95   0
  -3   6  -5  253.35    5.94   0
  -2   4  -7   91.86    2.89   0
  -1   3  -6  523.95    4.80   0
  -1   4  -3  299.75    3.36   0
  -4   7  -4   71.90    3.84   0
  -2   2  -8   76.77    3.05   0
  -1   0  -6   91.11    1.62   0
  -1   4  -2   10.91    0.83   0
   0   1  -4  756.94    3.71   0
  -2   3  -8    5.30    1.46   0
  -2   5  -6    2.39    1.27   0
  -1   2  -7   91.77    2.14   0
  -1   4  -5  985.99    7.01   0
  -1   4  -1 1278.02    5.78   0
  -2   4  -8  212.67    4.53   0
  -1   1  -7  229.04    2.94   0
  -1   3  -7  356.44    4.41   0
   0   0  -4 1203.83    4.05   0
  -3   4  -9    4.03    2.14   0
  -3   6  -7    2.92    2.14   0
  -2   5  -7  112.35    4.31   0
  -1   4  -6   37.91    1.70   0
   0   2  -5  626.83    4.22   0
  -2   3  -9  193.34    3.99   0
  -1   2  -8   71.28    2.17   0
  -2   2  -9   91.59    2.88   0
  -2   6  -5    0.29    1.96   0
  -2   6  -4    2.23    1.41   0
  -2   6  -3  112.61    3.24   0
  -1   3  -8   23.98    1.63   0
  -1   4  -7   14.06    1.57   0
   0   0  -5  775.22    3.73   0
  -3   7  -5  192.42    5.97   0
   0   1  -6  132.45    1.97   0
   0   2  -6  370.30    3.56   0
   0   3  -4  379.51    3.45   0
  -2   6  -6    7.21    2.09   0
  -1   1  -8    5.77    1.21   0
  -1   5  -4   41.95    1.90   0
   0   3  -5   25.50    1.14   0
  -1   4  -8   30.80    2.08   0
  -1   5  -5  373.53    4.83   0
  -1   5  -3   51.78    2.03   0
  -2   5  -9   18.19    2.69   0
   0   2  -7    1.96    0.79   0
   0   3  -6  166.50    2.78   0
   0   3  -2  217.19    2.19   0
  -2   3 -10  122.93    4.45   0
  -1   2  -9   74.32    2.93   0
  -1   3  -9   42.04    2.17   0
  -1   5  -7   21.91    1.99   0
   0   1  -7   73.14    1.67   0
   0   3  -7   12.97    1.20   0
  -5   5  -8    6.98    2.56   0
  -4   3  -8   87.31    4.60   0
  -2   3 -12    4.07    2.51   0
  -2   4 -13   39.01    2.90   0
   0   2 -13   36.77    3.40   0
   0   3 -14   39.65    3.02   0
  -4   6 -11    4.52    2.57   0
  -4   7 -11   31.06    2.61   0
   1   1 -12    1.76    2.16   0
  -4   3  -7   14.37    2.65   0
  -4   4  -9    1.74    2.01   0
  -3   5 -12    1.00    1.76   0
  -2   2 -10   18.81    3.10   0
   0   1 -11   49.05    3.80   0
   1   3 -14    1.84    2.44   0
  -4   5 -10    3.04    2.32   0
  -3   4 -11   13.14    2.61   0
  -1   5 -14    2.31    1.83   0
  -2   5 -13   81.45    3.99   0
  -4   8 -10    6.74    1.94   0
  -3   6 -12    6.58    2.06   0
  -2   3 -11    6.63    2.96   0
  -2   7 -13   69.75    2.66   0
  -4   4  -8   85.40    4.50   0
  -2   4 -12   79.03    3.81   0
  -2   6 -13   -0.45    1.79   0
   0   2 -12    0.97    2.24   0
  -1   3 -12    3.31    2.40   0
  -4   5  -9  188.88    5.91   0
  -4   7 -10   10.18    2.12   0
  -3   4 -10   21.40    2.90   0
  -3   5 -11   39.30    3.13   0
   0   5 -14    2.37    1.82   0
   1   1 -11   31.47    3.27   0
  -4   4  -7  139.89    5.49   0
  -3   8 -11   17.18    1.94   0
  -2   3 -10  136.46    4.61   0
  -2   5 -12   69.30    3.90   0
  -1   2 -10   22.58    2.38   0
  -1   5 -13    3.21    1.82   0
  -4   5  -8   38.80    3.55   0
  -4   6  -9    0.78    1.73   0
  -4   8  -9    0.80    1.70   0
  -2   4 -11   13.31    2.77   0
  -1   7 -13   13.11    1.97   0
   0   4 -13    2.11    2.13   0
  -4   7  -9   11.37    2.52   0
  -2   6 -12   25.10    2.72   0
  -1   6 -13  107.60    3.21   0
   2   3 -13    5.02    2.21   0
  -3   4  -9    6.56    1.83   0
  -3   5 -10   40.04    3.31   0
  -2   7 -12   54.47    2.40   0
  -1   3 -11  164.47    5.11   0
  -1   4 -12   57.43    3.39   0
   0   3 -12   20.40    2.71   0
   0   7 -13   34.66    2.22   0
  -1   8 -12    3.82    1.39   0
   1   4 -13   21.59    2.72   0
  -4   5  -7    2.96    1.80   0
  -4   8  -8    0.97    1.85   0
  -3   8 -10    2.46    1.55   0
  -2   5 -11    5.69    2.05   0
  -4   7  -8   10.50    2.17   0
  -2   4 -10   82.82    3.54   0
   2   4 -13  247.85    5.99   0
  -3   7 -10    0.98    1.67   0
   1   3 -12    9.08    2.21   0
   1   5 -13   25.70    2.47   0
  -1   3 -10   20.47    2.30   0
  -1   6 -12    0.40    1.61   0
  -1   7 -12    6.19    1.84   0
   1   6 -13    4.58    1.70   0
   2   5 -13    8.79    2.11   0
   0   3 -11   10.95    2.19   0
  -4   7  -7   46.97    3.33   0
  -3   6  -9  185.07    5.18   0
  -3   8  -9    3.28    1.77   0
  -2   5 -10    0.94    1.94   0
  -3   7  -9    2.94    2.03   0
  -2   4  -9   71.09    3.56   0
  -1   8 -11   -0.31    1.48   0
   0   5 -12   93.89    3.62   0
   0   7 -12   45.90    2.28   0
   1   4 -12   19.64    2.52   0
  -3   5  -8   13.70    2.10   0
  -2   9  -9   12.25    1.79   0
  -1   5 -11    0.40    1.52   0
  -2   6 -10   -0.66    1.94   0
   1   3 -11    0.48    1.76   0
  -2   7 -10   24.30    1.97   0
  -1   6 -11   -0.05    1.57   0
  -1   7 -11   13.95    1.77   0
   0   8 -11    0.34    1.40   0
   3   5 -12    4.09    1.89   0
  -3   6  -8   13.08    2.21   0
  -3   8  -8    0.65    1.82   0
  -3   9  -7   24.30    2.16   0
   1   5 -12   27.28    2.27   0
   2   6 -12    1.41    1.75   0
   2   5 -12    0.51    2.01   0
  -2   9  -8   -0.10    1.69   0
  -1   5 -10   -1.10    1.77   0
  -1   8 -10   44.71    2.08   0
   0   5 -11    0.97    1.54   0
   0   7 -11    9.61    2.29   0
  -2   6  -9    1.03    1.86   0
   2   7 -11   62.59    2.31   0
  -3   9  -6   11.20    1.65   0
   0   6 -11  109.42    3.17   0
   1   7 -11    6.74    1.83   0
  -3   6  -7    6.70    1.60   0
  -3   8  -7   59.98    2.46   0
  -1   6 -10   20.75    2.16   0
  -1   7 -10  291.22    4.91   0
   0   4 -10    0.84    1.36   0
   0   8 -10    8.50    1.40   0
   3   6 -11  210.57    3.28   0
  -3   7  -7    7.05    1.81   0
  -2   5  -8  145.83    4.45   0
   1   5 -11   93.11    3.29   0
   1   8 -10  339.24    3.87   0
   2   4 -11  144.75    3.95   0
  -2   9  -7   32.89    2.08   0
   3   4 -11   58.84    2.53   0
  -2   8  -8   62.41    2.51   0
  -1   8  -9   -0.04    1.58   0
   2   5 -11   19.04    2.22   0
   2   6 -11   18.24    1.90   0
  -3   8  -6  100.19    3.22   0
  -1   5  -9   66.78    2.85   0
   0   5 -10    4.19    1.31   0
   0   7 -10   17.98    2.36   0
   0   9  -8    0.98    1.30   0
   2   3 -10  148.73    4.30   0
  -3   6  -6    3.92    1.42   0
   0   6 -10    7.12    1.96   0
  -3   7  -6   26.37    1.93   0
  -1   6  -9    2.78    1.42   0
   1   4 -10    7.17    1.58   0
  -2   9  -6   11.13    1.63   0
  -1   9  -7    1.07    1.56   0
   0   8  -9   63.88    2.09   0
   1   7 -10   35.70    1.99   0
   1   8  -9  181.03    3.24   0
  -2   8  -7  278.49    4.24   0
   3   6 -10  356.83    4.53   0
  -3   8  -5   71.00    2.45   0
  -1   8  -8    0.63    1.55   0
   0   9  -7   35.05    1.97   0
   1   6 -10   28.11    2.05   0
   2   4 -10   19.18    2.08   0
   3   7  -9    2.91    1.63   0
   4   6  -9  101.83    2.44   0
  -2   6  -7   41.91    2.44   0
  -1   5  -8   68.43    3.11   0
   2   6 -10   13.31    1.73   0
   3   4 -10    7.61    2.11   0
  -2   7  -7    7.99    1.59   0
  -2   9  -5   42.71    2.23   0
   0   5  -9  163.25    3.90   0
   0   7  -9   15.23    1.81   0
   2   5 -10   17.31    1.87   0
   2   8  -8    6.96    1.51   0
   3   5 -10   34.61    2.08   0
  -1   6  -8    9.90    1.72   0
  -1   7  -8   61.91    2.52   0
  -1   9  -6   23.19    1.59   0
   0   6  -9  182.02    3.93   0
   0   8  -8   10.80    1.77   0
  -2   8  -6   50.95    2.21   0
   1   4  -9    0.89    1.19   0
   1   7  -9   17.64    1.87   0
   1   8  -8  142.32    3.23   0
  -2   9  -4   44.61    1.91   0
   4   5  -9   10.86    1.88   0
  -2   6  -6    8.72    1.38   0
  -2   7  -6   55.00    2.24   0
  -1   9  -5   25.91    1.61   0
   1   6  -9   30.44    2.16   0
   3   6  -9  197.07    3.65   0
   3   7  -8   24.81    1.71   0
   0   7  -8    3.81    1.60   0
   2   4  -9  934.75    7.70   0
   2   8  -7  218.88    3.24   0
   4   6  -8   71.80    2.47   0
  -2   8  -5   44.38    2.09   0
  -2   9  -3   59.61    2.02   0
  -1   7  -7  129.62    3.25   0
   0   5  -8   72.74    2.45   0
   0   8  -7   92.39    2.57   0
   2   5  -9    3.49    1.76   0
  -1   6  -7  259.34    4.40   0
   0   6  -8   91.50    2.84   0
   1   7  -8   -0.32    1.71   0
   1   8  -7   16.51    1.63   0
   2   7  -8   24.18    2.31   0
   3   5  -9   13.48    1.70   0
  -1   9  -4   19.15    1.48   0
  -2   7  -5   13.11    1.80   0
   0   9  -4   43.45    1.92   0
   2   8  -6    8.52    1.67   0
  -2   8  -4   15.51    1.88   0
   1   6  -8    5.48    1.79   0
   3   6  -8   30.49    2.24   0
  -1   9  -3   22.72    1.54   0
   0   7  -7   58.65    2.54   0
   0   8  -6   87.86    2.56   0
   1   5  -8   61.53    2.40   0
   4   5  -8   31.80    1.91   0
   0   9  -3   30.99    1.51   0
   1   8  -6    3.84    1.50   0
   4   6  -7   71.83    2.33   0
  -1   6  -6  144.32    3.13   0
  -1   9  -2    3.09    1.43   0
   0   6  -7  345.51    4.86   0
   1   7  -7   76.01    2.40   0
   2   7  -7   78.44    2.63   0
   4   4  -8    3.70    1.51   0
  -2   7  -4  192.59    3.82   0
  -2   8  -3  101.40    2.83   0
  -1   9  -1   -0.48    1.40   0
   0   9  -2   19.42    1.53   0
   2   5  -8  205.79    3.84   0
   2   8  -5   15.63    1.67   0
   3   4  -8   73.41    2.62   0
   3   5  -8    5.61    1.77   0
   0   8  -5   17.87    1.91   0
   0   9  -1   69.65    1.82   0
  -1   8  -4  420.75    6.01   0
   0   7  -6  119.06    3.23   0
   1   8  -5   -0.98    1.46   0
  -1   7  -5   57.06    2.35   0
   1   6  -7   58.26    2.44   0
   2   8  -4    4.55    1.73   0
   3   6  -7    7.49    1.62   0
  -2   8  -2   68.29    2.33   0
   1   5  -7   84.83    2.61   0
   2   6  -7   79.40    2.67   0
   2   7  -6    1.79    1.89   0
   4   5  -7   80.97    2.63   0
   4   6  -6    1.34    1.59   0
  -2   7  -3  122.08    2.89   0
   0   6  -6   -1.13    1.34   0
   1   7  -6   44.32    2.18   0
  -1   8  -3   22.26    2.07   0
   1   8  -4   33.40    1.92   0
   2   8  -3   67.33    2.22   0
   3   7  -5  214.52    3.54   0
   0   7  -5   76.71    2.92   0
   3   5  -7  134.17    3.29   0
  -1   7  -4    2.41    1.32   0
   3   4  -7   24.19    2.00   0
   1   6  -6  149.00    3.31   0
   1   8  -3    0.56    1.82   0
   2   7  -5   21.56    1.97   0
   4   6  -5   22.42    1.91   0
  -2   7  -2   30.50    1.74   0
  -1   8  -2    5.11    1.40   0
   1   7  -5    1.01    1.32   0
   2   6  -6   80.29    2.76   0
   2   8  -1   21.24    1.49   0
   3   7  -4  190.36    3.32   0
   4   5  -6   39.70    2.35   0
   0   6  -5  161.46    3.35   0
   0   7  -4   27.36    2.26   0
   1   8  -2  239.61    3.76   0
  -1   7  -3    0.96    1.29   0
  -1   8  -1   32.81    1.93   0
   0   8  -2   40.08    1.94   0
   2   7  -4   62.72    2.86   0
   3   5  -6  178.79    4.08   0
   3   7  -3    4.66    1.50   0
   4   6  -4   41.07    2.44   0
   1   7  -4   89.79    2.75   0
   4   4  -6   32.99    2.04   0
   5   5  -4   55.61    2.26   0
  -1   8   0  124.53    3.19   0
   0   8  -1    4.18    1.59   0
   1   6  -5  232.62    4.10   0
   1   8   2    2.34    1.33   0
   5   4  -5   18.49    1.96   0
   1   8   0  129.03    2.54   0
   2   6  -5   57.47    2.47   0
   3   4  -6 1054.30    8.19   0
   3   7  -2   -0.03    1.37   0
   4   5  -5   27.52    2.12   0
  -1   7  -2   90.58    2.62   0
  -1   8   1   83.33    2.27   0
   0   6  -4   49.85    2.10   0
   0   8   0  120.31    2.75   0
   0   8   3   58.20    1.78   0
   2   7  -3  100.99    3.27   0
   0   8   1   10.48    1.66   0
   0   8   2    5.29    1.47   0
   1   7  -3   41.28    2.41   0
   3   7  -1    1.36    1.39   0
   5   5  -3    3.98    1.52   0
   3   5  -5   57.73    2.64   0
   3   6  -4    3.49    1.62   0
   3   7   0   57.31    1.84   0
   3   7   1    0.16    1.44   0
   1   6  -4  349.71    4.80   0
   2   5  -5    3.23    1.32   0
  -1   7  -1  347.54    4.67   0
   2   6  -4    8.41    1.66   0
   2   7  -2    2.54    1.64   0
   4   4  -5  206.48    4.15   0
   4   5  -4   69.56    2.96   0
   5   4  -4   10.88    2.11   0
   5   5  -2    7.16    1.76   0
   1   7  -2   17.95    1.81   0
   4   6  -1    0.48    1.81   0
   6   4  -1    3.10    1.34   0
   2   7  -1   28.87    1.97   0
   4   6   0   48.90    1.98   0
   5   5  -1   17.29    1.88   0
  -1   7   0  243.10    3.78   0
   0   7  -1   12.76    1.54   0
   1   6  -3   14.55    1.65   0
   1   7  -1   21.76    2.15   0
   2   6  -3   40.81    2.61   0
   2   7   0   90.18    2.68   0
   4   6   1   13.82    1.46   0
   2   5  -4  168.69    3.51   0
   3   6  -2  107.55    3.42   0
   4   5  -3  222.12    4.23   0
   5   4  -3  279.96    4.72   0
   5   5   0    7.42    1.58   0
   2   7   2   46.60    2.08   0
   4   4  -4    1.73    1.57   0
  -8   1  10   47.90    1.87   0
  -8   2  11   30.18    1.59   0
  -5   0  11    5.14    1.24   0
  -4   1  11    0.41    1.38   0
  -4   2  11  175.91    2.82   0
  -9   2   9    3.92    1.46   0
  -7   1  11  104.41    2.52   0
  -8   4  11    2.08    1.05   0
  -3   1  10   54.77    1.81   0
  -8   3  11   12.02    1.29   0
  -7   0   9    3.44    1.74   0
  -6   1  11   56.84    2.31   0
  -6   4  11   91.52    2.01   0
  -5  -1   9    4.05    1.53   0
  -5   1  11    0.76    1.17   0
  -5   3  11    7.18    1.25   0
  -9   4  10   72.26    1.65   0
  -8   1   9   10.66    1.81   0
  -7   2  11    1.82    1.61   0
  -7   4  11    6.97    1.29   0
  -4   0  10  102.16    2.45   0
  -6   5  10   -0.08    1.31   0
  -5   0  10   67.03    2.12   0
  -4   3  10   16.19    1.33   0
  -7   3  11    2.13    1.14   0
  -6   2  11   30.26    1.72   0
  -8   5  10   51.01    1.61   0
  -7   0   8   49.79    2.58   0
  -5  -1   8   46.58    2.01   0
  -5   4  10   12.90    1.45   0
  -4   1  10  147.59    2.89   0
  -7   5  10   27.31    1.56   0
  -8   3  10   33.63    2.08   0
  -8   6   9    0.38    1.03   0
  -6   0   9  229.90    3.83   0
  -6   1  10   11.29    1.63   0
  -5   1  10  131.91    2.76   0
  -9   5   9   63.98    1.61   0
  -8   4  10   81.31    2.05   0
  -5   3  10   62.39    2.31   0
  -9   4   9   51.40    1.71   0
  -7   1   9    9.89    2.13   0
  -7   2  10  122.80    2.84   0
  -6   4  10  145.46    2.69   0
  -5   2  10   14.55    1.40   0
  -7   3  10   49.40    2.33   0
  -6   2  10   69.49    2.30   0
  -9   3   8   -0.72    1.57   0
  -6   0   8   32.72    2.58   0
  -6   3  10   89.10    2.43   0
  -4   3   9   79.91    2.02   0
  -8   3   9   36.40    2.15   0
  -6   1   9  155.43    3.21   0
  -5   1   9   83.70    3.05   0
  -5   4   9   58.76    1.90   0
  -9   4   8   33.68    1.91   0
  -8   2   8    7.60    2.00   0
  -8   4   9   -0.72    1.46   0
  -7   1   8    1.55    2.00   0
  -7   2   9  288.96    4.48   0
  -7   5   9   20.79    1.51   0
  -9   5   8   51.87    1.72   0
  -8   6   8  116.64    2.55   0
  -8   7   7   11.51    1.39   0
  -9   3   7    5.16    1.47   0
  -7   6   8   23.80    1.50   0
  -6   0   7   42.39    2.12   0
  -6   2   9    6.63    1.59   0
  -6   4   9   -0.70    1.45   0
  -5   2   9   20.50    1.59   0
  -5   3   9   25.76    1.53   0
  -7   3   9  312.74    4.26   0
  -7   4   9    1.65    1.33   0
  -9   6   7    1.21    1.36   0
  -6   3   9  347.20    4.36   0
  -9   7   6   14.87    1.25   0
  -8   2   7   60.28    2.45   0
  -8   3   8   83.42    2.70   0
  -7   1   7    0.55    1.74   0
  -9   3   6   21.52    2.15   0
  -9   4   7   24.32    1.65   0
  -8   5   8   40.41    1.87   0
  -7   2   8    0.38    1.58   0
  -6   0   6  276.60    4.20   0
  -6   5   8    9.03    1.49   0
  -9   5   7   58.30    2.00   0
  -8   4   8    0.66    1.36   0
  -7   5   8  113.61    3.06   0
  -5   4   8  135.24    2.78   0
  -6   6   7   11.62    1.46   0
 -10   5   4    5.26    1.48   0
  -8   6   7   23.13    1.59   0
  -7   1   6    1.19    1.87   0
  -7   3   8    5.60    1.54   0
  -7   7   6    1.11    1.41   0
  -6   2   8   83.88    2.48   0
 -10   6   4    6.63    1.41   0
  -9   6   6    1.27    1.56   0
  -8   3   7   14.70    1.78   0
  -7   4   8   25.29    1.79   0
  -7   6   7   53.61    2.04   0
  -6   3   8  163.95    3.31   0
  -6   4   8   83.04    2.30   0
  -9   4   6   20.16    1.77   0
  -5   5   7   20.23    1.44   0
  -9   5   6   19.69    1.63   0
  -8   4   7   18.94    1.98   0
  -8   5   7   59.41    2.26   0
  -8   2   5    2.62    1.95   0
  -7   1   5   17.56    2.20   0
 -10   6   3    1.68    1.21   0
  -6   5   7   16.90    1.60   0
  -9   8   3   10.99    1.48   0
  -7   3   7  118.19    3.04   0
  -6   2   7   12.93    1.55   0
  -5   4   7    5.33    1.48   0
  -9   6   5  143.66    2.78   0
  -8   2   4   21.17    2.36   0
  -8   7   5   23.08    1.88   0
  -7   4   7   63.48    2.33   0
  -6   6   6   70.25    2.40   0
  -9   5   5    1.15    1.51   0
  -9   7   4    2.58    1.45   0
  -7   6   6    4.62    1.74   0
  -6   3   7   51.65    2.12   0
  -8   4   6  109.65    2.94   0
  -8   5   6   34.55    2.06   0
  -7   7   5   66.11    2.21   0
  -9   4   4    4.39    1.56   0
  -8   2   3    3.01    1.98   0
  -8   3   5  132.71    3.50   0
  -8   8   3  209.42    3.07   0
  -7   3   6  390.26    5.31   0
  -9   5   4    0.55    1.48   0
  -9   6   4  100.88    2.58   0
  -8   6   5   23.25    1.96   0
  -7   2   5  120.52    3.20   0
  -7   5   6   15.16    1.68   0
  -9   4   3    2.20    1.73   0
  -7   4   6   14.48    1.59   0
  -6   5   6   62.98    2.20   0
  -8   4   5    9.34    1.73   0
  -8   5   5   -1.44    1.69   0
  -8   7   4    0.72    1.52   0
  -6   3   6    6.23    1.58   0
  -8   3   4    4.55    1.83   0
  -7   6   5   41.05    2.06   0
  -6   4   6  311.86    4.33   0
  -6   6   5    6.15    1.62   0
  -9   4   2    8.31    1.64   0
  -9   5   3    5.22    1.72   0
  -9   6   3    5.51    1.66   0
  -7   7   4  160.82    3.12   0
  -9   7   2    1.18    1.55   0
  -8   8   2  359.93    3.99   0
  -7   2   4    9.03    1.69   0
  -7   3   5   55.99    2.34   0
  -9   4   1   23.24    1.97   0
  -8   3   3    7.47    2.11   0
  -8   4   4   87.89    2.84   0
  -8   6   4   15.59    1.75   0
  -7   5   5   29.64    1.95   0
  -9   4   0   16.46    1.74   0
  -9   8   0    0.67    1.23   0
  -8   5   4   -0.57    1.78   0
  -7   4   5  169.49    3.49   0
  -9   6   2    2.52    1.44   0
  -7   8   2   31.71    1.79   0
  -6   5   5   29.16    1.85   0
  -9   7   1   13.73    1.50   0
  -8   3   2   96.38    3.15   0
  -7   2   3  103.63    3.08   0
  -9   5   1    5.55    1.56   0
  -9   8  -1    0.95    1.25   0
  -8   8   1  183.10    3.26   0
  -7   6   4    9.03    1.54   0
  -7   7   3   13.44    1.90   0
  -9   6   1   21.65    1.93   0
  -8   6   3   65.23    2.49   0
  -6   6   4   63.04    2.24   0
  -6   7   3   20.33    1.74   0
  -9   5  -3   -0.29    1.59   0
  -9   5   0   49.48    2.25   0
  -9   7   0   -0.01    1.34   0
  -8   3   1   78.15    2.96   0
  -8   5   3   70.03    2.68   0
  -7   2   2  365.14    5.42   0
  -7   4   4   81.64    2.72   0
  -7   5   4   22.08    1.69   0
  -9   5  -2    7.10    1.76   0
  -9   6   0   24.74    2.04   0
  -9   7  -1    1.11    1.59   0
  -8   3   0    0.61    2.10   0
  -8   4   2   73.31    2.78   0
  -7   8   1   11.88    1.96   0
  -7   3   3  107.33    3.04   0
  -9   7  -3   59.29    1.88   0
  -9   7  -2    1.05    1.23   0
  -8   5   2  156.85    3.53   0
  -8   6   2    6.09    1.53   0
  -7   7   2   35.42    2.38   0
  -8   4   1   10.52    2.07   0
  -8   7   1   18.84    1.70   0
  -7   4   3  206.86    4.09   0
  -7   9  -2    4.42    1.61   0
  -7   5   3    5.47    1.43   0
  -6   6   3  221.86    3.67   0
  -6   7   2   17.19    1.63   0
  -7   3   2    0.53    1.35   0
  -7   8   0    1.07    1.84   0
  -8   4   0    7.21    2.13   0
  -8   5   1   72.85    2.86   0
  -8   6   1   12.53    1.64   0
  -8   7   0   26.66    2.28   0
  -7   9  -3   39.43    1.96   0
  -8   8  -2   22.46    2.01   0
  -7   6   2    6.26    1.68   0
  -6   8   0   17.72    1.89   0
  -8   4  -1    4.22    1.94   0
  -7   4   2   38.68    2.00   0
  -7   7   1    7.52    1.70   0
  -8   4  -2   77.25    2.83   0
  -8   5   0   38.53    2.24   0
  -8   6   0   99.70    2.83   0
  -7   3   1    6.06    1.65   0
  -7   5   2    5.48    1.43   0
  -7   9  -4  122.27    2.52   0
  -8   7  -1   93.00    2.65   0
  -8   8  -4    1.49    1.50   0
  -7   8  -1    8.49    1.67   0
  -6   6   2  509.65    5.30   0
  -6   7   1    2.16    1.67   0
  -8   8  -5    0.19    1.21   0
  -8   6  -1   18.48    2.02   0
  -8   7  -2  112.46    2.89   0
  -7   3   0   99.62    2.99   0
  -7   4   1   78.92    2.89   0
  -7   6   1   16.50    1.64   0
  -8   5  -5    7.15    1.78   0
  -8   5  -2   11.64    2.12   0
  -7   5   1   15.51    1.98   0
  -6   8  -1   60.02    2.30   0
  -6   9  -4    0.37    1.57   0
  -8   5  -4   44.00    2.42   0
  -8   5  -3    0.10    1.87   0
  -8   6  -6   36.37    1.94   0
  -8   6  -2   21.12    1.90   0
  -8   7  -6   31.24    1.54   0
  -8   7  -3  129.31    3.03   0
  -7   8  -2    0.02    1.37   0
  -6   5   2   63.59    2.24   0
  -8   6  -3   52.92    2.54   0
  -8   7  -5    0.00    1.37   0
  -8   7  -4   25.61    1.75   0
  -7   3  -1  178.67    3.82   0
  -8   6  -5    0.84    1.31   0
  -7   6   0    7.40    1.53   0
  -6   6   1  800.15    6.88   0
  -6   7   0    3.75    1.58   0
  -6   9  -5    1.52    1.55   0
  -7   3  -2   15.19    1.98   0
  -7   5   0    6.99    1.76   0
  -6   9  -6   74.51    2.04   0
  -7   3  -3    5.20    1.81   0
  -6   8  -2   22.65    1.89   0
  -5   7   0  197.86    3.41   0
  -7   4  -1  195.57    3.96   0
  -7   6  -1    7.60    1.64   0
  -7   7  -2   16.40    1.78   0
  -7   8  -7   44.88    1.72   0
  -7   8  -5   42.28    2.14   0
  -7   5  -1    1.61    1.33   0
  -6   7  -1   87.07    2.61   0
  -7   4  -2  145.03    3.49   0
  -7   5  -8    2.96    1.64   0
  -7   7  -3   -0.36    1.75   0
  -6   8  -3  164.86    3.28   0
  -5   9  -7   19.25    1.63   0
  -7   4  -6   23.07    2.17   0
  -7   6  -2   15.90    1.83   0
  -7   7  -8   99.14    2.12   0
  -7   4  -5   32.34    2.25   0
  -7   4  -4    4.82    1.79   0
  -7   4  -3    9.46    1.79   0
  -7   5  -2    7.92    1.56   0
  -7   6  -8    1.00    1.53   0
  -7   7  -4    8.67    1.90   0
  -6   5   0   10.00    1.36   0
  -5   8  -3    1.95    1.66   0
  -7   5  -7    9.77    1.83   0
  -7   6  -3    3.56    1.68   0
  -7   7  -7    0.53    1.30   0
  -6   7  -2   14.87    1.86   0
  -6   8  -4   41.34    2.11   0
  -7   7  -6   -0.53    1.41   0
  -7   7  -5    4.65    1.44   0
  -6   6  -1    1.34    1.18   0
  -6   8  -9   11.33    1.30   0
  -7   5  -6   21.05    1.81   0
  -7   6  -4   63.11    2.48   0
  -6   8  -5    0.40    1.36   0
  -7   5  -5    0.72    1.52   0
  -7   6  -6   69.34    2.46   0
  -7   6  -5   46.17    2.27   0
  -6   5  -1   52.28    2.07   0
  -6   7 -10    4.06    1.19   0
  -6   8  -7   69.65    2.15   0
  -5   7  -2   37.43    2.25   0
  -5   8  -4  106.33    2.62   0
  -6   5 -10    1.56    1.48   0
  -6   6  -2    0.13    1.18   0
  -6   3  -3   18.17    1.99   0
  -6   4  -9    0.43    1.48   0
  -6   6 -10   57.80    1.97   0
  -6   5  -2  256.07    4.23   0
  -6   7  -9   49.47    2.05   0
  -6   7  -4   37.58    2.03   0
  -5   8  -5   24.49    1.70   0
  -6   3  -4   86.35    2.79   0
   4   5  -4   63.13    2.64   0
   5   4  -3  297.22    5.02   0
   5   5   0   10.36    1.50   0
   6   0   0  299.37    5.22   0
   6   3   0  199.30    3.82   0
   6   3   1  140.27    3.08   0
   3   7  -1    0.49    1.61   0
   5   3   6    0.50    1.22   0
   6   0   1  371.25    5.61   0
   6   0   3  116.08    3.34   0
   6   1  -1   10.06    1.66   0
   6   1   4  238.41    3.88   0
   6   2  -1    2.01    1.59   0
   4   6  -1    2.12    1.56   0
   6   0   2   33.13    2.20   0
   6   1   0   11.71    1.96   0
   6   2   0   24.28    2.35   0
   6   2   3   23.28    1.78   0
   3   7   0   55.44    2.01   0
   4   6   0   53.31    1.95   0
   5   2  -3    0.39    1.51   0
   6   1   3   50.06    2.28   0
   6   2   1    1.12    1.52   0
   4   4  -4   -1.14    1.50   0
   4   5  -3  200.79    4.00   0
   6   1   2    0.65    1.45   0
   3   6  -3  125.19    3.45   0
   5   2   6    9.69    1.69   0
   5   3   5   -0.91    1.59   0
   5   4  -1   95.81    2.96   0
   5   4   3   22.31    1.69   0
   5   2  -2   23.95    1.81   0
   5   3  -2    0.94    1.62   0
   5   4   0  148.75    3.33   0
   5   4   2   39.59    2.01   0
   4   5  -2   37.12    2.18   0
   5   4   1    2.44    1.59   0
   4   4  -3    3.34    1.60   0
   5   3  -1   37.24    2.30   0
   3   6  -2  101.72    3.08   0
   4   4   6    1.91    1.34   0
   4   5  -1    0.39    1.73   0
   5   0   4    0.61    1.67   0
   5   2   5  145.89    3.04   0
   5   3   0   68.35    2.65   0
   5   3   3   -0.18    1.71   0
   4   5   0   52.75    2.47   0
   4   5   3    8.92    1.66   0
   5   1   5   60.52    2.23   0
   5   3   1    8.47    1.68   0
   5   3   2   -0.88    1.64   0
   3   5  -3  202.29    3.99   0
   3   6   4  301.51    3.43   0
   4   4  -2  127.98    3.15   0
   4   5   1  526.91    5.46   0
   4   5   2   47.45    2.10   0
   5   2   0   13.02    1.70   0
   5   2   4    2.23    1.70   0
   1   8   1  124.07    2.56   0
   2   7  -1   23.98    1.90   0
   3   6  -1  278.59    4.19   0
   5   1   4   12.47    1.62   0
   5   2   1   96.01    2.95   0
   5   2   3   88.30    2.94   0
   3   4   8  167.39    2.45   0
   5   1   2  218.96    3.92   0
   5   1   3   21.66    1.78   0
   5   2   2   33.90    2.02   0
   2   7   0   86.70    2.81   0
   3   6   0  245.52    3.96   0
   3   6   3    0.64    1.55   0
   3   6   2    2.17    1.50   0
   4   2   7   -0.24    1.75   0
   2   7   1  252.55    3.70   0
   2   7   2   42.34    1.93   0
   3   5  -2  273.32    4.28   0
   3   5   6    0.77    1.29   0
   4   3   6  351.74    4.16   0
   4   4   0    4.43    1.70   0
   4   4   4    2.82    1.47   0
   4   3  -1   16.06    1.56   0
   4   4   1    1.20    1.78   0
   4   4   3    0.68    1.89   0
   2   6  -2   28.00    2.17   0
   4   4   2   68.10    2.58   0
   2   6   6    3.13    1.63   0
   3   5  -1  104.96    2.97   0
   3   5   5    4.47    1.74   0
   4   2   6    0.24    1.69   0
   4   3   0    4.08    1.76   0
   4   3   5  361.38    4.56   0
   2   5   8   54.00    1.95   0
   3   4   7  132.53    2.65   0
   4   1   6   98.55    2.65   0
   4   3   1   40.33    2.15   0
   2   6  -1   31.78    2.01   0
   3   5   4   36.98    2.03   0
   4   1   5   50.66    2.37   0
   4   2   5   23.52    1.93   0
   4   3   2    4.91    1.53   0
   4   3   3   34.73    2.14   0
   2   6   5   -1.83    1.56   0
   3   5   1  154.42    3.54   0
   3   5   2   14.83    2.19   0
   3   5   3   25.79    2.02   0
   0   8   1    6.63    1.88   0
   0   8   4    2.15    1.37   0
   1   7   5    1.76    1.39   0
   3   4  -1  172.31    3.39   0
   4   2   4   19.81    1.68   0
   0   8   2    6.45    1.77   0
   0   8   3   57.32    2.28   0
   2   6   0   41.72    2.38   0
   2   6   4    0.63    1.82   0
   3   2   8   15.00    1.72   0
   1   7   4    0.83    1.88   0
   2   6   1   23.43    2.49   0
   3   3   7    6.81    1.60   0
   1   7   1   -0.22    1.69   0
   2   6   3   54.17    2.35   0
   3   4   0   11.47    1.68   0
   3   4   5   53.29    2.44   0
   1   7   2    6.00    1.77   0
   3   4   1    2.07    1.73   0
   0   7   7  262.47    3.36   0
   1   5   9    5.37    1.39   0
   1   6   7   50.69    2.34   0
   2   4   8   24.24    2.11   0
   2   5  -1    5.78    1.71   0
   3   2   7    6.16    1.97   0
   3   3   6   50.39    2.54   0
   3   4   2   25.93    2.27   0
   3   4   3  114.56    3.29   0
   3   4   4   43.87    2.29   0
   2   3   9   11.70    1.69   0
   1   4  10   13.92    1.51   0
   1   6  -1   -0.01    1.72   0
   2   5   0    9.28    1.67   0
   2   5   5  253.58    4.31   0
  -1   8   5   27.54    2.02   0
   1   6   6   14.54    1.84   0
   3   2   6  126.65    2.97   0
   3   3   4   90.46    2.68   0
   0   7   6  267.16    3.80   0
   2   4   7   12.17    1.86   0
   2   5   4   77.07    2.78   0
   3   3   3   82.04    2.59   0
  -1   8   4   16.70    2.05   0
   0   7   0    0.93    1.68   0
   1   6   0  246.07    4.58   0
   2   3   8    8.51    1.88   0
   2   5   2    9.29    1.78   0
   2   5   3    5.71    1.83   0
   3   2   5    2.12    1.50   0
  -1   8   2   25.97    2.09   0
  -1   8   3    3.08    1.96   0
   0   5  10   45.55    1.82   0
   0   7   5   69.17    2.98   0
   1   6   5    2.22    1.73   0
  -1   7   8    2.41    1.34   0
   0   6   8    9.32    1.90   0
   0   7   1    6.73    2.23   0
   1   6   1    6.05    1.83   0
   1   6   4   91.72    3.35   0
   1   3  10    8.70    1.61   0
   1   4   9    4.15    1.76   0
   1   6   2   44.31    2.55   0
   1   6   3   15.44    2.04   0
   0   7   2   15.97    2.00   0
   0   7   3    1.27    2.03   0
   1   5   7   63.75    2.59   0
   2   2   8   25.11    2.26   0
   2   4   5   36.65    2.42   0
   2   3   7   79.36    2.73   0
  -1   5  11    4.88    1.44   0
   2   4   3  211.00    3.96   0
   2   4   4   73.54    2.65   0
  -2   7   9    1.78    1.66   0
  -1   7   7   36.54    2.18   0
   0   6   7   22.83    2.04   0
   1   5   6   86.48    3.35   0
   1   4   8    0.43    1.93   0
   2   2   7   13.17    2.08   0
   2   3   6    9.75    1.73   0
  -2   8   5   95.01    2.91   0
  -1   6   9   13.19    1.71   0
   1   3   9  185.34    3.64   0
  -2   8   2  226.82    4.88   0
  -2   8   4  113.84    3.53   0
  -1   7   6   18.77    2.11   0
   0   4  10    5.52    1.73   0
   0   6   6    0.56    1.78   0
   1   5   5   49.03    2.57   0
  -3   7  10  147.76    2.46   0
  -2   8   3  295.27    5.07   0
   1   5   3   33.56    2.51   0
   1   5   4   88.71    3.16   0
  -1   7   1   80.70    3.47   0
   0   5   8    1.68    2.24   0
   0   6   5   29.29    2.38   0
  -2   7   8   21.57    1.90   0
   0   6   1  339.96    5.31   0
  -2   6  10    2.47    1.53   0
  -1   5  10   39.77    2.19   0
  -1   6   8    2.60    1.60   0
  -1   7   2    7.77    2.14   0
  -1   7   3   20.47    2.71   0
  -1   7   4   85.34    3.26   0
   0   6   2  339.69    5.78   0
   0   6   4  132.62    3.65   0
   1   3   8  297.10    4.56   0
  -1   4  11   68.29    2.58   0
   0   3  10  105.66    3.18   0
   0   4   9    4.68    1.98   0
   0   5   7  182.41    4.08   0
  -2   7   7   67.33    2.83   0
   1   4   5    7.91    1.81   0
  -3   7   9   94.40    2.63   0
  -3   8   5    3.47    1.82   0
  -2   5  11   13.60    1.89   0
  -1   6   7   38.27    2.48   0
   1   3   7  292.39    4.52   0
  -3   8   3  120.57    4.12   0
  -3   8   4    4.50    2.46   0
  -2   4  12   23.18    1.73   0
   0   5   6    1.72    1.79   0
  -4   7  10    7.76    1.57   0
  -3   5  12   75.29    2.12   0
  -2   6   9   55.94    2.55   0
  -2   7   6   12.85    2.25   0
   0   4   8    9.38    2.18   0
   0   5   5  106.75    3.45   0
  -1   4  10    3.17    2.11   0
   0   3   9    2.99    2.03   0
  -3   7   8  133.63    3.61   0
  -2   7   2   44.88    3.07   0
  -1   6   5    0.32    1.73   0
   0   5   4  176.06    3.97   0
  -4   8   6  458.88    6.48   0
  -3   6  10   59.96    2.59   0
  -2   7   3    1.69    2.11   0
  -2   7   4   56.97    2.91   0
  -2   6   8   29.22    2.64   0
  -1   6   2   25.29    2.27   0
  -1   6   3   43.52    2.63   0
  -4   6  11    6.09    1.53   0
  -4   7   9    9.01    1.71   0
  -4   8   5   -0.59    2.04   0
  -5   7  10   14.80    1.60   0
  -5   8   7    4.34    1.95   0
  -4   8   3   34.57    2.84   0
  -4   8   4   10.23    2.21   0
  -2   4  11    7.08    1.85   0
   0   3   8   40.64    2.34   0
   0   4   6  648.20    7.49   0
  -6   8   8   20.49    1.69   0
  -3   5  11   21.94    1.90   0
  -2   6   7  125.25    4.23   0
  -4   4  13   -0.69    1.33   0
  -4   5  12   64.28    2.21   0
  -3   4  12    1.53    1.92   0
  -1   3  10   97.32    3.53   0
  -3   6   9   34.04    2.77   0
  -2   5   9   18.83    2.28   0
  -4   7   8   14.08    2.22   0
  -3   7   5    2.68    2.25   0
  -1   5   6    1.88    1.75   0
  -6   7  10    9.85    1.52   0
  -5   8   5   64.77    3.27   0
  -5   6  11   18.03    1.73   0
  -5   7   9    5.47    1.73   0
  -5   8   4   64.62    3.26   0
  -4   6  10    2.07    1.85   0
  -3   7   2    3.95    1.95   0
  -3   7   3  245.96    5.70   0
  -1   5   5   17.28    2.16   0
  -7   8   7    0.73    1.59   0
  -4   7   7  124.41    4.36   0
  -3   6   8   10.77    2.03   0
  -2   3  11  109.32    3.40   0
  -2   4  10   12.25    2.08   0
  -2   6   5   58.45    2.99   0
  -6   8   6    8.76    2.11   0
  -2   5   8    0.64    1.67   0
  -2   6   4   46.53    3.06   0
  -1   3   9    7.21    1.82   0
  -5   4  13   -0.59    1.61   0
  -5   5  12  136.73    3.43   0
  -2   6   3   29.81    2.55   0
  -1   4   7   12.50    2.17   0
  -7   8   6   -0.21    1.78   0
  -6   8   5   61.50    2.97   0
  -4   3  13    0.69    1.15   0
  -3   3  12  263.42    5.02   0
  -3   4  11   22.32    2.62   0
  -6   6  11   29.25    1.96   0
  -5   7   8   57.34    2.92   0
  -4   6   9    6.22    2.07   0
  -3   6   7    6.41    2.16   0
  -2   4   9   37.48    2.47   0
  -2   5   7   63.39    3.20   0
  -5   6  10  103.38    3.78   0
  -4   7   5    7.71    2.25   0
  -3   5   9   45.85    2.88   0
  -7   6  11    0.49    1.34   0
  -7   7   9   36.77    2.14   0
  -6   4  13   71.08    1.99   0
  -4   7   4   15.90    2.42   0
  -3   6   6   19.64    2.18   0
  -2   3  10   41.62    3.06   0
  -4   7   3  702.59    9.07   0
  -6   7   8    4.70    1.87   0
  -4   5  10   29.56    2.65   0
  -5   3  13   -1.68    1.68   0
  -5   6   9  158.26    4.48   0
  -3   3  11  199.77    4.59   0
  -3   6   4  212.87    5.34   0
  -8   7   8    7.49    1.82   0
  -5   4  12    8.90    1.78   0
  -4   3  12   13.04    2.25   0
  -4   4  11   91.22    3.35   0
  -5   7   5    5.11    2.09   0
  -2   3   9    6.72    2.10   0
  -5   7   4    0.76    2.20   0
  -2   2  10   70.00    3.17   0
  -6   3  13    6.02    1.53   0
  -6   5  11   54.41    2.54   0
  -5   7   3   11.70    2.42   0
  -4   5   9    4.71    1.96   0
  -3   5   7   31.19    2.57   0
  -8   7   7   12.48    2.03   0
  -7   7   7  110.23    3.62   0
  -6   6   9    1.70    1.78   0
  -6   7   6  163.74    4.26   0
  -5   5  10    0.94    1.80   0
  -5   6   8   90.59    3.63   0
  -4   6   6   21.42    2.53   0
  -6   4  12   13.71    1.83   0
  -8   5  11   12.75    1.87   0
  -6   7   5    4.40    1.92   0
  -4   6   5   20.01    2.36   0
  -3   2  11    0.45    2.05   0
  -3   3  10   44.25    2.73   0
  -3   5   6  195.38    4.73   0
  -8   7   6   35.48    2.33   0
  -7   4  12  210.13    4.00   0
  -7   7   6    0.98    1.88   0
  -6   7   4   68.86    3.60   0
  -5   4  11    6.43    1.89   0
  -5   6   7    0.72    2.26   0
  -4   5   8   24.80    2.38   0
  -7   6   9   30.74    2.36   0
  -4   3  11   36.17    2.61   0
  -4   6   4  135.49    4.16   0
  -3   4   8   74.95    3.26   0
  -7   7   5   66.20    3.47   0
  -6   5  10    1.71    2.02   0
  -6   6   8    1.28    1.94   0
  -7   7   4  142.53    3.91   0
  -5   5   9   28.08    2.43   0
  -7   6   8   21.19    2.41   0
  -4   4   9   37.36    2.85   0
  -4   5   7   71.27    3.24   0
  -3   3   9   -0.05    1.70   0
  -8   3  12   43.75    1.95   0
  -8   5  10   53.14    2.46   0
  -8   6   8  132.79    3.50   0
  -7   5  10   24.60    2.33   0
  -6   6   7   14.96    2.32   0
  -5   6   5    1.42    1.64   0
  -3   2  10   19.25    2.05   0
  -9   6   7    1.62    1.40   0
  -8   4  11    2.30    1.44   0
  -7   3  12   53.26    2.11   0
  -7   4  11    2.73    1.65   0
  -6   5   9   39.62    2.56   0
  -5   3  11    3.90    2.14   0
  -5   5   8    4.25    1.86   0
  -4   3  10   15.35    1.97   0
  -4   5   6  348.50    6.30   0
  -9   5   9   67.09    2.48   0
  -5   6   4   62.75    2.84   0
  -4   2  11  197.22    4.22   0
  -5   6   3   10.75    2.22   0
  -9   6   6    0.44    1.53   0
  -8   2  12   13.58    1.74   0
  -7   5   9   19.47    2.05   0
  -4   4   8   92.11    3.45   0
  -8   5   9   10.06    1.81   0
  -6   2  12    1.00    1.47   0
  -6   4  10  162.08    4.03   0
  -6   6   5    7.00    1.92   0
  -5   5   7   19.39    2.22   0
  -9   6   5  125.40    3.34   0
  -7   6   6    5.32    1.92   0
  -6   3  11   24.92    2.46   0
  -6   5   8    6.38    2.00   0
  -5   4   9   60.73    2.99   0
  -8   6   6   95.44    3.40   0
  -6   2  -4  303.64    8.48   0
  -3   2  -4   55.13    2.55   0
  -5   3  -3   28.78    2.67   0
  -4   1  -6    1.74    2.18   0
  -4   3  -2    8.25    1.36   0
  -2   1  -5  350.14    5.71   0
  -6   3  -3   15.60    2.91   0
  -5   2  -5    3.33    2.07   0
  -3   1  -6    4.02    1.66   0
  -1   1  -3  699.42    4.92   0
  -3  -1  -7  521.95   10.61   0
  -2   2  -2   38.95    1.28   0
  -3   0  -7  141.37    5.88   0
  -3   2  -5    8.90    1.52   0
  -1  -2  -7   -0.49    1.90   0
  -1   1  -4   57.93    1.85   0
  -4   1  -7   58.28    4.26   0
  -4   3  -4  563.17    8.88   0
  -3   1  -7   33.04    3.40   0
  -5   3  -5  109.47    4.45   0
  -1   1  -5   32.78    1.75   0
  -4   3  -5   26.80    3.07   0
  -4   2  -7   79.29    4.87   0
   0   0  -5  850.83    6.12   0
  -5   3  -6    8.18    2.57   0
  -3   1  -8   43.61    3.80   0
  -3   2  -7  308.73    7.46   0
  -3   3  -4   35.16    2.21   0
  -1  -2  -8  225.42    6.14   0
  -4   3  -6    3.23    2.40   0
  -1   1  -6   19.27    1.64   0
   1  -2  -5    0.01    0.77   0
  -2   2  -6    0.02    1.18   0
  -4   2  -8    6.72    3.02   0
  -2   0  -9    9.43    2.66   0
  -1   1  -7  246.66    4.71   0
  -4   3  -7   12.52    2.81   0
   1  -2  -6    2.23    0.96   0
  -5   4  -5   45.54    3.24   0
  -1  -1  -9  110.56    4.74   0
  -2   1  -9   25.42    3.01   0
   0  -1  -8   68.01    2.89   0
   1  -1  -4  426.31    3.30   0
  -1   0  -9   14.55    2.56   0
  -1   1  -8    5.43    1.54   0
   1  -1  -5   44.54    1.40   0
  -3   2  -9   38.53    3.96   0
  -2   2  -8   73.52    3.76   0
  -1   2  -5   52.96    1.80   0
  -1   2  -4   77.80    1.79   0
  -4   4  -5    4.49    1.63   0
  -2   3  -4  573.35    5.16   0
  -4   4  -6    1.16    1.84   0
  -3   3  -8    2.94    2.18   0
  -2   3  -3    2.11    0.82   0
   0   1  -4  769.87    4.60   0
  -2   1 -10   38.77    3.92   0
  -2   2  -9   71.02    4.23   0
  -1   1  -9  105.54    3.98   0
   0   1  -6  120.54    2.58   0
  -1   0 -10   -0.11    2.39   0
   0   1  -3  469.50    3.03   0
  -2   3  -7  109.69    4.23   0
   0   1  -7   51.11    2.30   0
  -2   3  -2  348.44    3.13   0
  -1   2  -8   53.45    3.07   0
   0   0  -9  330.23    6.03   0
  -3   4  -5   89.51    2.82   0
  -2   2 -10   15.24    3.64   0
  -3   4  -6   20.49    2.20   0
   0   1  -8   41.94    2.13   0
  -1   2  -9   39.10    3.84   0
  -3   4  -3    1.47    0.72   0
   0   0 -10   25.13    3.04   0
   1   0  -6   72.71    1.79   0
  -2   3  -9  129.69    5.44   0
   1   0  -7   51.53    2.01   0
   1   0  -4  211.75    2.05   0
  -1   2 -10   20.03    2.75   0
   1  -1  -9   39.64    2.40   0
  -3   4  -9    3.47    2.74   0
   1   0  -8  459.97    5.33   0
  -1   3  -5  134.68    2.65   0
   0   2  -7    1.64    0.99   0
   0   2  -6  303.40    4.00   0
  -1   3  -8   16.42    1.93   0
   0   2  -5  615.44    4.82   0
   1   0  -9    7.83    1.89   0
  -4   5  -7    2.58    2.31   0
  -2   3  -1  261.35    2.07   0
  -2   4  -7   81.70    3.17   0
   0   2  -8  113.61    3.43   0
   1   0  -3    7.66    0.42   0
   0   1 -11   43.56    3.78   0
   0   2  -4  942.49    5.18   0
  -2   4  -4  361.00    3.94   0
  -1   3 -10   17.99    2.95   0
   1   0 -10   15.49    1.98   0
   1   1  -6  382.27    3.98   0
   0   2 -10  126.07    4.95   0
   1   1  -5  917.58    5.11   0
  -3   5  -8   12.63    2.99   0
  -3   5  -7  157.07    4.68   0
  -3   5  -6   98.37    3.25   0
  -1   3  -3  101.51    1.73   0
  -3   5  -5  138.11    3.66   0
   1   0 -11    5.87    2.72   0
   2  -1  -7   23.71    1.12   0
   2  -1  -6  113.68    2.52   0
   0   2  -3  734.91    4.02   0
   1   1 -10   14.60    2.07   0
   2  -1  -8   10.58    1.20   0
  -2   4  -3  522.74    4.30   0
   0   3  -8  450.17    6.78   0
   0   3  -9   94.69    3.96   0
   0   3  -7   11.28    1.26   0
   2  -1  -9   77.09    2.67   0
   2  -1  -5  103.10    1.88   0
  -1   4  -9  112.33    4.20   0
  -1   4  -6   34.77    1.75   0
   0   3  -6  130.34    2.92   0
   1   1 -11   55.58    3.20   0
   0   3 -10   14.07    2.09   0
   1   2  -8   -0.23    1.08   0
   2   0  -8  111.78    2.77   0
   2   0  -7  280.21    4.32   0
  -2   5  -8  146.36    5.10   0
   1   2  -9    2.88    1.46   0
   1   2  -7   14.11    1.29   0
   2   0  -9  302.99    5.21   0
  -2   5  -9   14.59    2.65   0
  -2   5  -7  115.53    3.62   0
  -1   4  -5 1024.76    7.07   0
   0   3 -11    7.81    2.52   0
   0   3  -5   24.73    1.21   0
   1   2 -10  206.95    5.21   0
   1   2  -6  328.06    3.86   0
   2   0  -6  535.62    4.09   0
  -2   5  -6    1.55    1.25   0
  -1   3  -2   67.50    1.25   0
   2   0 -10    6.25    2.08   0
   2  -1  -4  162.70    1.58   0
  -2   4  -2   31.11    0.99   0
  -2   5  -5    0.71    1.32   0
   2   0  -5  380.61    3.00   0
   2   1  -9  197.25    4.50   0
  -1   4  -4  113.75    2.16   0
   0   2  -2  150.66    1.54   0
   0   3  -4  412.27    3.69   0
   0   4  -9    6.55    1.79   0
   0   4  -8   67.14    2.71   0
   2   1 -10   35.43    2.53   0
   0   4 -10   -0.62    2.10   0
   1   3  -9   92.74    3.69   0
  -1   5  -9   65.51    3.42   0
  -1   5  -8   92.43    3.54   0
   1   3 -10   25.13    2.39   0
   1   3  -8  122.32    3.41   0
   2   1 -11    3.37    2.04   0
  -2   5  -4  115.18    2.50   0
  -1   5  -7   20.79    2.15   0
   1   2  -4  180.43    2.29   0
   1   3 -11   -1.31    1.98   0
   1   3  -7   49.37    1.95   0
   2   2  -9   44.92    2.44   0
  -1   4  -3  311.49    3.16   0
  -1   5  -6  246.00    4.14   0
   1   3  -6  594.77    5.78   0
   2   1  -5  217.13    2.66   0
   2   2  -8   26.70    1.72   0
   2   2 -11   11.49    2.30   0
   0   4  -5   11.12    1.09   0
   2   2  -7   40.24    1.77   0
   3   0  -9   19.29    2.04   0
   3   0 -10  193.22    4.05   0
   3   0  -8   57.23    1.93   0
  -1   5  -5  355.92    4.61   0
   1   1  -2   41.56    0.79   0
   1   3  -5  439.81    4.24   0
   1   4 -10    7.61    2.64   0
  -1   3  -1   72.98    1.05   0
   0   5  -9  162.47    4.70   0
   1   2  -3  421.15    3.16   0
   1   4  -9    0.69    1.66   0
   2   2  -6   65.58    2.01   0
   3  -1  -6  303.29    2.88   0
   3   0  -7   14.01    1.02   0
   0   5  -8   66.95    3.40   0
   2   3 -10  168.28    4.62   0
   2   3  -9   34.67    2.40   0
   3   1 -10  220.80    4.38   0
   3   1  -9   42.13    2.05   0
   0   4  -4    0.67    0.74   0
   0   5  -7   39.19    2.30   0
   1   4  -7  213.29    4.38   0
   2   3  -8   47.32    2.24   0
   3   1 -11    1.64    2.07   0
  -1   6  -8    8.98    2.71   0
   2   2  -5    7.79    0.83   0
  -1   5  -4   39.78    1.57   0
   1   3  -4    2.20    0.67   0
   2   3  -7  123.01    3.36   0
   3   1  -7  806.08    6.19   0
  -1   4  -2   12.03    0.79   0
  -1   6  -7  264.92    5.38   0
   0   3  -2  219.65    2.17   0
   0   5  -6    3.80    1.40   0
   1   4  -6  137.04    3.24   0
   3  -1  -5  121.71    1.70   0
   3   2 -10    0.62    1.83   0
   3   0  -5   65.78    1.54   0
   3   2  -8  613.02    6.38   0
   0   4  -3  423.32    3.99   0
   2   1  -3  150.67    1.84   0
   2   2  -4  379.69    3.59   0
   0   5  -5  281.89    4.71   0
   1   2  -2  985.46    4.39   0
   3   2  -7  115.40    3.01   0
   1   3  -3   65.14    1.51   0
   2   4  -8   24.18    2.32   0
  -1   5  -3   50.09    1.65   0
   2   3  -5  570.11    5.68   0
   3   1  -5   37.98    1.36   0
   4   0  -9   52.52    2.29   0
   4   0  -8    0.43    1.51   0
   2   4  -7  115.10    3.41   0
   3  -1  -4   75.70    1.26   0
   3   2  -6  148.44    2.88   0
   4   1 -10   72.15    2.94   0
   0   6  -7  326.61    5.96   0
   1   4  -4   89.07    2.25   0
   3   0  -4 1266.64    5.59   0
   3   3  -8   63.56    2.87   0
   4   1  -9  147.18    3.53   0
   0   5  -4  158.72    3.23   0
   1   1  -1  383.84    2.11   0
   2   0  -2   77.97    1.08   0
   4   0  -7   18.96    1.43   0
   4   1  -8   -1.40    1.83   0
   2   2  -3  665.62    4.47   0
   2   4  -6    0.17    1.30   0
   3   3  -7   -0.32    1.63   0
   2   3  -4   34.96    1.50   0
   3   2  -5  693.19    5.74   0
   0   3  -1   64.07    1.18   0
   0   6  -6   -0.23    1.99   0
   4   1  -7   10.27    1.47   0
  -1   4  -1 1199.26    4.84   0
   2   1  -2   39.22    0.95   0
   4  -1  -6  259.39    2.96   0
   4   0  -6  130.27    2.45   0
   1   5  -5   57.58    2.63   0
   3   3  -6    9.31    1.39   0
   1   4  -3   72.26    2.01   0
   2   4  -5  520.27    6.18   0
   1   2  -1  451.15    2.95   0
   3   4  -8   73.92    3.63   0
   0   5  -3  192.55    3.30   0
   0   6  -5  159.89    3.74   0
   2   5  -7    1.03    2.05   0
   3   2  -4   23.02    1.34   0
   4   2  -7    1.33    1.52   0
   2   3  -3  486.84    4.70   0
   3   3  -5    0.49    1.36   0
   4   0  -5  115.42    2.25   0
   2   2  -2   95.75    1.74   0
   3  -1  -3    0.83    0.37   0
   3   1  -3  112.52    2.02   0
   3   4  -7   23.56    2.34   0
   0   2   0    0.19    0.23   0
   1   5  -4    0.34    1.36   0
   2   5  -6  668.32    8.82   0
   4   3  -8   15.39    2.39   0
   1   6  -6  157.19    4.47   0
   3   4  -6 1113.95   11.28   0
   5   1  -9    0.73    2.38   0
   4   3  -7   34.90    2.59   0
   5   1  -8   50.57    3.16   0
   0   4  -1   84.02    1.69   0
   1   4  -2    4.07    0.89   0
   3   2  -3    8.20    1.04   0
   3   3  -4    0.92    1.17   0
   4   0  -4  177.29    2.65   0
   1   3  -1  114.00    1.83   0
   2   5  -5    2.28    2.05   0
  -1   4 -14    0.80    2.76   0
  -3   5 -10   36.17    4.01   0
  -1   5 -14   -1.02    2.49   0
   0   2 -14   46.67    3.92   0
   0   4 -15   45.49    3.20   0
   1   0 -13   10.97    2.97   0
   2   0 -14   10.45    2.94   0
   2   1 -15   64.64    3.64   0
  -2   6 -12   35.64    2.83   0
  -1   1 -11  609.39   12.12   0
   1  -1 -11  511.78    9.89   0
   2   3 -16  188.73    4.19   0
  -3   4  -9    4.78    2.90   0
  -2   2 -10   22.08    3.25   0
   0   0 -11   19.41    3.53   0
   1   1 -14    5.44    2.71   0
  -2   3 -11    9.22    3.05   0
  -2   5 -12   71.10    4.09   0
  -1   2 -12   22.24    3.97   0
  -1   3 -13    1.06    2.64   0
  -3   5  -9    5.53    2.48   0
  -1   6 -13  100.35    3.88   0
   0   6 -14   57.04    3.17   0
   0   3 -14   39.35    3.72   0
   1   3 -15   23.78    3.00   0
  -1   1 -10  148.38    5.50   0
  -1   4 -13   41.36    3.43   0
   1   0 -12    5.97    3.33   0
   3   0 -14   11.43    2.65   0
   3   1 -15   -0.74    2.14   0
  -2   3 -10  139.13    5.34   0
  -2   4 -11   17.71    3.05   0
  -1   5 -13    5.17    2.58   0
   0   2 -13   48.46    3.50   0
   1   4 -15   17.85    2.85   0
  -2   5 -11    6.21    2.60   0
   0   4 -14   49.24    3.43   0
   2   0 -13  125.07    4.93   0
   4   1 -15   19.59    2.80   0
  -1   2 -11   31.47    3.41   0
  -1   3 -12    1.60    2.36   0
   1   1 -13    7.02    2.76   0
   1   2 -14    9.28    2.62   0
   2   1 -14   81.38    4.21   0
  -2   4 -10   66.38    4.01   0
  -2   6 -10   -0.05    2.59   0
  -1   6 -12   -0.63    2.22   0
   2   3 -15  109.84    3.92   0
  -2   5 -10    3.14    2.76   0
  -1   4 -12   62.09    4.08   0
   0   1 -11   62.67    3.85   0
   0   3 -13  265.41    6.79   0
   0   6 -13  116.56    4.23   0
   1   0 -11    7.95    3.16   0
   2   4 -15    8.33    2.76   0
   3   2 -15   75.75    3.57   0
  -1   2 -10   21.20    2.76   0
  -1   5 -12   72.85    4.10   0
   0   2 -12    2.63    2.44   0
   1   3 -14    5.20    2.43   0
  -1   3 -11  150.47    5.75   0
   3   0 -13  200.52    5.91   0
   4   2 -15   77.77    3.41   0
  -2   4  -9   91.43    4.27   0
   0   4 -13    0.49    2.28   0
   1   4 -14  187.70    5.36   0
   1   5 -14   46.36    3.19   0
   2   0 -12   71.36    3.91   0
   3   1 -14   12.43    2.75   0
   3   3 -15    1.09    2.08   0
   3   4 -15   63.76    3.09   0
   1   2 -13   96.60    4.56   0
   2   1 -13  182.51    5.85   0
  -2   5  -9   18.78    2.90   0
  -1   6 -11    2.71    2.48   0
  -1   5 -11    1.33    2.74   0
   0   3 -12   25.71    3.04   0
   1   6 -13    6.38    2.61   0
  -1   3 -10   18.09    2.78   0
   0   2 -11   58.69    3.98   0
   0   6 -12  106.37    4.41   0
   2   3 -14   -0.19    2.49   0
   4   0 -13   32.56    3.37   0
   4   1 -14   15.60    2.64   0
   1   3 -13   67.23    3.69   0
   0   4 -12   79.70    3.91   0
   2   0 -11  271.16    6.68   0
   2   4 -14  273.20    5.88   0
   3   5 -14   77.79    2.99   0
  -1   4 -10  388.52    8.28   0
  -1   6 -10   21.51    2.79   0
   0   5 -12   88.75    4.20   0
   1   2 -12   83.18    4.29   0
   1   5 -13   22.36    2.70   0
   2   6 -13   58.20    2.47   0
   3   0 -12  160.87    5.17   0
   2   1 -12    0.95    2.70   0
   2   2 -13   52.31    3.62   0
   3   1 -13   75.42    3.92   0
  -1   5 -10    1.22    2.23   0
   0   3 -11   12.91    2.43   0
   1   7 -11    3.21    2.38   0
   3   3 -14   40.33    3.21   0
   3   4 -14    1.71    2.19   0
   4   2 -14  117.78    4.02   0
   5   2 -14    2.72    2.62   0
   0   6 -11  101.05    4.36   0
   1   6 -12   36.18    3.30   0
   4   4 -14   17.05    2.25   0
   4   3 -14   15.84    2.57   0
  -1   6  -9    0.14    2.30   0
   0   4 -11   22.26    2.90   0
   1   3 -12    8.73    2.44   0
   2   3 -13    8.29    2.29   0
   2   5 -13    9.61    2.61   0
   4   0 -12   59.83    3.80   0
   4   1 -13   65.26    3.98   0
   0   5 -11    0.72    2.06   0
   1   2 -11  465.54    8.74   0
   2   4 -13  301.97    6.24   0
   6   1 -13   23.31    2.88   0
   1   4 -12   18.70    2.64   0
   2   6 -12    1.55    2.24   0
   3   0 -11  240.83    6.14   0
   4   5 -13  141.55    3.58   0
   5   1 -13  138.66    4.60   0
   0   3 -10   12.79    2.26   0
   2   1 -11    7.83    2.58   0
   2   2 -12   75.31    3.82   0
   3   1 -12    0.01    2.58   0
   3   6 -12   34.20    2.67   0
   0   6 -10    6.80    2.38   0
   3   3 -13   35.53    3.24   0
   6   2 -13    1.77    2.30   0
   1   6 -11    7.88    2.53   0
   3   4 -13    4.21    2.31   0
   4   2 -13  264.28    5.85   0
   5   4 -13   77.09    2.82   0
   0   5 -10    4.95    2.47   0
   1   3 -11   -0.44    1.96   0
   2   7 -10   35.22    2.45   0
   4   4 -13   11.21    2.66   0
   5   2 -13   20.86    2.93   0
   2   3 -12  211.69    6.11   0
   2   5 -12    2.53    2.10   0
   4   3 -13   21.81    2.69   0
   1   4 -11   51.34    3.21   0
   2   4 -12    4.19    2.38   0
   4   0 -11   16.29    2.73   0
   4   1 -12    0.61    2.53   0
   0   6  -9  150.28    5.09   0
   2   6 -11   15.91    2.36   0
   2   2 -11   13.93    2.14   0
   3   5 -12    3.76    2.37   0
   4   5 -12  174.66    3.89   0
   6   1 -12   12.30    2.68   0
   1   6 -10   27.79    2.65   0
   2   7  -9    1.44    2.44   0
   3   1 -11    0.39    1.92   0
   0   5  -9  169.80    4.52   0
   1   3 -10   27.81    2.48   0
   3   3 -12  176.74    4.71   0
   3   4 -12  142.23    4.43   0
   5   0 -11    4.88    2.50   0
   2   3 -11   41.87    3.07   0
   5   4 -12  100.95    3.15   0
   6   2 -12    6.26    2.54   0
   1   5 -10  279.88    5.82   0
   4   4 -12   -1.50    2.09   0
   5   2 -12    8.74    2.72   0
   5   5 -11    3.56    2.02   0
   0   6  -8   81.77    3.53   0
   2   6 -10   12.77    2.26   0
   4   3 -12    7.39    2.52   0
   4   6 -10   15.82    2.55   0
   5   3 -12    1.07    2.18   0
   6   4 -11    2.63    2.22   0
   1   6  -9   25.00    2.82   0
   3   2 -11   69.98    3.17   0
   3   5 -11   47.16    2.99   0
   4   0 -10   80.26    3.78   0
   4   1 -11   53.96    3.00   0
   7   2 -11  201.85    3.95   0
   3   6 -10  317.88    5.25   0
   4   5 -11   62.81    2.92   0
   3   4 -11   64.38    3.46   0
   5   1 -11  154.50    4.36   0
   6   1 -11   11.36    2.37   0
   1   5  -9   84.88    3.40   0
   2   3 -10  180.93    4.40   0
   5   4 -11  217.07    4.50   0
   2   4 -10   17.83    2.23   0
   2   6  -9  125.66    3.84   0
   4   4 -11   39.46    2.92   0
   4   6  -9  108.46    3.17   0
   5   0 -10   62.87    3.00   0
   5   5 -10   39.10    2.46   0
   6   2 -11   76.38    3.41   0
   1   6  -8    6.91    2.22   0
   4   3 -11    3.67    2.32   0
   5   2 -11    4.90    2.37   0
   5   3 -11   16.15    2.80   0
   6   4 -10  134.02    3.60   0
   3   2 -10   -0.80    1.70   0
   3   6  -9  208.22    4.25   0
   4   5 -10    4.91    2.58   0
   8   1  -9   17.63    2.28   0
   7   1 -10   20.89    2.36   0
   7   2 -10  118.51    3.44   0
   1   5  -8   60.12    2.98   0
   2   5  -9    4.53    2.18   0
   2   6  -8   25.33    2.55   0
   3   3 -10  119.06    3.79   0
   4   6  -8   86.66    3.26   0
   1   6  -7   58.01    3.19   0
   4   4 -10   88.34    3.74   0
   5   1 -10  153.06    4.39   0
   5   4 -10  333.98    5.59   0
   5   5  -9    7.09    2.22   0
   6   1 -10  136.22    4.09   0
   6   3 -10    0.84    2.06   0
   2   4  -9  852.98    9.00   0
   3   6  -8   27.67    2.65   0
   6   2 -10  114.31    4.15   0
   4   3 -10   65.38    3.33   0
   4   5  -9   14.38    2.59   0
   5   0  -9  188.96    4.40   0
   5   3 -10   35.41    3.17   0
   6   4  -9   82.97    3.10   0
   4   6  -7   75.76    3.38   0
   7   1  -9   84.41    3.88   0
   7   2  -9   49.20    2.82   0
   8   1  -8    8.12    1.92   0
   2   5  -8  216.21    4.66   0
   2   6  -7   75.96    3.09   0
   3   3  -9  158.70    4.20   0
   3   4  -9  296.55    5.70   0
   5   5  -8   33.81    2.61   0
   3   6  -7    6.60    2.54   0
   5   4  -9  143.81    4.54   0
   2   4  -8   26.61    2.35   0
   4   4  -9  106.14    3.86   0
   5   1  -9    2.04    2.32   0
   6   1  -9   44.02    3.19   0
   6   3  -9   31.61    2.70   0
   6   4  -8   46.20    3.22   0
   6   5  -6    0.75    1.86   0
   8   2  -7   -0.59    1.78   0
   4   3  -9   39.27    3.16   0
   4   5  -8   34.46    2.84   0
   4   6  -6   -0.20    2.19   0
   5   3  -9   22.96    2.62   0
   7   0  -8   50.08    3.17   0
   2   6  -6   75.19    3.30   0
   5   5  -7  135.61    3.75   0
   7   2  -8    5.45    2.62   0
   8   1  -7   -0.17    2.21   0
   2   5  -7    0.97    1.98   0
   3   4  -8   75.57    3.30   0
   3   6  -6   -0.44    2.30   0
   6   0  -8   35.29    2.95   0
   7   1  -8  111.56    4.07   0
   4   6  -5   23.30    2.74   0
   5   4  -8   -0.87    2.28   0
   7   3  -7   71.84    2.93   0
   8   2  -6    4.45    2.22   0
   3   5  -7  132.78    4.11   0
   4   4  -8    3.86    2.08   0
   6   3  -8   60.31    3.26   0
   2   6  -5   55.94    2.93   0
   3   6  -5   62.74    3.16   0
   4   2  -8  127.19    3.59   0
   4   3  -8   17.74    2.31   0
   5   1  -8   51.95    3.08   0
   5   3  -8   90.02    3.65   0
   6   1  -8   33.25    2.94   0
   2   5  -6  620.20    7.57   0
   8   1  -6   87.28    3.41   0
   5   4  -7    2.22    2.28   0
   6   4  -6   15.82    2.98   0
   7   0  -7  213.32    4.79   0
   7   3  -6  206.71    4.15   0
   8   0  -6   14.40    2.62   0
   8   2  -5   43.84    2.35   0
   3   4  -7   24.82    2.35   0
   4   6  -3   56.31    2.85   0
   6   3  -7    5.38    2.65   0
   7   1  -7    0.70    2.05   0
   2   6  -4    6.85    2.37   0
   3   5  -6  197.82    4.22   0
   3   6  -4    2.74    2.63   0
   4   4  -7  169.50    4.16   0
   6   0  -7   39.03    3.19   0
   4   6  -2  101.18    3.18   0
   5   3  -7   32.23    2.71   0
   2   5  -5    3.29    2.05   0
   4   3  -7   29.26    2.51   0
   5   4  -6    1.96    2.26   0
   6   1  -7   59.44    3.06   0
   8   1  -5   44.60    2.65   0
   3   6  -3  128.43    3.86   0
   5   2  -7  181.14    4.52   0
   8   0  -5    3.75    2.44   0
   3   5  -5   59.61    2.89   0
   4   4  -6   28.19    2.71   0
   6   3  -6   65.26    3.33   0
   7   0  -6  137.66    4.26   0
   7   1  -6   11.83    2.83   0
   5   5  -3    3.54    2.64   0
   7   3  -4    0.68    2.04   0
   3   6  -2  100.64    3.34   0
   8   1  -4   14.13    2.69   0
   8   2  -2    0.33    2.24   0
   5   3  -6   25.69    2.69   0
   5   4  -5   21.02    2.72   0
   6   0  -6  266.40    5.54   0
   6   2  -6   32.12    2.79   0
   4   3  -6  375.89    6.05   0
   5   5  -2    8.02    2.24   0
   6   3  -5   58.50    3.53   0
   6   4  -3   70.41    3.41   0
   7   3  -3   10.48    2.15   0
   3   5  -4  144.16    3.96   0
   6   1  -6  203.21    4.91   0
   8   0  -4    4.87    2.18   0
  -9   5   9   61.77    1.74   0
  -8   5  10   53.48    1.94   0
  -5   6   9  150.23    2.70   0
  -4   2  10   47.62    1.88   0
  -4   3  10   15.72    1.26   0
  -4   5   9    5.25    1.19   0
  -6   5  10    0.87    1.33   0
  -3   3   9   -0.08    1.08   0
  -7   3  10   56.53    2.35   0
  -7   5  10   29.74    1.68   0
  -6   1   9  130.32    2.96   0
  -6   7   8    5.25    1.46   0
  -5   2  10   10.17    1.39   0
  -5   4  10   12.70    1.40   0
  -9   4   8   33.04    1.86   0
  -8   3   9   34.97    1.88   0
  -8   6   9    1.33    1.39   0
  -7   4  10   12.31    1.80   0
  -6   6   9    3.76    1.46   0
  -7   2   9  240.26    4.46   0
  -6   3  10   80.91    2.38   0
  -6   4  10  147.59    2.87   0
  -5   1   9  104.21    3.03   0
  -9   6   8    6.17    1.21   0
  -8   7   8    8.36    1.20   0
  -7   6   9   32.81    1.59   0
  -7   7   8    1.23    1.43   0
  -5   5   9   28.03    1.73   0
  -4   4   9   38.77    1.69   0
  -3   4   8   63.34    1.99   0
  -9   5   8   46.39    1.95   0
  -8   4   9    0.43    1.68   0
  -8   5   9    8.46    1.66   0
  -9   7   7   17.66    1.25   0
  -5   6   8   90.21    2.24   0
  -4   3   9   88.57    2.25   0
  -4   5   8   23.31    1.84   0
  -4   6   7  126.27    2.91   0
  -6   1   8    1.44    1.55   0
  -6   2   9    6.93    1.52   0
  -9   4   7   21.24    1.79   0
  -8   3   8   72.79    2.52   0
  -7   3   9  314.25    4.29   0
  -6   5   9   38.71    1.83   0
  -5   2   9   19.98    1.55   0
  -8   6   8  142.24    2.74   0
  -8   8   6    6.07    1.14   0
  -7   2   8    1.70    1.64   0
  -7   4   9    2.93    1.32   0
  -7   8   6    0.32    1.16   0
  -6   7   7  176.40    2.94   0
  -5   3   9   24.02    1.58   0
  -9   6   7    0.97    1.38   0
  -6   3   9  347.95    4.38   0
  -6   4   9   -0.14    1.43   0
  -6   6   8   -0.02    1.28   0
  -9   5   7   50.03    2.08   0
  -8   4   8    0.15    1.66   0
  -7   6   8   23.39    1.51   0
  -4   4   8   84.14    2.20   0
  -8   5   8   42.64    1.96   0
  -5   7   6   21.35    1.64   0
  -9   7   6   16.64    1.34   0
  -8   3   7   12.44    2.03   0
  -6   2   8   70.38    2.35   0
  -5   6   7   -0.66    1.53   0
  -7   3   8    4.36    1.57   0
  -4   5   7   68.81    2.05   0
  -4   6   6   17.14    1.78   0
  -7   2   7  122.83    3.08   0
  -6   5   8    7.83    1.53   0
  -5   4   8  129.16    2.66   0
  -9   6   6    0.28    1.60   0
  -8   6   7   23.65    1.57   0
  -7   4   8   25.15    1.84   0
  -7   8   5   14.23    1.60   0
  -6   3   8  138.09    2.90   0
  -5   3   8  139.77    2.84   0
  -9   5   6   20.54    1.66   0
  -9   8   4   12.79    1.46   0
  -8   4   7   15.91    2.02   0
  -8   7   6   37.23    2.02   0
  -6   4   8   85.79    2.47   0
  -6   7   6  157.58    2.84   0
  -9   4   5    0.83    1.57   0
  -9   7   5    4.82    1.48   0
  -8   5   7   55.62    2.09   0
  -7   6   7   56.48    2.17   0
  -6   2   7   14.99    1.91   0
  -5   7   5    4.06    1.70   0
  -7   3   7  117.20    2.96   0
  -6   8   4    6.17    1.59   0
  -7   5   7   18.77    1.65   0
  -6   5   7   17.58    1.85   0
  -5   6   6    1.26    1.47   0
  -9   4   4    3.66    1.69   0
  -9   5   5    1.43    1.55   0
  -9   8   3   11.07    1.47   0
  -8   6   6  101.37    2.64   0
  -7   4   7   62.03    2.34   0
  -7   9   2    2.47    1.45   0
  -5   4   7    6.43    1.40   0
  -4   5   6  345.57    4.06   0
  -4   6   5   15.02    1.87   0
  -8   4   6  101.80    2.94   0
  -7   8   4    1.98    1.35   0
  -6   4   7   35.06    2.19   0
  -9   7   4    1.43    1.29   0
  -8   5   6   33.21    2.05   0
  -8   7   5   20.79    1.70   0
  -7   6   6    5.35    1.74   0
  -6   7   5    2.70    1.41   0
  -9   5   4    0.38    1.73   0
  -7   3   6  382.69    4.90   0
  -9   8   2    3.00    1.31   0
  -8   9   1    2.22    1.17   0
  -7   5   6   16.33    1.92   0
  -5   7   4    1.50    1.70   0
  -9   7   3    0.16    1.65   0
  -8   4   5    6.99    2.00   0
  -8   6   5   25.03    1.82   0
  -8   8   3  215.82    3.10   0
  -7   9   1   21.62    1.71   0
  -6   5   6   63.63    2.15   0
  -6   8   3   11.00    1.55   0
  -5   6   5   -0.59    1.48   0
  -8   7   4    1.85    1.32   0
  -7   8   3   32.83    2.17   0
  -6   4   6  297.74    4.20   0
  -4   6   4  118.99    2.88   0
  -9   5   3    3.49    1.69   0
  -9   8   1   15.17    1.39   0
  -8   9   0   17.11    1.61   0
  -7   6   5   39.72    2.01   0
  -7   7   4  142.34    3.67   0
  -6   7   4   68.05    2.35   0
  -7   3   5   56.76    2.28   0
  -9   7   2    1.40    1.32   0
  -8   4   4   79.81    3.13   0
  -8   6   4   15.91    1.69   0
  -8   8   2  353.59    3.94   0
  -7   5   5   37.51    2.16   0
  -9   5   2   50.30    2.31   0
  -9   8   0   -0.64    1.29   0
  -8   7   3    7.38    1.99   0
  -7   9   0   10.67    1.40   0
  -6   8   2   16.59    1.92   0
  -5   7   3   12.57    1.84   0
  -9   6   2    1.50    1.45   0
  -8   9  -1   66.97    1.80   0
  -7   8   2   36.32    1.84   0
  -6   5   5   28.10    1.78   0
  -9   7   1   12.98    1.83   0
  -5   6   4   62.80    2.16   0
  -9   5   1    4.38    1.91   0
  -9   8  -1    1.39    1.21   0
  -8   8   1  160.57    3.50   0
  -7   3   4    3.52    1.76   0
  -7   6   4    6.07    1.60   0
  -7   7   3   13.52    1.73   0
  -6   4   5   91.17    2.52   0
  -6   6   4   63.63    2.54   0
  -6   7   3   21.81    2.03   0
  -9   6   1   19.53    2.09   0
  -8   4   3   10.21    1.69   0
  -8   6   3   62.80    2.41   0
  -7   9  -1    8.84    1.64   0
  -9   7   0    1.21    1.74   0
  -8   7   2   23.82    1.95   0
  -7   5   4   22.82    2.00   0
  -9   5   0   46.43    2.07   0
  -7   4   4   94.10    2.77   0
  -7   8   1   12.52    1.96   0
  -6   8   1    4.90    1.72   0
  -9   5  -1  139.90    3.08   0
  -9   6   0   25.81    2.08   0
  -8   8   0   19.20    2.04   0
  -9   7  -1   -0.96    1.36   0
  -8   4   2   85.64    2.91   0
  -7   6   3   35.63    2.06   0
  -7   9  -2    6.07    1.42   0
  -6   9  -2   34.22    2.08   0
  -5   7   2   35.57    1.87   0
  -9   6  -1  121.28    2.79   0
  -8   6   2    5.94    1.72   0
  -7   3   3  109.10    2.96   0
  -5   6   3   11.54    1.39   0
  -8   5   2  150.26    3.38   0
  -8   7   1   18.95    1.87   0
  -6   6   3  231.41    3.81   0
  -6   7   2   17.12    1.77   0
  -9   6  -3   31.52    1.88   0
  -9   6  -2    7.72    1.51   0
  -8   8  -1    5.49    1.53   0
  -7   4   3  180.14    4.24   0
  -7   5   3    5.93    1.43   0
  -7   9  -3   42.20    1.84   0
  -8   4   1    9.73    2.25   0
  -6   8   0   20.79    1.83   0
  -6   9  -3    0.86    1.70   0
  -8   6   1   10.31    1.81   0
  -4   1 -11    6.93    2.93   0
  -3  -1  -8  248.12    6.97   0
  -7   4  -3    5.96    2.82   0
  -7   5  -8    2.96    2.16   0
  -7   6  -8   -0.95    2.37   0
  -6   2  -7    2.19    2.66   0
  -7   4  -6   23.09    3.06   0
  -7   4  -5   34.73    3.65   0
  -7   4  -4    5.62    2.42   0
  -6   3  -9   28.35    3.84   0
  -5   1  -8  141.96    5.59   0
  -4   0  -8    1.23    3.29   0
  -7   5  -7   12.18    3.08   0
  -6   2  -6    2.02    2.65   0
  -6   2  -3  195.71    5.97   0
  -5   2 -10    4.78    2.92   0
  -4   2 -12   12.05    2.90   0
  -3  -1  -7  500.50    8.99   0
  -7   6  -7   81.74    3.36   0
  -6   2  -5  166.96    6.61   0
  -6   4 -10    1.95    2.25   0
  -5   1  -7  314.88    8.47   0
  -4   3 -13  133.06    3.70   0
  -7   5  -6   23.48    2.97   0
  -7   5  -5   -0.37    2.40   0
  -4   0  -7    3.64    2.45   0
  -3   0 -10   13.31    2.92   0
  -6   3  -8   34.70    3.45   0
  -5   1  -6   76.13    4.66   0
  -5   3 -11   45.90    3.25   0
  -5   4 -12   13.71    2.36   0
  -4   1 -10   46.16    3.75   0
  -5   1  -5   40.65    3.53   0
  -5   2  -9    6.75    3.32   0
  -6   3  -7   31.43    3.23   0
  -6   4  -9    1.02    2.40   0
  -6   5 -10    2.97    2.13   0
  -3   2 -13    0.68    2.43   0
  -6   3  -3   20.20    2.88   0
  -6   6 -10   65.14    3.17   0
  -3   0  -9    1.64    3.18   0
  -6   3  -6    7.54    2.67   0
  -6   3  -4   90.27    4.24   0
  -5   5 -12   23.34    2.25   0
  -4   1  -9   74.74    4.66   0
  -4   2 -11    9.48    3.00   0
  -6   4  -8    5.32    3.04   0
  -6   7  -9   51.85    2.94   0
  -5   2  -8    7.29    2.80   0
  -5   3 -10   94.54    4.29   0
  -3   1 -11   81.91    4.96   0
  -5   4 -11   44.48    3.20   0
  -5   2  -7  146.21    5.90   0
  -3   0  -8   20.91    2.93   0
  -6   4  -3    4.02    2.22   0
  -6   6  -9   13.91    2.42   0
  -6   4  -6   10.24    2.78   0
  -6   4  -4   32.85    2.93   0
  -6   5  -8   17.71    2.83   0
  -6   7  -8   30.72    3.07   0
  -5   2  -6   67.30    4.21   0
  -5   3  -9   48.64    3.60   0
  -3   4 -14    5.78    2.07   0
  -2   0 -10    1.49    3.06   0
  -6   4  -5   23.73    3.02   0
  -5   2  -5    1.31    2.13   0
  -5   5 -11   63.58    3.81   0
  -4   1  -7   76.47    4.14   0
  -4   5 -13   25.54    2.35   0
  -3   2 -12    5.08    2.67   0
  -2   1 -12   17.10    2.79   0
  -6   6  -8    4.94    2.56   0
  -5   4 -10   83.25    4.09   0
  -3   1 -10  201.87    5.93   0
  -3   3 -13   16.81    2.56   0
  -6   5  -6   13.90    3.14   0
  -5   3  -8   26.69    3.41   0
  -4   3 -11    6.07    3.08   0
  -6   5  -5   39.40    3.29   0
  -4   2  -9   12.94    2.87   0
  -4   4 -12   17.45    2.47   0
  -3   5 -14   84.79    2.88   0
  -2   2 -13   42.41    3.58   0
  -2   3 -14   64.17    3.40   0
  -6   6  -6    6.84    2.54   0
  -5   3  -7   -0.29    2.25   0
  -5   4  -9   -1.45    2.53   0
  -5   5 -10  606.78    8.73   0
  -3   1  -9    0.49    2.26   0
  -5   3  -6   12.47    2.50   0
  -5   7 -10   12.58    2.55   0
  -3   2 -11   76.18    4.16   0
  -2   1 -11   20.51    3.39   0
  -4   2  -8    5.34    2.47   0
  -4   3 -10    3.16    2.39   0
  -4   5 -12   -0.17    2.12   0
  -5   4  -8    6.13    2.61   0
  -4   4 -11   14.45    3.08   0
  -3   1  -8   51.41    3.97   0
  -3   4 -13   26.84    2.70   0
  -5   5  -9   87.20    4.58   0
  -4   2  -7   75.19    4.37   0
  -4   6 -12  102.26    3.66   0
  -1   4 -15    8.87    2.23   0
  -5   7  -9  108.14    3.88   0
  -2   2 -12    8.98    3.04   0
  -2   4 -14    3.70    2.00   0
  -5   6  -9   71.92    4.01   0
  -4   3  -9   30.22    3.20   0
  -5   4  -6  226.82    6.08   0
  -3   5 -13    3.99    2.06   0
  -2   1 -10   57.70    3.94   0
  -2   3 -13    6.83    2.60   0
  -5   7  -8    7.13    2.38   0
  -4   4 -10   16.38    3.02   0
  -4   5 -11   19.40    2.66   0
  -4   8 -10    4.48    2.35   0
  -3   6 -13    5.61    1.92   0
  -1   2 -13   42.15    3.82   0
  -1   3 -14   14.19    3.01   0
  -5   5  -7   10.88    2.63   0
  -5   6  -8   43.18    3.28   0
  -4   3  -8   89.83    4.49   0
  -4   6 -11    9.70    2.94   0
  -3   3 -11  372.60    8.41   0
  -3   4 -12   28.80    3.16   0
  -2   5 -14   31.58    2.55   0
  -3   2  -9   62.73    3.58   0
  -2   6 -14   80.98    2.92   0
  -5   5  -6    6.98    2.39   0
  -5   5  -5   53.63    3.57   0
  -5   6  -7  252.51    5.61   0
  -2   1  -9   23.99    3.02   0
  -4   3  -7   14.45    2.45   0
  -4   4  -9    0.51    2.26   0
  -4   5 -10    3.33    2.47   0
  -4   8  -9    0.55    2.35   0
  -2   2 -11    5.80    2.45   0
  -1   1 -11  624.15    9.99   0
   0   4 -15   41.30    2.61   0
  -4   7 -10   11.19    2.65   0
  -3   5 -12    0.39    2.14   0
  -3   3 -10  342.27    8.07   0
  -3   8 -11   14.24    2.44   0
  -2   3 -12    3.96    2.52   0
  -4   4  -8   93.26    4.36   0
  -3   4 -11   11.48    2.73   0
  -3   6 -12   12.80    2.34   0
  -1   4 -14    0.06    1.97   0
  -4   5  -9  188.61    5.86   0
  -2   7 -13   60.22    2.77   0
  -1   2 -12   24.93    2.93   0
  -4   7  -9   12.43    3.03   0
  -2   2 -10   19.27    2.90   0
  -2   5 -13   82.79    4.10   0
  -1   3 -13    2.63    2.14   0
   0   3 -14   37.61    3.08   0
  -4   6  -9    0.82    2.38   0
  -3   3  -9  135.17    5.46   0
  -2   6 -13    1.36    1.95   0
  -1   1 -10  133.76    4.87   0
  -1   6 -14   87.65    3.16   0
  -3   5 -11   45.81    3.18   0
  -3   8 -10    2.75    2.39   0
   1   4 -15   12.22    2.13   0
  -4   7  -8   16.44    2.69   0
  -3   4 -10   19.32    2.96   0
  -3   6 -11  139.72    5.13   0
  -2   4 -12   71.91    3.83   0
  -4   5  -7    5.49    2.07   0
  -4   7  -7   56.62    3.67   0
  -1   2 -11   35.89    3.05   0
  -3   8  -9    5.36    2.26   0
  -2   5 -12   78.37    3.92   0
  -2   7 -12   49.85    2.94   0
  -2   8 -11   87.57    3.25   0
  -1   7 -13   10.08    2.48   0
   0   4 -14   41.65    2.90   0
  -4   6  -7  317.06    6.47   0
  -3   4  -9    5.99    2.21   0
  -3   7 -10    1.21    2.00   0
  -2   6 -12   23.75    3.03   0
  -1   3 -12    3.34    2.25   0
   1   3 -14    4.79    2.37   0
  -4   6  -6   73.76    4.18   0
  -3   6 -10  220.49    5.78   0
  -2   3 -10  130.49    4.68   0
  -2   4 -11   15.97    3.02   0
   0   2 -12    3.06    2.66   0
   0   6 -14   57.42    2.75   0
  -3   8  -8    1.45    2.35   0
  -1   5 -13    4.63    2.09   0
  -1   6 -13   85.90    3.60   0
  -3   4  -8   31.28    2.93   0
  -3   5  -9    7.33    2.05   0
  -3   7  -9    1.84    2.11   0
  -2   8 -10    8.33    2.37   0
  -2   5 -11    2.51    2.33   0
  -1   4 -12   59.67    3.74   0
   0   7 -13   32.84    2.15   0
   1   4 -14  201.05    5.08   0
   1   6 -14    8.43    2.28   0
  -2   6 -11   82.67    4.06   0
  -1   3 -11  158.43    5.30   0
  -1   7 -12    3.71    2.50   0
  -1   8 -11    0.87    1.69   0
   2   3 -14    0.33    2.19   0
  -3   7  -8   97.55    4.04   0
  -2   4 -10   74.12    3.88   0
   0   4 -13    0.23    2.10   0
   1   5 -14   42.57    2.82   0
  -2   8  -9   43.94    3.26   0
  -1   5 -12   61.81    3.67   0
   0   2 -11   57.29    3.49   0
  -3   6  -8   14.38    2.33   0
  -2   7 -10   21.32    3.03   0
  -1   6 -12    2.04    1.94   0
   0   3 -12   25.07    2.85   0
   0   5 -13   68.27    3.45   0
   0   6 -13  115.00    4.04   0
   1   3 -13   56.30    3.54   0
  -3   7  -7    8.79    2.62   0
  -2   5 -10    1.01    2.23   0
   1   2 -12   94.47    4.29   0
   2   4 -14  264.78    5.28   0
  -2   4  -9   79.47    3.54   0
  -2   6 -10    1.72    2.12   0
  -1   4 -11  247.68    6.21   0
  -1   8 -10   46.37    2.72   0
   0   8 -11    0.23    1.67   0
   2   5 -14   99.29    3.12   0
  -3   6  -7    4.11    2.09   0
  -1   7 -11   10.86    2.73   0
   0   7 -12   41.39    2.98   0
   3   4 -14   -1.06    2.38   0
  -3   6  -6    4.15    2.17   0
  -2   7  -9  106.36    4.50   0
  -1   5 -11    0.31    2.00   0
   1   4 -13   29.11    2.68   0
   1   6 -13    4.45    2.21   0
  -2   5  -9   21.63    2.29   0
  -1   6 -11    1.00    2.02   0
  -1   8  -9   -0.64    1.92   0
   0   3 -11   11.27    2.33   0
   0   5 -12   87.37    3.94   0
   0   6 -12   96.94    3.87   0
   0   8 -10   10.45    2.18   0
   1   7 -12    7.09    2.06   0
   2   3 -13    7.62    2.07   0
  -1   4 -10  378.88    7.74   0
   1   3 -12   10.84    2.65   0
   2   7 -12  229.88    3.58   0
  -2   7  -8  125.34    4.15   0
   0   7 -11    7.02    2.85   0
   1   2 -11  480.53    8.35   0
   1   8 -10  381.71    4.16   0
  -2   5  -8  162.88    4.85   0
   2   4 -13  265.45    6.04   0
  -2   6  -8   46.27    2.85   0
  -1   5 -10    0.02    1.86   0
  -1   6 -10   26.68    2.70   0
  -1   8  -8    1.03    1.84   0
   0   4 -11   23.82    2.94   0
  -2   7  -7    5.44    1.95   0
   1   6 -12   41.35    2.80   0
  -1   7  -9   96.06    3.89   0
   0   3 -10   13.26    2.11   0
   0   5 -11    0.82    1.76   0
   0   6 -11  109.76    3.89   0
   1   5 -12   24.60    2.97   0
   3   5 -13   21.18    2.09   0
  -2   6  -7   44.54    3.22   0
  -1   8  -7   47.50    2.90   0
   1   7 -11    4.79    1.77   0
   3   4 -13    2.90    2.35   0
   4   3 -13   17.26    2.15   0
   4   4 -13   14.63    2.37   0
  -2   7  -6   38.54    2.74   0
   0   7 -10   18.70    2.41   0
   1   8  -9  191.70    3.24   0
   2   3 -12  225.86    5.57   0
   2   6 -12   -0.55    2.21   0
   2   7 -11   62.36    2.71   0
  -1   5  -9   66.38    3.29   0
  -1   6  -9    2.25    1.91   0
   0   8  -8   10.52    2.10   0
   1   3 -11   -1.51    1.92   0
   3   6 -12   36.93    2.26   0
  -1   7  -8   60.47    3.32   0
   0   4 -10   -0.66    1.63   0
   0   6 -10    8.07    2.46   0
   1   6 -11    4.09    2.61   0
   2   2 -11   11.44    2.32   0
   2   4 -12    5.24    2.12   0
   2   5 -12    0.36    1.86   0
   0   5 -10    4.51    1.87   0
   1   7 -10   36.71    2.46   0
   1   8  -8  159.57    3.11   0
   1   5 -11   90.48    3.68   0
   3   3 -12  151.04    4.47   0
   3   7 -10    5.96    2.11   0
  -1   5  -8   66.40    3.29   0
  -1   7  -7  110.82    3.78   0
   2   7 -10   38.07    2.55   0
   4   6 -11    1.91    1.72   0
   1   8  -7   14.62    2.10   0
   2   6 -11   17.79    2.08   0
   3   4 -12  141.91    4.02   0
   1   3 -10   31.40    2.36   0
   2   3 -11   49.85    2.87   0
   4   3 -12    6.85    2.55   0
   4   4 -12    1.42    2.28   0
   5   3 -12    0.74    2.18   0
  -1   7  -6    1.30    2.13   0
   0   6  -9  192.44    4.77   0
   0   7  -8    3.73    2.14   0
   1   6 -10   29.24    2.51   0
   1   8  -6    3.16    2.12   0
  -1   6  -7  242.81    5.25   0
   0   5  -9  152.63    4.42   0
   2   5 -11   20.01    2.56   0
   3   2 -11   61.74    2.73   0
   1   4 -10    7.53    1.79   0
   1   5 -10  263.64    5.73   0
   2   7  -9    3.26    2.11   0
   3   7  -9    1.40    1.74   0
   4   6 -10   20.92    2.26   0
   0   7  -7   57.02    2.75   0
   2   6 -10   11.64    2.10   0
   3   5 -11   46.56    2.60   0
   4   5 -11   69.70    2.72   0
   1   6  -9   25.94    2.83   0
   1   7  -8    1.07    1.80   0
   3   3 -11  130.34    3.97   0
   3   6 -10  339.12    4.99   0
   4   2 -11    1.59    2.10   0
   6   3 -11    0.16    1.99   0
   0   5  -8   68.22    2.90   0
   5   4 -11  212.66    4.10   0
   2   3 -10  181.10    4.22   0
   2   5 -10   14.57    2.07   0
   4   4 -11   44.22    2.94   0
   0   7  -6  125.60    3.37   0
   1   4  -9    1.98    1.35   0
   1   5  -9   85.33    3.27   0
   2   4 -10   18.35    1.96   0
   4   3 -11    5.36    1.97   0
   5   3 -11   21.59    2.64   0
   5   5 -10   42.53    2.39   0
   0   6  -7  318.74    5.40   0
   1   7  -7   80.56    2.96   0
   2   6  -9  138.88    3.57   0
   3   2 -10    0.59    1.86   0
   4   6  -9  113.87    3.35   0
   6   4 -10  132.15    2.85   0
   3   5 -10   32.76    2.38   0
   3   7  -7   67.09    2.40   0
   0   7  -5   78.76    2.89   0
   1   6  -8    4.22    2.01   0
   2   7  -7   85.45    2.84   0
   4   5 -10    2.46    1.91   0
   1   7  -6   45.21    2.66   0
   3   3 -10  121.11    3.52   0
   0   6  -6    0.79    1.85   0
   2   5  -9    2.83    1.78   0
   3   7  -6   43.22    2.34   0
   5   6  -7  296.01    3.39   0
   1   5  -8   63.23    2.67   0
   2   6  -8   25.02    2.38   0
   2   7  -6    3.40    2.10   0
   4   2 -10   84.99    3.11   0
   4   6  -8   78.67    2.60   0
   5   4 -10  337.96    4.95   0
   5   5  -9    6.47    2.02   0
   6   3 -10    0.70    1.96   0
   7   3  -9    3.82    1.88   0
   1   7  -5    1.47    2.08   0
   2   4  -9  851.50    8.40   0
   3   5  -9   14.03    1.92   0
   3   6  -8   33.56    2.31   0
   3   7  -5  214.91    3.29   0
   4   3 -10   71.05    3.02   0
   5   2 -10   45.81    2.83   0
   5   3 -10   36.60    2.68   0
   5   6  -6   50.47    2.19   0
   3   7  -4  185.03    3.18   0
   4   5  -9   14.39    2.14   0
   6   5  -7   85.27    2.19   0
   1   7  -4   77.57    2.67   0
   3   7  -3    2.94    1.80   0
   2   5  -8  189.77    4.47   0
   2   6  -7   72.43    2.80   0
   2   7  -4   59.55    2.63   0
   3   4  -9  290.38    5.04   0
   4   6  -7   88.28    2.67   0
   1   6  -6  153.54    3.46   0
   3   3  -9  159.34    3.72   0
   3   6  -7    4.90    1.90   0
   2   4  -8   27.03    1.79   0
   4   4  -9  106.64    3.32   0
   6   3  -9   24.38    2.36   0
   6   5  -6    0.16    1.42   0
   7   3  -8   92.32    2.68   0
   3   5  -8    7.06    1.70   0
   4   5  -8   36.76    2.29   0
   4   6  -6   -0.74    2.01   0
   6   4  -8   45.74    2.27   0
   4   2  -9  530.21    5.63   0
   4   3  -9   40.80    2.42   0
   6   2  -9   24.12    2.33   0
   1   6  -5  241.58    4.14   0
   2   5  -7    0.48    1.75   0
   5   3  -9   21.59    2.15   0
   5   5  -7  130.11    3.15   0
   6   5  -5    0.10    1.50   0
   5   2  -9   13.72    1.89   0
   5   4  -8    1.44    1.68   0
  -1   0  15    8.78    1.56   0
   0  -1  14    6.62    1.48   0
   1  -2  12   26.41    2.35   0
   2   0  10    2.59    1.63   0
   2   1   9    3.60    1.46   0
  -1   2  14    0.29    1.59   0
  -2   2  15   48.13    1.55   0
  -2   4  13    1.30    1.26   0
   0   4   9    5.80    2.06   0
   1  -1  12  173.80    3.54   0
   1   0  12   27.69    2.09   0
   1   3   8  277.64    4.80   0
   2   1   8   20.06    1.74   0
  -2   5  11   11.96    1.88   0
   0  -2  13   40.94    2.13   0
   2   0   9    8.93    1.61   0
  -2   3  14   46.13    1.79   0
   0   1  13   24.08    1.88   0
   1   1  11  134.83    3.18   0
  -1   4  11   62.37    2.46   0
   0   2  12   36.31    2.08   0
   1  -2  11   33.59    1.97   0
   1   3   7  241.48    4.09   0
  -2   1  15   15.45    1.50   0
  -1   1  14   36.59    2.18   0
   0  -1  13   18.17    1.80   0
   0   0  13   17.22    1.82   0
   0   4   8    9.03    1.90   0
  -3   5  12   60.47    2.11   0
  -1  -1  14    4.89    2.00   0
   1  -1  11  719.20    6.33   0
   1   0  11   52.05    2.18   0
  -2   0  15    0.85    1.20   0
  -1   0  14   35.43    2.13   0
   0   3  10  107.06    2.97   0
   1   1  10  519.51    5.86   0
  -1   2  13    8.99    1.59   0
   0  -2  12    2.33    1.68   0
   0   1  12    0.37    1.82   0
  -3   2  15   34.11    1.46   0
  -2   4  12   20.57    1.79   0
  -2   5  10   29.35    2.26   0
  -1   4  10    5.32    1.81   0
   0   2  11    1.38    1.62   0
   1   2   8  246.29    3.97   0
  -2   2  14   57.16    1.91   0
   1  -1  10  148.76    3.07   0
   1   0  10    0.41    1.29   0
  -2   3  13    2.51    1.48   0
   0  -1  12   18.55    1.71   0
   0   0  12   21.96    1.74   0
   0   3   9    4.16    1.60   0
   1   1   9  124.04    2.99   0
  -3   0  15    4.67    1.53   0
  -3   3  14   44.18    1.67   0
  -1   1  13   77.26    2.35   0
  -2  -1  14   83.54    2.38   0
  -1  -1  13    4.78    1.72   0
   0  -2  11   61.15    2.25   0
  -4   2  15   30.11    1.51   0
  -3   5  11   16.77    1.85   0
  -2   1  14   69.48    2.08   0
  -1   2  12    4.63    1.44   0
  -1   4   9   23.50    2.19   0
   0   1  11   74.54    2.56   0
   0   2  10    7.20    1.61   0
  -4   0  15   38.64    1.72   0
  -2   0  14   12.81    1.53   0
  -2   4  11    7.04    1.83   0
  -2   5   9   15.46    1.77   0
   0   3   8   37.42    2.04   0
  -4   5  12   54.78    2.06   0
   0  -1  11   61.94    2.19   0
   0   0  11   23.75    1.80   0
  -4   1  15   53.51    1.69   0
  -3   2  14   17.05    1.76   0
  -2   2  13    1.81    1.40   0
  -2   3  12   21.17    1.85   0
  -1   1  12  291.91    4.15   0
   0   1  10  189.65    3.46   0
   0   2   9   96.15    2.60   0
  -5   1  15   18.60    1.51   0
  -4   3  14   25.12    1.41   0
  -3   3  13  187.57    3.22   0
  -1  -1  12    3.64    1.77   0
  -1   4   8  118.26    3.03   0
  -1   2  11   89.43    2.60   0
  -3   0  14    9.30    1.60   0
  -2   1  13    0.39    1.32   0
  -2   4  10   13.16    1.71   0
   0   0  10   37.72    1.80   0
  -2   0  13  130.14    2.81   0
  -2   2  12   37.86    2.27   0
  -1   3   9    7.86    1.75   0
  -6   6  11   25.81    1.38   0
  -5   3  14    6.87    1.24   0
  -5   5  12  133.53    2.46   0
  -4   2  14    6.42    1.29   0
  -4   5  11   13.82    1.69   0
  -2   3  11   96.79    2.73   0
  -1   1  11  599.65    5.84   0
  -5   6  10   85.09    2.55   0
  -4   0  14   -0.74    1.70   0
  -3   2  13    1.38    1.41   0
  -3   4  11   25.28    2.17   0
  -1  -1  11   49.49    2.00   0
  -6   3  14  188.46    2.51   0
  -4   1  14  163.39    2.72   0
  -3  -1  13   77.13    2.37   0
  -3   3  12  273.81    4.85   0
  -2   4   9   34.19    2.42   0
  -5   0  14    0.84    1.26   0
  -4   3  13   -0.10    1.20   0
  -3   5   9   36.60    2.14   0
  -2  -1  12    1.54    1.54   0
  -2   1  12    1.62    1.40   0
  -5   2  14   37.93    1.66   0
  -6   1  14   22.46    1.60   0
  -6   4  13   71.79    1.98   0
  -6   5  12   17.25    1.39   0
  -5   1  14   11.56    1.43   0
  -1   1  10   81.93    2.38   0
  -4   5  10   28.50    2.21   0
  -2   2  11   31.21    2.10   0
  -7   4  13  119.58    2.01   0
  -5   5  11   89.78    2.95   0
  -4   2  13    5.90    1.66   0
  -3   4  10  143.93    3.79   0
  -2   4   8    0.10    1.63   0
  -6   6  10   36.21    2.03   0
  -5   3  13    1.22    1.35   0
  -3   2  12    0.18    1.31   0
  -3   5   8   25.78    2.09   0
  -2   1  11   25.56    1.69   0
   3  -4   1    3.44    0.68   0
  -3   2   3   84.84    1.46   0
  -2  -2   2   90.87    1.61   0
  -2   2   2 1531.49    4.20   0
   1   0   0   50.03    0.67   0
   2  -1   0  360.02    2.38   0
  -2   0   1  356.27    2.37   0
   1   2   3  706.42    4.59   0
  -2   1   1 1523.18    4.68   0
   3  -3   1  656.70    4.28   0
   3  -2   1   20.43    0.95   0
   1  -2   0    2.60    0.17   0
  -3   2   2  103.92    1.60   0
  -2   3   3  324.34    1.73   0
   1  -1   0  245.59    1.25   0
  -2  -2   1    3.89    0.62   0
  -1  -3   1  114.62    1.44   0
  -1   0   0   48.12    0.67   0
   0  -2   0    0.19    0.17   0
  -3   3   3  407.82    3.14   0
   2   0   2  270.55    2.81   0
  -3   1   1    3.86    0.57   0
   2  -1   1 1051.33    4.42   0
  -2   2   1 3723.37    6.65   0
  -3   2   1    0.23    0.41   0
  -2  -1   0 2188.19    6.86   0
  -2   1   0  329.98    2.31   0
   0   2   3   43.87    0.94   0
   1   0   1 1763.56    4.57   0
  -3   3   2  278.08    2.52   0
   1   1   3  452.42    3.53   0
   1   1   4  417.76    4.10   0
   0   2   4   99.17    1.70   0
   2  -2   2   45.74    1.12   0
   2  -4   3  520.03    4.34   0
  -2   3   2   47.67    0.65   0
  -3   3   1   23.09    0.89   0
   1   0   2   53.33    0.99   0
   2  -2   3    5.70    0.66   0
   2  -3   3    1.90    0.58   0
   1  -1   1   21.00    0.53   0
  -2   1  -1 1009.64    4.42   0
  -1   0  -1 1764.31    4.46   0
   0   9  -3   32.75    1.90   0
   5   4  -4    8.19    2.30   0
  -1   9  -3   21.90    2.00   0
   0   7  -6  131.47    3.36   0
   0   8  -5   22.26    2.10   0
   2   8  -3   67.45    2.51   0
   3   7  -4  195.49    3.81   0
   3   5  -6  197.58    4.42   0
   5   3  -4    7.22    1.71   0
   0   6  -6    0.67    1.52   0
   0   9  -2   19.15    1.89   0
   2   7  -5   22.73    2.24   0
   3   4  -6 1098.15    9.22   0
   4   6  -3   49.97    2.40   0
   2   8  -2   56.69    2.17   0
   3   6  -5   66.25    2.90   0
   3   7  -3    4.95    1.64   0
   4   4  -5  220.36    4.44   0
  -1   7  -5   57.26    2.46   0
   2   5  -6  639.40    7.31   0
   4   6  -2   95.10    2.65   0
  -1   8  -4  408.86    5.13   0
  -1   9  -2    3.57    1.70   0
   0   8  -4    1.69    2.00   0
   2   8  -1   23.15    1.71   0
   3   7  -2   -1.84    1.96   0
   4   5  -4   59.51    2.95   0
   5   3  -3   11.30    2.07   0
   0   7  -5   78.99    2.84   0
   2   7  -4   62.13    3.27   0
   4   6  -1    1.43    1.55   0
   4   6   0   49.53    2.18   0
   0   9   0   20.51    1.78   0
   1   8  -3   -0.05    1.91   0
   2   6  -5   64.28    3.13   0
   3   5  -5   60.13    2.66   0
   3   6  -4    3.95    1.90   0
   3   7  -1   -0.39    1.46   0
   4   4  -4    0.30    1.44   0
  -1   9  -1    0.86    1.50   0
   0   6  -5  165.03    3.80   0
   4   5  -3  196.20    4.33   0
   0   8  -3   70.94    3.11   0
   1   8  -2  250.68    4.49   0
   2   7  -3  104.40    3.63   0
  -1   7  -4    2.22    1.67   0
  -1   8  -3   22.56    2.07   0
   1   7  -4   99.32    3.42   0
   2   5  -5    3.12    1.45   0
   3   6  -3  142.17    3.88   0
  -1   9   0   16.59    1.65   0
   0   7  -4   36.05    2.29   0
   3   5  -4  140.32    3.74   0
   4   5  -2   36.71    2.54   0
   1   8  -1  132.74    3.28   0
   2   6  -4   10.71    1.98   0
   4   4  -3    3.29    1.64   0
  -1   9   1    7.87    1.59   0
   0   8  -2   42.05    2.77   0
   2   7  -2    1.80    2.00   0
   3   6  -2   98.28    3.72   0
   4   5  -1    0.43    2.09   0
  -2   9   1    1.66    1.69   0
  -1   9   2    9.71    1.48   0
   1   7  -3   44.23    2.81   0
   1   8   0  120.98    3.36   0
  -1   8  -2    2.39    1.64   0
   1   6  -4  399.65    6.01   0
   3   5  -3  198.94    4.64   0
   4   5   0   45.46    2.84   0
   4   5   3    5.62    1.80   0
   1   8   1  139.12    3.05   0
   1   8   2    2.59    1.47   0
   2   5  -4  175.96    4.15   0
   2   6  -3   39.52    2.74   0
   2   7  -1   28.27    2.28   0
   3   6  -1  257.88    4.97   0
   4   4  -2  125.08    3.56   0
  -2   9   2    7.41    1.59   0
  -2   9   3   17.44    1.64   0
  -1   7  -3    0.43    1.46   0
   0   7  -3  256.69    5.09   0
   3   6   4  286.86    3.39   0
   4   5   2   42.69    2.11   0
   1   7  -2   19.46    2.65   0
  -2   8  -1    1.00    1.63   0
   2   7   1  263.40    4.46   0
   2   7   3  162.37    3.29   0
   3   6   3    0.20    1.93   0
   4   4  -1   30.39    2.66   0
   1   6  -3   17.94    2.04   0
   2   6  -2   26.83    2.83   0
   2   7   2   48.18    2.34   0
   3   6   2    1.99    1.74   0
   2   5  -3  712.95    8.62   0
   0   8   1   10.05    2.43   0
   1   7  -1   23.56    2.44   0
   4   4   0    4.75    2.16   0
  -1   7  -2   88.95    3.03   0
  -1   8   0  140.40    4.17   0
  -2   8   0   32.11    2.46   0
   0   8   2    5.99    1.83   0
   0   8   4    3.18    1.61   0
   2   6  -1   32.83    2.72   0
   4   4   1    0.49    2.29   0
   1   6  -2   -0.60    1.99   0
   3   5   6   -0.65    1.74   0
  -1   8   1   84.04    3.81   0
   2   5  -2    0.36    1.63   0
   3   5   0  314.08    5.44   0
   4   4   3   -0.66    2.28   0
   2   6   0   50.34    3.10   0
   4   3   0    4.78    1.84   0
  -8   4  -3  182.61    6.36   0
  -8   4  -2   74.55    3.99   0
  -6   1  -4   26.70    3.96   0
  -6   1  -1   -0.58    2.25   0
  -5   0  -4   -0.36    2.23   0
  -5   0  -3   -0.47    2.15   0
  -5   1  -8  116.91    5.26   0
  -5   2 -10    2.91    2.56   0
  -6   1  -3    6.96    2.89   0
  -6   1  -2   26.30    2.95   0
  -7   3   0   99.77    5.09   0
  -5   3 -11   47.87    3.16   0
  -4   0  -7    2.05    2.45   0
  -8   5  -5    9.23    2.83   0
  -8   5  -2    8.45    2.94   0
  -7   3  -6  107.72    4.99   0
  -7   4  -8   -0.49    2.27   0
  -6   2  -7    3.20    3.18   0
  -8   5  -3    0.83    2.94   0
  -8   6  -6   41.92    2.60   0
  -5   1  -7  318.45    8.06   0
  -4   2 -11    5.47    2.80   0
  -7   3  -1  207.09    5.84   0
  -4   0  -6   90.87    4.52   0
  -8   6  -5    0.18    2.42   0
  -8   7  -5    0.77    2.20   0
  -7   3  -4   17.01    3.02   0
  -7   3  -2   13.03    2.76   0
  -6   2  -6   -0.19    3.11   0
  -5   2  -9    6.02    3.18   0
  -4   1  -9   80.79    4.34   0
  -8   6  -4   12.23    2.51   0
  -7   4  -7   25.05    3.06   0
  -7   6  -9   40.20    2.76   0
  -6   2  -5  170.74    7.00   0
  -6   3  -8   38.49    3.64   0
  -7   5  -8    1.26    2.26   0
  -5   1  -5   49.36    4.00   0
  -7   4  -6   27.60    3.26   0
  -6   2  -4  306.33    8.08   0
  -6   2  -3  152.13    5.87   0
  -5   3 -10   88.97    4.83   0
  -7   4  -1  170.79    5.45   0
  -6   4  -9   -0.10    2.91   0
  -5   2  -8    9.58    2.63   0
  -4   1  -8    2.31    2.68   0
  -7   4  -5   36.68    3.53   0
  -7   4  -2  131.19    5.66   0
  -7   5  -7   10.00    3.04   0
  -6   3  -7   32.70    3.34   0
  -6   5 -10    0.91    2.05   0
  -4   2 -10    4.95    2.50   0
  -7   4  -3    9.79    2.73   0
  -7   5  -6   27.17    2.93   0
  -6   3  -6    9.37    2.78   0
  -4   3 -11    9.80    2.99   0
  -7   6  -7   72.17    3.80   0
  -6   4  -8    5.63    2.68   0
  -6   6 -10   56.72    3.13   0
  -4   4 -12   13.63    2.46   0
  -3   1  -9    0.51    2.39   0
  -7   5  -2    4.25    2.70   0
  -7   7  -7    0.25    2.42   0
  -6   3  -5    7.09    2.64   0
  -6   7 -10    4.73    2.16   0
  -4   2  -9   12.98    3.44   0
  -7   5  -4   24.18    3.05   0
  -7   5  -3  133.61    4.92   0
  -7   8  -6   -1.51    2.28   0
  -6   3  -4   88.88    4.55   0
  -6   5  -9   17.21    2.95   0
  -5   2  -6   56.72    4.23   0
  -7   7  -6    0.46    2.12   0
  -6   4  -7    8.71    2.84   0
  -5   2  -5    3.09    2.08   0
  -5   3  -8   35.53    3.91   0
  -7   6  -3    2.25    2.39   0
  -7   7  -5    5.72    2.71   0
  -3   1  -8   57.61    3.68   0
  -6   4  -6   10.39    2.98   0
  -6   5  -8   22.34    3.12   0
  -6   6  -9   16.24    2.62   0
  -5   6 -11   -0.55    2.30   0
  -4   2  -8    7.49    2.32   0
  -4   3 -10    1.69    2.60   0
  -4   5 -12    1.21    2.39   0
  -6   4  -5   19.41    2.93   0
  -5   3  -7    3.84    2.26   0
  -5   4  -9    0.03    2.45   0
  -5   7 -11    0.23    1.82   0
  -4   4 -11   10.00    2.85   0
  -3   5 -13    3.44    2.29   0
  -6   5  -7   57.82    3.75   0
  -5   5 -10  628.21    9.49   0
  -6   4  -3    3.54    2.12   0
  -6   6  -8    5.16    2.49   0
  -4   2  -7   99.27    4.61   0
  -5   3  -6    7.33    2.64   0
  -4   3  -9   26.65    3.78   0
  -4   6 -12  108.14    3.56   0
  -3   4 -12   22.91    3.33   0
  -6   7  -8   33.51    2.95   0
  -5   4  -8    6.39    2.67   0
  -3   2  -9   46.82    3.80   0
  -3   6 -13    5.76    2.16   0
  -6   6  -7  165.20    5.72   0
  -5   3  -5   91.68    4.90   0
  -5   6 -10  101.09    4.28   0
  -5   8 -10   73.07    2.83   0
  -6   8  -7   67.98    3.13   0
  -5   5  -9   99.32    4.38   0
  -5   7 -10   15.50    2.66   0
  -4   4 -10   19.51    3.01   0
  -4   5 -11   15.70    2.85   0
  -6   5  -4   77.86    3.98   0
  -6   5  -3  274.17    6.07   0
  -6   8  -6    5.93    2.58   0
  -6   6  -5    3.15    2.77   0
  -6   7  -6   16.59    2.96   0
  -6   8  -5    0.32    2.35   0
  -5   9  -8   12.67    2.20   0
  -3   5 -12   -1.50    2.58   0
  -6   6  -4    4.67    2.86   0
  -5   4  -6  210.33    6.87   0
  -5   5  -8    4.17    2.81   0
  -5   6  -9   69.91    4.11   0
  -5   8  -9  139.22    4.49   0
  -4   6 -11    7.39    2.49   0
  -4   8 -11   30.25    2.34   0
  -2   5 -13   84.09    3.66   0
  -6   7  -5    0.09    2.16   0
  -6   7  -4   32.41    3.37   0
  -5   7  -9  108.53    4.58   0
  -4   7 -11   31.03    2.98   0
  -3   4 -11   14.22    2.61   0
  -4   5 -10    0.82    2.48   0
  -5   4  -5   47.64    3.55   0
  -5   5  -7   15.32    3.07   0
  -5   9  -7   21.49    2.19   0
  -3   6 -12    9.16    2.60   0
  -2   3 -11   10.42    2.68   0
  -2   4 -12   54.03    4.16   0
  -5   6  -8   44.42    3.60   0
  -2   6 -13    1.17    1.93   0
  -5   9  -6    6.06    2.12   0
  -3   3  -9  148.20    5.47   0
  -5   5  -6    3.71    2.28   0
  -5   7  -8    9.89    2.54   0
  -4   4  -8   92.19    4.52   0
  -4   6 -10   99.86    4.45   0
  -4   8 -10    6.57    2.06   0
  -5   6  -7  262.91    6.79   0
  -4   5  -9  188.67    6.21   0
  -4   7 -10   10.12    2.61   0
  -3   4 -10   24.09    3.01   0
  -3   5 -11   47.63    3.42   0
  -5   8  -7    7.32    2.39   0
  -3   8 -11   16.28    2.42   0
  -2   5 -12   70.46    4.14   0
  -1   5 -13    4.17    2.20   0
  -5   8  -6    1.92    2.69   0
  -4   4  -7  158.00    5.73   0
  -4   9  -8   44.96    3.00   0
  -2   3 -10  126.01    4.86   0
  -1   7 -13   13.55    2.37   0
  -5   7  -6    3.28    2.62   0
  -4   6  -9    1.11    2.37   0
  -4   8  -9   -0.85    2.03   0
  -3   7 -11   17.32    2.71   0
  -2   4 -11   17.73    3.10   0
  -5   6  -5   82.00    3.67   0
  -5   8  -5   17.05    2.58   0
  -4   5  -8   37.29    3.47   0
  -4   7  -9   14.34    2.92   0
  -2   6 -12   26.97    3.18   0
  -1   6 -13   92.71    3.18   0
  -5   6  -4  107.76    4.46   0
  -5   7  -5  113.56    4.84   0
  -4   9  -7   27.86    2.54   0
  -5   6  -3   31.59    2.79   0
  -4   5  -7    5.55    2.32   0
  -4   6  -8   80.16    4.75   0
  -4   9  -6   64.40    3.21   0
  -3   8 -10    1.83    2.40   0
  -4   7  -8    9.59    2.97   0
  -3   6 -10  215.66    6.16   0
  -4   9  -5    1.11    1.83   0
  -3   7 -10    0.92    2.13   0
  -2   5 -11    5.10    2.31   0
  -2   8 -11   84.70    3.28   0
  -3   4  -8   32.18    3.02   0
  -3   5  -9    7.69    2.27   0
  -2   4 -10   86.07    4.08   0
  -1   5 -12   60.91    3.65   0
  -4   5  -6   46.26    3.14   0
  -4   6  -7  280.19    6.61   0
  -3   9  -8  206.15    4.22   0
  -4   7  -7   69.51    3.68   0
  -3   8  -9    1.94    2.42   0
  -2   7 -11    8.06    2.35   0
  -4   8  -6    0.57    1.85   0
  -1   3 -10   19.53    2.42   0
  -1   6 -12    0.75    2.13   0
  -4   6  -6   85.32    3.80   0
  -3   7  -9    2.74    2.04   0
  -2   9  -9   11.93    1.84   0
   1   6 -13    5.25    2.26   0
  -4   7  -6  172.01    5.08   0
  -3   5  -8   12.03    2.34   0
  -2   8 -10    6.16    2.15   0
  -1   8 -11    0.67    1.72   0
  -4   6  -5   37.66    3.15   0
  -4   8  -4   -0.70    2.08   0
  -3   8  -8    1.57    2.13   0
  -3   9  -6   16.30    2.55   0
  -2   4  -9   79.26    3.81   0
  -4   7  -5   14.56    2.38   0
   0   7 -12   37.57    2.90   0
  -3   6  -8   14.91    2.43   0
  -3   9  -5    0.01    1.81   0
  -2   6 -10    1.04    2.01   0
  -2   7 -10   25.16    2.48   0
  -1   5 -11   -0.16    2.08   0
  -1   9  -9   56.87    2.46   0
   0   5 -12   86.47    3.46   0
  -4   7  -4   63.38    3.32   0
  -4   7  -3   37.30    3.03   0
  -3   7  -8  101.36    4.33   0
  -1   7 -11   13.11    2.21   0
   0   8 -11    0.69    1.50   0
  -1   4 -10  418.56    7.50   0
   1   7 -12   10.60    1.98   0
  -2   5  -9   19.53    2.39   0
  -1   8 -10   43.27    2.98   0
  -3   6  -7    4.08    1.92   0
  -3   7  -7    9.36    2.50   0
   0   4 -11   17.27    2.70   0
  -3   8  -6  101.09    4.21   0
  -2   6  -9    0.96    1.81   0
  -2   7  -9  107.51    4.18   0
  -2   8  -8   63.20    3.46   0
  -2   9  -6    9.42    1.97   0
   1   5 -12   22.97    2.64   0
   1   6 -12   41.78    3.04   0
  -3   8  -5   65.28    3.28   0
  -2   9  -5   41.03    2.73   0
  -1   5 -10   -0.16    1.70   0
  -1   7 -10  288.84    5.84   0
  -3   6  -6    3.12    1.77   0
  -2   5  -8  143.04    4.95   0
  -1   6 -10   19.62    2.54   0
  -1   8  -9    1.10    2.18   0
  -1   9  -7    2.89    1.93   0
   0   5 -11    1.85    1.77   0
   0   8 -10   12.17    1.87   0
   0   6 -11  108.62    3.61   0
   2   6 -12   -1.55    1.86   0
  -3   7  -5  233.51    5.27   0
  -2   6  -8   45.40    2.88   0
   1   8 -10  387.36    4.23   0
  -1   9  -6   25.56    1.92   0
   2   5 -12    0.40    1.89   0
  -3   7  -4   16.93    2.29   0
  -1   9  -5   26.35    2.21   0
   0   4 -10    1.03    1.54   0
   2   7 -11   65.44    2.30   0
  -2   8  -6   51.42    2.86   0
  -1   7  -9  103.16    3.60   0
  -1   8  -8    1.65    1.96   0
   0   7 -10   16.98    2.31   0
   0   8  -9   63.86    2.60   0
   0   9  -6   80.48    2.44   0
  -3   7  -3   53.61    2.96   0
  -2   7  -7    6.29    1.93   0
  -1   6  -9    0.50    1.69   0
   0   9  -5   11.87    1.81   0
   1   6 -11    4.02    1.99   0
  -2   6  -7   44.86    2.95   0
  -2   8  -5   42.96    2.87   0
   0   5 -10    3.01    1.70   0
   1   5 -11   85.86    3.24   0
   1   8  -9  182.44    3.59   0
  -2   8  -4   12.53    2.33   0
  -1   8  -7   51.14    2.94   0
   0   8  -8   10.29    2.36   0
   1   7 -10   35.49    2.31   0
   2   6 -11   18.02    2.24   0
   3   6 -11  216.02    3.61   0
  -1   5  -8   61.16    3.28   0
  -1   6  -8    7.21    1.80   0
   0   7  -9   11.24    2.17   0
   2   5 -11   21.25    2.45   0
   2   7 -10   37.29    2.24   0
   2   8  -8    7.62    1.87   0
  -2   7  -5   12.95    1.80   0
  -1   8  -6    3.72    1.83   0
   1   4 -10    8.46    1.87   0
   1   8  -8  151.83    3.14   0
   0   6  -9  170.65    4.69   0
   0   8  -7   99.31    3.33   0
  -1   8  -5  143.33    4.07   0
   1   5 -10  302.43    5.21   0
   3   5 -11   47.52    2.66   0
  -2   7  -4  203.59    4.27   0
   0   7  -8    4.71    2.15   0
   1   7  -9   19.33    2.15   0
   2   8  -7  228.60    3.42   0
   3   7  -9    2.37    1.96   0
   4   6 -10   21.06    1.71   0
  -1   6  -7  224.88    4.96   0
  -1   8  -4  427.28    5.50   0
   1   8  -7   15.56    1.80   0
   2   6 -10   13.96    2.23   0
  -1   7  -6    1.05    1.91   0
  -1   8  -3   25.85    2.32   0
   2   7  -9    1.51    1.76   0
   3   6 -10  375.88    4.74   0
   5   5 -10   38.23    2.00   0
   0   6  -8   81.91    3.24   0
   0   8  -5   23.41    1.97   0
   1   6  -9   30.77    2.31   0
   2   4 -10   16.52    2.13   0
   2   5 -10   14.95    2.02   0
   0   5  -8   70.38    2.68   0
   0   7  -7   56.99    2.81   0
   1   4  -9   -0.34    1.48   0
   1   7  -8    1.46    1.65   0
   2   8  -5   14.58    1.90   0
  -1   7  -5   54.92    2.57   0
   0   8  -4    0.05    1.72   0
   1   5  -9   96.55    2.99   0
   1   8  -5   -0.97    1.95   0
   2   8  -4    4.90    1.67   0
   2   8  -3   63.85    2.02   0
   3   7  -8   28.81    1.96   0
   2   7  -8   26.26    1.88   0
   3   5 -10   32.35    2.21   0
   4   5 -10    1.31    1.67   0
  -1   7  -4    1.38    1.46   0
   1   8  -4   32.25    1.94   0
   1   8  -3    0.12    1.76   0
   1   8  -2  191.89    3.27   0
   2   6  -9  154.29    3.49   0
   0   6  -7  318.34    5.38   0
   1   7  -7   84.05    2.76   0
   3   4 -10    7.34    2.04   0
  -1   7  -3    0.02    1.59   0
   1   6  -8    6.37    1.68   0
   3   7  -7   68.93    2.33   0
   2   5  -9    2.82    1.67   0
   4   4 -10   89.97    2.80   0
   5   5  -9    6.08    1.64   0
   6   4  -9   66.42    2.27   0
  -1   7  -2   80.89    2.59   0
   2   4  -9  883.27    7.39   0
   0   6  -6    1.51    1.32   0
   1   7  -6   51.14    2.29   0
   2   6  -8   27.79    1.94   0
   4   6  -8   86.46    2.50   0
   3   5  -9   13.98    1.78   0
   3   6  -8   32.65    2.30   0
   3   7  -6   46.63    2.05   0
   4   5  -9   14.27    2.08   0
   0   7  -4   34.58    2.07   0
   1   6  -7   56.22    2.62   0
   2   7  -6    3.12    1.56   0
   5   6  -6   49.35    2.00   0
   1   7  -5    1.58    1.57   0
   0   1  -5    2.20    0.61   0
   0   1  -4  710.44    4.36   0
  -1   2  -3   11.68    0.67   0
   0   1  -3  449.92    2.44   0
   1  -2   0    2.71    0.26   0
  -3   3   0    0.66    0.28   0
  -1   2  -2  446.78    2.64   0
   1  -3   0    0.25    0.22   0
   1   0  -6   44.00    1.02   0
   0   1  -2   41.22    0.60   0
  -2   2   1 3740.35    4.52   0
   1   0  -4  147.10    1.36   0
  -1   0   2  498.14    1.42   0
  -2   3  -1  279.10    2.30   0
  -1  -2   3  439.33    2.72   0
  -1   2  -1   97.31    1.04   0
   0  -1   1   46.63    0.54   0
   1  -2  -1 1281.92    3.03   0
  -3   3   1   18.23    0.55   0
   1  -3  -1    0.22    0.25   0
  -3   0   4 1149.12    3.94   0
  -2   0   3  425.77    1.84   0
   1   1  -6  368.67    3.25   0
   0   2  -3  753.06    3.65   0
   1  -3  -2   15.51    0.56   0
   1   1  -5  819.01    3.89   0
   3   6  -7    3.15    2.04   0
   4   6  -6    1.19    1.95   0
   6   1  -5  142.31    3.47   0
   7   1  -1   14.66    2.06   0
   7   1   0    3.80    1.90   0
   7   2  -1   16.01    1.95   0
   4   3  -7   30.93    2.20   0
   6   2  -5   70.60    2.79   0
   6   3  -5   52.95    2.53   0
   6   4  -4   51.59    2.58   0
   4   4  -7  155.51    4.01   0
   5   2  -6  424.48    5.74   0
   5   4  -6    1.98    1.75   0
   5   5  -5  167.82    4.09   0
   6   1  -4  181.63    4.00   0
   3   7  -5  218.82    3.72   0
   5   3  -6   27.85    2.19   0
   6   4  -3   69.92    2.52   0
   3   5  -7  133.88    3.58   0
   6   2  -4   21.27    2.27   0
   6   3  -4   61.56    2.83   0
   6   4  -2    7.63    1.86   0
   6   4   0   31.65    2.00   0
   3   4  -7   26.09    2.07   0
   4   5  -6   45.56    2.86   0
   4   6  -5   22.86    2.09   0
   3   6  -6    1.56    2.10   0
   5   5  -4   70.86    2.64   0
   5   2  -5  164.36    3.74   0
   5   4  -5   19.43    2.19   0
   6   0  -1   74.73    2.73   0
   6   2  -3  113.06    3.84   0
   6   3  -3   34.55    2.36   0
   6   3   2   43.26    2.11   0
   3   7  -4  198.55    3.60   0
   4   3  -6  384.77    5.65   0
   4   4  -6   29.09    2.28   0
   5   3  -5   53.91    2.55   0
   6   1  -2    3.19    1.78   0
   5   5  -3    4.22    1.80   0
   6   3  -2    9.88    1.99   0
   6   3   1  144.33    3.22   0
   5   4  -4   11.17    2.32   0
   6   1  -1    5.78    2.16   0
   6   3   0  201.81    3.74   0
   3   5  -6  184.19    4.26   0
   4   5  -5   31.65    2.30   0
   5   5  -2    5.47    1.83   0
   6   2  -1    1.93    1.94   0
   6   2   2   10.83    2.01   0
   2   8  -2   58.55    2.23   0
   3   6  -5   62.79    3.05   0
   3   7  -3    6.01    1.94   0
   4   6  -3   55.04    2.37   0
   5   2  -4   20.29    1.89   0
   5   3  -4    9.79    1.74   0
   5   5  -1   20.95    1.83   0
   5   5   0    8.69    1.66   0
   6   1   0   11.07    1.89   0
   6   1   1    1.03    1.97   0
   6   2   0   21.93    2.28   0
   6   2   1    1.63    1.86   0
   4   3  -5   22.78    1.94   0
   4   6  -2  105.07    2.96   0
   5   4  -3  303.73    5.07   0
   4   5  -4   65.80    2.82   0
   5   4   3   21.90    1.91   0
   2   7  -4   58.52    2.98   0
   4   6  -1    1.71    1.61   0
   4   6   0   54.25    2.33   0
   4   6   1   15.59    1.67   0
   5   2  -3    0.18    1.37   0
   5   3  -3   11.32    1.82   0
   5   4  -2  245.67    4.39   0
   3   5  -5   64.31    2.77   0
   3   6  -4    5.16    1.87   0
   2   6  -5   62.32    2.85   0
   3   7   0   53.76    2.01   0
   3   7   1   -0.28    1.46   0
   4   4  -4    1.70    1.45   0
   5   3   4    0.37    1.66   0
   5   4  -1   95.88    3.08   0
   5   4   2   38.90    2.03   0
   4   5  -3  217.17    4.29   0
   5   2  -2   24.21    1.89   0
   5   3  -2    1.45    1.44   0
   5   4   0  147.09    3.36   0
   4   5   4   91.95    2.13   0
   2   5  -5    3.90    1.90   0
   2   7  -3  102.80    3.43   0
   4   5  -2   40.17    2.64   0
   5   3  -1   39.77    2.44   0
   5   3   3    0.78    2.08   0
   1   8  -2  218.78    3.77   0
   3   5  -4  134.49    3.59   0
   4   4  -3    3.67    1.59   0
   5   3   1   11.29    1.90   0
   5   3   2    0.37    1.67   0
   2   6  -4   10.03    1.84   0
   3   6  -2   98.12    3.59   0
   4   5  -1    0.72    1.75   0
   5   2   0   13.45    1.65   0
   5   2   3   84.24    2.88   0
   1   8  -1  124.05    3.08   0
   2   7  -2    2.09    1.70   0
   4   4   5    5.25    1.74   0
   4   5   0   50.38    2.57   0
   4   5   1  515.20    5.66   0
   5   2   1  105.58    3.01   0
   4   4  -2  123.80    3.48   0
   1   8   0  127.04    3.04   0
   2   7   4   35.09    1.70   0
   3   6  -1  278.40    4.75   0
   1   7  -3   41.19    2.53   0
   1   8   1  127.93    3.00   0
   2   7  -1   26.76    2.21   0
   3   5   6    0.81    1.53   0
   3   6   3    2.12    1.58   0
   4   4  -1   35.09    2.22   0
   2   7   3  154.04    3.07   0
   3   6   0  249.62    4.31   0
   3   6   1   -0.32    1.92   0
   3   6   2    0.44    1.66   0
   4   4   4    3.28    1.67   0
   3   5  -2  270.78    4.74   0
   4   4   0    5.48    1.66   0
   2   7   1  259.63    4.05   0
   2   7   2   45.18    2.10   0
   4   3  -1   14.87    1.83   0
   4   4   1    0.72    1.72   0
   4   4   3   -1.89    1.80   0
   1   7  -2   18.68    2.02   0
   2   6  -2   30.99    2.29   0
   3   4   7  133.78    2.83   0
   3   5  -1   93.76    3.44   0
   3   5   5    6.54    1.60   0
   4   3   0    3.63    1.78   0
   2   5  -3  792.26    7.28   0
   4   3   4  103.15    2.99   0
   1   6  -3   15.15    2.04   0
   1   7  -1   21.10    2.59   0
   3   5   0  301.87    4.95   0
   4   3   2    3.46    1.47   0
   4   3   3   34.62    2.35   0
   2   6   5   -0.10    1.67   0
   3   5   1  137.88    3.69   0
   3   5   2   17.70    2.33   0
   3   5   3   24.76    2.30   0
   4   2   4   17.02    2.14   0
   0   8   1   10.80    2.12   0
   0   8   4    2.28    1.50   0
   1   7   5    1.07    1.48   0
   3   4  -1  175.98    3.74   0
   3   4   6   26.41    2.19   0
   0   7  -2  108.85    3.92   0
   0   8   2    4.74    2.03   0
   1   7   0   67.49    2.98   0
   2   5  -2    1.87    1.59   0
   2   6   0   49.23    2.69   0
   2   6   4   -0.07    2.07   0
  -2   9   3   18.44    1.83   0
   1   6  -2   -0.56    2.01   0
   1   7   4   -0.91    2.06   0
   2   5   7  214.80    3.44   0
   2   6   1   25.19    2.29   0
   2   6   2   10.82    2.08   0
   2   6   3   56.27    2.66   0
   3   4   0   14.65    1.81   0
   3   4   5   49.86    2.49   0
   1   7   2    7.42    1.85   0
   1   7   3   -0.05    1.80   0
   2   5  -1    8.93    1.96   0
   3   4   1    1.47    1.90   0
  -1   8   0  139.09    3.92   0
   0   7   7  270.30    3.64   0
   3   4   2   28.36    2.30   0
   3   4   4   42.98    2.54   0
  -1   8   6    0.49    1.44   0
   0   7  -1   11.44    2.19   0
   1   5   9    5.54    1.56   0
   2   4   8   23.40    2.11   0
   2   5   6  334.37    5.24   0
   3   3   6   40.45    2.78   0
   1   6  -1    1.16    1.64   0
   2   5   0    8.95    2.06   0
  -3   9   4   65.13    2.34   0
  -1   8   1   88.94    3.58   0
   0   6   9   53.09    2.11   0
  -1   8   5   28.36    1.97   0
   0   7   0    1.99    2.56   0
   1   6   6   12.42    2.57   0
   2   5   1   18.24    2.37   0
   3   3   5   40.22    2.40   0
  -1   8   2   28.98    2.67   0
   0   7   6  267.93    4.37   0
   3   3   4   89.43    3.02   0
  -6   6  -4    2.03    2.79   0
  -6   6  -3   71.08    4.49   0
  -5   5  -8    7.76    3.22   0
  -5   6  -9   80.93    4.19   0
  -4   8 -11   33.44    2.37   0
  -3   3 -10  335.50    7.91   0
  -3   5 -12   -0.02    2.52   0
  -6   7  -5   -0.69    2.42   0
  -6   7  -4   34.96    3.34   0
  -6   7  -3    4.81    2.58   0
  -5   4  -6  226.36    6.77   0
  -5   8  -9  160.82    4.26   0
  -3   4 -11   13.65    2.97   0
  -5   7  -9  103.36    4.33   0
  -4   3  -7   17.83    3.05   0
  -4   4  -9   -0.24    2.32   0
  -4   7 -11   28.33    2.77   0
  -5   4  -5   49.98    3.56   0
  -5   9  -7   23.31    2.41   0
  -4   5 -10    3.99    2.52   0
  -5   5  -7   13.21    2.75   0
  -5   6  -8   46.25    3.45   0
  -5   9  -6    8.29    2.50   0
  -5   8  -8  123.82    4.32   0
  -5   9  -5   58.58    2.84   0
  -2   6 -13    3.31    2.20   0
  -5   5  -6    5.44    2.71   0
  -5   7  -8    9.71    2.48   0
  -4   8 -10    7.87    2.38   0
  -3   3  -9  142.60    4.81   0
  -4   6 -10   80.44    4.17   0
  -5   5  -5   59.91    3.98   0
  -4   7 -10   12.41    2.40   0
  -3   4 -10   24.87    3.53   0
  -3   5 -11   36.27    3.37   0
  -5   8  -6   -1.26    2.08   0
  -4   4  -7  151.30    5.35   0
  -4   9  -8   45.18    2.55   0
  -3   8 -11   15.09    2.16   0
  -5   8  -5   19.63    2.57   0
  -4   8  -9    2.74    1.88   0
  -2   5 -12   70.46    3.73   0
  -1   5 -13    1.66    2.18   0
  -4   5  -8   44.68    3.19   0
  -4   6  -9    0.86    2.18   0
  -4   9  -7   27.44    2.55   0
  -3   7 -11   16.80    2.32   0
  -2   3 -10  113.29    4.45   0
  -1   7 -13    9.31    2.26   0
  -5   6  -4  103.60    4.25   0
  -5   6  -3   33.51    2.87   0
  -5   7  -4  401.56    7.89   0
  -5   7  -3   16.82    2.39   0
  -4   7  -9   11.73    2.47   0
  -2   4 -11   17.49    2.86   0
  -4   9  -6   66.29    3.42   0
  -3   4  -9    5.77    2.18   0
  -3   5 -10   37.16    3.22   0
  -3   9  -9   72.59    3.16   0
  -2   6 -12   24.25    2.67   0
  -1   6 -13   90.90    3.14   0
  -4   8  -8    4.78    2.10   0
  -4   9  -5    0.73    1.81   0
  -4   5  -7    3.87    2.04   0
  -4   6  -8   92.11    4.43   0
  -3   8 -10    3.52    1.96   0
  -4   7  -8   12.49    2.42   0
  -3   6 -10  231.02    5.76   0
  -3   7 -10   -0.33    2.14   0
  -2   5 -11    2.74    2.62   0
  -2   8 -11   79.76    3.27   0
  -4   5  -6   48.91    3.20   0
  -4   6  -7  265.46    7.03   0
  -3   4  -8   34.92    2.95   0
  -4   7  -7   74.66    3.77   0
  -4   8  -6   -1.69    2.09   0
  -3   8  -9    3.41    2.27   0
  -2   4 -10   80.88    3.69   0
  -4   8  -5    9.84    2.40   0
  -3   9  -7   32.43    2.52   0
  -2   6 -11   86.50    3.74   0
  -2   7 -11    8.68    2.26   0
  -2   9  -9   12.79    1.85   0
  -1   5 -12   56.45    3.19   0
   0   6 -13  110.70    3.65   0
  -4   6  -6   72.45    3.73   0
  -4   8  -4    0.37    1.93   0
  -3   6  -9  194.75    5.64   0
  -3   9  -6   12.50    2.64   0
  -3   7  -9    2.08    1.98   0
  -3   9  -5    0.18    2.04   0
  -2   8 -10    8.10    2.36   0
  -1   6 -12    0.55    1.86   0
  -4   7  -5   13.05    2.42   0
  -3   5  -8   11.94    2.26   0
  -3   8  -8    1.22    1.83   0
  -1   8 -11    1.28    1.68   0
  -4   7  -4   66.98    3.48   0
  -4   7  -3   40.11    2.70   0
  -2   5 -10    1.47    1.98   0
  -1   9  -9   57.52    2.41   0
  -3   6  -8   18.63    2.58   0
  -2   4  -9   89.06    3.75   0
   1   6 -13    5.61    2.28   0
  -2   6 -10    0.43    1.96   0
  -2   7 -10   23.80    2.44   0
   0   7 -12   44.04    2.90   0
  -3   5  -7  139.65    4.56   0
  -2   8  -9   42.27    2.70   0
  -1   5 -11    1.06    2.25   0
  -1   7 -11   13.71    2.57   0
   0   8 -11    0.76    1.83   0
  -3   8  -6  102.03    4.38   0
  -2   9  -6   10.54    2.02   0
   0   5 -12   83.51    3.60   0
  -3   6  -7    6.36    1.88   0
  -3   7  -7   11.41    2.29   0
  -2   9  -5   43.53    2.52   0
  -1   6 -11    1.76    2.00   0
  -1   8 -10   45.18    2.64   0
   0   6 -12   99.82    3.47   0
  -3   8  -5   67.07    3.22   0
  -3   8  -4  113.27    4.09   0
  -1   4 -10  378.12    6.93   0
   1   7 -12    8.37    1.70   0
  -2   6  -9    0.87    1.73   0
  -2   8  -8   55.61    3.23   0
  -1   9  -7    2.30    1.74   0
  -3   6  -6    4.82    1.73   0
  -1   9  -6   27.42    2.21   0
  -1   7 -10  272.51    5.63   0
  -1   8  -9   -0.97    2.24   0
  -1   9  -5   26.14    2.30   0
   0   4 -11   19.07    2.43   0
   0   7 -11    8.95    2.67   0
   0   8 -10    9.96    1.71   0
   0   9  -7   40.27    2.17   0
  -3   7  -5  203.37    5.30   0
  -2   5  -8  132.28    4.87   0
  -1   5 -10    1.32    1.76   0
   0   9  -6   82.07    2.43   0
   1   6 -12   41.61    2.96   0
  -3   7  -4   21.57    2.19   0
  -3   7  -3   53.41    3.15   0
   1   8 -10  392.19    4.29   0
  -2   6  -8   40.46    2.90   0
  -2   8  -6   44.26    3.29   0
   0   5 -11    0.36    1.81   0
   0   6 -11  103.15    3.49   0
  -1   8  -8    1.14    2.03   0
   1   7 -11    4.50    2.09   0
  -2   7  -7    7.49    1.95   0
  -2   8  -5   36.32    2.59   0
  -1   7  -9   97.56    3.62   0
   2   6 -12    0.68    1.71   0
   3   6 -12   38.31    2.20   0
  -2   8  -4   11.57    2.24   0
   0   7 -10   16.13    2.25   0
  -2   6  -7   45.50    2.89   0
  -1   6  -9    1.67    1.63   0
   0   4 -10   -0.82    1.95   0
   1   8  -9  197.39    3.46   0
   2   5 -12   -0.11    2.17   0
   0   6 -10    8.88    2.04   0
   0   8  -8   12.80    2.05   0
   1   6 -11    7.84    2.12   0
  -2   6  -6    8.88    1.69   0
  -2   7  -5   10.58    2.09   0
  -1   8  -6    3.72    2.05   0
   0   5 -10    2.53    1.74   0
   1   5 -11   91.77    3.57   0
   1   7 -10   33.43    2.58   0
   3   5 -12    4.54    2.02   0
   0   7  -9   15.86    2.05   0
   1   8  -8  163.84    3.39   0
   2   8  -8    6.74    1.67   0
   3   7 -10    6.21    1.98   0
  -2   7  -4  208.10    4.37   0
  -1   5  -8   66.13    3.17   0
  -1   6  -8   10.92    1.91   0
  -1   8  -5  150.68    3.74   0
   2   6 -11   16.17    2.32   0
   2   7 -10   41.41    2.41   0
  -1   7  -7  123.46    3.77   0
   3   6 -11  213.98    3.52   0
   1   6 -10   27.88    2.44   0
  -1   6  -7  242.55    5.12   0
   0   7  -8    5.21    1.85   0
   0   8  -5   18.42    2.54   0
   1   4 -10    6.67    1.91   0
   1   7  -9   20.47    2.19   0
   2   4 -11  134.41    3.73   0
   2   5 -11   20.81    2.20   0
   2   8  -6    7.60    1.50   0
   2   8  -4    4.24    1.66   0
   0   8  -4   -0.38    1.63   0
   1   5 -10  265.62    5.17   0
   1   8  -6    3.54    1.69   0
   2   8  -5   14.13    1.68   0
   3   7  -9    1.98    1.67   0
   1   8  -5    0.07    1.96   0
   2   7  -9    2.69    1.76   0
  -1   7  -5   57.83    2.56   0
   0   7  -7   56.46    3.07   0
   1   8  -4   29.81    1.86   0
   3   5 -11   49.49    2.35   0
   4   5 -11   67.58    2.42   0
  -1   7  -4    3.45    1.98   0
   0   6  -8   97.79    3.32   0
   1   7  -8   -0.26    1.84   0
  -1   7  -3   -0.15    1.96   0
   1   6  -9   26.64    2.42   0
   3   4 -11   62.94    2.70   0
   3   7  -8   29.55    2.17   0
   2   7  -8   24.95    1.89   0
   2   5 -10   13.22    1.97   0
   4   4 -11   39.77    2.34   0
   1   4  -9    0.46    1.43   0
   1   7  -7   84.73    2.84   0
   2   4 -10   18.63    1.85   0
   2   6  -9  160.62    3.56   0
   0   7  -5   79.26    2.84   0
   3   7  -7   69.44    2.45   0
   6   4 -10  132.07    2.57   0
   1   6  -8    5.44    1.79   0
   3   5 -10   37.36    2.21   0
   3   6  -9  212.36    3.66   0
   4   5 -10    5.30    2.01   0
   0   7  -4   36.24    2.23   0
   1   7  -6   48.34    2.31   0
   5   6  -7  297.98    3.36   0
   0   6  -6    1.06    1.43   0
   0   7  -3  232.34    4.27   0
   2   7  -6    1.53    1.83   0
   1   5  -8   56.43    2.35   0
   1   7  -5    1.28    1.50   0
   2   6  -8   24.28    2.24   0
   3   4 -10    7.61    1.81   0
   3   7  -5  216.44    3.32   0
   4   6  -8   81.70    2.76   0
   1   6  -7   53.40    2.59   0
   3   7  -3    3.57    1.47   0
  -1   3  13   94.29    2.56   0
   0  -2  14   50.04    2.19   0
   1   3   8  278.38    4.81   0
   2   0  10    2.35    1.73   0
  -1   2  14    1.69    1.51   0
   0   0  14   51.63    2.23   0
   0   3  11   30.53    2.18   0
   2  -2  10   26.42    2.08   0
   2  -1  10   66.96    2.84   0
   2   1   8   20.21    2.20   0
  -2   2  15   48.86    1.66   0
  -1  -1  15   49.88    2.08   0
  -1   4  11   52.93    2.58   0
   0  -1  14    7.61    1.74   0
   1   0  12   24.73    2.35   0
   1   3   7  244.85    4.58   0
   1  -2  12   29.68    2.13   0
   1   1  11  139.29    3.62   0
   2   0   9   12.40    1.68   0
   0   1  13   25.24    1.96   0
   0   2  12   37.73    2.17   0
   2  -1   9   23.32    2.22   0
   1   2   9   49.44    2.44   0
   0  -2  13   42.65    2.46   0
   0   3  10  110.20    3.14   0
  -2   1  15   14.29    1.67   0
  -2   4  12   21.88    2.08   0
  -1  -2  14   11.45    2.16   0
  -1   1  14   39.76    2.04   0
  -1   3  12   77.20    2.62   0
  -1   4  10    4.30    2.02   0
   0   0  13   17.31    1.95   0
   1  -2  11   28.79    2.36   0
   1   0  11   46.56    2.35   0
   1   1  10  540.89    6.27   0
  -1   2  13   10.77    1.79   0
   0  -1  13   18.80    2.29   0
   1   2   8  235.90    4.11   0
  -2  -1  15   63.06    2.17   0
   0   1  12    1.07    1.96   0
   0   2  11    1.92    1.66   0
  -3   2  15   34.50    1.46   0
  -3   4  13    4.15    1.38   0
  -2   0  15   -0.52    1.30   0
  -1  -1  14    4.89    1.87   0
   0   3   9    5.43    1.81   0
  -2   2  14   60.06    2.02   0
   1  -2  10   21.34    1.70   0
   1   0  10   -0.26    1.50   0
   1   1   9  120.68    3.08   0
  -3   3  14   43.36    1.77   0
  -1   4   9   26.35    2.26   0
   0  -2  12    2.48    1.59   0
  -1   3  11   60.17    2.63   0
   0   0  12   22.91    1.95   0
   0   3   8   37.46    2.46   0
  -3  -1  15    0.93    1.63   0
  -2   4  11    7.36    1.85   0
  -1  -2  13   77.12    3.20   0
  -1   1  13   88.71    2.66   0
  -1   2  12    4.35    1.94   0
   0  -1  12   15.61    1.77   0
   0   2  10    8.22    1.77   0
  -3   1  15    1.27    1.37   0
  -2   1  14   58.43    2.49   0
   0   1  11   59.10    2.77   0
  -3   0  15    4.44    1.38   0
  -1   0  13   10.21    1.90   0
  -1   4   8  106.78    3.31   0
  -3   4  12    1.36    1.71   0
  -2  -1  14   93.28    2.81   0
  -1  -1  13    7.56    1.75   0
   0  -2  11   56.10    2.40   0
  -4   4  13    1.17    1.54   0
  -2   2  13    1.69    1.51   0
  -1   3  10  108.99    3.13   0
   0   0  11   28.27    1.80   0
  -3   2  14   15.95    1.69   0
  -2   4  10   11.96    2.00   0
   0  -1  11   64.85    2.31   0
   0   1  10  197.93    3.78   0
  -5   2  15   26.82    1.61   0
  -3   3  13  194.81    3.34   0
  -1  -2  12   80.29    3.11   0
  -1   2  11   88.24    2.82   0
  -4   5  11   12.48    1.91   0
  -5   0  15   36.01    1.59   0
  -2   1  13    0.71    1.70   0
  -1   0  12    1.75    1.87   0
  -1   3   9    7.77    1.91   0
   0   0  10   28.08    2.17   0
  -3  -1  14   13.98    1.72   0
  -3   1  14    7.39    1.39   0
  -1  -1  12    4.90    1.66   0
  -5   3  14    5.78    1.45   0
  -3   0  14    8.56    1.77   0
  -3   4  11   25.09    2.02   0
  -2  -1  13  182.60    3.42   0
  -2   2  12   42.19    2.23   0
  -4   2  14    5.77    1.45   0
  -1   1  11  583.75    6.10   0
  -1   2  10   51.74    2.22   0
  -4  -1  14   12.68    1.64   0
  -4   4  12   63.00    2.31   0
  -3   2  13    1.61    1.46   0
  -3   3  12  259.03    5.28   0
  -1  -2  11  480.65    5.25   0
  -6   5  12   14.65    1.42   0
  -4   3  13    0.71    1.40   0
  -6   3  14  185.56    2.50   0
  -4   5  10   26.67    2.22   0
  -1  -1  11   38.49    2.54   0
  -1   0  11   11.21    1.53   0
  -5   5  11   89.05    2.95   0
  -4   0  14   -0.39    1.79   0
  -2   1  12    0.55    1.50   0
  -2   3  10   53.93    2.39   0
  -2   4   8    0.21    2.02   0
  -5   2  14   37.74    1.69   0
  -3   1  13    0.92    1.61   0
  -3   4  10  161.01    3.68   0
  -2   2  11   36.94    2.02   0
  -1   1  10   78.82    2.56   0
  -7   4  13  113.25    2.13   0
  -6   0  14   66.65    1.99   0
  -3  -1  13   79.28    2.57   0
  -2  -1  12    2.30    1.60   0
  -6   2  14   21.11    1.65   0
  -5   0  14    0.97    1.31   0
  -5   3  13   -1.41    1.47   0
  -4   2  13    6.89    1.55   0
  -4   4  11   91.74    2.89   0
  -3   2  12    0.73    1.37   0
  -6   1  14   19.60    1.55   0
  -4   3  12   11.60    1.79   0
  -4   5   9    4.31    2.00   0
  -2   3   9    6.33    1.52   0
  -6   5  11   47.89    2.26   0
  -4  -1  13   65.28    2.28   0
  -5   5  10    0.76    1.91   0
  -4   1  13   37.25    1.97   0
  -3   4   9  376.34    5.30   0
  -2   2  10   97.81    2.85   0
  -6   3  13    7.34    1.49   0
  -4   0  13   38.01    2.06   0
  -2  -1  11    4.92    1.78   0
  -7   3  13    2.75    1.26   0
  -5   2  13  160.45    3.01   0
  -3  -1  12    0.39    1.49   0
  -7   5  11   31.82    1.76   0
  -4   4  10   20.08    2.31   0
  -3   2  11    0.19    1.48   0
  -7   4  12  202.79    3.31   0
  -5   0  13    1.61    2.03   0
  -5   3  12   58.13    2.41   0
  -5   4  11    6.21    1.68   0
  -4   2  12  125.56    2.98   0
  -4   5   8   20.64    2.30   0
  -7   1  13   65.85    2.10   0
  -7   2  13    2.52    1.26   0
  -3   4   8   71.43    2.76   0
  -4  -1  12    1.39    1.99   0
  -6   5  10   -0.17    1.58   0
  -5   5   9   27.43    2.14   0
  -4   1  12   28.69    1.96   0
  -3   1  11   74.35    2.64   0
  -4   0  12   63.77    2.34   0
  -8   3  12   37.67    1.76   0
  -5   2  12  219.03    3.74   0
  -3  -1  11   -0.30    1.33   0
  -3   0  11  253.66    3.98   0
  -3   2  10   15.78    2.06   0
  -7   3  12   42.32    2.02   0
  -7   5  10   25.08    2.12   0
  -4   4   9   39.33    2.35   0
  -8   5  10   47.67    2.15   0
  -7   0  12    0.32    1.53   0
  -5   3  11    5.78    1.62   0
  -5   4  10   12.63    1.71   0
  -4   2  11  202.88    3.86   0
  -4   3  10   13.75    2.06   0
  -8   4  11    1.07    1.29   0
  -7   4  11    6.39    1.56   0
  -7   6   8   20.64    1.99   0
  -6   2  12    0.11    1.81   0
  -5   0  12   12.53    1.95   0
  -5   1  12    8.62    1.66   0
  -7   2  12   26.80    2.18   0
  -6   0  12    0.98    1.94   0
  -6   5   9   37.07    2.36   0
  -5   5   8    5.21    2.07   0
  -7   1  12   87.42    2.44   0
  -4  -1  11   52.15    2.41   0
  -4   1  11    0.82    1.35   0
  -9   4  10   71.52    2.05   0
  -6   3  11   26.72    2.01   0
  -5   2  11  130.99    3.32   0
  -4   4   8   92.47    2.90   0
  -8   3  11   11.51    1.59   0
  -7   5   9   17.28    2.22   0
  -5  -1  11  143.96    3.12   0
  -5   4   9   62.21    2.87   0
  -4   2  10   45.25    2.17   0
  -9   6   7    0.92    1.54   0
  -7   3  11    2.93    1.48   0
  -5   3  10   70.13    2.71   0
  -8   2  11   28.30    1.88   0
  -8   4  10   80.05    2.75   0
  -8   5   9    9.82    1.63   0
  -7   0  11   14.47    2.26   0
  -7   4  10   13.37    1.74   0
  -5   0  11    4.44    2.11   0
  -5   1  11    0.18    1.54   0
  -9   3  10    5.30    1.56   0
  -6   2  11   29.65    2.00   0
  -6   5   8    9.34    1.61   0
  -5   5   7   19.76    2.10   0
  -8   0  10    4.05    2.01   0
  -7   2  11    1.23    1.71   0
  -6   0  11   55.21    2.43   0
  -4  -1  10   67.40    3.06   0
  -4   1  10  128.12    3.15   0
  -7   1  11  108.02    2.79   0
  -9   4   9   50.56    2.34   0
  -9   5   8   48.73    2.34   0
  -6   3  10   89.58    2.94   0
  -5   2  10   12.48    1.73   0
  -4   0  10  107.30    2.79   0
  -8   3  10   33.87    2.18   0
  -7   5   8  113.15    3.09   0
  -5  -1  10  140.01    3.50   0
  -5   4   8  148.54    3.61   0
  -9   1   9   26.43    1.75   0
  -9   6   6    0.87    1.74   0
  -8   5   8   41.83    2.54   0
  -7   3  10   52.53    2.56   0
  -8   2  10  229.36    4.14   0
  -8   4   9   -0.46    1.98   0
  -7   4   9    0.51    1.66   0
  -5   1  10  136.79    3.29   0
  -9   3   9   19.26    1.71   0
  -8   6   6   92.67    2.63   0
  -7   0  10   18.89    2.15   0
  -6   2  10   65.68    2.74   0
  -6   5   7   17.59    1.99   0
  -8   0   9   31.81    2.35   0
  -7   2  10  122.35    3.42   0
  -7   1  10   20.62    2.19   0
  -6   4   8   84.32    3.04   0
  -9   4   8   38.11    2.09   0
  -9   5   7   57.61    2.36   0
  -5   2   9   14.82    1.69   0
  -9   6   5  125.20    2.90   0
  -7   3   9  314.88    5.36   0
  -7   5   7   20.83    1.95   0
  -5   4   7    4.12    1.79   0
  -9   1   8   27.52    1.91   0
  -8   5   7   51.78    2.45   0
  -6  -1   9   39.65    2.50   0
  -5  -1   9    2.29    1.69   0
  -5   3   8  152.99    3.47   0
  -8   1   9    9.92    2.08   0
  -8   2   9   71.45    2.55   0
  -8   4   8    0.54    1.53   0
  -8   6   5   22.66    1.97   0
  -6   5   6   69.05    2.70   0
  -5   1   9   99.20    3.13   0
 -10   4   6   36.84    2.16   0
 -10   5   5   31.02    1.79   0
  -9   3   8    0.51    1.70   0
  -7   0   9    0.91    1.83   0
  -6   2   9    6.38    1.59   0
  -5   0   9  205.37    4.00   0
  -8   0   8   75.84    3.06   0
  -7   2   9  274.83    4.90   0
 -10   3   6   88.62    2.53   0
  -9   4   7   21.48    2.04   0
  -6   0   9  226.25    4.26   0
  -6   3   8  145.95    3.57   0
  -6   4   7   38.80    2.21   0
  -8   3   8   81.22    3.42   0
  -7   5   6   16.06    2.02   0
 -10   5   4    7.45    1.74   0
  -9   1   7   16.76    2.01   0
  -8   6   4   12.93    2.17   0
  -7   3   8    4.91    1.81   0
 -10   4   5    1.79    1.79   0
  -8   4   7   18.95    2.13   0
  -6  -1   8   29.50    2.54   0
  -6   5   5   30.62    2.51   0
  -9   2   7  222.60    4.12   0
  -9   3   7    3.27    2.00   0
  -8   2   8    9.38    2.01   0
  -5  -1   8   46.31    2.35   0
 -10   3   5   79.39    2.57   0
  -9   5   5    0.55    1.83   0
  -9   6   3    4.69    1.86   0
  -7   0   8   49.61    2.55   0
  -6   2   8   80.79    2.82   0
 -10   5   3   57.68    2.33   0
  -9   4   6   23.04    2.09   0
  -8   0   7    0.35    1.93   0
  -7   2   8    3.38    1.66   0
  -9   1   6    0.92    2.08   0
  -8   5   5   -0.76    2.11   0
  -7   5   5   32.67    2.27   0
  -6   0   8   37.72    2.38   0
  -6   3   7   51.71    2.36   0
  -6   4   6  298.63    4.83   0
 -10   4   4    0.62    1.60   0
  -8   3   7   15.61    2.03   0
 -10   3   4    8.57    2.04   0
  -9   3   6   22.85    2.03   0
  -9   6   2    1.07    1.76   0
  -8   4   6  113.27    3.45   0
  -7   3   7  113.85    3.39   0
 -10   5   2   45.52    1.98   0
  -9   2   6   43.32    2.62   0
  -9   5   4    0.93    1.82   0
  -8   1   7  143.72    3.73   0
  -8   2   7   63.72    2.92   0
  -6   5   4   41.93    2.32   0
  -9   4   5    1.25    1.78   0
  -6  -1   7   54.29    2.78   0
 -10   4   3   76.82    2.46   0
  -9   1   5   12.93    2.31   0
  -8   0   6   21.23    2.50   0
  -7   0   7  236.03    4.63   0
  -7   2   7  129.78    3.62   0
  -6   2   7   12.34    1.74   0
 -10   3   3   10.72    1.81   0
  -8   5   4    0.94    1.74   0
  -7   5   4   22.26    2.01   0
  -9   3   5   86.86    3.35   0
  -9   5   3    5.30    2.33   0
  -8   3   6   29.23    2.46   0
  -6   0   7   40.19    2.42   0
  -6   3   6    5.78    1.51   0
 -10   4   2  101.87    2.68   0
  -9   2   5   -1.52    2.03   0
  -8   4   5   11.09    2.19   0
  -7   3   6  362.77    5.53   0
 -10   3   2    5.45    1.68   0
  -9   4   4    3.35    2.02   0
  -8   2   6  164.80    4.19   0
  -7   4   5  172.15    4.04   0
 -10   4   1   46.43    2.08   0
  -9   1   4    5.04    1.96   0
  -8   0   5    3.53    2.46   0
 -10   3   1    8.93    1.65   0
  -9   5   2   46.48    2.77   0
  -8   5   3   69.78    3.30   0
  -7   0   6  153.12    3.93   0
  -6  -1   6  204.22    4.16   0
  -9   2   4    0.47    2.28   0
  -9   3   4   70.31    2.87   0
  -8   3   5  128.15    3.79   0
  -7  -1   5   79.74    3.55   0
  -7   2   6  284.60    5.16   0
  -7   5   3    6.29    1.81   0
  -9   4   3    1.84    1.86   0
  -9   1   3    5.89    1.95   0
  -8   2   5    2.56    1.96   0
  -7   3   5   47.54    2.99   0
  -6   0   6  252.90    4.60   0
  -9   5   1    4.02    1.81   0
  -8   0   4    6.95    2.70   0
  -7   4   4   88.79    3.00   0
  -9   3   3  171.00    3.87   0
  -8   5   2  154.27    3.78   0
  -9   1   2   23.83    2.27   0
  -9   2   3   25.88    2.49   0
  -9   4   2   11.39    2.05   0
  -8   3   4    4.58    2.18   0
  -7   0   5   32.58    3.21   0
  -9   5   0   54.04    2.73   0
  -7  -1   4    3.90    2.30   0
  -7   2   5  119.90    3.55   0
  -7   5   2    4.90    1.84   0
  -8   2   4   21.23    2.64   0
  -9   2   2   32.89    2.61   0
  -9   3   2   57.05    2.81   0
  -9   5  -1  169.87    3.70   0
  -8   0   3   48.87    2.92   0
  -8   5   1   74.67    3.18   0
  -7   3   4    3.30    1.92   0
  -7   4   3  194.43    4.28   0
  -6   0   5   32.15    2.27   0
  -9   5  -3    0.88    1.89   0
  -9   5  -2    7.51    1.74   0
  -8   3   3    8.01    2.19   0
  -9   2   1    3.52    1.90   0
  -9   3   1   17.17    1.95   0
  -7  -1   3    1.69    2.58   0
  -7   0   4   19.94    2.40   0
  -7   5   1   15.74    1.91   0
  -8   0   2    6.61    2.20   0
  -8   2   3    0.08    2.03   0
  -8   5   0   40.02    2.66   0
  -7   2   4   11.47    1.85   0
  -6  -1   4  156.97    4.19   0
  -4   2  -7   93.66    4.69   0
  -3   5 -13    4.38    2.73   0
  -2   0 -10    1.90    3.54   0
  -2   1 -12   18.65    3.89   0
  -1  -1 -10  533.21   10.12   0
   0  -1 -12    1.79    3.51   0
   0   1 -15   26.70    3.01   0
  -4   3  -9   33.30    3.45   0
  -4   4 -10   13.99    3.04   0
  -3   1  -9    1.61    2.83   0
  -3   2 -11   71.16    4.54   0
  -3   3 -12   17.34    3.47   0
  -2   3 -14   65.27    3.65   0
  -4   5 -10    4.45    2.56   0
  -2   2 -13   48.83    4.00   0
  -1   0 -12   21.72    3.67   0
  -4   3  -8  105.16    4.77   0
  -3   1  -8   52.41    3.96   0
  -1   3 -15  119.28    4.48   0
  -4   4  -9    1.54    2.57   0
  -2   0  -9    7.89    2.84   0
  -2   4 -14    3.25    2.37   0
  -2   5 -14   30.88    2.88   0
  -1  -1  -9  110.54    5.18   0
  -3   2 -10   90.00    5.11   0
  -3   4 -12   34.84    3.50   0
  -2   1 -11   17.45    3.50   0
  -1   1 -13   22.25    3.69   0
   2   0 -15    0.84    2.77   0
  -4   4  -8   92.19    4.90   0
  -3   3 -11  411.16    8.86   0
  -3   5 -12    0.33    2.61   0
  -1   2 -14    5.36    2.80   0
  -1   4 -15    9.65    2.74   0
   0  -1 -11   62.22    4.58   0
   0   0 -13   18.15    3.39   0
   1   0 -14   33.49    4.09   0
  -3   2  -9   53.28    3.88   0
  -2   2 -12   13.51    2.93   0
   0   2 -15    1.20    2.43   0
   1   1 -15   52.94    3.61   0
  -2   1 -10   56.74    4.35   0
  -2   6 -13    1.95    2.24   0
   1  -1 -12  279.71    7.71   0
  -3   4 -11   12.23    3.12   0
   1   3 -16    3.20    2.44   0
  -3   5 -11   45.55    3.40   0
  -1   1 -12  179.10    6.25   0
  -1   3 -14   17.64    3.03   0
   0  -1 -10  171.29    6.13   0
  -2   2 -11    4.01    2.80   0
  -1   2 -13   53.11    4.64   0
   0   0 -12   21.51    3.60   0
   2   2 -16   82.73    3.19   0
  -2   1  -9   24.66    3.25   0
  -2   3 -12    2.65    2.97   0
   0   3 -15   11.82    2.48   0
  -3   3  -9  148.19    5.66   0
  -3   4 -10   25.48    3.42   0
  -1   4 -14    1.37    2.35   0
  -3   5 -10   41.49    3.99   0
  -2   6 -12   37.52    3.32   0
  -1   5 -14    1.27    2.30   0
   0   2 -14   39.42    4.08   0
   0   4 -15   43.14    2.94   0
   1  -1 -11  523.93    9.79   0
   1   0 -13   10.29    2.92   0
   2   0 -14   10.63    2.97   0
   2   1 -15   59.74    3.65   0
  -1   1 -11  621.02   11.76   0
   2   3 -16  184.82    3.96   0
  -3   4  -9    5.17    2.98   0
  -2   2 -10   22.53    3.19   0
  -2   5 -12   72.79    4.39   0
   0   0 -11   20.51    3.21   0
   1   1 -14    6.98    2.60   0
  -2   3 -11   13.50    3.05   0
  -1   2 -12   28.73    3.51   0
  -1   3 -13    0.27    2.60   0
   2  -1 -12    0.37    2.39   0
  -3   5  -9    8.23    2.47   0
  -1   6 -13   92.41    3.90   0
   0   6 -14   59.48    3.18   0
   0   3 -14   39.81    3.35   0
   1   3 -15   21.37    2.74   0
   3   0 -14    7.60    3.12   0
   3   1 -15    1.29    2.54   0
  -2   4 -11   19.46    3.62   0
  -1   1 -10  155.30    5.65   0
  -1   4 -13   38.01    3.33   0
   1   0 -12    6.44    2.92   0
   1   5 -15   14.52    2.40   0
  -2   3 -10  128.25    5.09   0
  -1   5 -13    5.96    2.65   0
   0   0 -10   29.44    3.39   0
   0   2 -13   47.27    3.77   0
   1   4 -15   15.43    2.52   0
   2   0 -13  127.78    5.23   0
  -2   5 -11    3.04    2.47   0
  -1   2 -11   33.94    3.40   0
  -1   3 -12    5.84    2.84   0
   0   4 -14   45.88    3.55   0
   1   2 -14   11.96    3.14   0
   4   1 -15   17.61    2.91   0
   1   1 -13    4.20    2.64   0
   2   1 -14   72.84    4.26   0
  -2   4 -10   74.56    4.05   0
  -2   6 -10    1.35    2.10   0
  -1   6 -12   -1.99    2.29   0
   0   1 -11   65.75    4.21   0
   2   3 -15  100.46    4.13   0
  -2   5 -10    2.23    2.84   0
   0   3 -13  284.30    6.92   0
   1   0 -11   10.36    2.79   0
   2   4 -15    6.77    2.37   0
   3   2 -15   76.17    3.62   0
  -1   2 -10   25.24    2.74   0
  -1   5 -12   69.37    3.96   0
   0   2 -12    2.28    2.49   0
   1   3 -14    4.01    2.62   0
  -1   3 -11  154.88    5.66   0
   1   5 -14   46.09    3.69   0
   2   0 -12   66.40    4.34   0
   3   0 -13  210.04    5.79   0
   3   1 -14   12.58    3.26   0
  -2   4  -9   83.73    3.99   0
   0   4 -13    1.46    2.37   0
   1   2 -13   94.75    4.87   0
   1   4 -14  198.90    5.48   0
   3   3 -15    0.66    2.33   0
   3   4 -15   63.97    2.93   0
  -1   6 -11    0.89    2.91   0
   2   1 -13  170.35    5.79   0
  -2   5  -9   18.20    2.97   0
  -1   5 -11    1.30    2.79   0
   0   3 -12   22.82    3.02   0
   1   6 -13    5.18    2.74   0
   4   1 -14   15.00    3.17   0
  -1   3 -10   21.38    2.74   0
   0   2 -11   58.72    3.93   0
   0   6 -12  101.47    4.09   0
   2   3 -14    2.52    2.05   0
   2   5 -14   94.51    3.42   0
   4   0 -13   28.48    3.02   0
   1   3 -13   56.43    3.86   0
   2   4 -14  277.94    6.18   0
   3   2 -14   60.20    4.38   0
   0   4 -12   76.12    4.21   0
   0   5 -12   91.49    4.56   0
   2   0 -11  266.56    6.62   0
   3   5 -14   75.89    2.84   0
  -1   4 -10  387.64    8.35   0
  -1   6 -10   25.61    2.86   0
   1   2 -12   88.09    4.46   0
   1   5 -13   24.71    2.88   0
   2   6 -13   64.29    2.61   0
   3   0 -12  159.15    5.10   0
   1   7 -11    4.05    2.48   0
   2   1 -12    2.45    2.75   0
   2   2 -13   58.14    3.75   0
   3   1 -13   78.14    3.94   0
   3   3 -14   42.19    3.59   0
   4   2 -14  119.31    4.42   0
  -1   5 -10    0.47    2.34   0
   0   3 -11   12.29    2.65   0
   3   4 -14    0.96    2.36   0
   5   2 -14    3.12    2.35   0
   0   6 -11   95.20    4.38   0
   1   6 -12   35.58    3.41   0
   4   4 -14   19.39    2.36   0
   5   3 -14   30.19    2.53   0
   1   3 -12    8.26    2.89   0
   2   3 -13    9.17    2.81   0
  -1   6  -9   -0.44    2.35   0
   0   4 -11   18.25    2.90   0
   0   5 -11   -0.01    2.60   0
   2   5 -13   12.70    2.71   0
   4   0 -12   62.83    3.80   0
   4   1 -13   64.31    3.69   0
   6   1 -13   22.95    2.86   0
   1   2 -11  476.60    8.66   0
   2   4 -13  317.76    6.37   0
   1   4 -12   20.74    2.74   0
   2   6 -12    0.82    2.34   0
   3   0 -11  233.85    6.11   0
   4   5 -13  138.44    3.29   0
   5   1 -13  135.76    4.64   0
   0   3 -10   11.95    2.37   0
   2   1 -11    7.40    2.26   0
   2   2 -12   73.94    3.90   0
   3   1 -12   -0.03    2.23   0
   3   6 -12   36.26    2.77   0
   0   6 -10    6.36    2.61   0
   3   3 -13   39.35    3.03   0
   5   4 -13   77.79    3.13   0
   6   2 -13    1.19    2.13   0
   1   6 -11    8.15    2.62   0
   2   7 -10   37.13    2.68   0
   3   4 -13    4.97    2.22   0
   4   2 -13  278.05    5.99   0
   0   5 -10    4.27    2.18   0
   1   3 -11   -1.04    1.98   0
   2   3 -12  223.34    6.35   0
   4   4 -13   14.07    2.74   0
   5   2 -13   21.19    2.59   0
   2   5 -12    1.38    2.14   0
   4   3 -13   19.60    2.78   0
   1   4 -11   47.37    3.37   0
   2   4 -12    4.15    2.27   0
   4   0 -11   18.00    2.87   0
   4   1 -12    0.43    2.16   0
   0   6  -9  159.45    5.27   0
   2   2 -11   13.72    2.54   0
   2   6 -11   16.39    2.39   0
   3   1 -11   -0.67    2.37   0
   3   5 -12    5.63    2.38   0
   3   6 -11  221.94    4.25   0
   4   5 -12  173.52    3.86   0
   6   1 -12   10.73    2.77   0
   1   6 -10   24.42    2.68   0
   2   7  -9    2.04    2.50   0
   3   3 -12  177.79    5.03   0
   5   1 -12   75.86    3.55   0
   0   5  -9  160.06    4.51   0
   1   3 -10   27.20    2.55   0
   3   4 -12  127.85    4.63   0
   5   0 -11    3.79    2.60   0
   2   3 -11   44.65    3.21   0
   5   4 -12  100.08    3.29   0
   6   2 -12    5.14    2.24   0
   0   6  -8   85.68    3.80   0
   1   5 -10  282.48    5.93   0
   4   3 -12   10.81    2.97   0
   4   4 -12    0.31    1.99   0
   5   2 -12    5.23    2.81   0
   5   5 -11    4.01    2.05   0
   2   6 -10   11.99    2.26   0
   4   6 -10   18.31    2.24   0
   5   3 -12    0.43    2.43   0
   6   4 -11    3.94    2.27   0
   1   6  -9   25.61    2.95   0
   3   2 -11   68.03    3.20   0
   4   0 -10   82.74    3.84   0
   4   1 -11   51.58    2.94   0
   7   2 -11  197.61    3.82   0
   3   6 -10  320.66    5.25   0
   4   5 -11   65.55    3.01   0
   3   3 -11  116.97    4.41   0
   3   4 -11   63.04    3.55   0
   5   1 -11  151.79    4.30   0
   6   1 -11    9.38    2.62   0
   1   5  -9   82.67    3.55   0
   2   3 -10  173.90    4.44   0
   5   0 -10   66.24    3.34   0
   5   4 -11  218.72    4.54   0
   5   5 -10   43.95    2.81   0
   2   4 -10   14.65    2.41   0
   2   6  -9  128.46    3.84   0
   4   4 -11   39.56    3.09   0
   4   6  -9  110.97    3.41   0
   6   2 -11   78.25    3.41   0
   1   6  -8    6.22    2.50   0
   3   6  -9  217.34    4.60   0
   4   3 -11    4.01    2.31   0
   5   2 -11    4.95    2.63   0
   5   3 -11   16.45    2.91   0
   6   4 -10  135.27    3.69   0
   3   2 -10    0.74    1.86   0
   3   5 -10   36.24    2.78   0
   4   1 -10   67.59    3.63   0
   4   5 -10    2.61    2.26   0
   7   1 -10   18.70    2.82   0
   8   1  -9   16.65    2.36   0
   7   2 -10  110.89    3.41   0
   3   3 -10  111.80    4.01   0
   3   4 -10    7.07    2.50   0
   1   5  -8   61.51    3.08   0
   2   5  -9   -0.23    2.24   0
   2   6  -8   21.65    2.64   0
   4   6  -8   85.20    3.32   0
   5   1 -10  161.42    4.65   0
   5   4 -10  338.26    5.91   0
   1   6  -7   58.49    3.22   0
   2   4  -9  861.44    9.22   0
   4   4 -10   93.87    3.46   0
   6   1 -10  132.88    4.09   0
   6   3 -10    0.53    2.28   0
   3   6  -8   30.74    2.71   0
   6   2 -10  116.33    4.28   0
   4   3 -10   72.48    3.57   0
   4   5  -9   11.98    2.27   0
   5   0  -9  196.73    4.44   0
   5   3 -10   36.05    2.81   0
   6   4  -9   77.48    3.07   0
   4   6  -7   84.27    3.37   0
   7   1  -9   90.70    3.92   0
   7   2  -9   52.22    2.81   0
   8   1  -8    7.32    2.06   0
   2   6  -7   74.86    3.04   0
   3   3  -9  158.29    4.04   0
   3   4  -9  298.76    5.76   0
   5   5  -8   34.61    2.69   0
   3   6  -7    7.17    2.35   0
   5   4  -9  149.97    4.43   0
   6   3  -9   27.46    3.02   0
   7   3  -8   91.21    3.27   0
   2   4  -8   26.22    2.47   0
   4   4  -9  110.69    3.98   0
   5   1  -9    1.95    1.98   0
   6   1  -9   41.85    3.21   0
   6   4  -8   47.41    3.23   0
   6   5  -6    1.03    1.84   0
   8   2  -7    1.79    1.73   0
   4   3  -9   44.07    2.82   0
   4   5  -8   29.06    2.86   0
   4   6  -6    0.10    2.64   0
   6   2  -9   26.99    3.23   0
   5   3  -9   23.47    2.67   0
   7   0  -8   51.02    3.20   0
   2   6  -6   80.18    3.30   0
   5   5  -7  137.81    3.85   0
   7   2  -8    2.52    2.67   0
   8   1  -7   -1.16    2.26   0
   2   5  -7    2.44    2.00   0
   3   4  -8   78.70    3.29   0
   3   6  -6   -1.05    2.35   0
   6   0  -8   36.76    3.01   0
   7   1  -8  117.40    4.05   0
   4   6  -5   24.89    2.83   0
   5   4  -8    1.97    2.26   0
   6   3  -8   60.17    3.53   0
   7   3  -7   74.05    2.92   0
   8   2  -6    4.38    2.27   0
   3   5  -7  135.36    3.82   0
   4   4  -8    4.67    2.03   0
   2   6  -5   57.19    2.96   0
   3   6  -5   59.14    3.23   0
   4   2  -8  118.91    3.77   0
   4   3  -8   15.47    2.27   0
   5   1  -8   54.33    2.90   0
   5   3  -8   86.93    3.71   0
   2   5  -6  599.88    7.51   0
   4   6  -4   38.26    2.66   0
   8   1  -6   87.10    3.44   0
   3   4  -7   24.70    2.70   0
   5   4  -7    3.35    2.27   0
   6   4  -6   15.91    2.59   0
   7   0  -7  210.89    4.72   0
   7   3  -6  214.22    4.18   0
   8   0  -6   17.56    2.54   0
   8   2  -5   41.93    2.38   0
   4   6  -3   57.35    2.91   0
   6   3  -7    3.33    2.26   0
   7   1  -7    0.75    2.03   0
   2   6  -4    7.28    2.42   0
   3   5  -6  190.85    4.39   0
   3   6  -4    4.08    2.60   0
   4   4  -7  161.83    4.16   0
   6   0  -7   44.19    3.33   0
   4   6  -2   99.69    3.24   0
   5   3  -7   33.56    2.69   0
   2   5  -5    2.88    1.80   0
   4   3  -7   31.11    2.58   0
   5   4  -6    3.23    2.24   0
   6   1  -7   53.74    3.09   0
   8   1  -5   48.41    2.73   0
   3   6  -3  126.70    3.85   0
   4   5  -5   34.71    2.97   0
   5   2  -7  178.33    4.45   0
   6   3  -6   63.65    3.64   0
   8   0  -5    2.69    2.45   0
   3   5  -5   60.19    2.90   0
   4   4  -6   32.00    2.45   0
   7   1  -6    9.44    2.83   0
   5   5  -3    6.45    2.79   0
   6   4  -4   54.90    3.11   0
   7   3  -4    2.14    2.00   0
   3   6  -2  101.54    3.41   0
   8   1  -4   11.37    2.71   0
   8   2  -2    0.69    2.28   0
   4   5  -4   68.36    3.57   0
   5   3  -6   23.35    2.69   0
   5   4  -5   21.11    2.70   0
   7   2  -5    1.73    2.38   0
   4   3  -6  373.45    5.99   0
   5   5  -2    4.52    2.33   0
   6   3  -5   51.63    3.52   0
   6   4  -3   72.68    3.41   0
   7   3  -3    7.63    2.27   0
   3   5  -4  146.25    4.14   0
   5   5  -1   20.49    2.56   0
   8   0  -4    4.97    2.24   0
   5   5   0    9.85    2.04   0
   7   1  -5   87.81    3.54   0
   8   1  -3   11.41    2.56   0
   4   5  -3  219.88    5.16   0
   5   4  -4   13.29    3.14   0
   6   4  -2    8.07    2.12   0
   7   0  -5   35.42    2.79   0
   6   4  -1    2.90    2.49   0
   3   5  -3  191.55    5.11   0
   5   3  -5   55.53    3.24   0
   7   3   0   25.73    2.21   0
   4   5  -2   38.80    2.80   0
   8   0  -3   49.95    3.02   0
   8   1  -2   21.95    2.27   0
  -4   0  13   35.58    2.02   0
  -4   3  12   10.89    1.67   0
  -4   4  11   78.53    2.13   0
  -4   1  13   33.67    1.62   0
  -3  -2  11   65.70    2.34   0
  -2  -1  11    6.55    1.18   0
  -6   0  13  120.64    2.59   0
  -6   3  13    5.28    1.46   0
  -3   0  12  181.60    3.29   0
  -3   1  12   14.64    1.41   0
  -2   0  11  297.92    3.80   0
  -2   2  10   84.27    2.29   0
  -7   3  13    3.41    1.36   0
  -5   2  13  147.11    2.53   0
  -4  -2  11    2.70    1.85   0
  -6   5  11   43.47    1.62   0
  -4  -1  12    0.80    1.26   0
  -8   1  12    5.37    1.44   0
  -7   2  13    2.91    1.16   0
  -6   1  13   51.17    2.13   0
  -6   2  13   20.44    1.78   0
  -6   4  12   12.70    1.38   0
  -4   2  12   97.30    2.82   0
  -3   2  11    0.43    1.20   0
  -7   0  12    0.62    1.38   0
  -3   3  10   42.68    2.11   0
  -4   0  12   69.67    2.35   0
  -4   1  12   31.60    1.96   0
  -3  -2  10    0.65    1.32   0
  -7   5  11   33.82    1.50   0
  -5   4  11    4.86    1.51   0
  -4   3  11   38.30    1.91   0
  -4   4  10   21.75    1.74   0
  -3   1  11   80.92    2.26   0
  -8   2  12   13.88    1.51   0
  -6  -1  11    9.17    2.06   0
  -8   3  12   36.23    1.44   0
  -6   0  12    0.01    1.46   0
  -6   3  12  211.38    3.20   0
  -4  -1  11   46.05    1.94   0
  -5   1  12    6.07    1.47   0
  -7   3  12   47.08    1.79   0
  -4   2  11  157.05    3.50   0
  -3   2  10   18.90    1.59   0
  -8   1  11    9.38    1.49   0
  -7   0  11   12.33    1.71   0
  -7   2  12   28.94    1.70   0
  -6   1  12   48.48    2.04   0
  -6   2  12   -0.22    1.45   0
  -6   4  11   90.94    2.29   0
  -6   5  10   -0.03    1.33   0
  -4   0  11   15.82    1.83   0
  -3   3   9    0.80    1.45   0
  -4   1  11    0.22    1.23   0
  -8   4  11    2.02    1.18   0
  -4   3  10   15.44    1.55   0
  -4   4   9   39.23    2.18   0
  -3   1  10   59.38    2.02   0
  -8   6   9   -0.53    1.39   0
  -6   0  11   56.27    2.23   0
  -5   4  10   13.74    1.49   0
  -4  -1  10   67.54    2.29   0
  -8   2  11   27.63    1.73   0
  -8   5  10   49.44    1.96   0
  -7   5  10   26.43    1.68   0
  -5   2  11  139.49    3.05   0
  -8   3  11    9.43    1.47   0
  -6   3  11   28.45    1.74   0
  -5   1  11   -0.06    1.43   0
  -9   3  10    4.76    1.52   0
  -7   0  10   15.61    2.27   0
  -7   3  11    2.23    1.34   0
  -6   1  11   55.74    2.46   0
  -4   2  10   40.05    2.09   0
  -8   1  10   49.37    2.04   0
  -7   2  11    0.37    1.50   0
  -6   2  11   31.43    1.83   0
  -4   0  10  111.97    2.80   0
  -6   4  10  147.15    3.03   0
  -6   5   9   35.92    2.08   0
  -4   1  10  128.83    2.78   0
  -9   5   9   64.05    1.77   0
  -6   0  10  166.42    3.60   0
  -4   3   9   95.87    2.61   0
  -9   2   9    5.35    1.46   0
  -8   4  10   83.42    2.23   0
  -7   6   8   20.14    1.58   0
  -5  -1   9    1.47    2.02   0
  -5   4   9   65.67    2.56   0
  -4   4   8   87.58    2.43   0
  -8   6   8  122.52    2.58   0
  -5   2  10   10.63    1.70   0
  -8   3  10   35.19    1.93   0
  -8   5   9    7.74    1.80   0
  -7   0   9    1.31    2.26   0
  -7   1  10   21.48    1.94   0
  -7   5   9   20.48    1.63   0
  -6   3  10   82.66    2.47   0
  -5   1  10  160.71    3.29   0
  -9   3   9   19.88    1.52   0
  -8   1   9   11.43    1.83   0
  -6   1  10   10.95    1.70   0
  -6   4   9    0.26    1.55   0
  -9   2   8   54.93    2.10   0
  -9   5   8   48.19    2.15   0
  -6   0   9  225.81    4.00   0
  -6   5   8    8.97    1.49   0
  -5   0   9  202.24    3.43   0
  -9   6   7    1.69    1.31   0
  -8   4   9    1.20    1.34   0
  -7   4   9    0.14    1.81   0
  -8   3   9   33.78    2.36   0
  -7   0   8   46.54    2.52   0
  -7   1   9   10.49    1.91   0
  -7   6   7   45.83    2.24   0
  -5   1   9  100.82    3.32   0
  -5   2   9   17.16    1.82   0
  -5   4   8  138.25    2.90   0
  -9   3   8   -0.02    1.81   0
  -9   4   8   36.50    2.29   0
  -8   1   8   41.57    2.41   0
  -7   5   8  115.42    2.76   0
  -6   3   9  292.95    4.19   0
  -9   7   5    4.21    1.49   0
  -7   2   9  297.50    4.60   0
  -7   3   9  302.32    4.33   0
 -10   5   6   49.93    1.69   0
  -9   2   7  205.45    3.55   0
  -6   2   9    6.68    1.57   0
 -10   4   6   33.11    1.66   0
  -6   0   8   38.11    2.21   0
  -9   5   7   64.09    2.09   0
  -9   6   6    1.87    1.68   0
  -8   4   8   -0.35    1.89   0
  -7   0   7  232.94    4.44   0
  -6   4   8   84.71    2.51   0
  -8   1   7  144.92    3.64   0
  -7   1   8    4.30    1.77   0
  -7   4   8   25.19    2.29   0
  -6   5   7   17.03    1.71   0
  -9   3   7    5.51    1.61   0
  -9   4   7   21.13    2.17   0
  -8   3   8   91.45    2.71   0
  -7   6   6    5.20    1.90   0
  -9   2   6   44.91    2.47   0
  -9   7   4    1.11    1.60   0
  -8   6   6   91.16    3.05   0
  -7   5   7   16.55    2.23   0
  -6   3   8  137.88    3.13   0
  -5   4   7    5.46    1.48   0
 -10   4   5    2.25    1.44   0
 -10   6   4    6.26    1.55   0
  -7   2   8    1.70    1.61   0
  -7   3   8    5.44    1.70   0
  -6   2   8   70.96    2.93   0
  -6   0   7   38.03    2.45   0
  -9   5   6   23.26    1.83   0
  -8   1   6   90.00    3.31   0
  -8   2   7   65.34    2.70   0
  -8   7   4    1.14    1.61   0
  -9   6   5  153.70    2.90   0
  -8   4   7   17.06    1.94   0
  -7   1   7    0.41    1.84   0
  -6   4   7   40.14    2.11   0
 -10   4   4   -0.29    1.45   0
 -10   5   4    6.63    1.36   0
  -9   2   5   -0.34    1.77   0
  -9   4   6   21.05    1.75   0
  -8   3   7   13.12    1.86   0
  -7   4   7   63.07    2.46   0
  -6   5   6   69.18    2.40   0
 -10   6   3    1.16    1.32   0
  -9   7   3    2.81    1.72   0
  -8   6   5   22.86    1.89   0
  -7   2   7  129.19    3.27   0
  -7   5   6   12.95    1.99   0
  -7   6   5   37.25    2.18   0
  -6   1   7   71.37    2.53   0
  -6   3   7   43.72    2.46   0
  -9   5   5    1.00    1.90   0
  -8   1   5  126.09    3.65   0
  -6   0   6  274.95    4.48   0
  -6   2   7   12.80    1.55   0
 -10   5   3   55.65    1.97   0
  -9   2   4   -1.05    2.15   0
  -8   2   6  170.51    3.92   0
 -10   6   2   17.29    1.55   0
  -9   4   5   -1.16    1.55   0
  -8   3   6   34.00    2.49   0
  -8   4   6  111.73    3.14   0
  -8   7   3    7.67    1.60   0
  -7   1   6    2.40    2.01   0
  -9   7   2    0.61    1.80   0
  -7   4   6   14.45    1.62   0
 -10   6   1   10.22    1.43   0
  -9   2   3   25.49    2.13   0
  -8   1   4   86.74    3.16   0
  -8   5   5   -0.31    1.59   0
  -8   6   4   15.10    1.87   0
  -7   6   4    5.69    1.79   0
  -9   5   4   -0.15    1.51   0
  -8   2   5    2.74    1.91   0
  -7   3   6  389.28    5.29   0
  -7   5   5   32.36    2.12   0
  -6   3   6    8.03    1.58   0
 -10   5   1    8.17    1.75   0
  -9   4   4    5.64    1.66   0
  -7   1   5   18.12    2.58   0
  -9   2   2   30.30    2.07   0
  -9   7   1   12.95    1.69   0
  -8   3   5  137.95    3.42   0
  -8   4   5   10.22    1.75   0
 -10   5   0   27.39    1.65   0
  -8   1   3    4.18    1.93   0
  -9   2   1    1.72    1.82   0
  -9   3   3  172.62    3.71   0
  -9   5   3    6.14    1.61   0
  -8   5   4   -0.94    2.05   0
  -7   4   5  153.51    3.52   0
  -9   4   3   -0.46    2.00   0
  -8   2   4   24.37    2.30   0
  -9   7   0    1.46    1.52   0
  -8   1   2    1.80    2.21   0
  -7   3   5   56.56    2.47   0
  -7   5   4   19.90    2.12   0
  -7   6   3   36.71    2.14   0
  -6   5   4   43.56    2.09   0
  -9   3   2   60.39    2.84   0
  -8   3   4    7.03    1.90   0
  -8   4   4   92.34    3.18   0
  -8   7   1   17.12    1.98   0
  -7   1   4  286.71    4.94   0
  -9   5   2   44.54    2.67   0
  -9   4   2    9.53    1.68   0
  -9   6   1   19.95    1.96   0
  -9   7  -1    0.81    1.52   0
  -8   2   3    1.63    2.31   0
  -9   3   1   15.27    2.47   0
  -8   6   2    5.84    1.97   0
  -7   4   4   76.50    3.26   0
  -9   7  -2   -0.76    1.45   0
  -8   7   0   27.76    2.59   0
  -9   3   0    3.90    2.14   0
  -9   5   1    4.90    1.65   0
  -9   6   0   22.57    1.90   0
  -9   7  -3   56.30    2.13   0
  -8   3   3    8.49    1.95   0
  -8   4   3   12.75    1.93   0
  -7   1   3  244.08    4.56   0
  -7   3   4    3.92    1.79   0
  -7   6   2    3.90    2.08   0
  -9   4   1   27.48    2.08   0
  -6   5   3    0.17    1.36   0
  -9   3  -3   14.28    1.76   0
  -9   3  -1   98.79    2.74   0
  -9   3  -2   36.08    2.05   0
  -9   4   0   20.67    2.45   0
  -9   5   0   53.08    2.29   0
  -9   6  -1  120.81    2.86   0
  -8   6   1   12.81    1.96   0
  -8   7  -1   88.28    3.14   0
  -8   3   2  109.88    3.53   0
  -7   2   3   95.53    3.64   0
  -7   4   3  174.86    4.45   0
  -9   4  -1    1.69    2.00   0
  -9   6  -2    8.61    1.70   0
  -8   2   1   50.23    2.71   0
  -8   4   2   88.00    3.10   0
  -7   1   2   66.45    2.99   0
  -9   5  -1  177.87    3.51   0
  -9   6  -4    2.08    1.65   0
  -9   6  -3   30.47    1.73   0
  -7   3   3  108.04    3.06   0
  -7   6   1   15.49    1.92   0
  -9   5  -2    7.17    2.12   0
  -8   5   1   66.11    2.80   0
  -8   7  -2  131.62    3.29   0
  -6   6   1  728.81    7.30   0
  -9   5  -4   19.02    2.01   0
  -9   5  -3    0.79    1.80   0
  -8   2   0   61.52    2.85   0
  -8   4   1   10.81    1.81   0
  -8   7  -3  126.26    3.37   0
  -7   2   2  410.41    5.79   0
  -8   2  -1  339.61    5.41   0
  -7   4   2   40.38    2.27   0
  -8   5   0   41.91    2.37   0
  -8   7  -6   27.82    1.91   0
  -8   7  -4   24.64    2.12   0
  -7   3   2    0.17    1.46   0
  -7   6   0    4.86    2.19   0
  -8   2  -3    0.01    2.16   0
  -8   2  -2   11.13    2.28   0
  -8   7  -5   -0.41    1.43   0
  -8   4   0    7.01    1.81   0
  -7   1   0    1.30    2.14   0
  -6   6   0  118.17    3.16   0
  -8   5  -1    2.55    2.01   0
  -7   2   1   81.54    2.85   0
  -8   3  -6    2.75    1.74   0
  -7   4   1   73.39    2.62   0
  -7   7  -3    2.41    2.01   0
  -8   4  -1    6.34    1.84   0
  -8   6  -7    3.13    1.61   0
  -8   6  -3   58.41    2.47   0
  -7   1  -1  292.14    5.34   0
  -7   3   1    7.00    1.67   0
  -7   6  -1    8.34    1.92   0
  -8   3  -2   26.95    2.26   0
  -8   5  -2   12.75    1.87   0
  -7   5   0    7.74    1.67   0
  -8   3  -5   38.94    2.09   0
  -8   3  -4    4.88    2.23   0
  -8   3  -3   35.71    2.33   0
  -8   4  -2   80.67    2.87   0
  -8   6  -6   37.29    1.83   0
  -8   6  -5   -0.06    1.81   0
  -8   6  -4   12.09    2.03   0
  -7   1  -2   26.27    2.38   0
  -7   2   0  217.98    4.27   0
  -7   7  -4    8.85    1.92   0
  -8   5  -7    7.65    1.55   0
  -8   5  -3    2.62    2.00   0
  -7   1  -3    3.88    2.37   0
  -6   6  -1    1.85    1.58   0
  -8   4  -6    1.94    1.51   0
  -8   4  -3  214.35    4.16   0
  -7   3   0  110.27    3.08   0
  -7   4   0    3.05    1.51   0
  -7   6  -2   17.89    2.00   0
  -7   7  -7    0.14    1.74   0
  -7   7  -5    4.22    1.67   0
  -8   4  -5   39.76    2.08   0
  -8   4  -4  130.80    3.35   0
  -8   5  -5    9.51    1.76   0
  -8   5  -4   49.21    2.26   0
  -7   2  -1  112.22    3.52   0
  -7   5  -1    1.01    1.60   0
  -7   7  -6    0.34    1.68   0
  -7   6  -3    3.04    1.72   0
  -7   2  -7   -0.06    1.63   0
  -7   2  -2   61.42    2.78   0
  -7   3  -1  192.67    3.93   0
  -7   4  -1  186.24    4.04   0
  -6   6  -2   -0.01    1.40   0
  -7   5  -2    9.17    1.72   0
  -6   7  -5    0.41    1.90   0
  -7   2  -6   15.20    2.31   0
  -7   2  -3   30.61    2.31   0
  -7   6  -4   72.35    2.74   0
  -6   5  -1   49.97    2.16   0
  -6   7  -9   48.22    2.15   0
  -7   2  -5    1.59    2.21   0
  -7   2  -4   49.23    2.81   0
  -7   3  -8    5.53    1.91   0
  -7   3  -2   14.32    2.01   0
  -7   4  -9   37.55    1.81   0
  -7   4  -2  147.18    3.56   0
  -7   5  -9   63.41    2.04   0
  -6   7  -6   10.82    2.19   0
  -7   5  -3  136.72    3.43   0
  -6   6  -3   64.79    2.97   0
  -6   7  -8   35.39    1.96   0
  -6   7  -7   37.75    2.04   0
  -7   3  -7  151.57    3.41   0
  -7   4  -8    2.67    1.82   0
  -7   4  -3    8.92    1.81   0
  -7   5  -8    2.03    1.53   0
  -7   5  -4   23.81    2.06   0
  -6   1  -2   24.44    2.43   0
  -7   5  -7    9.54    1.98   0
  -7   5  -5   -1.47    1.63   0
  -6   5  -2  269.05    4.36   0
  -7   4  -7   24.88    1.99   0
  -7   4  -4    4.31    1.65   0
  -7   5  -6   25.61    2.02   0
  -6   6 -10   55.17    1.91   0
  -6   6  -4    4.72    1.70   0
  -7   4  -6   23.23    2.13   0
  -7   4  -5   34.24    2.12   0
  -6   1  -7    2.92    1.72   0
  -6   1  -3    9.60    1.88   0
  -6   1  -6   46.92    2.77   0
  -6   1  -4   31.42    2.54   0
  -6   2  -9   41.03    2.26   0
  -6   6  -5    5.81    1.66   0
  -6   1  -5    1.39    1.76   0
  -6   2  -2   53.48    2.40   0
  -6   4  -2    6.49    1.38   0
  -6   6  -9   14.22    1.60   0
  -6   6  -8    5.88    1.97   0
  -6   6  -7  174.83    3.66   0
  -6   6  -6    9.32    1.77   0
  -5   6  -4  105.56    2.78   0
  -6   2  -3  187.16    3.91   0
  -6   5 -10    3.01    1.44   0
  -6   2  -8    0.38    1.62   0
  -6   4 -10    0.06    1.47   0
  -6   4  -3    5.61    1.44   0
  -5   1 -10   41.17    2.20   0
  -5   6 -11   -0.37    1.68   0
  -6   3  -3   18.72    1.70   0
  -1   3  -5  122.22    1.95   0
   0   3  -9  140.10    3.59   0
   0   3  -8  605.88    6.43   0
   2   1  -5  210.12    2.79   0
   4  -1  -7    1.42    1.09   0
   0   3 -10   14.41    2.07   0
   0   3 -11    9.39    2.85   0
   0   3  -7   12.50    1.11   0
   3   0  -5   61.89    1.63   0
   1   2  -5  137.44    2.26   0
   3  -1  -3    0.74    0.53   0
   3   1 -10  188.95    4.72   0
   4  -1  -6  216.34    3.45   0
   2   2 -10   47.24    2.75   0
   2   2  -9   54.33    2.53   0
   3   1 -11    1.71    1.95   0
   3   1  -8   56.69    2.54   0
   0   3  -6  149.70    2.48   0
   2   2  -8   26.88    1.68   0
   4   0  -9   51.52    2.68   0
   2   1  -4   24.04    0.95   0
   3   1  -7  722.39    6.87   0
  -1   3  -4  544.57    3.35   0
   1   3 -11   -1.59    2.69   0
   1   3  -9  131.19    3.68   0
   3   0  -4 1307.58    6.27   0
   0   3  -5   25.64    1.19   0
   1   2  -4  173.24    2.31   0
   3   1  -6  167.37    3.15   0
   1   3  -7   53.97    1.97   0
   2   0  -2   79.29    1.13   0
   2   2  -6   72.60    2.13   0
   5  -1  -9   87.32    3.62   0
   1   1  -2   41.83    0.81   0
   3   2 -10    0.38    1.85   0
   3   2  -9   58.32    2.91   0
   4   1 -10   60.59    3.72   0
   0   4  -9    3.68    2.07   0
   1   3  -6  661.32    5.77   0
   2   3 -10  191.53    5.29   0
   3   1  -5   39.09    1.56   0
   4  -2  -3   54.04    1.26   0
   4  -1  -4   -0.21    0.60   0
   4   1  -9  136.81    4.08   0
   2   1  -3  165.69    2.03   0
   2   2  -5    7.62    0.88   0
   3   2  -8  545.92    6.72   0
   0   4  -8   73.22    2.58   0
   4   1  -8    1.75    1.42   0
   0   3  -4  403.23    3.49   0
   0   4  -7  119.72    2.87   0
   1   2  -3  438.91    3.23   0
   3   2  -7  118.97    3.15   0
   4   1  -7    9.97    1.75   0
   5  -1  -6  257.00    4.23   0
   5   0  -8  114.92    4.14   0
  -1   3  -3   90.64    1.26   0
   1   4 -10    9.21    2.57   0
   2   3  -7  134.50    3.39   0
   1   4  -9   -0.69    1.75   0
   2   2  -4  402.80    3.90   0
   3   1  -4  634.65    5.12   0
   3   2  -6  141.30    3.18   0
   1   4  -8  313.45    5.21   0
   4   1  -6  232.48    4.37   0
  -1   4  -5 1037.77    5.47   0
   0   4  -6   60.12    1.92   0
   4  -1  -3   14.69    0.94   0
   2   3  -6  215.06    3.84   0
   3   3  -9  163.55    4.82   0
   4   0  -4  171.16    2.88   0
   4   2  -9  463.61    7.51   0
   5  -1  -5    2.41    1.07   0
   1   4  -7  283.68    4.77   0
   2   1  -2   38.51    0.99   0
   3   2  -5  656.31    6.30   0
   3   3  -8   68.29    2.97   0
   4   2  -8  120.48    3.74   0
   5   0  -6  236.09    4.58   0
   6  -1  -8    1.69    2.50   0
   0   3  -3  450.66    3.44   0
   4   1  -5  576.68    6.24   0
   2   0  -1  346.65    2.14   0
   1   1  -1  396.79    2.17   0
   1   4  -6  162.19    3.35   0
   2   3  -5  613.68    5.95   0
   3   1  -3  108.32    2.05   0
   3   3  -7    0.46    1.49   0
   4   2  -7    1.39    1.60   0
   1   2  -2  960.42    4.48   0
   2   2  -3  645.17    4.76   0
   6  -1  -7   67.13    2.99   0
   5  -1  -4  140.54    2.81   0
  -1   4  -4  113.90    1.83   0
   4   0  -3  398.81    3.96   0
   2   4  -7  119.04    3.34   0
   3   2  -4   26.30    1.43   0
   3   3  -6   10.19    1.53   0
   4   2  -6  156.29    3.84   0
   6   0  -8   35.87    2.93   0
   3  -1  -1    3.15    0.37   0
   4   1  -4    8.69    1.07   0
   6  -1  -6  105.39    3.33   0
   1   4  -5  496.57    5.26   0
   2   3  -4   30.08    1.45   0
   4  -1  -2  210.14    2.35   0
   0   4  -4    1.43    0.57   0
   4   3  -8   17.64    2.46   0
   6   0  -7   40.25    3.18   0
   2   4  -6    0.34    1.35   0
  -1   3  -2   63.15    0.97   0
   3   3  -5    1.27    1.14   0
   4   2  -5  211.02    4.27   0
   5   0  -4   18.12    1.71   0
   0   3  -2  231.95    2.21   0
   2   2  -2   94.62    1.73   0
   3   1  -2    7.09    0.70   0
   4   3  -7   28.93    2.51   0
   0   5  -6    1.94    1.43   0
   1   5  -7   93.92    3.16   0
   2   1  -1  891.42    4.19   0
   3   2  -3    9.05    1.01   0
   5  -1  -3    7.97    1.03   0
   5   1  -5   44.19    2.47   0
   5   2  -7  174.70    4.77   0
   1   4  -4   92.99    2.29   0
   3   0  -1  232.65    2.21   0
   4   0  -2   33.05    1.20   0
   1   2  -1  469.87    3.00   0
   4   2  -4  195.28    4.00   0
  -1   4  -3  309.39    2.66   0
   0   4  -3  428.54    3.94   0
   1   3  -2  108.64    1.81   0
   1   5  -6   12.77    1.78   0
   3   3  -4    0.12    1.14   0
   5   2  -6  428.26    6.74   0
   0   5  -5  315.51    4.11   0
   3   4  -6 1120.01   10.73   0
   2   5  -7    1.41    2.11   0
   5   0  -3    1.54    1.22   0
   5   1  -4  205.03    4.33   0
   6   0  -5   35.78    2.35   0
   4   3  -5   23.16    2.49   0
   1   4  -3   67.95    1.91   0
   2   0   0    4.07    0.33   0
   3   2  -2   12.71    1.07   0
   5   2  -5  162.63    4.82   0
   6   1  -6  211.90    5.52   0
   1   1   0  377.63    2.27   0
   1   5  -5   58.51    2.41   0
   3   1  -1 1131.37    5.89   0
   3   4  -5   81.68    3.19   0
   4  -1  -1  712.52    4.18   0
   2   2  -1    3.09    0.65   0
   2   3  -2  166.71    2.75   0
   3   3  -3  288.30    4.58   0
   4   2  -3   24.24    1.72   0
   5  -1  -2    2.28    1.01   0
   0   5  -4  160.31    3.22   0
   6   0  -4   87.08    2.98   0
   6   1  -5  139.96    4.48   0
   4   0  -1  193.93    2.56   0
   4   3  -4  413.86    6.35   0
   1   3  -1  115.83    1.90   0
   1   5  -4   -0.28    1.65   0
   2   1   0 2172.84    6.67   0
   2   5  -5    4.53    1.83   0
   3   4  -4   48.93    2.81   0
   5   0  -2  163.69    3.46   0
   3  -1   0   64.04    1.05   0
  -1   4  -2   13.23    0.75   0
   1   4  -2    4.93    0.84   0
   3   0   0    3.43    0.49   0
   3   2  -1   19.45    1.32   0
   1   2   0   44.34    1.05   0
   4   2  -2  164.31    3.36   0
  -1   3  -1   73.21    1.10   0
   0   2   0    0.31    0.25   0
   0   5  -3  201.63    3.39   0
   2   3  -1  152.59    2.71   0
   4   3  -3  391.70    6.02   0
   6   0  -3    5.53    1.73   0
   1   5  -3   67.45    2.60   0
   2   2   0  524.39    4.00   0
   2   4  -2    0.52    1.05   0
   3   1   0   53.91    1.39   0
   3   4  -3  257.55    5.15   0
   5  -1  -1  326.47    3.54   0
   0   4  -1   78.94    1.83   0
   4  -1   0  904.45    4.93   0
   5   0  -1   25.65    1.79   0
   1   3   0   28.31    1.11   0
   1   4  -1  201.05    3.07   0
   3   3  -1  213.16    3.96   0
   4   0   0  194.25    2.55   0
   4   2  -1   91.88    2.79   0
   4   3  -2   41.19    2.59   0
   2   5  -3  772.82    8.78   0
   3   2   0   10.19    1.04   0
   0   5  -2  204.60    3.43   0
   3   4  -2   79.42    3.03   0
   5   2  -2   27.03    2.46   0
   6   0  -2  381.88    5.93   0
   1   1   1  143.39    1.59   0
   1   5  -2  375.95    5.17   0
   1   6  -4  402.23    6.44   0
   2   1   1  257.30    2.56   0
   2   3   0  482.98    4.72   0
   4   1   0  833.03    6.20   0
   5   1  -1  132.14    3.30   0
  -1   4  -1 1340.08    6.15   0
   1   2   1   61.43    1.33   0
   3   0   1  181.31    2.25   0
   2   2   1   56.12    1.52   0
   2   5  -2    2.09    1.92   0
   3   1   1   49.81    1.46   0
   6   1  -2    2.66    2.51   0
   1   6  -3   16.57    2.40   0
   3   3   0  177.11    3.65   0
   3   4  -1  169.28    4.27   0
   4   2   0  767.27    7.03   0
   5  -1   0    3.02    1.06   0
   5   0   0   95.34    2.72   0
   5   2  -1  133.56    4.49   0
   0   5  -1   68.11    2.41   0
   3  -1   1   10.79    0.63   0
  -1   3   0   -0.42    0.35   0
   0   2   1  161.23    1.82   0
   1   3   1   61.75    1.64   0
   1   5  -1  422.77    5.51   0
   3   2   1   52.52    1.86   0
   4   0   1   48.18    1.53   0
   5   1   0   11.62    1.75   0
   2   5  -1    7.25    2.10   0
   4  -1   1   66.49    1.53   0
   6   1  -1    9.77    2.71   0
  -1   5  -1   68.02    1.93   0
   1   6  -2    0.48    1.96   0
   2   1   2  246.54    2.84   0
   4   3   0    5.46    1.80   0
  -1   4   0  144.16    2.29   0
   3   3   1    1.77    1.17   0
   3   4   0   12.60    1.98   0
   5   2   0   16.27    2.48   0
   1   2   2  326.17    3.30   0
   1   5   0  331.54    5.37   0
   2   2   2   89.37    2.19   0
   0   4   1   27.66    1.58   0
   0   5   0  295.57    4.36   0
   1   1   2   26.00    0.86   0
   2   4   1  540.44    6.79   0
   3   0   2  839.91    5.62   0
   5   0   1    0.99    1.49   0
   3   2   2  140.28    3.15   0
   1   3   2  320.50    4.15   0
   2   5   0    6.66    2.05   0
   5   1   1   66.41    2.70   0
   1   6  -1    0.08    2.11   0
   4   0   2   17.18    1.33   0
   4   1   2    0.04    1.16   0
   4   3   1   38.80    3.12   0
   3   4   1    1.26    1.91   0
  -1   5   0   32.13    1.65   0
   0   2   2  631.40    4.25   0
   5   2   1   99.59    4.24   0
  -1   3   1   -0.04    0.46   0
   1   5   1   35.81    2.32   0
  -1   4   1   62.42    1.71   0
   0   5   1  286.48    4.76   0
   2   1   3    0.36    0.73   0
   3  -1   2    2.03    0.65   0
   4  -1   2    2.71    0.89   0
   2   4   2  523.45    7.37   0
   0   6   0  149.23    3.88   0
   1   0   2   52.42    1.08   0
   1   2   3  710.47    5.85   0
   3   2   3    2.09    1.20   0
   5   0   2   78.67    2.94   0
   5   1   2  243.03    5.19   0
   1   3   3  245.44    3.93   0
   2   3   3   33.47    1.98   0
   3   0   3  357.78    4.23   0
   1   1   3  513.50    4.05   0
   3   4   2   28.55    2.74   0
   0   1   2   22.28    0.77   0
   4   0   3  187.19    4.03   0
   1   5   2  146.31    4.45   0
   0   3   3    6.06    0.95   0
   0   5   2    2.24    1.56   0
   1   4   3   13.10    1.77   0
   2  -1   2    3.99    0.52   0
  -1   3   2   15.93    1.05   0
  -1   4   2    0.38    0.83   0
   0   2   3   47.71    1.50   0
   2   2   4  263.10    4.93   0
   0   4   3   34.73    2.05   0
   3   2   4    8.21    1.74   0
   5   0   3    2.08    2.17   0
   5   1   3   18.73    3.21   0
   3  -1   3    1.61    0.86   0
   4  -1   3    2.13    0.91   0
  -1   5   2   92.49    3.16   0
   1   5   3   32.95    2.92   0
   3   0   4   20.37    1.35   0
   4   1   4    6.34    2.27   0
   0   5   3   36.09    2.96   0
   1   1   4  513.06    5.00   0
   0   3   4    1.45    0.97   0
   0   6   2  336.36    6.84   0
   1   0   3 2096.58    8.28   0
   1   4   4   82.14    3.59   0
   4   0   4  579.46    7.26   0
   4   2   4   19.08    2.80   0
  -1   4   3  503.59    6.00   0
   0   1   3 3776.03   11.36   0
  -1   3   3    8.53    0.92   0
   0   2   4   98.78    2.54   0
   0   4   4  355.31    5.92   0
   2   2   5  981.61    9.88   0
   2   1   5  150.62    3.51   0
   2   3   5   21.96    2.64   0
   3   1   5    0.74    1.69   0
   3   2   5    2.83    2.17   0
  -1   5   3  195.96    4.58   0
   1   2   5   38.16    2.03   0
   1   3   5    0.87    1.48   0
  -2   4   1   10.68    0.91   0
   2  -1   3 2036.60    8.67   0
   0   5   4  167.42    4.95   0
   1   4   5    7.98    2.40   0
   3  -1   4  177.89    3.40   0
   3   0   5    1.21    1.63   0
   4  -1   4  114.31    3.09   0
   4   1   5   57.86    3.58   0
   0   3   5   37.59    2.22   0
  -1   4   4  581.10    7.21   0
   2   0   5   16.33    1.91   0
   4   0   5  563.80    8.55   0
  -1   3   4    0.98    0.93   0
   0   1   4   35.74    1.49   0
   0   2   5   92.97    2.88   0
   2   2   6  313.11    6.61   0
  -2   4   2   10.70    1.11   0
   2   3   6   11.36    3.11   0
   1   2   6    2.96    1.57   0
   1   3   6   17.01    2.42   0
   3   1   6   43.65    3.16   0
   0   5   5  104.47    4.55   0
   1   4   6  125.72    5.34   0
   2  -1   4 1195.87    8.71   0
  -1   4   5    1.62    1.91   0
   0   3   6  485.25    8.36   0
   3   0   6   21.49    2.30   0
   6   0  -9  230.20    5.07   0
   6   2 -10  114.01    3.90   0
   2   5  -9    3.52    1.89   0
   4   3 -10   74.65    3.77   0
   4   4 -10   89.46    3.62   0
   5   2 -10   49.51    3.12   0
   5   5  -9    4.60    2.25   0
   7   2  -9   52.25    3.25   0
   2   4  -9  850.58    8.30   0
   4   1  -9  135.93    4.05   0
   4   6  -8   78.30    3.03   0
   5   3 -10   39.60    2.81   0
   8   2  -7    0.21    2.17   0
   7  -1  -7    0.61    2.65   0
   7   0  -8   53.57    3.47   0
   8   0  -7    0.77    1.88   0
   3   5  -9   13.49    2.29   0
   4   5  -9   15.00    2.39   0
   5   1  -9    2.44    2.38   0
   6   1  -9   46.92    3.07   0
   7   3  -8   86.61    3.34   0
   8   1  -7   -0.06    2.26   0
   3   6  -8   27.60    2.69   0
   6  -1  -7   66.04    2.94   0
   6   3  -9   30.32    2.47   0
   3   3  -9  150.19    4.20   0
   3   4  -9  291.45    5.66   0
   4   2  -9  516.72    7.15   0
   6   0  -8   38.61    2.75   0
   6   2  -9   24.75    2.67   0
   5   2  -9   17.01    2.78   0
   5   5  -8   33.58    2.54   0
   6   4  -8   44.24    2.99   0
   7   2  -8    3.69    2.28   0
   8   0  -6   16.82    2.72   0
   8   2  -6    2.52    1.85   0
   2   5  -8  194.02    4.63   0
   4   3  -9   44.00    3.19   0
   4   4  -9  111.69    3.69   0
   5   3  -9   23.38    2.59   0
   4   6  -7   78.84    3.22   0
   7  -1  -6    2.49    2.04   0
   7   0  -7  237.87    4.98   0
   8   1  -6   88.85    3.09   0
   6   1  -8   34.45    2.78   0
   7   3  -7   62.17    2.83   0
   3   5  -8    6.01    2.23   0
   4   5  -8   33.86    2.64   0
   5   1  -8   48.90    2.85   0
   6   3  -8   53.28    3.02   0
   3   6  -7    5.43    2.56   0
   5   4  -8   -1.07    2.74   0
   6   0  -7   44.90    2.64   0
   6   2  -8   25.81    2.82   0
   7   1  -7    0.33    2.21   0
   7   2  -7   12.07    2.24   0
   8   0  -5    1.48    2.11   0
   6   5  -5    0.99    2.05   0
   8   1  -5   40.93    2.51   0
   3   4  -8   78.16    3.39   0
   4   2  -8  129.94    3.65   0
   4   4  -8    5.15    2.59   0
   5   2  -8    3.73    1.98   0
   7   3  -6  172.27    4.11   0
   8   2  -4   87.11    2.75   0
   4   3  -8   16.94    2.10   0
   4   6  -6    0.02    2.14   0
   5   3  -8   93.29    3.56   0
   2   5  -7    1.63    2.45   0
   8   0  -4    3.88    2.14   0
   8   2  -3    4.12    2.01   0
   4   5  -7   88.12    3.37   0
   6   3  -7    3.01    2.20   0
   6   5  -4   13.86    1.85   0
   7   1  -6   10.75    2.85   0
   7   2  -6    2.24    2.00   0
   8   1  -4   13.01    2.21   0
   3   5  -7  139.45    4.12   0
   3   6  -6   -0.35    2.53   0
   5   1  -7    9.01    1.78   0
   5   4  -7    4.08    2.56   0
   6   0  -6  296.72    5.53   0
   6   2  -7  136.38    4.21   0
   6   4  -6   17.46    2.50   0
   7   3  -5   83.18    3.47   0
   8   0  -3   42.77    2.81   0
   4   6  -5   22.36    2.75   0
   7   0  -5   36.10    2.80   0
   8   1  -3    7.94    1.99   0
   3   4  -7   24.13    2.31   0
   5   2  -7  177.51    4.47   0
   5   3  -7   34.92    2.62   0
   4   3  -7   31.27    2.36   0
   6   3  -6   60.38    3.21   0
   6   4  -5   37.47    2.77   0
   7   1  -5   84.03    3.47   0
   7   3  -4   -0.37    1.90   0
   4   5  -6   43.54    3.10   0
   6   2  -6   29.74    3.11   0
   8   1  -1   86.44    2.96   0
   2   5  -6  613.86    7.06   0
   3   6  -5   63.83    3.59   0
   5   4  -6   -0.08    2.35   0
   3   5  -6  189.63    4.55   0
   4   6  -4   42.05    2.76   0
   6   0  -5   30.31    2.49   0
   7   0  -4   14.74    2.37   0
   7   3  -3    9.50    2.13   0
   6   4  -4   53.72    3.17   0
   5   2  -6  419.54    6.61   0
   5   3  -6   25.24    2.48   0
   6   3  -5   56.30    3.19   0
   7   1  -4    4.61    2.19   0
   7   3  -2   13.57    2.40   0
   3   4  -6 1067.38    9.84   0
   4   5  -5   30.71    3.25   0
   4   3  -6  378.80    6.20   0
   4   6  -3   55.57    2.87   0
   5   4  -5   20.41    2.55   0
   6   2  -5   69.65    3.44   0
   6   4  -3   67.40    3.38   0
   7   0  -3   47.24    3.09   0
   3   6  -4    5.11    2.13   0
   3   5  -5   57.76    3.50   0
   5   5  -3    4.02    2.26   0
   6   3  -4   59.85    3.19   0
   7   1  -3    0.45    2.29   0
   2   5  -5    1.57    1.78   0
   4   6  -2  106.14    3.51   0
   5   3  -5   57.35    3.09   0
   6   4  -2    6.40    2.25   0
   5   2  -5  160.81    4.36   0
   6   1  -4  169.01    4.64   0
   4   5  -4   66.68    3.58   0
   5   4  -4   12.63    2.46   0
   5   5  -2    6.71    2.15   0
   6   2  -4   21.60    2.61   0
   6   4  -1    5.62    2.36   0
   7   0  -2   51.54    3.09   0
   7   1  -2   68.62    3.55   0
   3   6  -3  136.69    4.20   0
   4   6  -1    1.91    2.07   0
   6   3  -3   34.93    2.96   0
   7   2  -1   15.23    2.43   0
   4   3  -5   23.24    2.22   0
   4   6   0   50.88    2.85   0
   5   5  -1   20.26    2.21   0
   6   4   0   28.66    2.31   0
   6   4   1   15.36    2.04   0
   7   2   0   46.66    2.88   0
   3   5  -4  143.77    4.60   0
   4   6   1   13.37    2.34   0
   7   0  -1    1.66    2.68   0
   7   2   1    0.22    2.20   0
   7   2   2   90.43    2.61   0
   2   6  -3   37.37    3.28   0
   5   3  -4    8.96    2.17   0
   5   4  -3  291.22    5.99   0
   5   5   1   71.73    2.98   0
   5   5   2  104.61    2.68   0
   6   2  -3  123.36    4.16   0
   6   3  -2    8.06    2.89   0
   7   1  -1   13.58    2.35   0
   3   6  -2   97.01    4.20   0
   4   4  -4    0.43    2.17   0
   5   2  -4   18.08    2.30   0
   6   1  -3   60.52    3.17   0
   7   0   0    4.10    2.56   0
   7   1   0    2.74    2.36   0
   6   3  -1   47.00    3.39   0
   5   3  -3   13.70    2.68   0
   5   4  -2  241.17    5.32   0
   7   1   1    1.18    2.28   0
   7   1   2    2.07    2.48   0
   7   1   3    3.27    1.80   0
   3   5  -3  210.17    5.18   0
   3   6  -1  279.16    5.56   0
   6   1  -2    2.69    2.25   0
   6   3   0  192.30    4.77   0
   7   0   1   85.71    3.41   0
   2   6  -2   29.83    2.98   0
   4   4  -3    5.14    1.98   0
   5   2  -3    0.02    1.80   0
   5   4  -1   97.85    3.82   0
   6   3   1  141.38    3.83   0
   6   3   2   43.58    2.88   0
   5   3  -2    4.64    2.06   0
   5   4   0  151.91    4.44   0
   6   0  -1   79.64    3.36   0
   6   1  -1    9.57    2.48   0
   3   5  -2  265.80    5.70   0
   3   6   1    1.43    2.40   0
   4   5   0   46.52    3.09   0
   2   6  -1   30.56    3.05   0
   3   6   2    1.27    2.64   0
   3   6   3   -1.43    2.47   0
   4   4  -2  120.54    4.23   0
   5   4   1    4.22    2.31   0
   5   4   4  117.02    3.06   0
   4   5   1  510.99    6.94   0
   4   5   4   87.16    3.32   0
   5   2  -2   28.86    2.38   0
   5   3  -1   38.99    3.44   0
   5   4   2   34.55    2.84   0
   5   4   3   19.07    2.28   0
   6   2   5    3.08    1.94   0
   4   5   3    7.39    2.56   0
   6   0   0  299.75    5.71   0
   6   1   0   14.24    2.47   0
   2   5  -2   -0.30    2.03   0
   2   6   0   43.60    3.52   0
   3   5  -1   97.38    4.27   0
   6   2   2   13.36    2.54   0
   6   2   3   22.53    3.03   0
   6   2   4    2.98    2.16   0
   4   4  -1   32.47    2.70   0
   5   2  -1  132.52    4.15   0
   5   3   0   64.73    3.58   0
   6   0   1  392.34    6.62   0
   6   1   1    0.93    2.35   0
   6   1   6  123.56    3.45   0
   2   6   1   21.48    2.73   0
   2   6   6    3.09    2.12   0
   3   5   0  308.09    6.39   0
   4   4   0    7.62    2.31   0
   5   3   1    7.35    2.71   0
   6   1   2    1.50    2.22   0
   6   1   5  221.84    4.59   0
   2   5  -1    6.00    2.71   0
   5   3   5    1.53    2.42   0
   6   0   2   33.25    2.99   0
   6   1   3   51.35    2.89   0
   6   1   4  254.76    5.19   0
   2   6   2    9.89    2.58   0
   4   3  -1   16.29    2.43   0
   5   2   0   17.39    2.34   0
   5   3   2    2.06    2.29   0
   5   3   3    0.54    2.75   0
   5   3   4    0.86    2.65   0
   2   6   3   53.03    3.60   0
   2   6   4    0.94    2.76   0
   2   6   5   -0.34    2.22   0
   4   4   1    1.80    2.22   0
   4   4   6    1.97    2.42   0
   6   0   3  104.92    4.33   0
   3   5   6    1.70    1.92   0
   6   0   4    6.14    2.82   0
   1   6   1    4.11    2.88   0
   4   4   2   72.42    3.63   0
   4   4   5    5.92    2.19   0
   5   2   7  256.00    4.47   0
   2   5   0    7.88    2.36   0
   3   5   4   34.12    3.34   0
   3   5   5    5.81    2.22   0
   4   3   0    6.77    2.14   0
   4   4   3    2.48    2.36   0
   4   4   4    1.08    2.51   0
   3   4   0   14.96    2.87   0
   4   3   8    1.21    2.09   0
   5   2   6    8.75    2.45   0
   1   6   2   41.25    3.40   0
   1   6   7   45.16    3.02   0
   4   3   1   40.92    3.11   0
   5   1   8    5.59    2.05   0
   2   5   1   20.46    2.82   0
   1   6   3   17.28    3.09   0
   1   6   6   13.00    2.81   0
   3   4   1    2.91    2.21   0
   3   4   8  170.75    3.97   0
   4   3   7   50.08    3.22   0
   5   1   2  241.71    5.28   0
   1   6   4   87.65    4.15   0
   1   6   5    2.16    2.97   0
   4   3   2    5.54    2.39   0
   5   1   7    4.69    2.81   0
   2   5   2    9.61    2.53   0
   3   3  10   17.15    2.41   0
   4   2   9  171.26    3.93   0
   4   3   3   38.98    3.62   0
   4   3   6  345.01    6.54   0
   5   1   3   18.85    2.61   0
   3   4   2   23.98    2.72   0
   3   4   7  130.50    4.10   0
   4   3   5  342.46    6.90   0
   5   0   8    4.50    2.63   0
   5   1   4   17.85    3.06   0
   5   1   6   54.18    3.20   0
   2   4  10   67.38    2.95   0
   2   5   3    5.48    2.57   0
   5   1   5   65.34    3.37   0
   0   6   8   10.19    2.54   0
   2   5   4   69.94    3.95   0
   3   4   3  103.06    4.31   0
   3   4   6   26.82    3.34   0
   4   1  10   40.58    2.81   0
   3   4   4   43.29    3.45   0
   3   4   5   49.02    3.38   0
   5   0   4   -1.22    2.79   0
   5   0   7   25.18    2.65   0
   5   0   5   12.87    3.05   0
   5   0   6    9.49    3.01   0
   3   3   9    7.86    2.31   0
   0   6   5   27.33    3.50   0
   0   6   6    0.43    2.95   0
   1   5   2  149.04    4.83   0
   4   2   3  377.29    6.62   0
  -1   6   9   11.58    2.58   0
   4   1   9   56.05    3.44   0
   4   2   4   16.45    2.64   0
   2   3  11   37.73    2.95   0
   3   3   8   55.48    3.42   0
   4   2   5   23.25    3.06   0
   1   5   3   38.99    3.23   0
   4   0  10   26.41    2.87   0
   1   5   4   90.43    4.54   0
   1   5   7   58.53    3.65   0
   3   3   7   10.78    2.67   0
  -1   6   8    1.50    2.23   0
   1   5   5   44.35    3.87   0
   1   5   6   89.92    4.34   0
   3   3   4   89.03    4.23   0
   3   3   6   41.99    3.61   0
   4   1   8    0.08    2.47   0
   2   4   4   70.55    3.62   0
   2   4   7   10.74    2.90   0
   3   3   5   38.02    3.34   0
   4   1   7   27.96    3.51   0
   2   4   5   37.18    3.24   0
   2   4   6   45.91    3.56   0
   3   0  12   29.05    2.83   0
   3   1  11   59.05    3.32   0
   4   0   9   22.27    3.55   0
   4   1   5   53.92    3.50   0
   4   1   6  118.85    4.84   0
   0   4  12   13.73    2.14   0
   1   4  10   15.70    2.72   0
   2   1  13    6.17    2.34   0
   2   3  10   55.91    3.45   0
   3   2   9   22.15    2.87   0
  -1   5  11    4.96    2.57   0
   0   5   9   13.33    2.94   0
   1   3  12   24.13    2.83   0
   4   0   8    3.56    2.61   0
   0   5   8    6.61    3.14   0
   2   3   9   12.24    2.88   0
   3   2   8   15.93    3.08   0
   0   5   4  165.63    5.28   0
   1   4   9    7.76    2.67   0
   3   1  10    6.13    2.53   0
   3   2   7    6.22    3.36   0
   4   0   6   80.42    3.69   0
   4   0   7    3.07    2.41   0
   0   5   5   97.90    4.69   0
   0   5   7  184.50    5.41   0
   1   2  13  304.72    5.42   0
   2   2  11   44.88    3.46   0
   3   2   5    0.60    2.35   0
   3   2   6  131.98    4.62   0
  -1   5  10   32.35    3.51   0
   0   3  13    4.91    2.51   0
   0   5   6    1.23    2.85   0
   1   4   8    1.65    2.73   0
   2   3   8    6.24    2.80   0
   3   0  11  158.78    4.68   0
   1   1  14   33.11    2.35   0
   1   3  11   70.68    3.97   0
   1   4   7    6.18    2.92   0
   2   0  13   46.85    3.24   0
   2   1  12   38.43    3.17   0
   2   3   5   24.50    2.76   0
   2   3   6    8.02    2.84   0
   3   1   9   21.19    3.35   0
  -1   3  14   22.12    2.30   0
   2   2  10   13.77    2.90   0
  -3   5  12   57.94    3.22   0
  -1   5   9  260.56    6.73   0
   0   2  14   68.17    3.00   0
   0   4  10    8.86    3.15   0
   3   0  10   15.82    3.24   0
   1   3  10   12.11    3.12   0
  -2   4  13    0.92    2.40   0
  -1   5   8  232.98    5.91   0
   1   2  12   13.64    3.00   0
   2   2   9   21.04    3.89   0
  -1   5   7   50.64    4.37   0
   0   3  12    1.46    2.58   0
   2  -1  13   78.40    3.77   0
  -2   5  10   32.66    3.45   0
  -1   5   6    1.01    3.12   0
   1   0  14   43.78    3.22   0
   1   3   9  186.54    6.73   0
   3   0   9   -0.61    2.67   0
   2   0  12    8.88    2.78   0
   2   2   8   35.17    3.34   0
  -3   5  11   15.71    3.21   0
   2   2   7   18.15    2.97   0
   3   0   8   19.38    2.95   0
  -2   5   9   17.12    3.57   0
  -1   3  13   74.88    3.94   0
   0   2  13   54.82    3.84   0
   1   2  11   56.80    4.14   0
   1   3   8  284.42    7.34   0
   0   0  15   42.15    3.17   0
   0   3  11   27.88    3.55   0
   0   4   6  626.91   10.14   0
   1   3   7  269.47    6.93   0
   3  -1   9    0.30    3.17   0
  -3   4  13    6.77    2.66   0
  -2   4  12   19.61    3.12   0
  -2   5   8   -0.35    3.55   0
   2   0  11    4.85    2.94   0
   0   0   3 3380.75    7.33   0
   1   3   2  313.14    3.28   0
   2  -2   7  241.49    3.78   0
   2   0   7  123.58    2.93   0
   3  -2   8   92.64    3.09   0
   0   2   2  634.21    3.28   0
   1   1   6   97.41    2.26   0
   0   0   4 1229.30    5.11   0
   0   1   4   29.94    1.00   0
   1  -2   6  296.78    3.33   0
   1   2   5   45.38    1.65   0
   1   3   3  238.04    3.15   0
   2   3   4   12.99    1.84   0
   3  -3   8    2.21    1.86   0
   2  -3   7  171.81    3.07   0
   2  -1   8  116.46    2.96   0
   2   1   7  121.28    3.35   0
   2   2   6  305.62    5.02   0
   3   0   8   22.97    2.28   0
   0   2   3   45.28    1.10   0
   1  -1   7  242.85    3.44   0
   1   0   7 1191.09    7.62   0
   2  -2   8  106.97    3.05   0
   2   0   8    6.14    1.74   0
   0   0   5  804.38    4.66   0
   0   1   5  836.87    5.02   0
   1   3   4   79.49    2.15   0
   3  -2   9   63.23    2.88   0
   3  -1   9    1.51    1.94   0
   0   2   4  101.31    1.75   0
   1   1   7  534.94    5.38   0
   1   2   6    5.59    1.22   0
   2   3   5   22.45    2.10   0
   1  -2   7  112.04    2.29   0
   2  -3   8    6.69    1.83   0
   2   1   8   22.77    2.40   0
   3  -3   9  159.47    4.66   0
   0   0   6  105.95    1.98   0
   1  -1   8    6.49    1.24   0
   1   0   8  462.46    5.21   0
   2   2   7   18.57    2.01   0
   0   1   6 1941.78    8.46   0
   1   3   5    1.04    1.37   0
   2  -2   9  102.32    3.11   0
   2   0   9   12.86    2.10   0
   0   3   3    4.23    0.79   0
   1  -2   8   76.57    2.40   0
   1   1   8  127.24    3.07   0
   1   2   7    0.12    1.36   0
   0   0   7   23.12    1.24   0
   2   3   6   12.33    2.23   0
   0   1   7  201.65    3.10   0
   0   3   4    0.94    0.84   0
   1   0   9   21.88    2.10   0
   2  -3   9  157.00    4.26   0
   1   3   6   14.16    1.77   0
   1  -3   7  335.31    3.80   0
   2  -2  10   26.37    2.21   0
   0   0   8   62.16    2.00   0
   0   3   5   34.03    1.44   0
   1  -2   9   78.06    2.94   0
   1   1   9  134.99    3.39   0
   1   2   8  269.46    4.43   0
   0   1   8   65.15    2.09   0
   1   3   7  253.92    4.72   0
   0   3   6  473.14    4.83   0
   1  -3   8   19.09    1.69   0
   1   0  10    1.65    1.73   0
   0   0   9  298.53    4.30   0
  -1   1   4  520.31    3.25   0
  -1   1   5   41.35    1.16   0
   0   1   9    5.92    1.47   0
   1  -2  10   21.90    2.39   0
  -1   1   6  339.46    3.34   0
  -1   2   5    0.24    0.59   0
  -1   1   3 2144.25    5.76   0
   0   3   7    2.21    1.36   0
   1  -3   9   28.08    2.41   0
  -1   0   5   89.24    1.52   0
  -1   0   6   83.85    1.65   0
   0  -2   8  127.57    2.87   0
  -1   2   7  584.49    5.11   0
   0   0  10   37.28    2.26   0
  -1   0   4  208.63    1.97   0
  -1   1   8   84.93    2.22   0
  -1   3   4    1.39    0.64   0
  -1   3   5   69.47    1.73   0
   0  -1  10  115.23    3.08   0
   0   3   8   36.86    2.54   0
  -1   0   8  449.97    4.51   0
   0  -2   9  283.54    4.55   0
   1  -2  11   31.30    2.83   0
  -1   2   2   19.27    0.57   0
  -1   2   8  189.72    3.27   0
  -1   3   3    7.67    0.61   0
  -1   3   6  158.40    2.70   0
  -1   1   9   43.41    1.95   0
   0   0  11   25.57    2.26   0
  -1  -1   7  178.71    2.63   0
  -1   0   9   10.59    1.33   0
  -1   3   7   69.98    2.17   0
   0  -1  11   58.61    3.06   0
  -1  -1   6  410.05    3.38   0
  -1   0   3    8.06    0.42   0
  -1   2   9  345.39    4.74   0
  -1  -1   5  921.02    4.49   0
  -1  -1   8  105.46    2.25   0
  -1   1  10   81.47    3.02   0
  -1   3   8   53.69    2.63   0
  -1  -1   9   46.09    2.11   0
  -1   0  10   22.38    1.82   0
  -1   3   2   13.25    0.62   0
  -1   4   5    3.40    1.19   0
  -1   2  10   43.39    2.63   0
  -1   3   9    8.74    2.09   0
   0  -2  11   71.59    3.05   0
  -1   0  11    9.19    2.11   0
  -1   1  11  576.45    6.86   0
  -2   1   6  170.82    2.42   0
  -2   2   7    1.58    0.91   0
  -1   4   7    9.88    1.52   0
  -2   1   8   14.49    1.18   0
  -2   2   5   55.57    1.40   0
  -2   1   5  141.86    1.99   0
  -2   2   9  107.63    3.22   0
  -2   3   6  791.06    5.58   0
  -2   3   7   24.48    1.48   0
  -1  -1  11   54.91    2.68   0
  -2   2   4   62.42    1.32   0
  -2   3   5  454.23    3.90   0
  -2   3   8    7.83    1.62   0
  -1  -2   8    0.07    1.06   0
  -2   0   7  443.17    4.09   0
  -2   0   8  134.43    2.87   0
  -2   0   9  333.54    5.06   0
  -2   1  10  104.37    3.03   0
  -1  -2   7   14.15    0.94   0
  -1  -2   9    4.27    1.29   0
  -2   0   6  546.20    4.13   0
  -2   2  10  104.04    3.06   0
  -2   3   4  329.53    3.07   0
  -2   3   9    3.69    2.04   0
  -2   1   4  176.28    1.99   0
  -1  -2   6  355.09    3.15   0
  -1  -2  10  218.52    4.13   0
  -2   4   6   53.39    2.23   0
  -1   3   1   -0.39    0.33   0
  -2   0   5  342.96    2.99   0
  -2   4   5    5.87    1.15   0
  -2   4   7  262.97    4.02   0
  -1  -2  11  432.21    6.85   0
  -2   2   3  399.38    2.77   0
  -2   4   8    0.39    1.64   0
  -2  -1   8  122.52    2.51   0
  -2  -1   9  237.18    3.93   0
  -2   3   3  288.62    2.54   0
  -2  -1   7   35.86    1.53   0
  -2  -1  10   41.78    2.27   0
  -1  -1   3   52.39    0.88   0
  -3   2   7   45.35    1.74   0
  -3   2   8  236.40    3.70   0
  -3   2   9   52.46    2.57   0
  -1  -2   5  126.17    1.83   0
  -3   1   8   22.91    1.67   0
  -2  -1  11    5.88    2.01   0
  -2   1   3  100.86    1.42   0
  -3   1   7  425.41    4.37   0
  -3   1   9  102.17    2.75   0
  -3   1  10   59.14    2.88   0
  -3   2   6   74.97    1.83   0
  -2  -1   6  307.54    3.58   0
  -2   0   4  704.51    3.86   0
  -3   1  11   83.84    3.24   0
  -2   4   3    2.65    0.69   0
  -3   1   6  356.34    3.69   0
  -3   2   5    0.31    0.61   0
  -3   3   5   18.30    1.09   0
  -3   4   8   65.79    2.61   0
  -3   4   6    0.19    1.18   0
  -3   4   9  324.05    5.14   0
  -3   0  11  248.37    5.18   0
  -2   3   2   38.82    0.94   0
  -3   1   5  134.92    2.23   0
  -3   4   5   25.09    1.34   0
  -2  -2   9   47.66    2.14   0
  -2  -2  10   39.43    2.34   0
  -3   3   4 1080.82    6.17   0
  -3   2   4   69.83    1.50   0
  -4   2   9  157.57    3.96   0
  -3   0   6  454.18    4.45   0
  -4   2   8    5.13    1.29   0
  -4   2  10   50.99    2.70   0
  -4   3   8   14.24    1.69   0
  -3  -1  10  180.48    4.17   0
  -3   4   4    5.54    1.02   0
  -2  -2   7   43.65    1.62   0
  -2   0   3  450.77    2.84   0
  -4   2   7  238.75    3.71   0
  -3  -1   9   40.69    2.14   0
  -3  -1  11   -0.71    2.07   0
  -2   1   2  492.60    2.73   0
  -2   4   2    8.87    0.69   0
  -4   1   9  289.01    4.69   0
  -4   1  10  139.52    3.74   0
  -4   4   8   82.33    3.18   0
  -3  -1   8   55.68    2.18   0
  -3   1   4   71.81    1.52   0
  -4   1   8    0.16    1.22   0
  -4   4   7   67.74    2.53   0
  -3   3   3  485.35    3.65   0
  -4   2   6  328.60    4.19   0
  -3   0   5   67.79    1.60   0
  -2  -1   4   24.59    0.86   0
  -4   1   7    1.00    0.98   0
  -4   4   6  189.31    3.35   0
  -3  -1   7  769.49    6.20   0
  -3   2   3   87.06    1.55   0
  -2  -2   6   69.65    1.74   0
  -4   0  10   85.19    3.59   0
  -3   4   3   18.08    1.07   0
  -4   0   9   52.16    2.46   0
  -4   0   8    0.31    1.47   0
  -4   1   6  242.10    3.56   0
  -4   2   5  306.12    3.86   0
  -4   4   5   46.03    1.92   0
  -2   3   1    3.22    0.43   0
  -5   3   9   27.87    2.20   0
  -3   1   3    0.43    0.47   0
  -5   2   9   20.60    2.21   0
  -5   3   8  146.62    3.90   0
  -3   0   4 1334.13    6.13   0
  -5   2   8   28.34    2.24   0
  -5   4   8  142.08    3.62   0
  -3   3   2  275.15    2.58   0
  -5   3   7  127.22    3.25   0
  -4   1   5  164.17    2.76   0
  -4   2   4   91.45    1.96   0
  -4   4   4    1.90    0.87   0
  -2  -2   5    8.61    0.79   0
  -2   0   2   75.67    1.11   0
  -5   1   9  119.43    3.61   0
  -5   2   7   31.31    1.95   0
  -5   4   7    5.27    1.65   0
  -4  -1  10   64.07    3.07   0
  -3   2   2   96.88    1.57   0
  -5   3   6   87.47    2.51   0
  -4  -1   9  132.18    3.52   0
  -3   4   2   16.17    0.95   0
  -5   1   8   32.84    2.29   0
  -5   4   6   38.77    2.10   0
  -3  -1   5   44.38    1.37   0
  -2  -1   3  156.69    1.78   0
  -5   2   6   52.53    2.13   0
  -4  -1   8    0.00    1.63   0
  -5   1   7  550.51    6.46   0
  -5   5   7   20.59    2.57   0
  -5   0  10   56.68    3.25   0
  -4   1   4   -0.21    0.72   0
  -3  -2   7  110.89    2.57   0
  -5   0   9  182.76    4.77   0
  -5   4   5    1.02    1.14   0
  -5   5   6   15.47    1.98   0
  -4   2   3   53.34    1.51   0
  -3   0   3  360.60    3.06   0
  -4  -1   7   10.37    1.53   0
  -3   1   2  196.34    2.14   0
  -6   3   8  153.89    4.01   0
  -5   0   8  122.10    3.89   0
  -5   2   5   70.48    2.17   0
  -5   5   5  129.35    3.56   0
  -6   2   8   83.12    3.19   0
  -6   3   7   49.80    2.55   0
  -6   4   7   36.57    2.43   0
  -5   3   4   38.13    1.70   0
  -5   4   4  106.04    2.68   0
  -3  -2   6  121.72    2.66   0
  -3  -1   4  605.33    4.76   0
  -3   3   1   19.83    0.91   0
  -5   0   7  189.68    4.14   0
  -4  -1   6  242.67    4.08   0
  -4   1   3   17.33    1.01   0
  -4   3   2   44.55    1.35   0
  -3   2   1    1.01    0.50   0
  -6   2   7   15.37    1.97   0
  -6   3   6    8.64    1.68   0
  -6   4   6  311.97    5.40   0
  -5   1   5    3.36    1.11   0
  -5   2   4  466.99    4.97   0
  -4   4   2 1475.49    6.97   0
  -3   4   1  519.34    3.64   0
  -5   5   4  305.98    4.30   0
  -6   5   6   72.46    3.23   0
  -5  -1   9    3.52    2.77   0
  -5   0   6  215.42    4.38   0
  -4   2   2   87.13    1.75   0
  -2   3   0  874.69    3.55   0
  -6   2   6  329.43    5.60   0
  -6   4   5   97.22    3.34   0
  -5   3   3    0.46    0.92   0
  -5   4   3    9.31    1.23   0
  -6   3   5  139.08    3.67   0
  -4  -1   5  591.04    5.64   0
  -3  -2   5  629.55    5.23   0
  -6   5   5   30.58    2.36   0
  -5   2   3  417.04    4.82   0
  -3   1   1    3.27    0.45   0
  -6   2   5    8.38    1.56   0
  -5   0   5   22.22    1.86   0
  -5   5   3   21.23    1.67   0
  -3  -1   3  104.43    1.94   0
  -6   1   6   99.98    3.40   0
  -6   4   4   -0.02    1.25   0
  -5  -1   7   10.78    2.17   0
  -4   0   3  394.65    3.87   0
  -4   1   2  230.83    2.87   0
  -4   3   1 1006.93    5.69   0
  -6   0   8   36.08    2.99   0
  -6   3   4   -0.03    1.33   0
  -6   5   4   40.51    2.68   0
  -5   4   2    0.11    1.02   0
  -4   4   1 2191.13    8.59   0
  -2   1   0  320.88    2.09   0
  -4   2   1    3.96    0.66   0
  -3   3   0    1.25    0.58   0
  -6   0   7   39.04    2.69   0
  -6   1   5  132.54    3.75   0
  -5   1   3    7.38    1.10   0
  -4  -1   4    7.83    1.04   0
  -5   2   2  181.22    3.05   0
  -3   2   0  279.04    2.43   0
  -7   4   5  157.34    4.41   0
  -6   3   3   80.93    2.60   0
  -3  -2   4   21.00    1.17   0
  -7   3   5   49.19    2.68   0
  -6   5   3    0.90    1.74   0
  -3   4   0   15.77    0.77   0
  -6   0   6  269.36    5.26   0
  -4   0   2   34.91    1.32   0
  -6   1   4   45.67    2.49   0
  -6   2   3  216.23    4.04   0
  -4   1   1  757.12    4.99   0
  -3  -1   2    6.93    0.80   0
  -7   4   4   81.75    2.99   0
  -5  -1   5   42.97    2.15   0
  -5   4   1   55.60    1.76   0
  -7   2   5  128.80    3.85   0
  -7   3   4    3.31    2.27   0
  -6   4   2   18.19    1.75   0
  -5   1   2    3.00    0.99   0
  -4  -1   3  558.96    5.08   0
  -4   3   0   -0.03    0.61   0
  -3   1   0   59.69    1.20   0
  -6   0   5   33.71    2.38   0
  -6   3   2  104.12    2.83   0
  -4   4   0  897.71    5.68   0
  -2  -1   1  943.11    3.98   0
  -5   2   1   19.07    1.22   0
  -4   2   0   -0.01    0.60   0
  -2   0   0    4.72    0.39   0
  -6   5   2   68.33    2.61   0
  -7   2   4    9.28    2.09   0
  -7   4   3  189.67    4.20   0
  -6   1   3  133.66    3.44   0
  -6   2   2  108.52    3.36   0
  -7   3   3   98.75    3.70   0
  -7   5   3    5.14    2.31   0
  -3  -2   3    6.97    0.91   0
  -2   2  -1  674.97    3.11   0
  -6   0   4   78.48    3.10   0
  -4   0   1  193.48    2.66   0
  -6   4   1    1.73    1.33   0
  -5   1   1  300.15    3.79   0
  -3   3  -1  639.37    3.85   0
;
_shelx_hkl_checksum              715
_shelx_res_file
;
TITL mmx1_a.res in P-1
    mmx1.res
    created by SHELXL-2017/1 at 09:29:08 on 27-Jul-2017
REM Old TITL mmx1 in P-1
REM SHELXT solution in P-1
REM R1 0.109,  Rweak 0.005,  Alpha 0.038,  Orientation as input
REM Formula found by SHELXT:  C16 N2 O2 S Cl2
CELL  1.54178   8.3836   8.4780  13.3050   97.779  101.929  114.967
ZERR    2.000   0.0003   0.0003   0.0004    0.003    0.002    0.002
LATT  1
SFAC C H N O S CL
UNIT 32 32 4 4 2 4
SIZE 0.12 0.14 0.17
L.S. 10
BOND $H
LIST 4
acta
conf
FMAP 2
PLAN 10
temp -173.15
WGHT    0.117000
FVAR       0.52736
N1    3    0.052397    0.361632    0.246170    11.00000    0.01729    0.01284 =
         0.01783    0.00518    0.00695    0.00377
O1    4    0.633121    0.793395    0.172759    11.00000    0.01602    0.01551 =
         0.03158    0.01047    0.01219    0.00614
CL1   6    0.409816    0.631649    0.596853    11.00000    0.01776    0.01545 =
         0.01897    0.00175    0.00123   -0.00031
CL2   6   -0.260467   -0.015376    0.522604    11.00000    0.02341    0.01437 =
         0.02801    0.00631    0.01431    0.00085
O2    4    0.469086    1.270804    0.129248    11.00000    0.01964    0.01420 =
         0.02847    0.01057    0.00972    0.00664
N2    3    0.117319    0.466995    0.177014    11.00000    0.01575    0.01117 =
         0.01583    0.00406    0.00572    0.00067
C3    1    0.312631    0.600377    0.229680    11.00000    0.01366    0.01105 =
         0.01845    0.00516    0.00585    0.00312
AFIX  13
H3    2    0.394688    0.551101    0.210416    11.00000   -1.20000
AFIX   0
C4    1    0.326162    0.615322    0.347632    11.00000    0.01547    0.01219 =
         0.01809    0.00619    0.00473    0.00303
AFIX  23
H4A   2    0.442394    0.620750    0.388101    11.00000   -1.20000
H4AB  2    0.315841    0.721586    0.379923    11.00000   -1.20000
AFIX   0
C5    1    0.160875    0.441677    0.341301    11.00000    0.01427    0.00956 =
         0.02000    0.00390    0.00564    0.00331
C6    1    0.110056    0.369788    0.429804    11.00000    0.01505    0.01065 =
         0.01956    0.00351    0.00604    0.00399
C7    1    0.206480    0.438902    0.535412    11.00000    0.01565    0.01158 =
         0.01889    0.00556    0.00614    0.00253
S8    5    0.101420    0.312272    0.616303    11.00000    0.02129    0.01644 =
         0.01620    0.00502    0.00619    0.00420
C9    1   -0.079658    0.164386    0.506641    11.00000    0.01735    0.01166 =
         0.02520    0.00284    0.00785    0.00270
C10   1   -0.060292    0.207851    0.413994    11.00000    0.01569    0.01548 =
         0.01820    0.00578    0.00726    0.00477
AFIX  43
H10   2   -0.147743    0.140421    0.346684    11.00000   -1.20000
AFIX   0
C11   1    0.080240    0.359135    0.071892    11.00000    0.02150    0.01771 =
         0.01643    0.00460    0.00645    0.00509
AFIX 137
H11A  2    0.114750    0.438012    0.024226    11.00000   -1.50000
H11B  2   -0.051175    0.273750    0.044120    11.00000   -1.50000
H11C  2    0.152208    0.293102    0.076627    11.00000   -1.50000
AFIX   0
C12   1    0.358210    0.776776    0.198197    11.00000    0.01374    0.01253 =
         0.01427    0.00394    0.00278    0.00246
C13   1    0.519538    0.872022    0.172473    11.00000    0.01421    0.01371 =
         0.01358    0.00248    0.00331    0.00263
C14   1    0.562258    1.037499    0.148408    11.00000    0.01382    0.01409 =
         0.01647    0.00365    0.00550    0.00143
AFIX  43
H14   2    0.672513    1.100335    0.130663    11.00000   -1.20000
AFIX   0
C15   1    0.440608    1.109306    0.150797    11.00000    0.01661    0.01137 =
         0.01477    0.00444    0.00258    0.00203
C16   1    0.279020    1.017005    0.176909    11.00000    0.01742    0.01816 =
         0.02271    0.00727    0.00817    0.00876
AFIX  43
H16   2    0.196574    1.066391    0.178851    11.00000   -1.20000
AFIX   0
C17   1    0.240074    0.853450    0.199872    11.00000    0.01434    0.01663 =
         0.02040    0.00559    0.00641    0.00311
AFIX  43
H17   2    0.129522    0.790838    0.217385    11.00000   -1.20000
AFIX   0
C18   1    0.793517    0.879853    0.139085    11.00000    0.01395    0.01586 =
         0.02639    0.00526    0.00968    0.00354
AFIX 137
H18A  2    0.855409    0.804449    0.136606    11.00000   -1.50000
H18B  2    0.877631    0.996621    0.189289    11.00000   -1.50000
H18C  2    0.757239    0.897638    0.068323    11.00000   -1.50000
AFIX   0
C19   1    0.636103    1.373189    0.105492    11.00000    0.02014    0.01301 =
         0.02798    0.00872    0.00885    0.00321
AFIX 137
H19A  2    0.641455    1.486915    0.094107    11.00000   -1.50000
H19B  2    0.639749    1.304878    0.041167    11.00000   -1.50000
H19C  2    0.741558    1.397937    0.164924    11.00000   -1.50000
AFIX   0
HKLF 4
REM  mmx1_a.res in P-1
REM R1 =  0.0495 for    2794 Fo > 4sig(Fo)  and  0.0519 for all    3062 data
REM    211 parameters refined using      0 restraints
END
WGHT      0.1170      0.0000
REM Highest difference peak  0.788,  deepest hole -0.499,  1-sigma level  0.106
Q1    1   0.1465  0.3852  0.5763  11.00000  0.05    0.79
Q2    1  -0.2204 -0.0413  0.5792  11.00000  0.05    0.69
Q3    1   0.4215  0.5749  0.6407  11.00000  0.05    0.60
Q4    1   0.0233  0.2275  0.5562  11.00000  0.05    0.60
Q5    1  -0.2058  0.0635  0.4988  11.00000  0.05    0.59
Q6    1   0.3069  0.8174  0.1962  11.00000  0.05    0.58
Q7    1   0.0875  0.2433  0.6559  11.00000  0.05    0.58
Q8    1   0.5089  1.0736  0.1543  11.00000  0.05    0.58
Q9    1   0.3376  0.6934  0.2184  11.00000  0.05    0.55
Q10   1   0.4080  0.6988  0.5627  11.00000  0.05    0.53
;
_shelx_res_checksum              9636
loop_
_space_group_symop_operation_xyz
'x, y, z'
'-x, -y, -z'
loop_
_atom_site_type_symbol
_atom_site_label
_atom_site_fract_x
_atom_site_fract_y
_atom_site_fract_z
_atom_site_U_iso_or_equiv
_atom_site_adp_type
_atom_site_calc_flag
_atom_site_occupancy
N N1 0.0524(2) 0.3616(2) 0.24617(13) 0.0167(4) Uani d 1
O O1 0.63312(18) 0.79340(19) 0.17276(12) 0.0201(3) Uani d 1
Cl Cl1 0.40982(6) 0.63165(6) 0.59685(4) 0.02134(19) Uani d 1
Cl Cl2 -0.26047(7) -0.01538(6) 0.52260(4) 0.02362(19) Uani d 1
O O2 0.46909(19) 1.27080(19) 0.12925(12) 0.0202(3) Uani d 1
N N2 0.1173(2) 0.4670(2) 0.17701(13) 0.0161(4) Uani d 1
C C3 0.3126(3) 0.6004(3) 0.22968(15) 0.0150(4) Uani d 1
H H3 0.394688 0.551101 0.210416 0.018 Uiso calc 1
C C4 0.3262(3) 0.6153(3) 0.34763(16) 0.0163(4) Uani d 1
H H4A 0.442394 0.620750 0.388101 0.020 Uiso calc 1
H H4AB 0.315841 0.721586 0.379923 0.020 Uiso calc 1
C C5 0.1609(3) 0.4417(3) 0.34130(16) 0.0153(4) Uani d 1
C C6 0.1101(3) 0.3698(3) 0.42980(16) 0.0157(4) Uani d 1
C C7 0.2065(3) 0.4389(3) 0.53541(16) 0.0164(4) Uani d 1
S S8 0.10142(7) 0.31227(6) 0.61630(4) 0.01945(19) Uani d 1
C C9 -0.0797(3) 0.1644(3) 0.50664(17) 0.0195(4) Uani d 1
C C10 -0.0603(3) 0.2079(3) 0.41399(17) 0.0168(4) Uani d 1
H H10 -0.147743 0.140421 0.346684 0.020 Uiso calc 1
C C11 0.0802(3) 0.3591(3) 0.07189(16) 0.0199(4) Uani d 1
H H11A 0.114750 0.438012 0.024226 0.030 Uiso calc 1
H H11B -0.051175 0.273750 0.044120 0.030 Uiso calc 1
H H11C 0.152208 0.293102 0.076627 0.030 Uiso calc 1
C C12 0.3582(3) 0.7768(3) 0.19820(15) 0.0150(4) Uani d 1
C C13 0.5195(3) 0.8720(3) 0.17247(15) 0.0155(4) Uani d 1
C C14 0.5623(3) 1.0375(3) 0.14841(15) 0.0165(4) Uani d 1
H H14 0.672513 1.100335 0.130663 0.020 Uiso calc 1
C C15 0.4406(3) 1.1093(3) 0.15080(15) 0.0161(4) Uani d 1
C C16 0.2790(3) 1.0170(3) 0.17691(16) 0.0186(4) Uani d 1
H H16 0.196574 1.066391 0.178851 0.022 Uiso calc 1
C C17 0.2401(3) 0.8534(3) 0.19987(16) 0.0183(4) Uani d 1
H H17 0.129522 0.790838 0.217385 0.022 Uiso calc 1
C C18 0.7935(3) 0.8799(3) 0.13908(17) 0.0194(4) Uani d 1
H H18A 0.855409 0.804449 0.136606 0.029 Uiso calc 1
H H18B 0.877631 0.996621 0.189289 0.029 Uiso calc 1
H H18C 0.757239 0.897638 0.068323 0.029 Uiso calc 1
C C19 0.6361(3) 1.3732(3) 0.10549(18) 0.0213(4) Uani d 1
H H19A 0.641455 1.486915 0.094107 0.032 Uiso calc 1
H H19B 0.639749 1.304878 0.041167 0.032 Uiso calc 1
H H19C 0.741558 1.397937 0.164924 0.032 Uiso calc 1
loop_
_atom_site_aniso_label
_atom_site_aniso_U_11
_atom_site_aniso_U_22
_atom_site_aniso_U_33
_atom_site_aniso_U_12
_atom_site_aniso_U_13
_atom_site_aniso_U_23
N1 0.0173(8) 0.0128(8) 0.0178(9) 0.0038(7) 0.0070(7) 0.0052(7)
O1 0.0160(7) 0.0155(7) 0.0316(8) 0.0061(6) 0.0122(6) 0.0105(6)
Cl1 0.0178(3) 0.0155(3) 0.0190(3) -0.0003(2) 0.0012(2) 0.0018(2)
Cl2 0.0234(3) 0.0144(3) 0.0280(3) 0.0009(2) 0.0143(2) 0.0063(2)
O2 0.0196(7) 0.0142(7) 0.0285(8) 0.0066(6) 0.0097(6) 0.0106(6)
N2 0.0158(8) 0.0112(8) 0.0158(8) 0.0007(7) 0.0057(7) 0.0041(6)
C3 0.0137(9) 0.0110(9) 0.0184(10) 0.0031(7) 0.0059(8) 0.0052(7)
C4 0.0155(10) 0.0122(10) 0.0181(10) 0.0030(8) 0.0047(8) 0.0062(7)
C5 0.0143(9) 0.0096(9) 0.0200(10) 0.0033(8) 0.0056(8) 0.0039(7)
C6 0.0150(9) 0.0106(10) 0.0196(10) 0.0040(8) 0.0060(8) 0.0035(7)
C7 0.0157(10) 0.0116(10) 0.0189(10) 0.0025(8) 0.0061(8) 0.0056(8)
S8 0.0213(3) 0.0164(3) 0.0162(3) 0.0042(2) 0.0062(2) 0.0050(2)
C9 0.0174(10) 0.0117(10) 0.0252(11) 0.0027(8) 0.0078(8) 0.0028(8)
C10 0.0157(9) 0.0155(10) 0.0182(10) 0.0048(8) 0.0073(8) 0.0058(8)
C11 0.0215(10) 0.0177(10) 0.0164(10) 0.0051(8) 0.0064(8) 0.0046(8)
C12 0.0137(9) 0.0125(10) 0.0143(9) 0.0025(7) 0.0028(8) 0.0039(7)
C13 0.0142(9) 0.0137(10) 0.0136(9) 0.0026(8) 0.0033(8) 0.0025(7)
C14 0.0138(9) 0.0141(10) 0.0165(9) 0.0014(8) 0.0055(8) 0.0036(7)
C15 0.0166(10) 0.0114(10) 0.0148(9) 0.0020(8) 0.0026(8) 0.0044(7)
C16 0.0174(10) 0.0182(11) 0.0227(11) 0.0088(8) 0.0082(8) 0.0073(8)
C17 0.0143(9) 0.0166(10) 0.0204(10) 0.0031(8) 0.0064(8) 0.0056(8)
C18 0.0139(10) 0.0159(10) 0.0264(11) 0.0035(8) 0.0097(8) 0.0053(8)
C19 0.0201(10) 0.0130(10) 0.0280(11) 0.0032(8) 0.0089(9) 0.0087(8)
loop_
_atom_type_symbol
_atom_type_description
_atom_type_scat_dispersion_real
_atom_type_scat_dispersion_imag
_atom_type_scat_source
C C 0.0181 0.0091 'International Tables Vol C Tables 4.2.6.8 and 6.1.1.4'
H H 0.0000 0.0000 'International Tables Vol C Tables 4.2.6.8 and 6.1.1.4'
N N 0.0311 0.0180 'International Tables Vol C Tables 4.2.6.8 and 6.1.1.4'
O O 0.0492 0.0322 'International Tables Vol C Tables 4.2.6.8 and 6.1.1.4'
S S 0.3331 0.5567 'International Tables Vol C Tables 4.2.6.8 and 6.1.1.4'
Cl Cl 0.3639 0.7018 'International Tables Vol C Tables 4.2.6.8 and 6.1.1.4'
loop_
_geom_angle_atom_site_label_1
_geom_angle_atom_site_label_2
_geom_angle_atom_site_label_3
_geom_angle
C5 N1 N2 109.43(16)
C13 O1 C18 117.89(15)
C15 O2 C19 117.63(15)
N1 N2 C11 112.53(15)
N1 N2 C3 108.77(15)
C11 N2 C3 115.30(15)
N2 C3 C12 111.22(15)
N2 C3 C4 102.37(15)
C12 C3 C4 113.81(16)
N2 C3 H3 109.7
C12 C3 H3 109.7
C4 C3 H3 109.7
C5 C4 C3 100.78(16)
C5 C4 H4A 111.6
C3 C4 H4A 111.6
C5 C4 H4AB 111.6
C3 C4 H4AB 111.6
H4A C4 H4AB 109.4
N1 C5 C6 119.76(18)
N1 C5 C4 113.11(18)
C6 C5 C4 126.93(18)
C7 C6 C10 110.74(18)
C7 C6 C5 127.51(18)
C10 C6 C5 121.75(18)
C6 C7 Cl1 129.46(16)
C6 C7 S8 113.62(15)
Cl1 C7 S8 116.90(12)
C9 S8 C7 90.03(10)
C10 C9 Cl2 126.69(17)
C10 C9 S8 113.60(16)
Cl2 C9 S8 119.71(13)
C9 C10 C6 112.00(19)
C9 C10 H10 124.0
C6 C10 H10 124.0
N2 C11 H11A 109.5
N2 C11 H11B 109.5
H11A C11 H11B 109.5
N2 C11 H11C 109.5
H11A C11 H11C 109.5
H11B C11 H11C 109.5
C13 C12 C17 117.67(18)
C13 C12 C3 122.64(17)
C17 C12 C3 119.61(17)
O1 C13 C12 116.01(17)
O1 C13 C14 122.38(17)
C12 C13 C14 121.62(17)
C13 C14 C15 118.95(18)
C13 C14 H14 120.5
C15 C14 H14 120.5
O2 C15 C16 115.63(17)
O2 C15 C14 123.92(17)
C16 C15 C14 120.44(18)
C17 C16 C15 119.31(18)
C17 C16 H16 120.3
C15 C16 H16 120.3
C16 C17 C12 122.01(18)
C16 C17 H17 119.0
C12 C17 H17 119.0
O1 C18 H18A 109.5
O1 C18 H18B 109.5
H18A C18 H18B 109.5
O1 C18 H18C 109.5
H18A C18 H18C 109.5
H18B C18 H18C 109.5
O2 C19 H19A 109.5
O2 C19 H19B 109.5
H19A C19 H19B 109.5
O2 C19 H19C 109.5
H19A C19 H19C 109.5
H19B C19 H19C 109.5
loop_
_geom_bond_atom_site_label_1
_geom_bond_atom_site_label_2
_geom_bond_distance
N1 C5 1.289(3)
N1 N2 1.400(2)
O1 C13 1.373(2)
O1 C18 1.433(2)
Cl1 C7 1.719(2)
Cl2 C9 1.713(2)
O2 C15 1.368(2)
O2 C19 1.430(2)
N2 C11 1.457(3)
N2 C3 1.483(2)
C3 C12 1.520(3)
C3 C4 1.534(3)
C3 H3 1.0000
C4 C5 1.513(3)
C4 H4A 0.9900
C4 H4AB 0.9900
C5 C6 1.457(3)
C6 C7 1.371(3)
C6 C10 1.453(3)
C7 S8 1.730(2)
S8 C9 1.728(2)
C9 C10 1.355(3)
C10 H10 0.9500
C11 H11A 0.9800
C11 H11B 0.9800
C11 H11C 0.9800
C12 C13 1.394(3)
C12 C17 1.397(3)
C13 C14 1.394(3)
C14 C15 1.394(3)
C14 H14 0.9500
C15 C16 1.393(3)
C16 C17 1.377(3)
C16 H16 0.9500
C17 H17 0.9500
C18 H18A 0.9800
C18 H18B 0.9800
C18 H18C 0.9800
C19 H19A 0.9800
C19 H19B 0.9800
C19 H19C 0.9800
loop_
_geom_hbond_atom_site_label_D
_geom_hbond_atom_site_label_H
_geom_hbond_atom_site_label_A
_geom_hbond_site_symmetry_D
_geom_hbond_site_symmetry_H
_geom_hbond_site_symmetry_A
_geom_hbond_distance_DH
_geom_hbond_distance_HA
_geom_hbond_distance_DA
_geom_hbond_angle_DHA
C3 H3 O1 1_555 1_555 ? 1.000 2.386 2.817(3) 105
C11 H11C O2 1_555 1_555 1_545 0.980 2.697 3.600(3) 153
C18 H18C O2 1_555 1_555 2_675 0.980 2.680 3.517(2) 144
loop_
_geom_torsion_atom_site_label_1
_geom_torsion_atom_site_label_2
_geom_torsion_atom_site_label_3
_geom_torsion_atom_site_label_4
_geom_torsion
C5 N1 N2 C11 146.57(17)
C5 N1 N2 C3 17.5(2)
N1 N2 C3 C12 -145.62(15)
C11 N2 C3 C12 86.9(2)
N1 N2 C3 C4 -23.72(19)
C11 N2 C3 C4 -151.19(16)
N2 C3 C4 C5 20.12(18)
C12 C3 C4 C5 140.24(16)
N2 N1 C5 C6 172.21(17)
N2 N1 C5 C4 -3.1(2)
C3 C4 C5 N1 -11.6(2)
C3 C4 C5 C6 173.50(18)
N1 C5 C6 C7 -178.71(18)
C4 C5 C6 C7 -4.1(3)
N1 C5 C6 C10 0.6(3)
C4 C5 C6 C10 175.16(16)
C10 C6 C7 Cl1 -177.09(14)
C5 C6 C7 Cl1 2.3(3)
C10 C6 C7 S8 1.5(2)
C5 C6 C7 S8 -179.20(16)
C6 C7 S8 C9 -1.20(16)
Cl1 C7 S8 C9 177.54(12)
C7 S8 C9 C10 0.60(17)
C7 S8 C9 Cl2 -179.08(13)
Cl2 C9 C10 C6 179.76(14)
S8 C9 C10 C6 0.1(2)
C7 C6 C10 C9 -1.0(2)
C5 C6 C10 C9 179.62(17)
N2 C3 C12 C13 -136.48(18)
C4 C3 C12 C13 108.5(2)
N2 C3 C12 C17 46.9(2)
C4 C3 C12 C17 -68.1(2)
C18 O1 C13 C12 175.41(17)
C18 O1 C13 C14 -4.8(3)
C17 C12 C13 O1 179.32(16)
C3 C12 C13 O1 2.7(3)
C17 C12 C13 C14 -0.4(3)
C3 C12 C13 C14 -177.10(17)
O1 C13 C14 C15 -179.39(17)
C12 C13 C14 C15 0.3(3)
C19 O2 C15 C16 177.97(18)
C19 O2 C15 C14 -1.6(3)
C13 C14 C15 O2 179.59(17)
C13 C14 C15 C16 0.0(3)
O2 C15 C16 C17 -179.91(18)
C14 C15 C16 C17 -0.3(3)
C15 C16 C17 C12 0.2(3)
C13 C12 C17 C16 0.2(3)
C3 C12 C17 C16 176.92(18)

_cod_database_fobs_code 1552133
