#------------------------------------------------------------------------------
#$Date: 2019-07-20 07:28:51 +0300 (Sat, 20 Jul 2019) $
#$Revision: 217193 $
#$URL: file:///home/coder/svn-repositories/cod/cif/1/55/21/1552118.cif $
#------------------------------------------------------------------------------
#
# This file is available in the Crystallography Open Database (COD),
# http://www.crystallography.net/. The original data for this entry
# were provided by IUCr Journals, http://journals.iucr.org/.
#
# The file may be used within the scientific community so long as
# proper attribution is given to the journal article from which the
# data were obtained.
#
data_1552118
loop_
_publ_author_name
'Bosch, Eric'
_publ_section_title
;
 1,2,4,5-Tetrachloro-3,6-diiodobenzene benzene monosolvate
;
_journal_coeditor_code           ZL4031
_journal_issue                   7
_journal_name_full               IUCrData
_journal_page_first              x190993
_journal_paper_doi               10.1107/S2414314619009933
_journal_volume                  4
_journal_year                    2019
_chemical_formula_iupac          'C6 Cl4 I2, C6 H6'
_chemical_formula_moiety         'C6 Cl4 I2, C6 H6'
_chemical_formula_sum            'C12 H6 Cl4 I2'
_chemical_formula_weight         545.77
_chemical_name_systematic
;
1,2,4,5-Tetrachloro-3,6-diiodobenzene benzene monosolvate
;
_space_group_crystal_system      triclinic
_space_group_IT_number           2
_space_group_name_Hall           '-P 1'
_space_group_name_H-M_alt        'P -1'
_symmetry_space_group_name_Hall  '-P 1'
_symmetry_space_group_name_H-M   'P -1'
_atom_sites_solution_hydrogens   geom
_atom_sites_solution_primary     dual
_audit_creation_method           SHELXL-2018/3
_cell_angle_alpha                96.7020(10)
_cell_angle_beta                 92.7280(10)
_cell_angle_gamma                98.5990(10)
_cell_formula_units_Z            1
_cell_length_a                   5.4399(4)
_cell_length_b                   6.3599(4)
_cell_length_c                   11.0232(8)
_cell_measurement_reflns_used    4302
_cell_measurement_temperature    100(2)
_cell_measurement_theta_max      27.25
_cell_measurement_theta_min      3.27
_cell_volume                     373.69(5)
_computing_cell_refinement
;
SMART (Bruker, 2014)
;
_computing_data_collection
;
SMART (Bruker, 2014)
;
_computing_data_reduction
;
SAINT (Bruker, 2014)
;
_computing_molecular_graphics
;
X-SEED (Barbour, 2001)
;
_computing_publication_material
;
X-SEED (Barbour, 2001)
;
_computing_structure_refinement
;
SHELXL2018 (Sheldrick, 2015b)
;
_computing_structure_solution
;
SHELXT2018 (Sheldrick, 2015a)
;
_diffrn_ambient_temperature      100(2)
_diffrn_detector_area_resol_mean 8.3660
_diffrn_measured_fraction_theta_full 1.000
_diffrn_measured_fraction_theta_max 1.000
_diffrn_measurement_device_type  'Bruker APEXII CCD'
_diffrn_measurement_method       'phi and omega scans'
_diffrn_radiation_monochromator  graphite
_diffrn_radiation_source         'fine-focus sealed tube'
_diffrn_radiation_type           MoK\a
_diffrn_radiation_wavelength     0.71073
_diffrn_reflns_av_R_equivalents  0.0184
_diffrn_reflns_av_unetI/netI     0.0179
_diffrn_reflns_limit_h_max       7
_diffrn_reflns_limit_h_min       -7
_diffrn_reflns_limit_k_max       8
_diffrn_reflns_limit_k_min       -8
_diffrn_reflns_limit_l_max       14
_diffrn_reflns_limit_l_min       -14
_diffrn_reflns_number            4913
_diffrn_reflns_theta_full        25.242
_diffrn_reflns_theta_max         27.251
_diffrn_reflns_theta_min         1.864
_exptl_absorpt_coefficient_mu    4.901
_exptl_absorpt_correction_T_max  1.0000
_exptl_absorpt_correction_T_min  0.6106
_exptl_absorpt_correction_type   multi-scan
_exptl_absorpt_process_details
;
(SADABS; Bruker, 2014)
;
_exptl_crystal_colour            colourless
_exptl_crystal_density_diffrn    2.425
_exptl_crystal_description       'cut cube'
_exptl_crystal_F_000             252
_exptl_crystal_size_max          0.39
_exptl_crystal_size_mid          0.12
_exptl_crystal_size_min          0.05
_refine_diff_density_max         0.461
_refine_diff_density_min         -0.388
_refine_ls_extinction_method     none
_refine_ls_goodness_of_fit_ref   1.094
_refine_ls_hydrogen_treatment    constr
_refine_ls_matrix_type           full
_refine_ls_number_parameters     82
_refine_ls_number_reflns         1668
_refine_ls_number_restraints     0
_refine_ls_restrained_S_all      1.094
_refine_ls_R_factor_all          0.0134
_refine_ls_R_factor_gt           0.0131
_refine_ls_shift/su_max          0.001
_refine_ls_shift/su_mean         0.000
_refine_ls_structure_factor_coef Fsqd
_refine_ls_weighting_details
'w=1/[\s^2^(Fo^2^)+(0.0129P)^2^+0.2107P] where P=(Fo^2^+2Fc^2^)/3'
_refine_ls_weighting_scheme      calc
_refine_ls_wR_factor_gt          0.0315
_refine_ls_wR_factor_ref         0.0317
_reflns_number_gt                1634
_reflns_number_total             1668
_reflns_threshold_expression     'I > 2\s(I)'
_cod_data_source_file            zl4031sup1.cif
_cod_data_source_block           I
_cod_database_code               1552118
_shelx_space_group_comment
;
The symmetry employed for this shelxl refinement is uniquely defined
by the following loop, which should always be used as a source of
symmetry information in preference to the above space-group names.
They are only intended as comments.
;
_shelx_hkl_file
;
  -1   0   0  640.34   13.90
  -1   0   0  636.44   14.00
   1   0   0  605.14   14.20
   1   0   0  641.34   14.00
  -2   0   0   28.70    1.30
  -2   0   0   24.80    1.30
   2   0   0   31.60    1.00
   2   0   0   25.20    1.60
  -3   0   0 2551.14   55.89
  -3   0   0 2585.64   55.59
   3   0   0 2473.45   56.59
   3   0   0 2556.84   55.09
  -4   0   0  723.93   17.50
  -4   0   0  709.03   17.00
   4   0   0  695.03   18.30
  -5   0   0   39.80    2.60
  -5   0   0   35.70    2.30
   5   0   0   42.60    3.20
  -6   0   0  104.89    4.80
  -6   0   0   95.49    4.30
   6   0   0   93.69    5.50
   6  -1   0   98.59    5.50
  -6   1   0   98.79    4.30
  -6   1   0   97.59    4.80
   5  -1   0 1555.94   38.70
  -5   1   0 1648.83   37.80
  -5   1   0 1640.14   36.80
   4  -1   0   42.80    2.80
  -4   1   0   45.40    2.50
  -4   1   0   42.10    2.10
   3  -1   0  424.76   11.30
   3  -1   0  425.86    9.40
  -3   1   0  411.26   10.80
  -3   1   0  415.06   10.10
   2  -1   0 6602.14  167.68
  -2   1   0 6375.76  142.19
  -2   1   0 6425.76  143.59
   1  -1   0  885.41   19.30
   1  -1   0  890.61   19.90
   1  -1   0  895.31   19.30
  -1   1   0  877.31   19.70
   0  -1   0   18.30    1.60
   0  -1   0   25.20    0.90
   0   1   0   24.30    0.80
   0   1   0   27.70    1.00
  -1  -1   0 6463.75  154.28
  -1  -1   0 6827.82  139.59
  -1  -1   0 5572.14  141.79
   1   1   0 6518.45  138.19
  -2  -1   0 1197.88   26.30
  -2  -1   0 1198.18   26.40
   2   1   0 1186.18   26.00
   2   1   0 1169.28   27.20
  -3  -1   0  242.78    6.70
  -3  -1   0  241.78    6.60
   3   1   0  250.47    7.70
   3   1   0  250.27    6.10
  -4  -1   0    5.40    1.00
  -4  -1   0    8.50    1.20
   4   1   0    8.00    1.60
  -5  -1   0  362.46   10.20
  -5  -1   0  350.16   10.20
   5   1   0  369.26   11.80
  -6  -1   0  155.78    6.20
  -6  -1   0  160.38    6.10
   6   1   0  172.78    7.80
   6  -2   0   35.50    3.30
  -6   2   0   40.80    2.60
  -6   2   0   40.20    3.10
   5  -2   0    9.80    1.90
  -5   2   0   11.00    1.70
  -5   2   0   13.60    1.60
   4  -2   0 2394.56   55.99
  -4   2   0 2511.25   53.19
  -4   2   0 2480.35   55.39
  -4   2   0 2466.85   54.19
   3  -2   0 1486.55   34.10
  -3   2   0 1495.55   32.10
  -3   2   0 1464.55   33.50
  -3   2   0 1440.36   32.60
   2  -2   0    4.60    1.10
  -2   2   0    3.30    0.80
  -2   2   0    4.90    0.60
   1  -2   0 2214.88   48.50
   1  -2   0 2142.19   50.29
  -1   2   0 2184.58   48.90
  -1   2   0 2236.98   47.60
   0  -2   0 3926.61   87.49
   0   2   0 4181.18   87.59
   0   2   0 3914.81   87.79
  -1  -2   0 1096.99   25.50
  -1  -2   0 1097.39   24.20
   1   2   0 1074.99   24.10
  -2  -2   0    4.90    0.80
  -2  -2   0    3.50    0.50
   2   2   0    3.50    0.60
   2   2   0    4.00    1.00
  -3  -2   0  731.33   17.80
  -3  -2   0  761.52   17.30
   3   2   0  766.32   17.20
   3   2   0  744.43   19.20
  -4  -2   0  344.77    9.70
   4   2   0  359.06   11.30
  -5  -2   0  612.74   16.20
   5   2   0  637.14   18.20
  -6  -2   0   24.70    2.30
   6   2   0   29.60    3.30
   6  -3   0  911.01   24.80
  -6   3   0  880.11   23.50
   5  -3   0  871.11   23.10
   5  -3   0  875.71   20.80
  -5   3   0  852.11   22.10
   4  -3   0  284.07    9.30
   4  -3   0  274.77    7.60
  -4   3   0  269.97    8.50
  -4   3   0  275.57    6.90
   3  -3   0  810.22   20.30
   3  -3   0  805.02   18.50
  -3   3   0  808.32   18.30
  -3   3   0  788.32   19.40
   2  -3   0 3120.49   68.89
   2  -3   0 3139.19   69.29
  -2   3   0 3112.89   67.59
  -2   3   0 3086.59   68.19
   1  -3   0  125.09    3.30
   1  -3   0  120.39    5.00
  -1   3   0  118.69    3.70
  -1   3   0  121.19    3.60
   0  -3   0   58.59    3.70
   0  -3   0   63.69    2.10
   0   3   0   65.29    1.90
   0   3   0   59.89    2.30
  -1  -3   0 1622.14   38.00
  -1  -3   0 1612.34   35.60
   1   3   0 1602.04   35.70
  -2  -3   0  672.63   16.10
  -2  -3   0  699.13   18.10
   2   3   0  664.23   15.90
  -3  -3   0  673.03   16.70
   3   3   0  690.23   16.30
   3   3   0  688.53   18.60
  -4  -3   0    0.70    0.60
   4   3   0    2.00    1.10
  -5  -3   0   58.59    3.40
   5   3   0   66.19    4.70
  -6  -3   0  436.96   13.10
   6   3   0  438.46   15.40
   6  -4   0  100.99    6.00
  -6   4   0   88.39    5.00
   5  -4   0   94.89    5.40
  -5   4   0   88.89    4.60
   4  -4   0 1409.36   34.90
  -4   4   0 1459.55   33.00
  -4   4   0 1409.86   33.80
   3  -4   0  661.03   15.20
   3  -4   0  651.73   17.80
  -3   4   0  660.33   15.70
  -3   4   0  664.83   16.70
   2  -4   0  141.79    6.00
   2  -4   0  140.69    3.90
  -2   4   0  138.79    4.70
  -2   4   0  141.79    4.50
   1  -4   0 1185.78   25.50
   1  -4   0 1032.20   29.30
  -1   4   0 1164.18   26.20
  -1   4   0 1200.68   26.00
   0  -4   0  323.47    8.10
   0  -4   0  316.77   11.10
   0   4   0  328.37    7.70
   0   4   0  329.87    8.60
  -1  -4   0 1080.89   23.90
  -1  -4   0  993.20   26.80
   1   4   0 1058.79   24.10
  -2  -4   0    8.40    1.10
  -2  -4   0    5.90    1.60
   2   4   0    8.90    1.20
  -3  -4   0  177.08    5.90
   3   4   0  174.88    7.60
   3   4   0  186.28    5.80
  -4  -4   0  595.34   15.60
   4   4   0  590.34   18.00
  -5  -4   0  367.06   11.20
   6  -5   0 1103.99   30.40
  -6   5   0 1093.39   28.70
   5  -5   0  447.66   14.80
  -5   5   0  425.06   13.20
   4  -5   0  135.29    6.70
  -4   5   0  143.09    4.70
  -4   5   0  133.69    5.60
   3  -5   0  491.55   15.30
  -3   5   0  489.95   12.50
  -3   5   0  482.55   13.20
   2  -5   0  611.54   14.10
   2  -5   0  610.64   18.40
  -2   5   0  614.94   15.20
  -2   5   0  580.84   15.00
   1  -5   0  515.85   12.40
   1  -5   0  526.45   17.20
  -1   5   0  519.55   13.30
  -1   5   0  532.75   12.80
   0  -5   0    4.50    1.70
  -1  -5   0   95.69    3.50
  -1  -5   0   84.69    5.30
   1   5   0   87.89    3.70
  -2  -5   0  550.84   17.20
  -2  -5   0  553.24   14.00
   2   5   0  543.85   14.20
  -3  -5   0  613.94   16.00
  -3  -5   0  654.03   19.50
   3   5   0  607.64   15.90
  -4  -5   0    1.80    1.00
   4   5   0    3.10    1.70
   5  -6   0  334.47   13.20
  -5   6   0  333.17   11.20
   4  -6   0  307.57   12.10
  -4   6   0  294.37    8.70
  -4   6   0  292.57    9.70
   3  -6   0  263.57   11.10
  -3   6   0  264.97    8.30
  -3   6   0  243.38    7.70
   2  -6   0  116.69    7.60
  -2   6   0  128.19    4.90
  -2   6   0  128.59    4.70
   1  -6   0   45.30    2.10
   1  -6   0   35.30    4.00
  -1   6   0   41.90    2.60
   0  -6   0  179.08    8.50
   0  -6   0  178.38    5.40
   0   6   0  170.08    6.10
  -1  -6   0  743.23   18.10
  -1  -6   0  733.73   22.10
   1   6   0  760.42   18.90
  -2  -6   0   57.89    3.10
  -2  -6   0   52.39    4.70
   2   6   0   57.29    3.30
  -3  -6   0   72.09    3.70
  -3  -6   0   75.89    5.80
   3   6   0   70.19    3.80
   4  -7   0   66.69    6.00
  -4   7   0   72.09    3.60
  -4   7   0   69.49    4.20
   3  -7   0   16.00    3.80
  -3   7   0   18.60    1.90
   2  -7   0   89.89    7.10
  -2   7   0  101.89    4.50
   1  -7   0  866.01   25.80
  -1   7   0  828.42   21.30
   0  -7   0  108.89    6.80
   0  -7   0   93.69    4.20
   0   7   0  101.79    4.70
  -1  -7   0   27.70    2.10
  -1  -7   0   32.70    4.50
   1   7   0   25.00    2.40
  -2  -7   0  595.04   20.00
  -2  -7   0  594.44   15.60
   2   7   0  586.14   16.20
   2  -8   0  136.59    8.90
  -2   8   0  134.29    5.90
   1  -8   0    0.20    1.50
  -1   8   0    1.50    1.00
   0  -8   0  365.06   14.70
   0   8   0  368.76   11.70
   0   8  -1    7.10    1.70
   0  -8   1    6.10    2.20
  -1   8  -1  102.49    5.10
   1  -8   1  102.49    7.00
  -2   8  -1  752.62   20.00
   2  -8   1  765.82   25.00
   2   7  -1    1.40    1.10
  -2  -7   1   -0.10    0.70
  -2  -7   1    0.40    1.30
   1   7  -1  115.99    5.20
  -1  -7   1  113.79    4.60
  -1  -7   1  119.49    7.00
   0   7  -1  951.80   23.40
   0  -7   1  925.41   22.20
   0  -7   1  918.01   26.60
  -1   7  -1  245.68    8.20
   1  -7   1  262.87   11.40
  -2   7  -1   46.40    2.90
   2  -7   1   49.80    5.20
  -3   7  -1  466.15   12.90
   3  -7   1  461.45   18.00
  -4   7  -1  384.36   11.20
  -4   7  -1  411.86   12.40
   4  -7   1  398.66   15.80
   3   6  -1   48.80    3.20
  -3  -6   1   56.09    3.20
  -3  -6   1   54.99    4.70
   2   6  -1  693.83   17.80
  -2  -6   1  690.83   20.80
  -2  -6   1  689.63   17.50
   1   6  -1  717.13   18.30
  -1  -6   1  741.03   21.30
  -1  -6   1  709.43   17.70
   0   6  -1    1.50    0.80
   0  -6   1    4.20    0.90
   0  -6   1    2.10    1.40
  -1   6  -1  534.95   14.00
   1  -6   1  529.95   13.10
   1  -6   1  535.45   17.70
  -2   6  -1 1295.47   29.50
  -2   6  -1 1294.47   29.70
   2  -6   1 1271.37   29.20
   2  -6   1 1187.28   34.50
  -3   6  -1   13.90    1.70
  -3   6  -1   15.90    1.80
   3  -6   1   17.40    3.20
  -4   6  -1   37.40    2.90
  -4   6  -1   38.20    2.30
   4  -6   1   41.80    4.00
  -5   6  -1  359.86   11.90
   5  -6   1  376.66   14.00
   4   5  -1  408.86   11.60
  -4  -5   1  421.06   12.10
   3   5  -1  843.42   23.30
   3   5  -1  832.62   20.60
  -3  -5   1  837.72   20.70
   2   5  -1    2.60    0.90
  -2  -5   1    0.30    0.50
  -2  -5   1    0.30    0.90
   1   5  -1  722.53   17.80
  -1  -5   1  725.43   20.40
  -1  -5   1  717.13   17.40
   0   5  -1 2373.26   52.89
   0  -5   1 2357.16   56.09
   0  -5   1 2389.46   52.29
  -1   5  -1  139.59    4.30
  -1   5  -1  132.59    4.70
   1  -5   1  144.29    4.30
   1  -5   1  132.39    7.10
  -2   5  -1   31.90    1.90
  -2   5  -1   31.10    2.00
   2  -5   1   31.70    3.20
   2  -5   1   31.20    1.60
  -3   5  -1  816.72   20.60
  -3   5  -1  832.52   19.80
   3  -5   1  840.82   22.80
  -4   5  -1  177.28    5.50
  -4   5  -1  182.68    6.80
   4  -5   1  173.38    7.70
  -5   5  -1   45.40    3.40
   5  -5   1   45.90    3.90
  -6   5  -1    2.50    1.30
   6  -5   1    3.50    1.80
   5   4  -1  550.24   17.50
  -5  -4   1  544.25   15.20
   4   4  -1    5.00    1.10
   4   4  -1    7.40    1.90
  -4  -4   1    8.20    1.50
   3   4  -1  282.47    8.00
   3   4  -1  278.17    9.80
  -3  -4   1  271.07    8.20
   2   4  -1 2103.29   47.70
  -2  -4   1 2146.39   50.09
  -2  -4   1 2174.38   47.80
   1   4  -1  387.96   10.50
  -1  -4   1  399.86   10.40
  -1  -4   1  455.45   12.90
   0   4  -1   71.49    2.90
   0   4  -1   74.99    2.20
   0  -4   1   74.79    2.70
   0  -4   1   75.29    4.40
  -1   4  -1  822.82   18.30
  -1   4  -1  786.72   18.50
   1  -4   1  803.42   18.10
   1  -4   1  742.43   21.50
  -2   4  -1  700.93   16.60
  -2   4  -1  712.83   17.10
   2  -4   1  698.23   16.30
   2  -4   1  709.33   18.80
  -3   4  -1  297.37    8.80
  -3   4  -1  307.87    7.90
   3  -4   1  296.87    7.80
   3  -4   1  300.77    9.80
  -4   4  -1   42.80    2.10
  -4   4  -1   40.50    2.80
   4  -4   1   38.90    3.10
  -5   4  -1  233.88    8.50
   5  -4   1  241.88    9.30
  -6   4  -1  279.97   10.20
   6  -4   1  302.17   11.40
   6   3  -1   73.09    5.30
  -6  -3   1   69.69    4.10
   5   3  -1   56.59    4.20
  -5  -3   1   64.09    3.50
   4   3  -1 1261.97   31.80
   4   3  -1 1283.07   29.30
  -4  -3   1 1291.07   30.00
   3   3  -1  618.84   14.90
   3   3  -1  604.84   16.60
  -3  -3   1  619.74   15.20
   2   3  -1    1.50    0.50
  -2  -3   1    2.00    0.80
  -2  -3   1    1.60    0.50
   1   3  -1 1107.09   25.30
  -1  -3   1 1112.79   25.20
  -1  -3   1 1148.19   27.00
   0   3  -1 2420.56   51.49
   0   3  -1 2455.95   51.29
   0  -3   1 2189.18   53.69
   0  -3   1 2343.67   51.19
  -1   3  -1  236.18    6.20
  -1   3  -1  240.18    6.20
   1  -3   1  241.28    7.70
   1  -3   1  236.18    6.00
  -2   3  -1  336.57    9.00
  -2   3  -1  338.37    8.40
   2  -3   1  341.27    8.40
   2  -3   1  335.17    9.60
  -3   3  -1  738.13   16.60
  -3   3  -1  733.23   18.00
   3  -3   1  714.63   18.50
   3  -3   1  729.43   17.20
  -4   3  -1  728.73   18.70
   4  -3   1  740.83   19.40
   4  -3   1  737.53   17.80
  -5   3  -1  810.12   21.00
   5  -3   1  804.92   19.80
   5  -3   1  806.62   21.80
  -6   3  -1   12.70    2.10
   6  -3   1   16.70    2.50
   6  -3   1   13.20    2.50
   6   2  -1  545.85   17.30
  -6  -2   1  571.44   15.40
   5   2  -1  715.03   20.10
  -5  -2   1  742.73   18.50
   4   2  -1    1.00    0.50
   4   2  -1    0.30    0.70
  -4  -2   1    1.40    0.60
   3   2  -1  432.76   12.00
   3   2  -1  424.56   10.50
  -3  -2   1  426.86   10.40
  -3  -2   1  441.56   11.00
   2   2  -1 1573.04   35.70
   2   2  -1 1543.15   34.50
  -2  -2   1 1571.94   34.00
  -2  -2   1 1566.84   34.80
   1   2  -1  240.48    6.30
  -1  -2   1  246.88    6.40
  -1  -2   1  272.37    7.30
   0   2  -1  275.97    6.20
   0   2  -1  268.97    6.50
   0  -2   1  256.57    6.40
   0  -2   1  259.17    7.90
  -1   2  -1 1960.50   43.30
  -1   2  -1 1931.71   42.30
   1  -2   1 1922.61   43.20
   1  -2   1 1991.00   42.40
  -2   2  -1  588.34   13.90
  -2   2  -1  582.04   13.00
   2  -2   1  563.14   14.10
   2  -2   1  561.94   13.50
  -3   2  -1 2839.92   62.09
  -3   2  -1 2746.33   61.29
  -3   2  -1 2861.61   61.59
   3  -2   1 2775.32   62.49
  -4   2  -1   36.80    2.00
  -4   2  -1   33.80    2.30
   4  -2   1   36.50    2.70
  -5   2  -1  485.35   13.70
  -5   2  -1  476.95   12.70
   5  -2   1  502.55   14.60
  -6   2  -1  707.33   17.90
  -6   2  -1  689.33   18.90
   6  -2   1  694.23   20.10
   6   1  -1   36.20    3.40
  -6  -1   1   42.70    2.80
  -6  -1   1   41.00    2.80
   5   1  -1   25.00    2.50
  -5  -1   1   26.30    2.00
  -5  -1   1   28.70    2.10
   4   1  -1 1592.94   38.90
   4   1  -1 1691.53   36.90
  -4  -1   1 1672.53   37.70
  -4  -1   1 1716.33   37.70
   3   1  -1  315.97    7.70
   3   1  -1  315.67    9.00
  -3  -1   1  311.57    8.10
  -3  -1   1  302.67    8.00
   2   1  -1  480.05   11.80
   2   1  -1  474.15   10.90
  -2  -1   1  468.65   11.10
  -2  -1   1  469.45   11.00
   1   1  -1  645.24   14.70
   1   1  -1  664.23   15.10
  -1  -1   1  678.43   14.80
  -1  -1   1  651.73   14.50
   0   1  -1 2356.36   51.99
   0   1  -1 2234.48   51.79
   0  -1   1 2417.96   52.29
  -1   1  -1 4309.17   95.89
  -1   1  -1 4256.67   92.79
   1  -1   1 4323.67   95.79
   1  -1   1 4157.88   94.09
  -2   1  -1   44.90    2.00
  -2   1  -1   42.30    1.20
   2  -1   1   45.10    2.10
  -3   1  -1  608.64   14.50
  -3   1  -1  623.34   15.10
  -4   1  -1 2142.49   47.10
  -4   1  -1 2107.19   47.80
   4  -1   1 2100.09   48.50
  -5   1  -1  996.40   24.60
  -5   1  -1  997.30   23.70
   5  -1   1  998.70   25.60
  -6   1  -1  122.59    5.50
  -6   1  -1  122.29    5.00
   6  -1   1  119.49    6.20
   6   0  -1  920.61   24.70
  -6   0   1  912.01   22.50
  -6   0   1  912.41   23.20
   5   0  -1  403.16   12.50
  -5   0   1  418.96   11.60
  -5   0   1  416.36   11.00
   4   0  -1  388.46    9.20
   4   0  -1  393.76   11.30
  -4   0   1  386.96   10.00
  -4   0   1  391.86   10.50
   3   0  -1  836.02   18.60
   3   0  -1  848.32   20.20
  -3   0   1  837.82   19.10
  -3   0   1  812.32   19.40
   2   0  -1  785.22   18.10
   2   0  -1  784.42   17.20
  -2   0   1  760.12   17.30
  -2   0   1  757.12   17.60
   1   0  -1 1053.89   22.90
   1   0  -1 1072.19   23.20
  -1   0   1 1053.29   23.30
  -1   0   1 1035.30   23.50
   0   0  -1  919.11   19.20
   0   0  -1  806.42   19.30
   0   0   1  899.81   19.30
  -1   0  -1 2157.48   46.00
  -1   0  -1 2148.49   46.20
  -1   0  -1 2147.59   49.00
   1   0   1 2056.09   48.50
  -2   0  -1 2009.70   45.30
  -2   0  -1 2126.49   45.10
  -3   0  -1 2454.95   53.69
  -3   0  -1 2429.46   53.39
   3   0   1 2421.26   54.49
  -4   0  -1    0.40    0.50
  -4   0  -1    0.60    0.50
   4   0   1    0.30    0.50
  -5   0  -1  290.97    8.90
  -5   0  -1  280.87    8.40
   5   0   1  289.97    9.90
  -6   0  -1 1093.39   26.90
  -6   0  -1 1058.99   26.20
   6   0   1 1080.89   28.50
   7  -1  -1  242.58   10.20
  -7   1   1  252.57    9.20
   6  -1  -1   34.70    3.20
  -6   1   1   30.80    2.60
  -6   1   1   35.50    2.40
   5  -1  -1  104.79    5.10
  -5   1   1  103.89    3.90
  -5   1   1  102.19    4.50
   4  -1  -1  446.76   12.70
   4  -1  -1  469.95   10.60
  -4   1   1  445.86   12.10
  -4   1   1  469.35   11.40
   3  -1  -1 1141.79   26.70
   3  -1  -1 1149.19   25.10
  -3   1   1 1123.39   26.20
  -3   1   1 1147.29   25.40
   2  -1  -1 1075.39   23.50
   2  -1  -1 1056.09   24.50
  -2   1   1 1077.59   23.50
   1  -1  -1   35.50    1.30
   1  -1  -1   41.90    1.70
  -1   1   1   36.40    1.00
   0  -1  -1  460.95    9.70
   0  -1  -1  453.45    9.90
   0  -1  -1  380.36   10.90
   0   1   1  454.35    9.90
  -1  -1  -1 9948.20  207.88
  -1  -1  -1 8625.94  248.18
   1   1   1 9999.00  235.18
  -2  -1  -1   32.00    1.50
  -2  -1  -1   35.20    1.50
   2   1   1   37.30    2.10
   2   1   1   35.40    1.20
  -3  -1  -1  477.15   11.80
  -3  -1  -1  480.75   11.90
   3   1   1  475.15   13.00
   3   1   1  494.15   11.00
  -4  -1  -1 2647.14   58.19
  -4  -1  -1 2636.74   58.09
   4   1   1 2577.94   59.69
  -5  -1  -1  329.57    9.60
  -5  -1  -1  330.97    9.70
   5   1   1  330.37   11.20
  -6  -1  -1    1.30    0.80
  -6  -1  -1    2.10    1.00
   6   1   1    0.60    1.10
   6  -2  -1  434.86   14.00
  -6   2   1  428.26   13.10
   5  -2  -1  264.07    9.30
  -5   2   1  260.27    7.40
  -5   2   1  263.67    8.60
   4  -2  -1 1216.98   29.50
   4  -2  -1 1222.08   26.90
  -4   2   1 1212.68   28.80
  -4   2   1 1218.18   27.50
   3  -2  -1   63.29    3.20
   3  -2  -1   65.09    2.20
  -3   2   1   63.99    2.20
  -3   2   1   62.59    2.90
   2  -2  -1 1096.29   23.80
   2  -2  -1 1068.89   24.10
   2  -2  -1 1085.79   25.20
  -2   2   1 1089.49   24.70
   1  -2  -1 5357.76  133.09
   1  -2  -1 6022.90  142.09
   1  -2  -1 6192.18  130.79
  -1   2   1 6045.90  131.59
   0  -2  -1   95.39    2.60
   0  -2  -1   94.29    4.30
   0   2   1   98.99    2.70
   0   2   1   92.89    2.80
  -1  -2  -1  228.88    5.70
  -1  -2  -1  239.18    7.30
  -1  -2  -1  228.88    5.80
   1   2   1  225.18    5.80
  -2  -2  -1 5684.03  122.09
  -2  -2  -1 5474.55  119.49
  -2  -2  -1 5100.19  118.59
   2   2   1 5474.35  118.79
  -3  -2  -1  350.86    9.20
  -3  -2  -1  351.26    8.90
   3   2   1  355.06   10.60
   3   2   1  343.67    8.50
  -4  -2  -1    8.10    1.30
   4   2   1    8.10    1.90
  -5  -2  -1  300.87    9.10
   5   2   1  293.07   10.80
  -6  -2  -1  308.47    9.90
   6   2   1  312.17   12.00
   6  -3  -1  396.06   13.30
  -6   3   1  381.46   12.30
   5  -3  -1   95.59    5.10
  -5   3   1   88.29    4.50
   4  -3  -1  109.59    3.70
   4  -3  -1  117.19    5.20
  -4   3   1  109.19    3.50
  -4   3   1  107.69    4.60
   3  -3  -1 3624.04   83.59
   3  -3  -1 3781.62   82.79
  -3   3   1 3782.52   82.79
  -3   3   1 3878.91   83.09
   2  -3  -1  644.84   16.60
   2  -3  -1  665.43   14.40
  -2   3   1  625.94   15.50
  -2   3   1  654.53   15.10
   1  -3  -1  110.99    5.00
   1  -3  -1  116.49    3.00
  -1   3   1  111.49    3.60
  -1   3   1  114.19    3.60
   0  -3  -1 2781.12   67.29
   0  -3  -1 2970.90   63.89
   0   3   1 2997.20   64.49
   0   3   1 3083.49   65.09
  -1  -3  -1 1217.28   27.60
  -1  -3  -1 1173.78   30.30
   1   3   1 1339.77   27.00
   1   3   1 1224.98   27.80
  -2  -3  -1   30.00    1.70
  -2  -3  -1   30.30    2.60
  -2  -3  -1   35.20    1.50
   2   3   1   28.70    1.60
  -3  -3  -1  571.64   14.80
   3   3   1  606.74   14.40
   3   3   1  629.84   17.20
  -4  -3  -1  572.74   15.30
   4   3   1  620.74   17.80
  -5  -3  -1  105.99    4.70
   5   3   1  111.69    6.40
   6  -4  -1   73.59    5.10
  -6   4   1   61.79    4.20
   5  -4  -1 1532.65   37.60
  -5   4   1 1473.05   36.10
   4  -4  -1  372.16   12.10
  -4   4   1  389.36   11.20
  -4   4   1  381.36    9.80
   3  -4  -1    3.70    1.20
   3  -4  -1    2.40    0.60
  -3   4   1    3.40    0.70
  -3   4   1    3.10    0.90
   2  -4  -1 2545.25   59.99
   2  -4  -1 2624.04   56.39
  -2   4   1 2625.24   57.79
  -2   4   1 2657.13   57.59
   1  -4  -1 2529.15   54.19
   1  -4  -1 2371.76   58.89
  -1   4   1 2561.64   55.19
  -1   4   1 2538.25   54.79
   0  -4  -1    7.80    0.70
   0  -4  -1   14.50    2.60
   0   4   1    7.20    1.00
   0   4   1    9.30    0.70
  -1  -4  -1  145.59    7.00
  -1  -4  -1  168.38    4.80
   1   4   1  163.28    5.10
  -2  -4  -1 1195.18   30.80
  -2  -4  -1 1187.58   27.40
   2   4   1 1202.28   27.50
  -3  -4  -1  162.38    5.50
   3   4   1  162.98    5.40
   3   4   1  169.88    7.60
   4   4   1   27.50    3.20
  -5  -4  -1  100.69    4.80
   6  -5  -1  393.66   14.00
  -6   5   1  342.97   12.20
   5  -5  -1    8.10    2.30
  -5   5   1    5.30    1.40
   4  -5  -1  789.12   22.30
  -4   5   1  799.02   19.10
  -4   5   1  790.12   20.50
   3  -5  -1 1452.15   36.30
  -3   5   1 1429.46   33.00
  -3   5   1 1439.16   33.70
   2  -5  -1  180.58    8.30
  -2   5   1  173.08    5.70
  -2   5   1  178.58    5.80
   1  -5  -1   94.09    3.00
   1  -5  -1   97.09    6.20
  -1   5   1   90.69    3.70
  -1   5   1   91.79    3.30
   0  -5  -1 1437.76   31.90
   0  -5  -1 1411.46   36.50
   0   5   1 1430.46   32.80
  -1  -5  -1  118.79    4.10
  -1  -5  -1  113.59    6.50
   1   5   1  124.39    4.50
  -2  -5  -1  220.68    9.70
  -2  -5  -1  215.48    6.70
   2   5   1  218.88    6.90
  -3  -5  -1   91.29    4.00
  -3  -5  -1   96.79    6.30
   3   5   1   89.09    3.90
  -4  -5  -1  152.18    6.00
   4   5   1  160.28    8.50
   5  -6  -1 1073.59   30.40
  -5   6   1 1084.09   27.80
   4  -6  -1  114.89    6.90
  -4   6   1  111.89    5.20
  -4   6   1  109.19    4.40
   3  -6  -1    8.70    2.50
  -3   6   1    7.90    1.50
  -3   6   1    6.40    1.20
   2  -6  -1 1023.60   30.80
  -2   6   1 1092.79   25.50
  -2   6   1 1086.49   25.70
   1  -6  -1  561.14   18.60
  -1   6   1  538.25   14.40
   0  -6  -1  213.58    6.20
   0  -6  -1  210.28    9.60
   0   6   1  216.48    7.10
  -1  -6  -1  111.69    4.20
  -1  -6  -1  118.39    7.00
   1   6   1  109.19    4.60
  -2  -6  -1  144.99    5.20
  -2  -6  -1  137.69    8.00
   2   6   1  136.89    5.40
  -3  -6  -1  273.07   12.30
  -3  -6  -1  285.97    8.90
   3   6   1  295.77    9.10
   4  -7  -1  799.32   25.90
  -4   7   1  796.32   20.30
  -4   7   1  812.22   21.40
   3  -7  -1  288.07   13.70
  -3   7   1  287.27    9.10
   2  -7  -1   72.49    6.40
  -2   7   1   77.19    3.90
   1  -7  -1   48.90    4.90
  -1   7   1   47.10    3.10
   0  -7  -1  240.18   11.00
   0   7   1  249.28    8.30
  -1  -7  -1  174.78    5.80
  -1  -7  -1  164.08    8.90
   1   7   1  175.48    6.70
  -2  -7  -1  124.49    5.00
  -2  -7  -1  125.09    8.00
   2   7   1  128.29    5.70
   1  -8  -1  128.09    8.10
  -1   8   1  111.29    5.40
   0   8  -2  251.37    9.10
   0  -8   2  283.77   11.80
  -1   8  -2   84.49    4.50
   1  -8   2   81.69    6.10
  -2   8  -2  112.39    5.30
   2  -8   2  114.79    7.80
   2   7  -2  169.98    6.70
  -2  -7   2  161.48    6.20
  -2  -7   2  177.38    8.50
   1   7  -2   70.99    3.90
  -1  -7   2   69.99    3.50
  -1  -7   2   67.89    5.00
   0   7  -2  205.18    7.40
   0  -7   2  213.68    6.80
   0  -7   2  228.18    9.70
  -1   7  -2  251.87    8.30
   1  -7   2  246.58   10.80
   1  -7   2  256.87    7.50
  -2   7  -2  287.87    9.00
   2  -7   2  285.27   12.80
  -3   7  -2  932.81   22.80
   3  -7   2  901.71   28.30
  -4   7  -2    1.00    1.00
   4  -7   2    2.50    1.80
   3   6  -2   84.09    4.20
   3   6  -2   84.89    5.40
  -3  -6   2   89.89    4.30
   2   6  -2  194.18    6.80
  -2  -6   2  189.28    6.60
  -2  -6   2  196.08    8.50
   1   6  -2  177.08    6.30
  -1  -6   2  177.68    7.90
  -1  -6   2  182.78    6.00
   0   6  -2  428.36   11.90
   0  -6   2  422.26   11.30
   0  -6   2  444.36   14.30
  -1   6  -2 1380.76   32.60
   1  -6   2 1409.26   31.90
   1  -6   2 1414.36   36.60
  -2   6  -2    6.10    1.20
  -2   6  -2    8.80    1.40
   2  -6   2    7.30    1.10
   2  -6   2    8.80    2.60
  -3   6  -2  373.26   10.80
  -3   6  -2  362.86   10.20
   3  -6   2  352.76   13.30
  -4   6  -2  945.21   24.40
  -4   6  -2  963.20   24.30
   4  -6   2  944.81   26.70
  -5   6  -2  188.58    7.80
   5  -6   2  201.78    9.40
   4   5  -2  182.98    6.60
   4   5  -2  186.68    8.30
  -4  -5   2  193.08    6.90
   3   5  -2  114.89    5.90
   3   5  -2  113.89    4.70
  -3  -5   2  113.99    4.70
   2   5  -2  246.78    7.60
  -2  -5   2  247.18    7.50
  -2  -5   2  250.17    9.20
   1   5  -2  945.41   22.90
  -1  -5   2  993.40   25.20
  -1  -5   2  956.30   22.70
   0   5  -2  115.99    4.30
   0  -5   2  118.19    5.80
   0  -5   2  113.69    4.00
  -1   5  -2  395.36    9.80
  -1   5  -2  375.56   10.30
   1  -5   2  385.76    9.90
   1  -5   2  389.56   13.40
  -2   5  -2 1410.46   32.60
  -2   5  -2 1430.26   32.80
   2  -5   2 1431.26   32.20
   2  -5   2 1443.16   36.00
  -3   5  -2 1048.80   25.20
  -3   5  -2 1033.80   24.20
   3  -5   2 1033.80   24.10
   3  -5   2 1050.59   27.20
  -4   5  -2   25.90    2.40
   4  -5   2   29.20    2.00
   4  -5   2   32.30    3.10
  -5   5  -2  216.28    8.20
   5  -5   2  213.38    9.10
  -6   5  -2  404.96   13.50
   6  -5   2  431.36   15.00
   5   4  -2   17.60    2.90
  -5  -4   2   17.00    2.20
   4   4  -2  123.29    4.70
   4   4  -2  125.69    6.10
  -4  -4   2  121.19    5.00
   3   4  -2  887.51   21.20
   3   4  -2  885.21   23.00
  -3  -4   2  869.81   21.30
   2   4  -2  550.84   13.80
  -2  -4   2  547.95   15.30
  -2  -4   2  550.94   13.80
   1   4  -2  147.99    4.90
  -1  -4   2  161.68    6.10
  -1  -4   2  148.19    4.70
   0   4  -2 1616.94   35.50
   0   4  -2 1639.44   36.50
   0  -4   2 1610.54   36.10
   0  -4   2 1626.04   38.70
  -1   4  -2 2636.94   56.59
  -1   4  -2 2683.03   56.39
   1  -4   2 2578.84   56.29
   1  -4   2 2394.66   59.49
  -2   4  -2    8.50    0.90
  -2   4  -2    9.70    1.30
   2  -4   2   10.60    1.80
   2  -4   2    9.40    0.90
  -3   4  -2  565.84   14.70
  -3   4  -2  564.14   13.50
   3  -4   2  551.54   15.50
   3  -4   2  564.14   13.80
  -4   4  -2 1781.52   41.20
   4  -4   2 1760.82   40.00
   4  -4   2 1742.83   42.00
  -5   4  -2  104.29    5.10
   5  -4   2  103.59    4.40
   5  -4   2  105.89    5.70
  -6   4  -2    1.10    1.00
   6  -4   2    1.80    1.30
   6   3  -2  127.59    6.90
  -6  -3   2  130.79    5.70
   5   3  -2  471.05   14.60
  -5  -3   2  451.75   12.80
   4   3  -2  600.04   14.80
   4   3  -2  593.84   16.70
  -4  -3   2  586.44   15.20
   3   3  -2   70.89    2.90
   3   3  -2   72.19    3.70
  -3  -3   2   62.99    3.00
   2   3  -2 1073.39   25.00
  -2  -3   2 1132.69   26.40
  -2  -3   2 1081.79   25.10
   1   3  -2 3508.65   75.69
  -1  -3   2 3463.95   79.19
  -1  -3   2 3460.95   75.59
   0   3  -2    6.20    0.80
   0   3  -2    8.80    0.70
   0  -3   2   10.50    1.70
   0  -3   2    9.10    0.80
  -1   3  -2 1191.38   26.50
  -1   3  -2 1182.98   26.50
   1  -3   2 1160.28   28.00
   1  -3   2 1202.08   26.50
  -2   3  -2 2618.74   58.59
  -2   3  -2 2701.43   57.89
   2  -3   2 2677.73   58.29
   2  -3   2 2643.94   59.29
  -3   3  -2  344.17    9.70
  -3   3  -2  355.26    8.40
   3  -3   2  331.37    9.10
   3  -3   2  342.57   10.10
  -4   3  -2    1.20    0.70
   4  -3   2    4.10    0.90
   4  -3   2    0.60    0.70
  -5   3  -2  192.38    7.20
   5  -3   2  197.38    6.60
   5  -3   2  186.98    7.70
  -6   3  -2  268.97    9.60
   6  -3   2  258.47   10.20
   6  -3   2  273.67    8.70
   6   2  -2  321.37   11.70
  -6  -2   2  324.47   10.10
   5   2  -2    5.40    1.60
  -5  -2   2    2.60    0.90
   4   2  -2  531.85   13.10
   4   2  -2  533.45   14.90
  -4  -2   2  538.95   13.70
   3   2  -2 3097.79   68.59
   3   2  -2 3225.98   70.09
  -3  -2   2 3194.48   68.99
  -3  -2   2 3074.69   68.29
   2   2  -2  402.16    9.90
   2   2  -2  400.96   10.60
  -2  -2   2  421.16   10.10
  -2  -2   2  398.16    9.40
   1   2  -2  293.67    7.40
  -1  -2   2  308.17    8.00
  -1  -2   2  296.07    7.50
  -1  -2   2  303.37    6.90
   0   2  -2 3364.96   73.49
   0   2  -2 3289.37   73.19
   0  -2   2 3372.06   72.69
   0  -2   2 3143.99   73.59
  -1   2  -2 1401.16   31.90
  -1   2  -2 1442.76   31.60
   1  -2   2 1489.95   32.00
   1  -2   2 1446.56   32.30
  -2   2  -2   71.09    2.80
  -2   2  -2   75.79    2.20
   2  -2   2   73.89    3.00
   2  -2   2   75.39    2.80
  -3   2  -2  181.78    4.40
  -3   2  -2  189.58    5.90
   3  -2   2  177.58    6.00
   3  -2   2  176.18    5.40
  -4   2  -2 1040.60   24.00
  -4   2  -2 1022.20   24.80
   4  -2   2 1003.10   25.20
  -5   2  -2  341.87   10.70
  -5   2  -2  363.36   10.10
   5  -2   2  352.46   11.40
  -6   2  -2  156.98    6.70
  -6   2  -2  153.98    5.90
   6  -2   2  156.48    7.30
   6   1  -2  216.98    8.80
  -6  -1   2  212.08    7.30
  -6  -1   2  217.38    7.50
   5   1  -2 1593.54   38.40
  -5  -1   2 1606.84   36.60
  -5  -1   2 1583.94   36.80
   4   1  -2  634.34   16.80
   4   1  -2  644.84   15.20
  -4  -1   2  636.34   15.70
  -4  -1   2  647.84   15.60
   3   1  -2  349.67    8.70
   3   1  -2  352.76    9.80
  -3  -1   2  340.47    8.90
  -3  -1   2  362.76    9.00
   2   1  -2 3473.35   74.49
   2   1  -2 3380.76   74.69
  -2  -1   2 3411.16   76.59
  -2  -1   2 3435.86   74.09
   1   1  -2 2667.83   61.29
   1   1  -2 2771.42   62.79
  -1  -1   2 2773.62   61.79
  -1  -1   2 2765.42   61.39
   0   1  -2    2.00    0.50
   0   1  -2    2.30    0.40
   0  -1   2    3.30    0.50
   0  -1   2    2.90    0.50
  -1   1  -2  173.58    4.30
   1  -1   2  176.98    4.70
   1  -1   2  182.08    4.60
  -2   1  -2 2059.59   46.80
  -2   1  -2 2144.09   46.60
   2  -1   2 2175.18   47.00
  -3   1  -2  100.69    3.50
  -3   1  -2  100.09    3.80
   3  -1   2   95.79    3.90
  -4   1  -2  551.24   13.90
  -4   1  -2  554.74   14.50
   4  -1   2  561.24   15.10
  -5   1  -2  170.28    6.50
  -5   1  -2  181.88    6.10
   5  -1   2  180.88    7.20
  -6   1  -2  495.05   14.30
  -6   1  -2  493.45   13.60
   6  -1   2  474.65   15.30
   6   0  -2  279.37   10.20
  -6   0   2  274.37    8.50
  -6   0   2  281.67    9.20
   5   0  -2   85.19    4.50
  -5   0   2   84.99    3.50
  -5   0   2   86.89    4.00
   4   0  -2 1017.70   24.70
   4   0  -2  984.00   22.70
  -4   0   2 1000.10   23.70
  -4   0   2 1020.50   23.20
   3   0  -2 3113.69   67.69
   3   0  -2 2948.21   66.39
  -3   0   2 3087.19   69.69
  -3   0   2 3101.89   66.49
   2   0  -2    4.70    0.60
   2   0  -2    4.10    0.80
  -2   0   2    3.50    0.60
   1   0  -2   12.40    0.80
  -1   0   2   14.70    0.70
  -1   0   2   13.70    0.90
   0   0  -2 1274.97   30.60
   0   0  -2 1336.97   31.30
   0   0  -2 1442.76   30.10
   0   0   2 1467.15   30.40
  -1   0  -2  982.10   23.00
  -1   0  -2 1053.19   22.40
  -1   0  -2 1064.19   22.80
   1   0   2 1021.70   22.90
  -2   0  -2 1466.45   32.30
  -2   0  -2 1424.06   32.00
   2   0   2 1446.66   32.60
  -3   0  -2  218.08    6.20
  -3   0  -2  224.68    6.50
   3   0   2  230.88    7.10
  -4   0  -2  584.64   15.00
  -4   0  -2  596.54   14.60
   4   0   2  579.44   15.80
  -5   0  -2 1211.18   28.70
  -5   0  -2 1233.88   29.30
   5   0   2 1200.68   30.50
  -6   0  -2  115.49    4.90
  -6   0  -2  104.79    5.10
   6   0   2  107.69    6.00
   6  -1  -2  283.27   10.40
  -6   1   2  293.37    8.60
  -6   1   2  293.67    9.70
   5  -1  -2 1459.55   35.50
  -5   1   2 1465.95   33.30
  -5   1   2 1473.95   34.60
   4  -1  -2  133.29    5.30
   4  -1  -2  140.49    4.00
  -4   1   2  134.09    5.00
  -4   1   2  136.59    4.20
   3  -1  -2    6.60    0.70
   3  -1  -2    4.00    0.90
  -3   1   2    6.70    1.10
  -3   1   2    8.90    0.70
   2  -1  -2 4083.99   89.29
   2  -1  -2 4021.50   89.49
  -2   1   2 4015.70   88.59
  -2   1   2 4043.60   93.49
   1  -1  -2 1777.32   38.70
   1  -1  -2 1826.52   40.10
  -1   1   2 1708.43   39.70
   0  -1  -2 1605.74   39.10
   0  -1  -2 1774.92   38.90
   0  -1  -2 1785.52   38.00
   0  -1  -2 1800.72   38.40
  -1  -1  -2    4.10    0.60
  -1  -1  -2    4.80    1.00
  -2  -1  -2 1655.13   36.40
  -2  -1  -2 1648.14   36.30
   2   1   2 1652.03   35.70
   2   1   2 1624.14   37.30
  -3  -1  -2 1304.77   29.70
  -3  -1  -2 1312.77   29.80
   3   1   2 1318.27   31.00
   3   1   2 1307.17   28.50
  -4  -1  -2  245.98    7.40
  -4  -1  -2  249.38    7.50
   4   1   2  256.07    8.70
  -5  -1  -2  237.08    7.70
  -5  -1  -2  248.08    7.90
   5   1   2  246.58    9.20
  -6  -1  -2  443.06   12.70
  -6  -1  -2  443.96   12.90
   6   1   2  423.26   14.60
   6  -2  -2  161.28    7.40
  -6   2   2  176.38    7.10
   5  -2  -2   20.80    2.30
  -5   2   2   21.90    2.10
  -5   2   2   20.30    1.90
   4  -2  -2 1221.28   29.80
   4  -2  -2 1240.98   27.60
  -4   2   2 1226.68   27.60
  -4   2   2 1248.48   29.30
   3  -2  -2  895.21   21.50
   3  -2  -2  891.21   20.00
  -3   2   2  847.62   21.00
  -3   2   2  889.31   19.60
   2  -2  -2  737.23   18.50
   2  -2  -2  761.22   17.50
   2  -2  -2  802.82   16.80
  -2   2   2  774.12   18.10
   1  -2  -2  105.09    3.20
   1  -2  -2   97.89    3.90
  -1   2   2  102.79    3.30
   0  -2  -2  961.60   21.80
   0  -2  -2  949.11   21.30
   0  -2  -2  966.90   24.00
   0   2   2 1023.40   21.80
  -1  -2  -2  929.11   20.30
  -1  -2  -2  904.81   20.70
  -1  -2  -2  856.71   22.00
   1   2   2  928.51   20.40
  -2  -2  -2 2223.88   49.60
  -2  -2  -2 2286.97   49.70
  -2  -2  -2 2262.27   51.49
   2   2   2 2278.97   49.30
  -3  -2  -2  304.87    8.10
  -3  -2  -2  298.87    8.20
   3   2   2  301.57    7.50
   3   2   2  299.67    9.60
  -4  -2  -2  425.46   11.40
  -4  -2  -2  402.16   11.10
   4   2   2  405.06   12.90
  -5  -2  -2  939.21   22.90
   5   2   2  913.91   25.20
  -6  -2  -2    8.70    1.70
   6   2   2    8.90    2.30
   6  -3  -2  374.76   13.00
  -6   3   2  382.26   12.30
   5  -3  -2  583.64   16.90
  -5   3   2  585.24   16.20
   4  -3  -2  108.09    5.00
   4  -3  -2   98.69    3.40
  -4   3   2   98.29    4.40
   3  -3  -2   57.19    1.80
   3  -3  -2   54.89    2.30
   3  -3  -2   52.59    3.20
  -3   3   2   55.69    2.80
   2  -3  -2  919.11   21.00
   2  -3  -2  911.01   22.50
  -2   3   2  906.51   21.40
   1  -3  -2 1435.66   35.60
   1  -3  -2 1499.95   33.40
   1  -3  -2 1540.25   32.30
  -1   3   2 1495.95   33.40
   0  -3  -2 2493.15   57.89
   0  -3  -2 2507.55   54.19
   0   3   2 2506.05   54.89
   0   3   2 2515.55   55.79
  -1  -3  -2   36.50    3.00
  -1  -3  -2   42.70    1.80
   1   3   2   50.09    1.80
   1   3   2   42.40    2.00
  -2  -3  -2  417.26   10.60
  -2  -3  -2  421.86   10.50
  -2  -3  -2  434.16   13.10
   2   3   2  419.46   10.50
  -3  -3  -2 2739.03   60.39
   3   3   2 2669.63   62.99
   3   3   2 2765.32   59.69
  -4  -3  -2   11.70    1.60
   4   3   2    9.70    2.10
  -5  -3  -2   83.99    4.20
   5   3   2   79.79    5.50
   6  -4  -2  134.69    7.20
  -6   4   2  136.69    6.50
   5  -4  -2   38.90    3.50
  -5   4   2   35.10    2.90
   4  -4  -2  529.25   15.80
  -4   4   2  555.44   13.50
  -4   4   2  550.64   14.90
   3  -4  -2  163.38    6.70
  -3   4   2  160.08    5.70
  -3   4   2  162.58    5.10
   2  -4  -2 2032.00   47.40
   2  -4  -2 2008.10   43.20
  -2   4   2 2012.40   44.70
  -2   4   2 1963.60   44.90
   1  -4  -2   15.50    0.80
   1  -4  -2   15.10    2.70
  -1   4   2   14.40    1.20
  -1   4   2   13.70    1.20
   0  -4  -2  668.53   15.30
   0  -4  -2  698.33   19.40
   0   4   2  645.44   16.10
   0   4   2  661.23   15.40
  -1  -4  -2 2569.64   54.09
  -1  -4  -2 2199.38   57.59
   1   4   2 2611.04   54.69
  -2  -4  -2  307.87    8.10
  -2  -4  -2  281.57   10.80
   2   4   2  290.77    8.10
  -3  -4  -2   23.20    3.60
  -3  -4  -2   16.10    1.60
   3   4   2   18.90    1.50
  -4  -4  -2  732.23   18.60
   4   4   2  719.83   21.80
  -5  -4  -2  171.88    6.70
   5   4   2  174.88    9.10
   6  -5  -2   65.79    5.20
  -6   5   2   66.19    4.50
   5  -5  -2  115.09    6.50
  -5   5   2  118.09    5.70
   4  -5  -2 1033.80   27.80
  -4   5   2 1025.00   25.70
  -4   5   2 1036.50   24.40
   3  -5  -2    6.30    1.90
  -3   5   2    4.70    1.00
  -3   5   2    6.00    1.30
   2  -5  -2   59.39    4.70
  -2   5   2   56.89    2.80
  -2   5   2   54.59    2.80
   1  -5  -2 2638.94   56.99
   1  -5  -2 2669.53   63.39
  -1   5   2 2606.24   58.49
  -1   5   2 2586.74   57.79
   0  -5  -2  791.52   22.90
   0  -5  -2  801.22   18.50
   0   5   2  804.62   19.50
  -1  -5  -2   74.99    5.20
  -1  -5  -2   71.39    2.90
   1   5   2   70.89    3.30
  -2  -5  -2  537.15   18.40
  -2  -5  -2  591.24   14.70
   2   5   2  620.64   15.10
  -3  -5  -2  698.93   17.60
  -3  -5  -2  677.43   21.70
   3   5   2  704.93   17.50
  -4  -5  -2   22.40    2.10
   4   5   2   19.50    3.70
   5  -6  -2  124.79    7.50
  -5   6   2  122.49    6.00
   4  -6  -2   75.39    5.60
  -4   6   2   73.09    4.20
  -4   6   2   74.39    3.60
   3  -6  -2 1113.39   31.80
  -3   6   2 1134.39   27.60
  -3   6   2 1156.28   27.20
   2  -6  -2  589.64   20.40
  -2   6   2  600.84   15.40
  -2   6   2  600.04   15.60
   1  -6  -2    2.30    1.60
  -1   6   2    2.80    0.90
   0  -6  -2  676.23   21.10
   0  -6  -2  696.13   17.00
   0   6   2  705.23   17.90
  -1  -6  -2 1033.50   23.90
  -1  -6  -2  973.90   28.60
   1   6   2 1037.60   24.90
  -2  -6  -2    4.30    1.00
  -2  -6  -2    5.60    2.30
   2   6   2    5.00    1.30
  -3  -6  -2    0.20    0.80
  -3  -6  -2   -0.10    1.50
   3   6   2   -0.50    0.70
   4  -7  -2  753.92   25.20
  -4   7   2  762.92   20.70
  -4   7   2  787.92   19.90
   3  -7  -2    1.10    1.70
  -3   7   2    1.10    0.80
   2  -7  -2  179.28   10.20
  -2   7   2  180.18    6.80
   1  -7  -2  794.52   24.40
  -1   7   2  740.73   19.80
   0  -7  -2   91.89    6.50
   0   7   2   95.99    4.70
  -1  -7  -2    0.90    1.50
   1   7   2    0.20    0.80
  -2  -7  -2  270.37   12.70
  -2  -7  -2  284.57    8.70
   2   7   2  279.67    9.40
   0   8  -3    4.80    1.40
   0  -8   3    7.50    2.30
   0  -8   3    7.00    1.40
  -1   8  -3   86.09    4.60
   1  -8   3   87.89    6.10
  -2   8  -3  327.77   10.50
   2  -8   3  335.77   13.80
   2   7  -3    0.10    1.00
  -2  -7   3    0.20    1.00
  -2  -7   3    0.30    0.80
   1   7  -3   26.60    2.50
  -1  -7   3   31.10    3.20
  -1  -7   3   27.70    2.30
   0   7  -3  368.86   11.00
   0  -7   3  358.36   12.80
   0  -7   3  370.26   10.40
  -1   7  -3  198.98    6.90
   1  -7   3  174.28    8.60
   1  -7   3  189.28    6.20
  -2   7  -3    2.30    0.90
   2  -7   3    1.40    1.70
   2  -7   3    1.60    0.70
  -3   7  -3    6.60    1.40
   3  -7   3    5.40    2.50
  -4   7  -3  303.57   10.40
   4  -7   3  312.37   13.30
   3   6  -3   58.09    3.50
   3   6  -3   54.99    4.20
  -3  -6   3   50.79    3.30
   2   6  -3  509.95   14.10
  -2  -6   3  518.45   15.70
  -2  -6   3  515.95   13.90
   1   6  -3  213.98    7.30
  -1  -6   3  229.48    8.70
  -1  -6   3  226.08    7.10
   0   6  -3    3.00    0.90
   0  -6   3    2.40    0.80
   0  -6   3    4.20    1.50
  -1   6  -3    4.40    1.10
   1  -6   3    6.60    2.00
   1  -6   3    3.30    0.90
  -2   6  -3  589.54   15.10
  -2   6  -3  594.64   15.00
   2  -6   3  562.44   18.80
   2  -6   3  573.14   14.50
  -3   6  -3  184.08    6.10
  -3   6  -3  184.78    6.70
   3  -6   3  193.08    8.90
   3  -6   3  184.98    5.90
  -4   6  -3  460.85   13.50
   4  -6   3  444.16   15.30
  -5   6  -3  159.28    7.10
   5  -6   3  152.58    8.00
   4   5  -3  177.58    6.50
   4   5  -3  176.38    7.80
  -4  -5   3  174.98    6.60
   3   5  -3  539.05   16.00
   3   5  -3  559.74   14.70
  -3  -5   3  558.94   14.80
   2   5  -3   25.40    2.10
  -2  -5   3   29.00    2.10
  -2  -5   3   29.20    2.60
   1   5  -3   32.90    2.20
  -1  -5   3   31.40    2.00
  -1  -5   3   33.00    2.70
   0   5  -3  533.95   13.60
   0  -5   3  525.05   13.30
   0  -5   3  533.25   15.30
  -1   5  -3  375.26    9.70
  -1   5  -3  371.36   10.00
   1  -5   3  363.26    9.70
   1  -5   3  379.46   12.80
  -2   5  -3 1008.90   23.70
  -2   5  -3 1031.30   23.50
   2  -5   3  980.50   23.10
   2  -5   3  953.40   26.20
  -3   5  -3  201.28    6.90
  -3   5  -3  205.38    6.10
   3  -5   3  199.48    6.20
   3  -5   3  203.38    8.10
  -4   5  -3  666.93   18.00
   4  -5   3  667.33   19.10
   4  -5   3  674.33   16.80
  -5   5  -3 1021.00   26.60
   5  -5   3 1049.49   27.90
   5   4  -3  504.25   15.80
  -5  -4   3  504.35   14.20
   4   4  -3   17.50    1.80
   4   4  -3   20.30    2.80
  -4  -4   3   17.70    2.10
   3   4  -3   40.20    2.90
   3   4  -3   34.00    2.30
  -3  -4   3   37.20    2.40
   2   4  -3 1026.60   24.10
  -2  -4   3 1035.50   24.10
  -2  -4   3 1007.40   25.10
   1   4  -3  596.24   14.50
  -1  -4   3  579.54   15.40
  -1  -4   3  575.74   14.30
   0   4  -3 1190.18   27.10
   0   4  -3 1184.78   27.80
   0  -4   3 1193.78   27.60
   0  -4   3 1296.97   29.50
  -1   4  -3   60.89    2.60
  -1   4  -3   64.99    2.60
   1  -4   3   56.09    3.80
   1  -4   3   58.09    2.50
  -2   4  -3  907.31   21.10
  -2   4  -3  903.11   21.60
   2  -4   3  921.61   23.00
   2  -4   3  920.71   21.40
  -3   4  -3 1512.55   33.10
  -3   4  -3 1486.15   34.50
   3  -4   3 1450.05   35.20
   3  -4   3 1472.85   33.80
  -4   4  -3  123.39    5.30
   4  -4   3  116.09    5.60
   4  -4   3  119.99    4.70
  -5   4  -3  398.06   12.30
   5  -4   3  387.26   11.30
   5  -4   3  390.66   12.90
  -6   4  -3  444.56   14.30
   6  -4   3  466.95   15.30
   6   3  -3   35.30    3.50
  -6  -3   3   30.40    2.70
   5   3  -3    1.40    1.10
  -5  -3   3    0.70    0.70
   4   3  -3  522.65   13.50
   4   3  -3  531.95   15.10
  -4  -3   3  535.65   14.00
   3   3  -3  342.27    9.10
   3   3  -3  326.67   10.00
  -3  -3   3  332.07    9.20
   2   3  -3 1092.89   25.60
   2   3  -3 1075.99   24.90
  -2  -3   3 1078.29   24.90
  -2  -3   3 1081.89   23.70
   1   3  -3    0.40    0.50
  -1  -3   3    2.00    0.40
  -1  -3   3    0.10    0.40
  -1  -3   3    0.50    0.50
   0   3  -3  800.02   18.40
   0   3  -3  807.12   18.70
   0  -3   3  799.02   18.60
   0  -3   3  829.82   19.70
  -1   3  -3 2209.38   49.10
  -1   3  -3 2225.38   48.90
   1  -3   3 2243.68   50.29
   1  -3   3 2248.28   49.10
  -2   3  -3 1170.48   27.60
  -2   3  -3 1214.98   26.80
   2  -3   3 1212.48   28.10
   2  -3   3 1205.28   27.50
  -3   3  -3  335.07    8.10
  -3   3  -3  321.27    9.50
   3  -3   3  336.47    9.80
   3  -3   3  336.77    9.20
  -4   3  -3  858.51   21.50
   4  -3   3  853.21   20.90
   4  -3   3  843.42   21.80
  -5   3  -3  972.60   24.90
   5  -3   3  980.10   25.50
   5  -3   3  982.10   24.00
  -6   3  -3    1.40    1.00
   6  -3   3    2.40    1.40
   6  -3   3    3.40    1.10
   6   2  -3  152.08    7.20
  -6  -2   3  159.98    6.20
   5   2  -3  283.77    9.80
  -5  -2   3  280.47    8.60
   4   2  -3  437.96   12.90
   4   2  -3  460.45   11.70
  -4  -2   3  469.45   12.00
   3   2  -3   35.30    1.90
   3   2  -3   34.40    2.30
  -3  -2   3   34.40    1.70
  -3  -2   3   34.90    2.00
   2   2  -3  915.21   21.30
   2   2  -3  900.91   20.90
  -2  -2   3  920.31   20.40
  -2  -2   3  903.71   20.90
   1   2  -3 2678.03   59.69
  -1  -2   3 2782.02   62.99
  -1  -2   3 2761.82   60.49
  -1  -2   3 2754.72   60.69
   0   2  -3 3386.96   81.19
   0   2  -3 3760.62   80.39
   0  -2   3 3397.36   82.89
   0  -2   3 3828.12   79.99
  -1   2  -3  235.38    6.30
  -1   2  -3  222.48    5.80
   1  -2   3  233.08    6.30
   1  -2   3  235.38    6.20
  -2   2  -3 1917.71   41.80
  -2   2  -3 1938.01   43.00
   2  -2   3 1939.91   42.90
   2  -2   3 1899.01   42.80
  -3   2  -3 2439.46   54.59
  -3   2  -3 2470.75   52.59
   3  -2   3 2417.86   54.69
   3  -2   3 2438.36   54.09
  -4   2  -3    9.70    1.60
  -4   2  -3    7.40    1.20
   4  -2   3    6.40    1.40
  -5   2  -3  161.58    6.50
  -5   2  -3  159.78    5.80
   5  -2   3  170.78    7.00
  -6   2  -3  508.25   14.10
  -6   2  -3  490.55   14.90
   6  -2   3  507.05   15.80
   6   1  -3  163.68    7.30
  -6  -1   3  166.68    6.30
  -6  -1   3  163.78    6.00
   5   1  -3   68.49    4.10
  -5  -1   3   70.49    3.40
  -5  -1   3   69.69    3.30
   4   1  -3  324.97    8.60
   4   1  -3  329.07    9.90
  -4  -1   3  324.57    8.80
  -4  -1   3  319.77    8.90
   3   1  -3 1026.90   24.40
   3   1  -3 1037.10   23.60
  -3  -1   3 1040.20   23.60
  -3  -1   3 1032.80   23.80
   2   1  -3 2784.22   60.89
   2   1  -3 2823.32   61.19
  -2  -1   3 2798.32   63.49
  -2  -1   3 2778.72   60.69
   1   1  -3  103.29    3.10
   1   1  -3  106.79    3.00
  -1  -1   3   95.49    3.00
  -1  -1   3  101.09    3.20
   0   1  -3 1895.01   44.00
   0   1  -3 2023.90   43.40
   0  -1   3 2059.59   43.50
  -1   1  -3 6436.86  137.69
  -1   1  -3 6029.60  141.49
   1  -1   3 6394.56  138.29
   1  -1   3 6324.37  139.99
  -2   1  -3  569.54   14.50
  -2   1  -3  606.64   13.30
  -2   1  -3  621.14   14.30
   2  -1   3  602.24   14.40
  -3   1  -3  279.87    8.20
   3  -1   3  298.27    8.50
  -4   1  -3  652.33   16.10
  -4   1  -3  639.24   16.60
   4  -1   3  646.84   17.10
  -5   1  -3  428.86   11.90
  -5   1  -3  435.06   12.60
   5  -1   3  433.86   13.30
  -6   1  -3   14.50    2.30
  -6   1  -3   15.10    2.10
   6  -1   3   16.80    3.00
   6   0  -3   44.10    3.50
  -6   0   3   41.50    3.00
  -6   0   3   45.40    2.70
   5   0  -3  350.26   11.20
  -5   0   3  365.96    9.80
  -5   0   3  364.36   10.60
   4   0  -3 1783.82   41.30
   4   0  -3 1781.22   39.80
  -4   0   3 1783.82   39.80
  -4   0   3 1804.72   40.70
   3   0  -3   90.29    3.20
   3   0  -3   94.39    3.80
  -3   0   3   94.39    3.00
  -3   0   3   94.19    3.50
   2   0  -3 1514.05   35.00
   2   0  -3 1623.64   35.30
  -2   0   3 1614.74   34.60
  -2   0   3 1579.94   35.30
   1   0  -3 8208.68  164.08
   1   0  -3 7747.32  164.58
  -1   0   3 6829.02  166.18
  -1   0   3 6952.00  189.28
   0   0  -3 1799.12   40.30
   0   0  -3 1850.11   39.80
   0   0   3 1811.82   39.60
  -1   0  -3  539.15   13.50
  -1   0  -3  576.44   12.90
  -1   0  -3  586.04   13.20
   1   0   3  571.24   13.20
  -2   0  -3 1941.01   42.50
  -2   0  -3 1935.51   41.50
  -2   0  -3 1935.21   42.80
   2   0   3 1894.51   42.90
  -3   0  -3 1741.03   39.20
  -3   0  -3 1738.33   38.90
   3   0   3 1726.63   39.70
  -4   0  -3    2.00    0.80
  -4   0  -3    1.80    0.70
   4   0   3    1.10    0.80
  -5   0  -3   11.30    1.80
  -5   0  -3    8.10    1.40
   5   0   3    8.90    2.00
  -6   0  -3  283.87    9.20
  -6   0  -3  275.67    9.60
   6   0   3  286.07   10.80
   6  -1  -3 1043.50   27.60
  -6   1   3 1071.79   26.80
   5  -1  -3  130.49    5.80
  -5   1   3  125.49    5.20
  -5   1   3  127.89    4.30
   4  -1  -3  513.35   14.00
   4  -1  -3  518.25   12.50
  -4   1   3  509.75   13.60
  -4   1   3  512.55   12.30
   3  -1  -3 2607.14   57.99
   3  -1  -3 2641.64   59.09
  -3   1   3 2611.04   57.49
  -3   1   3 2770.82   61.29
   2  -1  -3 1944.11   42.90
   2  -1  -3 1950.70   42.40
  -2   1   3 1885.71   42.40
   1  -1  -3 1619.24   35.30
  -1   1   3 1533.25   35.10
  -1   1   3 1620.34   37.00
   0  -1  -3 2172.78   45.80
   0  -1  -3 2109.59   46.20
   0  -1  -3 2067.29   46.80
   0  -1  -3 2137.79   47.40
  -1  -1  -3 2242.98   51.09
  -1  -1  -3 2395.86   50.29
  -1  -1  -3 2399.66   50.39
  -1  -1  -3 2222.18   51.19
  -2  -1  -3  114.09    3.80
  -2  -1  -3  115.59    3.70
   2   1   3  111.49    4.30
   2   1   3  115.29    3.10
  -3  -1  -3   50.19    2.40
  -3  -1  -3   53.39    2.50
   3   1   3   47.70    2.90
   3   1   3   50.49    1.60
  -4  -1  -3  481.15   12.50
  -4  -1  -3  475.45   12.60
   4   1   3  466.75   13.80
  -5  -1  -3  171.98    6.20
  -5  -1  -3  174.78    6.40
   5   1   3  179.38    7.60
  -6  -1  -3  368.16   11.30
  -6  -1  -3  378.56   11.60
   6   1   3  365.36   13.20
   6  -2  -3  111.39    5.90
  -6   2   3  109.59    5.40
   5  -2  -3 1098.29   27.40
  -5   2   3 1055.19   26.60
   4  -2  -3 1411.96   31.00
   4  -2  -3 1339.57   32.80
  -4   2   3 1380.06   30.50
  -4   2   3 1367.66   32.40
   3  -2  -3   43.60    2.60
   3  -2  -3   43.10    2.00
  -3   2   3   45.20    1.50
   2  -2  -3  339.27    8.60
   2  -2  -3  334.67    9.40
  -2   2   3  342.67    9.10
   1  -2  -3 3792.42   82.59
   1  -2  -3 3716.43   88.09
  -1   2   3 3936.61   89.39
   0  -2  -3   99.59    3.20
   0  -2  -3  101.09    4.50
   0  -2  -3  103.09    2.80
   0   2   3   98.59    3.30
  -1  -2  -3   59.09    2.20
  -1  -2  -3   58.59    2.20
  -1  -2  -3   59.69    2.60
  -1  -2  -3   55.39    3.10
  -2  -2  -3  582.54   14.00
  -2  -2  -3  587.34   15.70
  -2  -2  -3  598.64   14.40
   2   2   3  569.74   13.60
  -3  -2  -3 1067.89   25.10
  -3  -2  -3 1114.89   25.30
   3   2   3 1059.89   24.20
   3   2   3 1082.49   27.00
  -4  -2  -3  613.24   15.90
  -4  -2  -3  625.34   15.90
   4   2   3  646.54   18.10
  -5  -2  -3    0.50    0.70
   5   2   3    1.90    1.30
  -6  -2  -3  228.58    8.20
   6   2   3  230.68   10.20
   6  -3  -3 1134.89   30.30
  -6   3   3 1173.38   29.50
   5  -3  -3   20.40    2.40
  -5   3   3   23.30    2.30
   4  -3  -3  293.07    8.20
   4  -3  -3  308.67   10.00
  -4   3   3  311.77    9.50
   3  -3  -3 2070.89   47.00
   3  -3  -3 2048.40   45.20
  -3   3   3 1987.50   46.10
   2  -3  -3  291.47    9.20
   2  -3  -3  292.97    7.90
  -2   3   3  292.57    8.20
   1  -3  -3   79.79    4.20
   1  -3  -3   62.79    1.70
   1  -3  -3   60.59    2.60
  -1   3   3   59.29    2.60
   0  -3  -3 1253.17   28.90
   0  -3  -3 1326.67   31.80
   0  -3  -3 1251.07   28.10
   0   3   3 1287.17   28.80
  -1  -3  -3  971.90   22.20
  -1  -3  -3  969.90   25.20
   1   3   3 1002.80   22.60
   1   3   3  981.10   22.60
  -2  -3  -3  459.15   14.00
  -2  -3  -3  472.05   11.80
  -2  -3  -3  452.25   11.60
   2   3   3  470.55   11.50
  -3  -3  -3  134.59    4.80
  -3  -3  -3  139.89    5.60
   3   3   3  131.49    6.30
   3   3   3  131.59    4.20
  -4  -3  -3  559.54   14.60
   4   3   3  545.95   17.10
  -5  -3  -3  312.87    9.80
   5   3   3  306.77   12.20
  -6   4   3   42.90    3.50
   5  -4  -3 1200.88   31.20
  -5   4   3 1212.68   30.10
   4  -4  -3  511.45   15.30
   4  -4  -3  514.25   13.10
  -4   4   3  507.05   14.30
   3  -4  -3    8.50    1.80
   3  -4  -3    6.30    1.00
  -3   4   3    6.90    1.30
   2  -4  -3  139.59    4.80
   2  -4  -3  152.68    6.70
  -2   4   3  145.59    5.10
   1  -4  -3  861.91   18.70
   1  -4  -3  809.22   23.50
  -1   4   3  862.71   20.00
  -1   4   3  849.22   20.20
   0  -4  -3  571.94   16.60
   0  -4  -3  540.95   12.70
   0   4   3  537.05   13.70
   0   4   3  532.75   13.10
  -1  -4  -3  145.69    7.00
  -1  -4  -3  146.89    4.50
   1   4   3  149.19    4.40
   1   4   3  143.09    4.90
  -2  -4  -3  438.56   11.20
  -2  -4  -3  394.16   14.00
   2   4   3  446.56   11.30
  -3  -4  -3  430.26   11.50
  -3  -4  -3  389.06   14.20
   3   4   3  439.86   11.10
  -4  -4  -3  943.81   22.70
   4   4   3  880.31   26.00
  -5  -4  -3   34.30    2.80
   5   4   3   27.40    4.30
   5  -5  -3   50.09    4.20
  -5   5   3   47.80    3.60
   4  -5  -3  120.79    6.60
  -4   5   3  122.19    5.50
  -4   5   3  120.39    4.60
   3  -5  -3  965.40   26.90
  -3   5   3 1015.60   23.90
  -3   5   3  995.80   24.40
   2  -5  -3  138.09    7.50
  -2   5   3  144.39    5.20
  -2   5   3  147.59    5.20
   1  -5  -3  539.45   17.40
  -1   5   3  499.05   13.00
  -1   5   3  511.15   13.50
   0  -5  -3  357.36   12.70
   0   5   3  347.07    9.90
  -1  -5  -3  517.15   13.10
  -1  -5  -3  540.95   17.30
   1   5   3  531.75   13.90
  -2  -5  -3  768.42   24.10
  -2  -5  -3  841.92   20.10
   2   5   3  868.41   20.50
  -3  -5  -3    2.50    0.90
  -3  -5  -3    2.10    1.60
   3   5   3    2.00    0.90
  -4  -5  -3  117.79    5.00
   4   5   3   95.49    6.90
   5  -6  -3  339.37   14.00
  -5   6   3  404.46   12.60
   4  -6  -3  143.59    8.00
  -4   6   3  137.39    5.40
  -4   6   3  134.49    6.00
   3  -6  -3  302.27   12.80
  -3   6   3  305.27    9.30
  -3   6   3  311.77    9.70
   2  -6  -3  161.18    9.10
  -2   6   3  155.78    5.70
  -2   6   3  163.38    6.00
   1  -6  -3   97.29    6.50
  -1   6   3   83.39    4.10
   0  -6  -3 1276.27   33.80
   0   6   3 1234.28   30.00
  -1  -6  -3   45.40    2.50
  -1  -6  -3   45.50    4.40
   1   6   3   45.20    3.00
  -2  -6  -3  168.68    5.80
  -2  -6  -3  158.68    8.90
   2   6   3  167.58    6.20
  -3  -6  -3  417.26   16.90
  -3  -6  -3  474.15   13.00
   3   6   3  493.75   13.30
   3  -7  -3  164.28   10.30
  -3   7   3  186.18    6.90
   2  -7  -3  926.41   28.80
  -2   7   3  921.41   23.50
   1  -7  -3  138.49    8.30
  -1   7   3  133.59    5.80
   0  -7  -3   28.30    4.20
   0   7   3   30.70    2.70
  -1  -7  -3  696.93   22.30
   1   7   3  677.83   18.50
  -1   8  -4  389.26   12.10
   1  -8   4  383.76   11.20
   1  -8   4  398.96   14.00
   2   7  -4  442.26   13.10
  -2  -7   4  433.26   12.70
  -2  -7   4  443.06   14.20
   1   7  -4  359.36   10.90
  -1  -7   4  334.67   11.80
  -1  -7   4  354.26   10.40
   0   7  -4  442.26   13.00
   0  -7   4  462.85   14.60
   0  -7   4  450.85   12.40
  -1   7  -4  147.59    5.90
   1  -7   4  147.09    7.30
   1  -7   4  143.09    5.40
  -2   7  -4  276.37    8.90
   2  -7   4  286.77   11.90
   2  -7   4  272.87    8.30
  -3   7  -4  455.35   12.70
   3  -7   4  444.56   16.90
  -4   7  -4   12.40    2.20
   4  -7   4   24.10    4.10
   3   6  -4  252.77    8.40
   3   6  -4  235.38    9.20
  -3  -6   4  237.58    8.20
   2   6  -4  826.12   20.80
  -2  -6   4  787.62   20.40
  -2  -6   4  825.52   21.90
   1   6  -4  174.38    6.40
  -1  -6   4  172.98    7.10
  -1  -6   4  176.78    6.10
   0   6  -4  267.87    8.40
   0  -6   4  270.87    9.50
   0  -6   4  266.77    8.10
  -1   6  -4 1003.70   24.10
   1  -6   4  987.90   26.50
   1  -6   4  988.60   23.70
  -2   6  -4   50.59    2.90
  -2   6  -4   53.29    2.90
   2  -6   4   52.29    4.60
   2  -6   4   53.19    2.80
  -3   6  -4   37.30    2.80
  -3   6  -4   42.30    2.50
   3  -6   4   38.10    3.80
   3  -6   4   38.60    2.40
  -4   6  -4  150.38    6.50
   4  -6   4  146.39    5.80
   4  -6   4  148.39    7.50
  -5   6  -4  177.68    7.70
   5  -6   4  167.48    8.40
   4   5  -4  561.24   16.60
   4   5  -4  546.35   15.10
  -4  -5   4  564.14   15.40
   3   5  -4    5.70    1.50
   3   5  -4    2.10    1.00
  -3  -5   4    2.90    1.00
   2   5  -4  435.06   12.00
  -2  -5   4  431.66   12.70
  -2  -5   4  439.46   11.90
   1   5  -4 1792.02   40.30
  -1  -5   4 1707.23   41.00
  -1  -5   4 1792.82   40.20
   0   5  -4  120.19    4.50
   0  -5   4  115.89    4.30
   0  -5   4  123.09    5.30
  -1   5  -4   76.19    3.10
  -1   5  -4   70.89    3.30
   1  -5   4   77.99    4.60
   1  -5   4   74.79    3.20
  -2   5  -4  242.48    7.20
  -2   5  -4  238.68    7.50
   2  -5   4  248.58    7.30
   2  -5   4  241.38    9.20
  -3   5  -4  629.14   16.70
  -3   5  -4  639.14   15.50
   3  -5   4  627.54   17.90
   3  -5   4  630.34   16.00
  -4   5  -4   20.40    2.20
   4  -5   4   18.80    1.80
   4  -5   4   21.00    2.50
  -5   5  -4   52.79    3.90
   5  -5   4   56.99    3.40
   5  -5   4   57.39    4.30
   5   4  -4    2.40    1.30
  -5  -4   4    1.30    0.90
   4   4  -4  324.77    9.60
   4   4  -4  331.67   10.90
  -4  -4   4  326.77    9.90
   3   4  -4  788.62   19.10
   3   4  -4  750.52   19.80
  -3  -4   4  769.52   19.10
   2   4  -4  388.86   10.60
  -2  -4   4  390.06   11.10
   1   4  -4  206.88    6.20
  -1  -4   4  210.58    6.60
  -1  -4   4  198.18    6.10
  -1  -4   4  191.78    5.30
   0   4  -4  346.17    9.40
   0   4  -4  351.86    9.20
   0  -4   4  360.46    9.40
   0  -4   4  356.76   10.10
  -1   4  -4  993.40   22.60
  -1   4  -4  992.40   22.50
   1  -4   4  952.30   22.60
   1  -4   4  928.91   24.50
  -2   4  -4  114.49    4.40
  -2   4  -4  117.39    3.90
   2  -4   4  119.79    5.00
   2  -4   4  121.29    4.30
  -3   4  -4  373.96   10.80
  -3   4  -4  372.66    9.40
   3  -4   4  360.66   10.20
   3  -4   4  368.56   11.10
  -4   4  -4  462.45   13.50
   4  -4   4  468.55   13.80
   4  -4   4  460.85   12.80
  -5   4  -4  348.17   11.60
   5  -4   4  361.26   10.80
   5  -4   4  347.07   11.80
  -6   4  -4  496.95   15.50
   6  -4   4  488.75   16.00
   6  -4   4  495.45   14.40
   5   3  -4  562.84   16.50
  -5  -3   4  569.94   15.30
   4   3  -4  573.24   15.90
   4   3  -4  578.64   14.70
  -4  -3   4  568.34   14.90
   3   3  -4   83.19    3.90
   3   3  -4   83.19    3.50
  -3  -3   4   86.29    3.60
   2   3  -4   66.09    3.00
   2   3  -4   61.89    2.80
  -2  -3   4   69.29    2.30
   1   3  -4 1936.01   43.10
  -1  -3   4 1963.90   43.10
  -1  -3   4 1915.41   43.20
   0   3  -4  208.98    6.00
   0   3  -4  197.58    5.80
   0  -3   4  214.28    6.20
   0  -3   4  214.88    6.00
  -1   3  -4  464.55   11.80
  -1   3  -4  465.35   11.50
   1  -3   4  491.75   12.50
   1  -3   4  473.25   11.90
  -2   3  -4  786.52   18.90
  -2   3  -4  777.02   17.90
   2  -3   4  778.22   18.80
   2  -3   4  783.02   18.90
  -3   3  -4 1134.99   27.10
  -3   3  -4 1133.59   25.30
   3  -3   4 1137.29   26.70
   3  -3   4 1130.69   27.10
  -4   3  -4 1246.48   30.00
   4  -3   4 1220.08   29.30
   4  -3   4 1239.68   30.10
  -5   3  -4   10.40    2.00
   5  -3   4   14.50    2.00
   5  -3   4   11.20    2.10
  -6   3  -4  484.45   15.10
   6  -3   4  491.85   14.10
   6  -3   4  478.55   15.40
   6   2  -4  550.84   16.60
  -6  -2   4  537.05   14.90
   5   2  -4    1.70    1.00
  -5  -2   4    0.70    0.60
   4   2  -4  108.89    4.80
   4   2  -4  105.19    4.00
  -4  -2   4  108.59    4.50
  -4  -2   4  103.59    4.10
   3   2  -4 1400.06   31.90
   3   2  -4 1416.26   32.60
  -3  -2   4 1402.46   31.60
  -3  -2   4 1405.26   31.90
   2   2  -4   88.89    3.30
   2   2  -4   93.79    3.40
  -2  -2   4   96.39    3.10
  -2  -2   4   95.99    3.30
   1   2  -4  463.55   11.30
   1   2  -4  458.45   11.60
  -1  -2   4  448.26   11.50
  -1  -2   4  538.25   12.10
   0   2  -4 1108.29   25.00
   0   2  -4 1119.59   25.70
   0  -2   4 1099.99   24.70
   0  -2   4 1131.09   25.20
  -1   2  -4 1458.95   32.40
  -1   2  -4 1488.35   33.10
   1  -2   4 1486.45   32.50
   1  -2   4 1435.06   33.00
  -2   2  -4 1896.11   41.90
  -2   2  -4 1849.31   40.60
   2  -2   4 1850.31   41.40
   2  -2   4 1847.22   41.70
  -3   2  -4   64.39    1.90
  -3   2  -4   57.19    3.00
   3  -2   4   61.39    2.90
   3  -2   4   60.39    3.00
  -4   2  -4  873.81   22.10
   4  -2   4  888.11   21.40
   4  -2   4  877.91   22.20
  -5   2  -4  815.12   21.40
   5  -2   4  801.22   21.60
   5  -2   4  827.12   20.60
  -6   2  -4  256.27    9.60
   6  -2   4  258.67   10.00
   6  -2   4  256.97    8.70
   6   1  -4   18.30    2.70
  -6  -1   4   20.50    2.00
  -6  -1   4   21.20    2.10
   5   1  -4  775.92   20.50
  -5  -1   4  790.92   19.40
  -5  -1   4  751.52   18.90
   4   1  -4  351.46   10.30
   4   1  -4  340.47    9.40
  -4  -1   4  354.76    9.40
  -4  -1   4  349.77    9.70
   3   1  -4  332.57    9.20
   3   1  -4  337.17    8.90
  -3  -1   4  331.97    8.60
  -3  -1   4  331.97    8.90
   2   1  -4  187.68    5.40
   2   1  -4  188.68    5.40
  -2  -1   4  188.58    5.10
  -2  -1   4  184.58    5.40
   1   1  -4 1227.38   26.10
   1   1  -4 1169.28   26.60
  -1  -1   4 1208.98   27.20
  -1  -1   4 1144.09   26.40
   0   1  -4 2122.19   48.70
   0   1  -4 2231.38   47.60
   0  -1   4 2184.98   47.70
  -1   1  -4  508.45   12.60
  -1   1  -4  517.95   11.90
   1  -1   4  513.05   11.60
   1  -1   4  500.05   12.30
  -2   1  -4 1624.34   35.40
  -2   1  -4 1662.83   36.80
   2  -1   4 1613.34   36.20
   2  -1   4 1591.94   36.30
  -3   1  -4 2012.40   46.70
  -3   1  -4 2119.79   46.30
   3  -1   4 2080.39   46.70
  -4   1  -4 1151.58   27.40
  -4   1  -4 1129.19   26.70
   4  -1   4 1119.19   27.60
  -5   1  -4   77.59    3.80
  -5   1  -4   83.29    4.30
   5  -1   4   79.09    4.50
  -6   1  -4  254.67    8.70
  -6   1  -4  262.07    9.40
   6  -1   4  253.87    9.90
   6   0  -4  294.27   10.50
  -6   0   4  296.67    8.80
  -6   0   4  303.27    9.90
   5   0  -4  126.59    5.60
  -5   0   4  121.39    5.10
  -5   0   4  128.39    4.50
   4   0  -4   85.59    3.30
   4   0  -4   76.29    3.80
  -4   0   4   80.19    3.00
  -4   0   4   83.49    3.70
   3   0  -4 1241.18   29.00
   3   0  -4 1260.77   28.60
  -3   0   4 1261.07   27.90
  -3   0   4 1250.27   28.90
   2   0  -4 1295.87   28.90
   2   0  -4 1282.37   29.00
  -2   0   4 1272.67   28.20
  -2   0   4 1279.77   29.10
   1   0  -4  906.01   21.20
   1   0  -4  935.41   20.70
  -1   0   4  969.90   21.60
  -1   0   4  900.01   20.60
   0   0  -4 1313.87   30.80
   0   0  -4 1344.37   29.80
   0   0  -4 1359.16   29.30
   0   0   4 1337.47   29.60
  -1   0  -4 1950.70   43.50
  -1   0  -4 1936.91   42.50
   1   0   4 1948.01   44.20
  -2   0  -4 2440.06   52.79
  -2   0  -4 2372.96   54.09
  -2   0  -4 2553.14   53.79
   2   0   4 2412.96   53.99
  -3   0  -4   40.90    2.40
  -3   0  -4   39.60    2.20
   3   0   4   41.30    2.50
  -4   0  -4  720.03   17.80
  -4   0  -4  724.23   18.20
   4   0   4  703.23   18.80
  -5   0  -4  762.72   19.70
  -5   0  -4  755.12   19.10
   5   0   4  733.63   20.50
  -6   0  -4  114.79    5.50
  -6   0  -4  108.69    5.10
   6   0   4  102.19    6.00
   6  -1  -4   34.60    3.10
  -6   1   4   31.00    2.80
   5  -1  -4  542.95   15.30
  -5   1   4  522.75   14.10
  -5   1   4  537.35   14.80
   4  -1  -4  550.04   14.90
   4  -1  -4  557.64   13.70
  -4   1   4  574.54   14.80
  -4   1   4  543.95   13.10
   3  -1  -4 1092.09   25.50
   3  -1  -4 1099.29   26.20
  -3   1   4 1102.49   24.60
  -3   1   4 1163.58   26.30
   2  -1  -4   69.99    2.90
   2  -1  -4   74.79    2.90
  -2   1   4   81.99    2.10
   1  -1  -4 1354.26   30.80
   1  -1  -4 1344.47   30.60
  -1   1   4 1388.36   30.20
  -1   1   4 1382.86   31.00
   0  -1  -4 4237.28   90.69
   0  -1  -4 4162.78   94.19
   0  -1  -4 3817.22   90.99
   0   1   4 4206.08   89.39
  -1  -1  -4   54.39    2.60
  -1  -1  -4   51.29    2.70
  -1  -1  -4   56.49    2.10
  -1  -1  -4   51.39    2.10
  -2  -1  -4  953.00   22.10
  -2  -1  -4  934.71   20.90
  -2  -1  -4  955.50   21.60
   2   1   4  896.91   22.30
  -3  -1  -4 1889.01   42.30
  -3  -1  -4 1920.41   42.00
   3   1   4 1819.52   43.10
   3   1   4 1842.22   40.60
  -4  -1  -4  574.84   14.80
  -4  -1  -4  570.24   15.10
   4   1   4  586.44   16.30
  -5  -1  -4   65.49    3.60
  -5  -1  -4   71.99    3.80
   5   1   4   70.19    4.50
  -6  -1  -4   79.29    4.50
  -6  -1  -4   78.09    4.30
   6   1   4   76.29    5.30
   6  -2  -4  232.58    9.30
  -6   2   4  249.78    9.00
   5  -2  -4  673.83   18.90
  -5   2   4  715.23   18.70
   4  -2  -4   36.50    2.00
   4  -2  -4   32.80    2.50
  -4   2   4   34.10    2.50
   3  -2  -4 1198.28   27.00
   3  -2  -4 1133.79   28.00
  -3   2   4 1195.28   25.70
  -3   2   4 1198.58   27.90
   2  -2  -4 3883.01   86.29
   2  -2  -4 3943.81   85.49
  -2   2   4 3964.20   92.09
   1  -2  -4  880.21   20.70
   1  -2  -4  910.31   22.00
  -1   2   4  910.21   21.10
  -1   2   4  888.11   19.60
   0  -2  -4 1538.25   33.30
   0  -2  -4 1513.45   34.00
   0  -2  -4 1524.25   35.70
   0   2   4 1514.25   34.50
  -1  -2  -4 2272.97   50.39
  -1  -2  -4 2330.87   49.50
  -1  -2  -4 2291.67   49.30
  -1  -2  -4 2112.99   50.99
  -2  -2  -4  847.42   20.10
  -2  -2  -4  873.11   21.00
   2   2   4  865.91   19.70
  -3  -2  -4  111.19    4.30
  -3  -2  -4  103.79    4.00
   3   2   4  104.79    3.30
   3   2   4  101.39    5.00
  -4  -2  -4  219.18    7.10
  -4  -2  -4  228.58    7.40
   4   2   4  220.98    8.70
  -5  -2  -4  486.85   13.50
   5   2   4  475.85   15.60
   6  -3  -4    0.10    0.80
  -6   3   4   -0.30    0.70
   5  -3  -4  484.35   15.00
  -5   3   4  508.35   14.60
   4  -3  -4 1812.32   40.60
   4  -3  -4 1787.02   42.60
  -4   3   4 1802.62   42.00
   3  -3  -4  648.94   15.70
   3  -3  -4  641.34   17.10
  -3   3   4  636.44   16.50
   2  -3  -4  604.84   16.40
   2  -3  -4  604.94   14.90
  -2   3   4  617.44   15.40
   1  -3  -4 1386.86   31.50
   1  -3  -4 1377.06   34.20
  -1   3   4 1398.76   31.70
   0  -3  -4 2165.18   48.40
   0  -3  -4 2175.68   47.50
   0  -3  -4 2166.28   50.89
   0   3   4 2227.28   48.50
  -1  -3  -4   92.59    3.20
  -1  -3  -4   95.69    4.90
   1   3   4   96.49    3.70
   1   3   4   93.19    3.50
  -2  -3  -4  114.09    4.10
  -2  -3  -4  123.69    4.60
  -2  -3  -4  127.69    6.00
   2   3   4  126.59    4.10
  -3  -3  -4  531.25   13.60
   3   3   4  521.65   15.90
   3   3   4  529.15   12.90
  -4  -3  -4  173.68    6.20
   4   3   4  172.58    8.00
  -5  -3  -4   62.39    3.60
   5   3   4   53.89    4.80
   6  -4  -4  473.75   16.00
  -6   4   4  495.75   15.30
   5  -4  -4  683.13   19.90
  -5   4   4  690.53   19.10
   4  -4  -4  162.68    7.20
   4  -4  -4  168.68    5.60
  -4   4   4  163.88    6.50
   3  -4  -4 1194.88   30.40
   3  -4  -4 1202.58   28.00
  -3   4   4 1207.18   28.90
   2  -4  -4 2110.39   50.79
   2  -4  -4 2135.69   47.90
  -2   4   4 2155.88   48.30
   1  -4  -4    7.40    2.00
   1  -4  -4    9.20    1.30
  -1   4   4    5.20    1.00
   0  -4  -4   43.90    1.80
   0  -4  -4   46.30    3.60
   0   4   4   47.30    2.30
   0   4   4   46.50    2.50
  -1  -4  -4 1255.47   28.40
  -1  -4  -4 1300.67   32.40
   1   4   4 1215.58   29.00
   1   4   4 1250.37   28.60
  -2  -4  -4  232.08    9.40
  -2  -4  -4  203.48    6.40
   2   4   4  211.58    6.60
  -3  -4  -4   41.50    2.50
  -3  -4  -4   40.20    3.90
   3   4   4   40.20    2.30
  -4  -4  -4   20.70    2.10
   4   4   4   20.40    3.50
   5  -5  -4  287.77   11.50
  -5   5   4  298.47   10.20
  -5   5   4  289.17   10.30
   4  -5  -4 1382.96   36.10
  -4   5   4 1411.96   32.80
  -4   5   4 1407.56   34.10
   3  -5  -4   37.20    3.70
  -3   5   4   39.80    2.50
  -3   5   4   40.20    2.80
   2  -5  -4  196.38    9.40
  -2   5   4  182.98    6.40
  -2   5   4  198.88    6.60
   1  -5  -4  811.12   23.20
  -1   5   4  756.72   18.80
  -1   5   4  750.82   19.20
   0  -5  -4  450.25   14.90
   0   5   4  456.25   12.40
  -1  -5  -4  120.99    4.20
  -1  -5  -4  119.99    6.70
   1   5   4  122.39    4.80
  -2  -5  -4   20.60    1.70
  -2  -5  -4   15.80    3.00
   2   5   4   15.30    1.80
  -3  -5  -4  278.37   12.00
  -3  -5  -4  283.07    8.70
   3   5   4  279.27    8.50
  -4  -5  -4  124.49    5.40
   4   5   4  121.89    7.80
   4  -6  -4   11.70    2.90
  -4   6   4    9.70    1.90
  -4   6   4   10.80    1.70
   3  -6  -4  546.45   19.20
  -3   6   4  546.05   14.90
  -3   6   4  549.35   15.20
   2  -6  -4  689.83   22.60
  -2   6   4  682.33   17.70
  -2   6   4  681.23   17.90
   1  -6  -4   33.70    3.80
  -1   6   4   20.00    2.00
   0  -6  -4   12.50    2.70
   0   6   4   12.90    2.00
  -1  -6  -4  484.15   16.80
   1   6   4  493.55   13.80
  -2  -6  -4  276.27    8.50
  -2  -6  -4  302.97   12.70
   2   6   4  283.27    9.10
  -3  -6  -4  160.08    9.30
  -3  -6  -4  157.78    6.00
   3   6   4  152.98    6.10
   3  -7  -4   22.20    4.50
  -3   7   4   24.20    2.40
   2  -7  -4   -0.10    1.30
  -2   7   4    1.80    1.00
   1  -7  -4  522.65   18.20
  -1   7   4  497.15   14.60
   0  -7  -4   85.09    6.20
   0   7   4   81.59    4.50
  -1  -7  -4  386.16   14.90
   1   7   4  376.96   11.80
   2   7  -5  124.19    5.80
  -2  -7   5  124.19    6.10
  -2  -7   5  121.19    5.40
   1   7  -5   50.09    3.50
  -1  -7   5   53.29    3.30
  -1  -7   5   49.40    3.70
   0   7  -5  103.19    4.90
   0  -7   5  103.99    4.60
   0  -7   5  104.49    5.50
  -1   7  -5  489.65   13.80
   1  -7   5  478.15   15.10
   1  -7   5  490.85   13.30
  -2   7  -5  541.75   14.60
   2  -7   5  518.85   17.20
   2  -7   5  511.75   14.00
  -3   7  -5    4.90    1.30
   3  -7   5    8.50    2.90
   3  -7   5    7.50    1.40
   3   6  -5  106.99    5.10
   3   6  -5  101.09    5.40
  -3  -6   5  107.79    5.00
   2   6  -5    3.90    1.30
  -2  -6   5    4.60    1.40
  -2  -6   5    2.20    1.00
   1   6  -5  880.41   21.80
  -1  -6   5  866.71   22.30
  -1  -6   5  843.62   21.40
   0   6  -5  385.36   11.30
   0  -6   5  417.36   12.30
   0  -6   5  390.06   11.10
  -1   6  -5  113.79    4.70
   1  -6   5  109.49    5.50
   1  -6   5  104.29    4.40
  -2   6  -5  760.82   18.90
  -2   6  -5  762.72   19.20
   2  -6   5  757.22   18.90
   2  -6   5  739.93   22.00
  -3   6  -5  609.14   16.80
  -3   6  -5  627.74   15.90
   3  -6   5  634.84   19.10
   3  -6   5  624.74   16.20
  -4   6  -5  364.56   12.00
   4  -6   5  379.56   11.10
   4  -6   5  389.96   13.40
   4   5  -5    7.60    1.60
   4   5  -5    8.90    2.00
  -4  -5   5    7.00    1.60
   3   5  -5  462.95   12.80
   3   5  -5  435.56   13.10
  -3  -5   5  439.26   12.50
   2   5  -5  359.56   10.30
  -2  -5   5  340.37   10.00
  -2  -5   5  347.87   10.60
   1   5  -5  439.96   12.10
  -1  -5   5  429.96   11.90
  -1  -5   5  454.65   12.40
   0   5  -5 1085.69   25.70
   0  -5   5 1092.09   25.60
   0  -5   5 1063.09   26.10
  -1   5  -5  564.04   14.40
  -1   5  -5  560.34   14.30
   1  -5   5  576.04   16.00
   1  -5   5  550.94   14.30
  -2   5  -5  909.51   22.40
  -2   5  -5  921.51   21.90
   2  -5   5  893.51   22.10
   2  -5   5  943.21   24.40
  -3   5  -5   62.79    2.90
  -3   5  -5   66.69    3.70
   3  -5   5   72.79    4.30
   3  -5   5   66.09    3.40
  -4   5  -5  247.68    8.80
   4  -5   5  239.38    8.00
   4  -5   5  235.38    9.00
  -5   5  -5  359.16   12.20
   5  -5   5  357.66   12.50
   5  -5   5  365.76   11.20
   5   4  -5  347.87   11.70
  -5  -4   5  323.27   10.40
   4   4  -5  319.37   10.50
   4   4  -5  316.67    9.70
  -4  -4   5  316.77    9.70
   3   4  -5  550.34   14.90
   3   4  -5  560.34   14.50
  -3  -4   5  532.85   14.30
   2   4  -5  213.68    6.70
   2   4  -5  211.08    6.80
  -2  -4   5  196.98    6.50
   1   4  -5  735.63   17.80
  -1  -4   5  719.73   17.80
   0   4  -5 2051.09   45.90
   0   4  -5 2042.20   46.20
   0  -4   5 2099.39   46.00
   0  -4   5 2018.00   46.10
  -1   4  -5   69.19    2.90
  -1   4  -5   65.59    3.00
   1  -4   5   71.09    3.10
   1  -4   5   64.89    3.60
  -2   4  -5  507.15   12.50
  -2   4  -5  501.65   13.30
   2  -4   5  498.85   13.10
   2  -4   5  508.85   13.80
  -3   4  -5  934.11   21.20
  -3   4  -5  934.51   22.90
   3  -4   5  897.41   22.40
   3  -4   5  908.11   22.90
  -4   4  -5  384.86   11.90
   4  -4   5  390.76   12.00
   4  -4   5  379.66   11.30
  -5   4  -5   16.20    2.50
   5  -4   5   14.20    2.50
   5  -4   5   13.40    2.00
  -6   4  -5   18.20    2.90
   6  -4   5   21.40    3.30
   6  -4   5   21.90    2.70
   5   3  -5  685.23   18.80
  -5  -3   5  660.13   17.50
   4   3  -5  135.79    5.20
   4   3  -5  149.19    5.90
  -4  -3   5  134.39    5.20
   3   3  -5  974.20   24.10
   3   3  -5  989.80   23.70
  -3  -3   5  982.20   23.60
  -3  -3   5 1033.80   24.30
   2   3  -5 1816.42   41.10
   2   3  -5 1889.21   41.20
  -2  -3   5 1784.12   41.00
  -2  -3   5 1810.72   40.30
   1   3  -5   90.09    3.50
   1   3  -5   90.09    3.60
  -1  -3   5   92.59    3.50
  -1  -3   5   99.29    3.40
   0   3  -5 1020.40   24.00
   0   3  -5 1007.20   23.30
   0  -3   5 1006.60   23.00
   0  -3   5 1005.10   23.40
  -1   3  -5 1408.86   32.10
  -1   3  -5 1407.16   32.70
   1  -3   5 1410.36   32.70
   1  -3   5 1502.45   32.90
  -2   3  -5  435.26   11.70
  -2   3  -5  423.26   10.60
   2  -3   5  424.46   11.50
   2  -3   5  444.06   11.30
  -3   3  -5   83.79    2.80
  -3   3  -5   80.89    3.90
   3  -3   5   90.39    3.90
   3  -3   5   79.59    3.70
  -4   3  -5   16.30    2.00
   4  -3   5   20.10    1.90
   4  -3   5   15.50    2.10
  -5   3  -5  660.93   18.20
   5  -3   5  629.44   17.30
   5  -3   5  644.84   18.10
  -6   3  -5   93.69    5.50
   6  -3   5   96.89    5.00
   6  -3   5   99.59    5.70
   6   2  -5   25.70    2.90
  -6  -2   5   22.70    2.20
   5   2  -5  372.66   11.60
  -5  -2   5  360.46   10.40
   4   2  -5 1531.85   36.30
   4   2  -5 1563.24   35.60
  -4  -2   5 1550.04   35.40
  -4  -2   5 1547.55   35.50
   3   2  -5  294.57    8.50
   3   2  -5  291.47    8.30
  -3  -2   5  286.67    8.10
  -3  -2   5  307.37    8.20
   2   2  -5  834.62   19.60
   2   2  -5  841.42   19.30
  -2  -2   5  808.62   19.30
  -2  -2   5  822.52   19.30
   1   2  -5  705.73   15.60
   1   2  -5  665.43   16.90
   1   2  -5  687.93   16.30
  -1  -2   5  685.63   16.20
   0   2  -5 1613.94   36.70
   0   2  -5 1568.04   37.80
   0  -2   5 1679.53   37.00
   0  -2   5 1746.73   36.50
  -1   2  -5   70.69    2.60
  -1   2  -5   73.79    3.10
   1  -2   5   74.19    2.40
   1  -2   5   66.29    2.90
  -2   2  -5    2.60    0.50
  -2   2  -5    3.40    0.90
   2  -2   5    2.80    0.70
  -3   2  -5  975.10   24.00
  -3   2  -5 1003.10   22.00
   3  -2   5  993.60   23.60
   3  -2   5  984.70   23.70
  -4   2  -5  316.37   10.00
   4  -2   5  322.77    9.50
   4  -2   5  323.67    9.90
  -5   2  -5  355.76   11.30
   5  -2   5  341.27   11.20
   5  -2   5  335.67   10.40
  -6   2  -5  196.78    8.10
   6  -2   5  186.28    8.20
   6  -2   5  186.28    7.30
   6   1  -5  555.84   16.60
  -6  -1   5  570.84   15.00
  -6  -1   5  560.84   15.60
   5   1  -5  388.56   11.90
  -5  -1   5  375.76   10.50
  -5  -1   5  394.86   11.20
   4   1  -5  329.67    9.90
   4   1  -5  336.57    9.40
  -4  -1   5  342.97    9.60
  -4  -1   5  327.47    9.00
   3   1  -5 1153.08   27.40
   3   1  -5 1189.28   27.60
  -3  -1   5 1197.28   27.00
  -3  -1   5 1204.28   27.50
   2   1  -5 2569.94   54.69
   2   1  -5 2567.74   55.09
  -2  -1   5 2434.16   54.59
  -2  -1   5 2409.26   55.09
   1   1  -5   26.00    1.60
   1   1  -5   31.90    1.20
  -1  -1   5   20.90    1.70
   0   1  -5   51.89    2.90
   0   1  -5   47.10    2.10
   0  -1   5   56.49    2.30
  -1   1  -5 1903.51   41.70
  -1   1  -5 1868.41   42.70
   1  -1   5 1891.31   42.20
   1  -1   5 1922.41   41.20
  -2   1  -5  454.95   11.90
  -2   1  -5  460.35   10.60
   2  -1   5  439.46   11.10
   2  -1   5  433.16   11.40
  -3   1  -5  444.56   10.00
  -3   1  -5  447.76   11.70
  -3   1  -5  431.06   12.00
   3  -1   5  437.26   11.80
  -4   1  -5  160.18    5.60
  -4   1  -5  145.99    5.90
   4  -1   5  152.48    6.00
  -5   1  -5  787.02   20.70
  -5   1  -5  783.32   20.00
   5  -1   5  768.82   20.90
  -6   1  -5  464.25   14.20
  -6   1  -5  439.16   13.30
   6  -1   5  455.15   14.70
   6   0  -5  181.68    7.70
  -6   0   5  183.08    7.20
   5   0  -5  370.26   11.60
  -5   0   5  377.56   10.10
  -5   0   5  385.46   11.30
   4   0  -5 1414.26   33.00
   4   0  -5 1371.46   32.20
  -4   0   5 1389.26   31.50
  -4   0   5 1424.56   32.90
   3   0  -5    5.80    1.00
   3   0  -5    6.30    1.10
  -3   0   5    6.70    0.80
  -3   0   5    7.20    1.20
   2   0  -5    6.20    1.00
  -2   0   5    7.50    1.20
  -2   0   5    7.30    0.70
   1   0  -5 1507.25   33.30
   1   0  -5 1524.65   34.10
  -1   0   5 1550.54   34.90
  -1   0   5 1479.65   33.40
   0   0  -5  918.41   22.10
   0   0  -5  882.01   20.80
   0   0  -5  924.11   20.20
   0   0   5  904.11   20.70
  -1   0  -5 1243.88   29.50
  -1   0  -5 1267.87   28.20
   1   0   5 1276.87   28.20
   1   0   5 1265.57   28.50
  -2   0  -5    4.40    0.60
  -2   0  -5    3.00    0.80
  -2   0  -5    3.70    0.80
   2   0   5    3.30    0.80
  -3   0  -5 1191.38   26.50
  -3   0  -5 1243.58   28.20
  -3   0  -5 1231.38   28.70
   3   0   5 1183.98   28.60
  -4   0  -5  923.51   22.00
  -4   0  -5  886.51   22.40
   4   0   5  886.61   22.80
  -5   0  -5  124.29    5.50
  -5   0  -5  122.09    5.20
   5   0   5  126.99    6.10
  -6   0  -5  306.97   10.30
  -6   0  -5  332.47   11.00
   6   0   5  323.57   11.80
   6  -1  -5  791.62   21.80
  -6   1   5  794.32   21.30
   5  -1  -5   49.20    3.40
   5  -1  -5   43.60    3.60
  -5   1   5   50.99    3.30
   4  -1  -5    2.30    0.90
   4  -1  -5    4.80    1.00
  -4   1   5    2.20    0.50
  -4   1   5    1.80    0.80
   3  -1  -5  942.31   22.50
   3  -1  -5  978.20   23.00
  -3   1   5  962.10   21.40
  -3   1   5  956.30   23.10
   2  -1  -5 1707.43   37.30
  -2   1   5 1676.03   35.90
  -2   1   5 1580.74   37.50
   1  -1  -5  989.60   23.60
   1  -1  -5 1035.80   23.70
  -1   1   5 1004.60   22.80
  -1   1   5 1068.99   24.30
   0  -1  -5    8.10    1.00
   0  -1  -5    6.60    1.10
   0   1   5    6.80    0.70
  -1  -1  -5 1891.71   44.50
  -1  -1  -5 1963.00   42.90
  -1  -1  -5 2001.30   42.90
  -1  -1  -5 1924.11   43.60
  -2  -1  -5 1444.06   32.10
  -2  -1  -5 1457.55   32.70
  -2  -1  -5 1471.85   33.70
   2   1   5 1420.26   33.50
  -3  -1  -5  546.35   14.00
  -3  -1  -5  520.75   13.30
   3   1   5  507.55   14.20
   3   1   5  514.25   12.30
  -4  -1  -5  410.06   11.50
  -4  -1  -5  423.16   12.00
   4   1   5  411.56   12.70
  -5  -1  -5  574.84   15.80
  -5  -1  -5  562.74   15.30
   5   1   5  551.84   16.80
  -6  -1  -5  255.07    9.10
  -6  -1  -5  240.98    8.70
   6   1   5  234.08   10.10
   6  -2  -5    1.10    1.00
  -6   2   5    4.10    1.40
   5  -2  -5  407.56   11.80
   5  -2  -5  435.36   13.10
  -5   2   5  426.26   12.80
   4  -2  -5  812.92   19.30
   4  -2  -5  777.82   20.60
  -4   2   5  812.62   20.50
   3  -2  -5  171.58    5.50
   3  -2  -5  172.28    6.10
  -3   2   5  170.78    6.10
   2  -2  -5    2.80    0.70
  -2   2   5    2.70    0.80
   1  -2  -5 1451.05   33.30
   1  -2  -5 1480.45   34.70
  -1   2   5 1458.45   33.80
  -1   2   5 1505.05   32.10
   0  -2  -5 1461.25   33.20
   0  -2  -5 1463.35   32.40
   0  -2  -5 1440.36   34.50
   0   2   5 1526.65   34.20
  -1  -2  -5 1402.56   31.40
  -1  -2  -5 1386.46   31.20
  -1  -2  -5 1408.86   32.90
  -1  -2  -5 1391.16   32.60
  -2  -2  -5  164.48    6.30
  -2  -2  -5  163.38    4.80
  -2  -2  -5  159.28    5.10
  -2  -2  -5  166.98    6.10
  -3  -2  -5  664.73   17.00
  -3  -2  -5  644.24   16.10
   3   2   5  640.54   17.70
   3   2   5  642.54   15.20
  -4  -2  -5  762.12   19.50
  -4  -2  -5  745.53   18.90
   4   2   5  744.53   20.80
  -5  -2  -5   28.00    2.50
   5   2   5   26.80    3.70
   6  -3  -5  364.66   13.00
  -6   3   5  391.36   12.70
   5  -3  -5   85.59    5.00
   5  -3  -5   88.89    3.90
  -5   3   5   93.69    4.90
   4  -3  -5   90.49    4.70
   4  -3  -5   88.79    3.70
  -4   3   5   87.59    4.40
   3  -3  -5  552.24   15.40
   3  -3  -5  564.64   14.10
  -3   3   5  540.85   14.80
   2  -3  -5  911.51   23.40
   2  -3  -5  927.51   21.80
  -2   3   5  913.51   22.30
   1  -3  -5 1503.25   38.60
   1  -3  -5 1640.54   36.10
  -1   3   5 1555.24   34.50
  -1   3   5 1657.23   36.50
   0  -3  -5    0.70    0.40
   0  -3  -5    2.20    0.50
   0  -3  -5    0.60    0.70
   0   3   5    3.70    0.90
  -1  -3  -5 1377.46   30.60
  -1  -3  -5 1422.46   33.50
  -1  -3  -5 1362.16   31.10
   1   3   5 1301.67   31.80
  -2  -3  -5 1678.33   38.60
  -2  -3  -5 1653.13   37.70
  -2  -3  -5 1689.03   40.50
   2   3   5 1680.53   37.70
  -3  -3  -5  200.78    6.40
  -3  -3  -5  198.28    7.10
   3   3   5  188.48    5.80
   3   3   5  195.58    8.10
  -4  -3  -5  192.28    6.70
   4   3   5  178.58    8.30
  -5  -3  -5  291.77    9.50
   5   3   5  279.97   11.70
  -6   4   5   55.39    4.10
   5  -4  -5  130.69    6.70
   5  -4  -5  134.69    5.20
  -5   4   5  131.59    6.20
   4  -4  -5  482.75   12.90
   4  -4  -5  484.35   15.00
  -4   4   5  483.25   14.10
   3  -4  -5 1029.20   24.90
   3  -4  -5 1047.10   27.30
  -3   4   5 1056.89   25.70
   2  -4  -5    3.50    0.90
   2  -4  -5    3.10    1.40
  -2   4   5    3.40    1.00
   1  -4  -5 1164.88   27.20
   1  -4  -5 1152.48   30.50
  -1   4   5 1148.59   27.30
   0  -4  -5 1646.54   39.60
   0  -4  -5 1573.34   35.60
   0  -4  -5 1621.64   37.00
   0   4   5 1620.14   36.90
  -1  -4  -5  691.43   16.30
  -1  -4  -5  691.73   19.60
   1   4   5  688.33   17.10
   1   4   5  671.93   17.00
  -2  -4  -5  387.76   13.20
  -2  -4  -5  379.56   10.30
   2   4   5  384.36   10.50
  -3  -4  -5  359.16   10.20
  -3  -4  -5  363.96   13.10
   3   4   5  343.87    9.80
  -4  -4  -5  284.57    9.10
   4   4   5  281.67   11.60
   5  -5  -5  468.75   15.80
  -5   5   5  439.66   14.10
  -5   5   5  448.16   12.60
   4  -5  -5  179.78    8.50
   4  -5  -5  181.68    6.50
  -4   5   5  186.78    7.40
   3  -5  -5  414.46   11.70
   3  -5  -5  411.06   14.50
  -3   5   5  402.76   12.10
   2  -5  -5 1110.59   31.40
  -2   5   5 1145.09   27.30
   1  -5  -5  779.82   22.60
  -1   5   5  747.23   18.90
  -1   5   5  749.33   19.10
   0  -5  -5  196.18    8.60
   0   5   5  195.08    6.80
  -1  -5  -5  391.06   13.60
  -1  -5  -5  397.66   10.20
   1   5   5  381.16   11.10
  -2  -5  -5  908.41   22.10
  -2  -5  -5  946.41   26.40
   2   5   5  893.91   22.50
  -3  -5  -5    8.40    1.50
  -3  -5  -5    8.80    2.50
   4  -6  -5  479.45   17.60
  -4   6   5  486.05   14.70
  -4   6   5  503.05   13.90
   3  -6  -5  917.31   28.50
  -3   6   5  937.41   23.50
  -3   6   5  939.11   23.90
   2  -6  -5   69.49    5.90
  -2   6   5   53.29    3.40
  -2   6   5   53.49    3.30
   1  -6  -5  519.35   17.50
  -1   6   5  506.95   14.40
   0  -6  -5  709.03   21.30
   0   6   5  674.53   18.20
  -1  -6  -5   35.30    4.00
   1   6   5   36.30    2.80
  -2  -6  -5   13.80    2.90
   2   6   5    5.60    1.40
   2  -7  -5  601.64   20.90
  -2   7   5  584.74   16.60
   1  -7  -5  106.59    7.10
  -1   7   5  111.69    5.40
   0  -7  -5   23.00    3.90
   0   7   5   32.10    2.90
   2   7  -6   38.80    3.30
   1   7  -6  103.69    5.10
  -1  -7   6   98.59    4.80
   0   7  -6  200.38    7.60
   0  -7   6  224.68    7.60
  -1   7  -6    1.40    1.00
   1  -7   6    0.80    0.80
  -2   7  -6   28.40    2.50
   2  -7   6   28.40    2.40
  -3   7  -6  423.86   12.00
   3  -7   6  407.36   12.00
   3   6  -6  112.79    5.40
   3   6  -6  112.29    7.10
  -3  -6   6  107.99    5.10
   2   6  -6  289.97    9.50
   2   6  -6  282.67    9.50
  -2  -6   6  289.07    9.20
   1   6  -6   39.70    2.90
  -1  -6   6   31.90    2.50
   0   6  -6    2.00    1.00
   0  -6   6    2.20    0.90
  -1   6  -6  336.27   10.10
   1  -6   6  347.97   10.20
  -2   6  -6  295.97    9.30
  -2   6  -6  302.77    9.10
   2  -6   6  293.77    9.10
  -3   6  -6  265.47    9.00
  -3   6  -6  258.37    8.00
   3  -6   6  262.27    8.60
  -4   6  -6  111.19    5.60
   4  -6   6  106.39    5.00
   4   5  -6  338.97   10.70
   4   5  -6  344.27   11.30
  -4  -5   6  336.97   10.70
   3   5  -6    6.10    1.50
   3   5  -6    5.40    1.40
  -3  -5   6    5.00    1.30
   2   5  -6   25.10    2.20
   2   5  -6   21.00    2.10
  -2  -5   6   21.80    2.00
   1   5  -6  174.18    6.20
  -1  -5   6  177.78    6.10
  -1  -5   6  166.68    6.00
   0   5  -6  982.70   23.30
   0  -5   6  970.20   23.30
   0  -5   6  933.31   23.20
  -1   5  -6  289.77    8.60
  -1   5  -6  291.27    8.80
   1  -5   6  300.67    8.90
   1  -5   6  291.37    9.20
  -2   5  -6    2.70    0.80
  -2   5  -6    4.80    1.20
   2  -5   6    3.70    1.40
   2  -5   6    9.60    1.60
  -3   5  -6 1064.99   24.80
  -3   5  -6 1065.79   26.40
   3  -5   6 1035.20   25.90
   3  -5   6 1070.69   27.00
  -4   5  -6  514.95   15.20
   4  -5   6  516.25   14.50
   4  -5   6  516.65   16.20
  -5   5  -6   43.10    3.70
   5  -5   6   49.10    3.40
   5   4  -6   77.09    4.70
  -5  -4   6   73.09    4.10
   4   4  -6    2.10    1.00
   4   4  -6    1.60    0.90
  -4  -4   6    1.90    0.90
   3   4  -6  334.97    9.90
   3   4  -6  337.67   10.00
  -3  -4   6  313.77    9.60
   2   4  -6  912.11   21.70
   2   4  -6  895.11   21.90
  -2  -4   6  890.31   21.80
   1   4  -6  459.95   11.90
   1   4  -6  411.06   11.60
  -1  -4   6  462.35   11.50
  -1  -4   6  438.46   11.80
   0   4  -6   80.49    3.80
   0   4  -6   72.79    3.30
   0  -4   6   73.69    3.30
   0  -4   6   75.29    3.00
  -1   4  -6 2117.79   48.90
  -1   4  -6 2194.38   48.40
   1  -4   6 2109.89   48.90
   1  -4   6 2242.38   49.00
  -2   4  -6  536.85   13.40
  -2   4  -6  542.75   14.40
   2  -4   6  521.85   14.10
   2  -4   6  553.24   14.40
  -3   4  -6  267.37    7.80
  -3   4  -6  257.57    8.80
   3  -4   6  270.77    8.60
   3  -4   6  289.07    8.80
  -4   4  -6  586.34   16.70
   4  -4   6  591.84   16.20
   4  -4   6  604.14   16.50
  -5   4  -6  353.76   12.10
   5  -4   6  365.66   12.00
   5  -4   6  359.66   11.40
   5   3  -6   30.00    2.90
   5   3  -6   34.90    3.00
  -5  -3   6   29.60    2.50
   4   3  -6  686.13   18.10
   4   3  -6  684.13   17.60
  -4  -3   6  693.03   17.50
   3   3  -6  181.48    6.20
   3   3  -6  184.08    6.20
  -3  -3   6  192.48    6.20
   2   3  -6   37.70    2.40
   2   3  -6   39.50    2.10
  -2  -3   6   41.00    2.10
  -2  -3   6   40.70    2.30
   1   3  -6 1338.17   30.00
   1   3  -6 1389.86   29.20
   1   3  -6 1108.19   30.20
  -1  -3   6 1366.86   30.00
   0   3  -6  982.70   23.90
   0   3  -6  963.20   22.80
   0  -3   6  991.70   21.90
   0  -3   6  968.80   23.10
  -1   3  -6 1445.76   33.60
  -1   3  -6 1458.75   32.70
   1  -3   6 1444.36   32.90
  -2   3  -6  644.34   16.70
  -2   3  -6  652.63   15.40
   2  -3   6  634.54   16.40
   2  -3   6  654.33   15.80
  -3   3  -6  471.65   13.40
  -3   3  -6  486.85   11.60
   3  -3   6  476.35   12.70
   3  -3   6  473.85   13.10
  -4   3  -6  605.94   16.80
   4  -3   6  598.74   16.30
   4  -3   6  609.64   16.30
  -5   3  -6   12.30    2.30
   5  -3   6   13.00    2.10
   5  -3   6   11.30    2.20
  -6   3  -6  112.89    6.20
   6  -3   6  117.59    5.80
   6  -3   6  121.79    6.40
   6   2  -6  313.87   11.10
  -6  -2   6  322.17    9.90
   5   2  -6   56.29    3.30
   5   2  -6   51.49    3.50
  -5  -2   6   49.70    3.00
   4   2  -6  331.27    9.90
   4   2  -6  328.77    9.60
  -4  -2   6  320.37    9.30
  -4  -2   6  327.67    9.40
   3   2  -6  970.90   23.10
   3   2  -6  976.40   23.30
  -3  -2   6  964.80   23.00
  -3  -2   6  978.00   22.90
   2   2  -6 1247.38   28.00
   2   2  -6 1254.77   28.70
  -2  -2   6 1256.57   28.80
  -2  -2   6 1202.78   28.40
   1   2  -6 1474.25   38.70
   1   2  -6 1732.03   38.00
   1   2  -6 1784.42   36.70
  -1  -2   6 1744.83   37.90
   0   2  -6  124.89    5.10
   0   2  -6  121.59    4.10
   0  -2   6  120.79    4.30
  -1   2  -6 1707.43   39.40
  -1   2  -6 1707.13   38.30
   1  -2   6 1749.72   37.50
   1  -2   6 1714.83   38.90
  -2   2  -6 2016.60   43.50
  -2   2  -6 1924.81   45.00
   2  -2   6 2010.20   43.70
   2  -2   6 1941.41   44.60
  -3   2  -6   53.99    3.20
  -3   2  -6   52.29    2.10
   3  -2   6   53.99    3.00
   3  -2   6   50.69    2.70
  -4   2  -6  251.87    8.70
   4  -2   6  255.47    8.40
   4  -2   6  252.87    8.20
  -5   2  -6  176.58    7.30
   5  -2   6  169.18    7.00
   5  -2   6  169.28    6.60
  -6   2  -6  288.47   10.80
   6  -2   6  293.27   10.80
   6  -2   6  304.27   10.20
   6   1  -6  119.89    5.90
  -6  -1   6  118.79    4.90
  -6  -1   6  123.49    5.50
   5   1  -6  293.87    9.60
   5   1  -6  296.97    9.00
  -5  -1   6  284.97    9.10
  -5  -1   6  278.87    8.40
   4   1  -6  507.05   13.20
   4   1  -6  489.65   13.40
  -4  -1   6  495.65   13.30
  -4  -1   6  480.95   12.50
   3   1  -6 1588.94   36.20
   3   1  -6 1598.14   35.90
  -3  -1   6 1564.64   35.40
  -3  -1   6 1566.14   36.20
   2   1  -6   63.29    2.90
   2   1  -6   59.39    2.40
  -2  -1   6   59.49    2.90
  -2  -1   6   63.79    2.50
   1   1  -6 2479.15   54.79
   1   1  -6 2546.05   53.39
  -1  -1   6 2390.76   56.19
  -1  -1   6 2488.85   54.49
   0   1  -6 1818.52   40.40
   0   1  -6 1904.11   42.10
   0  -1   6 1720.93   40.40
  -1   1  -6  737.13   17.70
  -1   1  -6  757.92   19.00
   1  -1   6  756.02   18.10
   1  -1   6  774.12   16.80
  -2   1  -6  544.55   12.90
  -2   1  -6  547.15   14.40
   2  -1   6  532.95   13.10
   2  -1   6  539.55   13.70
  -3   1  -6  308.77    9.50
   3  -1   6  308.17    8.90
  -4   1  -6  550.04   15.30
   4  -1   6  541.95   14.60
   4  -1   6  552.44   15.00
  -5   1  -6    5.90    1.50
  -5   1  -6    5.90    1.40
   5  -1   6    5.00    1.60
  -6   1  -6   12.90    2.10
  -6   1  -6   18.00    2.80
   6  -1   6   16.80    2.90
   6   0  -6  404.76   13.20
  -6   0   6  435.36   13.10
   5   0  -6  776.82   20.10
   5   0  -6  767.32   19.00
  -5   0   6  780.32   19.90
  -5   0   6  715.83   19.40
   4   0  -6   86.29    4.00
   4   0  -6   83.29    3.70
  -4   0   6   85.59    4.00
  -4   0   6   83.69    3.20
   3   0  -6  912.21   21.80
   3   0  -6  936.81   22.10
  -3   0   6  881.11   22.20
  -3   0   6  935.11   21.00
   2   0  -6 2065.69   46.00
   2   0  -6 2109.39   46.80
  -2   0   6 2056.69   45.70
  -2   0   6 2111.39   47.20
   1   0  -6 1334.07   30.20
   1   0  -6 1291.77   29.30
  -1   0   6 1383.16   31.60
  -1   0   6 1273.77   29.60
   0   0  -6 1091.19   26.20
   0   0  -6 1088.19   23.90
   0   0  -6 1063.69   24.80
   0   0   6 1068.69   24.60
  -1   0  -6  450.15   12.60
  -1   0  -6  437.16   11.10
   1   0   6  453.95   11.30
   1   0   6  452.35   10.80
  -2   0  -6 1964.90   43.50
  -2   0  -6 1985.50   45.40
   2   0   6 1988.00   44.20
   2   0   6 1974.50   44.30
  -3   0  -6   41.40    2.50
  -3   0  -6   38.40    2.70
   3   0   6   41.90    2.60
  -4   0  -6   22.40    2.20
  -4   0  -6   22.20    2.00
   4   0   6   23.50    2.20
  -5   0  -6  263.67    9.40
  -5   0  -6  272.77    8.90
   5   0   6  275.37    9.90
  -6   0  -6  250.37    8.90
  -6   0  -6  254.67    9.50
   6   0   6  240.78    9.90
   6  -1  -6  223.88    8.90
  -6   1   6  231.88    8.70
   5  -1  -6  682.23   18.40
   5  -1  -6  668.13   17.00
  -5   1   6  665.03   18.20
   4  -1  -6 1021.70   24.60
   4  -1  -6 1034.30   25.30
  -4   1   6 1027.60   25.30
   3  -1  -6 1242.88   28.70
   3  -1  -6 1210.28   28.50
  -3   1   6 1229.08   27.00
  -3   1   6 1208.08   29.00
   2  -1  -6  505.65   12.90
   2  -1  -6  499.55   12.70
  -2   1   6  490.15   13.30
  -2   1   6  511.25   11.60
   1  -1  -6  752.82   18.10
   1  -1  -6  762.72   18.00
  -1   1   6  760.72   18.90
  -1   1   6  712.73   17.10
   0  -1  -6 1828.52   41.40
   0  -1  -6 1853.91   42.70
   0  -1  -6 1856.21   41.30
   0   1   6 1849.52   40.80
  -1  -1  -6   25.90    2.20
  -1  -1  -6   26.70    1.60
  -1  -1  -6   27.40    1.80
  -1  -1  -6   31.00    1.70
  -2  -1  -6   47.90    3.00
  -2  -1  -6   56.49    2.60
  -2  -1  -6   50.29    2.20
   2   1   6   51.39    2.80
  -3  -1  -6  353.36   10.10
  -3  -1  -6  370.46   11.00
  -3  -1  -6  374.66    9.30
   3   1   6  361.16   10.90
  -4  -1  -6  583.84   15.30
  -4  -1  -6  585.04   16.00
   4   1   6  561.04   16.30
  -5  -1  -6  280.37    9.80
  -5  -1  -6  279.17    9.30
   5   1   6  297.17   10.60
   6  -2  -6  444.26   14.50
  -6   2   6  462.25   14.30
   5  -2  -6 1030.40   26.60
   5  -2  -6 1050.69   24.90
  -5   2   6 1036.40   26.50
   4  -2  -6   65.39    3.70
   4  -2  -6   61.79    3.20
  -4   2   6   69.89    3.80
   3  -2  -6  171.48    6.20
   3  -2  -6  170.58    5.70
  -3   2   6  170.58    6.20
   2  -2  -6 1145.79   27.40
   2  -2  -6 1211.58   28.20
  -2   2   6 1178.08   28.00
   1  -2  -6  258.57    7.40
   1  -2  -6  246.58    8.50
  -1   2   6  256.47    6.30
  -1   2   6  248.88    7.90
   0  -2  -6   27.20    2.10
   0  -2  -6   27.90    1.80
   0   2   6   35.20    2.50
   0   2   6   27.60    1.40
  -1  -2  -6  315.97    8.40
  -1  -2  -6  322.57    8.70
  -1  -2  -6  330.97    9.70
  -1  -2  -6  322.67    9.70
  -2  -2  -6 1214.58   28.00
  -2  -2  -6 1212.18   29.60
  -2  -2  -6 1215.28   27.60
  -2  -2  -6 1212.58   29.40
  -3  -2  -6  616.44   16.70
  -3  -2  -6  601.94   15.40
   3   2   6  599.44   16.80
  -4  -2  -6   29.00    2.60
  -4  -2  -6   37.70    2.60
   4   2   6   30.60    3.00
  -5  -2  -6  470.25   13.70
   5   2   6  479.85   15.60
   6  -3  -6    6.70    1.90
   5  -3  -6  135.99    5.30
   5  -3  -6  142.09    6.70
  -5   3   6  147.19    6.50
   4  -3  -6 1061.89   25.30
   4  -3  -6 1050.39   26.90
  -4   3   6 1049.79   26.50
   3  -3  -6  491.65   14.40
   3  -3  -6  495.95   13.20
  -3   3   6  510.15   14.00
   2  -3  -6   14.60    1.50
   2  -3  -6   17.40    2.50
  -2   3   6   14.30    1.60
   1  -3  -6  189.28    6.20
   1  -3  -6  193.68    7.90
  -1   3   6  200.48    6.70
   0  -3  -6 1270.97   31.10
   0  -3  -6 1272.67   28.30
   0  -3  -6 1268.17   29.50
   0   3   6 1269.27   30.10
  -1  -3  -6  447.76   11.30
  -1  -3  -6  457.15   11.90
  -1  -3  -6  467.75   13.50
   1   3   6  458.65   12.90
  -2  -3  -6   56.09    2.80
  -2  -3  -6   58.19    3.30
  -2  -3  -6   58.79    3.90
   2   3   6   60.69    2.80
  -3  -3  -6  668.33   16.90
  -3  -3  -6  671.83   17.90
   3   3   6  653.93   19.00
  -4  -3  -6  485.15   13.50
   4   3   6  482.05   15.60
   5  -4  -6  406.16   11.40
   5  -4  -6  398.36   13.60
  -5   4   6  387.76   12.80
   4  -4  -6    3.10    1.00
   4  -4  -6    4.60    1.60
  -4   4   6    4.50    1.40
   3  -4  -6   51.09    3.00
   3  -4  -6   49.99    3.90
  -3   4   6   45.90    3.10
   2  -4  -6  844.42   23.50
   2  -4  -6  825.82   20.40
  -2   4   6  789.72   20.60
   1  -4  -6  322.07   11.70
   1  -4  -6  327.17    9.50
  -1   4   6  325.77    9.60
   0  -4  -6  221.88    8.60
   0  -4  -6  215.88    7.00
   0   4   6  220.48    7.20
  -1  -4  -6  319.07    8.60
  -1  -4  -6  336.37   11.30
   1   4   6  313.47    9.30
   1   4   6  326.17    9.60
  -2  -4  -6  737.83   18.20
  -2  -4  -6  769.12   21.30
   2   4   6  722.93   18.40
  -3  -4  -6  490.55   13.30
   3   4   6  483.15   15.80
  -4  -4  -6    3.30    1.10
   4   4   6    4.10    1.90
   5  -5  -6   21.60    3.50
   5  -5  -6   24.00    2.30
  -5   5   6   23.90    2.70
   4  -5  -6  530.65   17.40
   4  -5  -6  521.25   14.40
  -4   5   6  519.05   15.40
   3  -5  -6  338.57   10.30
   3  -5  -6  357.56   13.40
  -3   5   6  334.67   10.80
   2  -5  -6  339.77   10.30
   2  -5  -6  343.47   13.50
  -2   5   6  345.17   10.50
   1  -5  -6  139.99    7.30
  -1   5   6  141.89    5.60
  -1   5   6  134.69    5.40
   0  -5  -6  729.33   21.00
   0   5   6  726.03   18.70
  -1  -5  -6  594.44   18.30
   1   5   6  604.54   16.00
  -2  -5  -6   22.40    1.90
  -2  -5  -6   27.90    3.90
   2   5   6   23.80    2.20
  -3  -5  -6  485.85   16.50
  -3  -5  -6  451.75   13.00
   4  -6  -6  110.59    7.60
  -4   6   6  112.19    5.20
  -4   6   6  110.49    5.70
   3  -6  -6    9.10    3.10
  -3   6   6   11.80    2.10
  -3   6   6   14.10    2.10
   2  -6  -6  549.15   18.70
  -2   6   6  500.75   14.40
  -2   6   6  491.25   14.40
   1  -6  -6  659.53   20.90
  -1   6   6  681.43   18.20
   0  -6  -6  116.79    6.80
   0   6   6  107.89    5.10
  -1  -6  -6  296.97   11.90
   1   6   6  301.77    9.80
  -2  -6  -6  295.07   12.30
   2   6   6  286.67    9.60
   1   7  -7  265.37    9.40
  -1  -7   7  280.77    9.30
   0   7  -7   93.69    4.80
   0  -7   7   88.89    4.60
  -1   7  -7  291.07    9.70
   1  -7   7  297.27    9.60
  -2   7  -7  129.49    5.60
   2  -7   7  133.59    5.70
  -3   7  -7   26.40    2.60
   3  -7   7   28.70    2.60
   3   6  -7  190.08    7.30
  -3  -6   7  167.78    6.90
   2   6  -7   49.80    3.50
  -2  -6   7   48.00    3.30
   1   6  -7  337.17   10.40
  -1  -6   7  326.07   10.20
   0   6  -7  388.56   11.50
   0  -6   7  383.46   11.30
  -1   6  -7  107.49    4.80
   1  -6   7  111.29    4.90
  -2   6  -7   79.39    4.30
  -2   6  -7   81.39    3.90
   2  -6   7   77.49    4.00
  -3   6  -7    3.60    1.30
  -3   6  -7    2.70    1.00
   3  -6   7    3.30    1.10
  -4   6  -7  345.07   11.80
   4  -6   7  354.86   11.10
   4   5  -7    9.50    1.90
  -4  -5   7    8.60    1.80
   3   5  -7  491.75   14.00
  -3  -5   7  475.45   13.70
   2   5  -7  353.16   10.70
  -2  -5   7  352.86   10.60
   1   5  -7  219.38    7.30
  -1  -5   7  203.98    7.10
   0   5  -7   67.39    3.50
   0  -5   7   74.69    3.70
  -1   5  -7  124.09    5.20
  -1   5  -7  118.69    4.70
   1  -5   7  122.99    5.00
  -2   5  -7  620.44   16.70
  -2   5  -7  622.04   15.70
   2  -5   7  604.64   16.30
  -3   5  -7   86.09    4.50
  -3   5  -7   84.89    3.60
   3  -5   7   81.09    4.20
  -4   5  -7   85.49    4.90
   4  -5   7   80.59    4.30
  -5   5  -7  263.27   10.20
   5  -5   7  261.37    9.30
   4   4  -7  279.77    9.10
   4   4  -7  268.37   10.50
  -4  -4   7  264.67    8.80
   3   4  -7  319.27    9.90
   3   4  -7  324.77   10.00
  -3  -4   7  321.77    9.70
   2   4  -7  232.88    7.70
  -2  -4   7  248.38    7.80
   1   4  -7   81.19    3.70
   1   4  -7   76.59    3.90
  -1  -4   7   84.19    3.80
   0   4  -7  561.44   15.20
   0   4  -7  550.74   14.20
   0  -4   7  548.15   14.50
  -1   4  -7  381.06   11.20
  -1   4  -7  386.76   10.40
   1  -4   7  382.66   10.90
  -2   4  -7   43.90    3.00
  -2   4  -7   45.20    2.40
   2  -4   7   48.40    2.90
  -3   4  -7  166.28    5.30
  -3   4  -7  174.48    6.80
   3  -4   7  167.28    6.40
  -4   4  -7  787.12   21.30
   4  -4   7  796.82   20.80
  -5   4  -7  270.57   10.40
   5  -4   7  292.77    9.90
   5   3  -7  202.08    7.70
   5   3  -7  191.58    7.20
  -5  -3   7  204.68    7.20
   4   3  -7    1.90    0.90
   4   3  -7    1.50    0.90
  -4  -3   7    3.00    1.00
   3   3  -7   34.20    2.20
   3   3  -7   37.20    2.50
  -3  -3   7   38.70    2.20
  -3  -3   7   30.10    2.20
   2   3  -7  630.54   15.10
   2   3  -7  612.54   15.90
  -2  -3   7  622.84   15.80
  -2  -3   7  627.64   15.80
   1   3  -7  317.17    8.90
   1   3  -7  290.27    9.60
   1   3  -7  312.67    8.40
  -1  -3   7  313.37    8.90
   0   3  -7   99.49    4.60
   0   3  -7   96.09    3.80
   0  -3   7   98.29    4.00
  -1   3  -7   98.89    3.70
  -1   3  -7   95.09    4.40
   1  -3   7  108.39    4.30
  -2   3  -7 2658.73   59.89
  -2   3  -7 2649.53   58.19
   2  -3   7 2609.74   59.29
  -3   3  -7  418.76   12.30
  -3   3  -7  395.36   12.00
   3  -3   7  414.36   11.90
  -4   3  -7   19.80    2.30
   4  -3   7   22.80    2.20
  -5   3  -7  858.21   23.10
   5  -3   7  822.52   22.10
   5   2  -7  125.39    5.50
   5   2  -7  117.49    5.20
  -5  -2   7  118.59    4.90
   4   2  -7  268.17    8.40
   4   2  -7  262.87    8.40
  -4  -2   7  266.47    8.20
  -4  -2   7  271.57    8.10
   3   2  -7  694.73   17.60
   3   2  -7  692.23   17.10
  -3  -2   7  702.73   17.60
  -3  -2   7  714.03   17.30
   2   2  -7   36.70    2.30
   2   2  -7   36.30    1.80
  -2  -2   7   34.50    2.10
  -2  -2   7   38.50    2.50
   1   2  -7  127.89    4.60
   1   2  -7  128.79    5.60
   1   2  -7  135.69    3.40
  -1  -2   7  143.59    4.80
   0   2  -7 2082.69   45.80
   0   2  -7 2088.09   47.40
   0  -2   7 1972.30   46.00
  -1   2  -7  546.05   13.20
  -1   2  -7  512.05   14.40
   1  -2   7  534.95   13.70
  -2   2  -7  220.68    7.50
  -2   2  -7  212.18    6.10
   2  -2   7  211.88    5.90
   2  -2   7  215.38    7.00
  -3   2  -7 1883.21   43.40
   3  -2   7 1813.72   42.70
   3  -2   7 1862.31   42.00
  -4   2  -7  454.15   13.70
   4  -2   7  457.95   13.20
   4  -2   7  475.35   13.10
  -5   2  -7  228.68    9.00
   5  -2   7  242.98    8.70
   5  -2   7  238.88    8.50
   6   1  -7  236.78    9.00
  -6  -1   7  240.98    8.70
   5   1  -7  474.05   13.80
   5   1  -7  498.75   13.60
  -5  -1   7  481.95   13.70
  -5  -1   7  476.05   12.80
   4   1  -7    5.30    1.20
   4   1  -7    3.90    1.10
  -4  -1   7    3.30    1.00
  -4  -1   7    2.60    0.80
   3   1  -7   41.80    2.30
   3   1  -7   38.50    2.50
  -3  -1   7   39.00    2.50
  -3  -1   7   42.30    2.20
   2   1  -7 1844.82   40.60
   2   1  -7 1805.72   41.70
  -2  -1   7 1822.02   41.10
  -2  -1   7 1890.91   42.60
   1   1  -7  651.93   14.00
  -1  -1   7  610.64   15.30
  -1  -1   7  614.74   17.20
   0   1  -7  418.96   10.80
   0   1  -7  417.76   12.10
   0  -1   7  400.36   10.70
  -1   1  -7 1165.38   28.70
  -1   1  -7 1177.78   27.00
   1  -1   7 1167.98   27.40
   1  -1   7 1195.98   25.70
  -2   1  -7 1394.26   30.70
  -2   1  -7 1349.96   32.60
   2  -1   7 1328.47   31.60
   2  -1   7 1369.96   30.60
  -3   1  -7  968.10   24.40
   3  -1   7  964.10   23.20
   3  -1   7  975.60   23.60
  -4   1  -7   92.79    4.80
   4  -1   7   96.99    4.50
   4  -1   7   92.09    4.40
  -5   1  -7  320.37   11.00
   5  -1   7  318.17   10.30
   5  -1   7  324.07   10.70
   6   0  -7   26.50    2.80
  -6   0   7   24.70    2.50
   5   0  -7    0.70    0.70
   5   0  -7    0.20    0.70
  -5   0   7    1.50    0.90
   4   0  -7 1182.18   28.10
   4   0  -7 1173.18   27.90
  -4   0   7 1168.18   26.70
  -4   0   7 1149.58   28.40
   3   0  -7  543.35   13.80
   3   0  -7  523.15   14.10
  -3   0   7  544.85   13.10
  -3   0   7  548.45   14.60
   2   0  -7 1186.08   27.80
   2   0  -7 1163.98   26.90
  -2   0   7 1209.68   28.70
  -2   0   7 1174.18   26.70
   1   0  -7  825.22   19.50
   1   0  -7  830.92   18.70
  -1   0   7  777.62   20.90
  -1   0   7  784.42   18.90
   0   0  -7 1959.90   43.00
   0   0  -7 1938.11   45.70
   0   0  -7 1981.10   44.20
   0   0   7 2020.50   44.00
  -1   0  -7  910.41   23.40
  -1   0  -7  931.11   21.50
   1   0   7  915.41   21.70
   1   0   7  922.01   20.90
  -2   0  -7    0.60    0.70
  -2   0  -7    2.40    0.60
   2   0   7    0.60    0.50
   2   0   7    1.10    0.60
  -3   0  -7 1016.20   25.20
  -3   0  -7 1004.70   24.10
   3   0   7  974.20   24.10
  -4   0  -7  523.15   15.00
  -4   0  -7  499.15   14.10
   4   0   7  522.55   14.60
  -5   0  -7  152.78    6.30
  -5   0  -7  156.38    6.90
   5   0   7  151.38    6.80
   6  -1  -7  338.17   11.60
  -6   1   7  345.47   11.60
   5  -1  -7  435.26   13.10
   5  -1  -7  428.56   12.20
  -5   1   7  439.26   13.20
   4  -1  -7  432.56   12.10
   4  -1  -7  441.86   12.50
  -4   1   7  434.06   12.70
   3  -1  -7  126.09    4.80
   3  -1  -7  129.49    5.00
  -3   1   7  126.89    5.30
   2  -1  -7 1292.97   29.40
   2  -1  -7 1298.07   29.70
  -2   1   7 1172.28   30.30
  -2   1   7 1311.07   28.20
   1  -1  -7 1888.21   42.90
   1  -1  -7 1863.71   42.50
  -1   1   7 1884.71   41.60
  -1   1   7 1880.81   43.90
   0  -1  -7  200.08    7.10
   0  -1  -7  180.18    5.90
   0  -1  -7  188.78    5.70
   0   1   7  180.58    5.40
  -1  -1  -7 1285.17   29.30
  -1  -1  -7 1256.77   29.30
  -1  -1  -7 1288.87   31.00
   1   1   7 1283.47   29.20
  -2  -1  -7  517.45   15.30
  -2  -1  -7  541.75   13.30
  -2  -1  -7  550.54   13.80
   2   1   7  551.54   14.20
  -3  -1  -7  660.23   16.90
  -3  -1  -7  648.54   18.10
   3   1   7  684.33   17.60
  -4  -1  -7   74.19    3.90
  -4  -1  -7   79.29    4.50
   4   1   7   81.69    4.50
  -5  -1  -7   53.69    3.50
  -5  -1  -7   62.29    4.20
   5   1   7   55.39    4.10
   6  -2  -7  293.27   10.70
  -6   2   7  275.57   10.30
   5  -2  -7    1.20    0.80
   5  -2  -7    0.60    0.80
  -5   2   7    1.50    1.00
   4  -2  -7 1318.77   30.80
   4  -2  -7 1319.47   31.70
  -4   2   7 1262.67   31.70
   3  -2  -7 1508.25   34.60
   3  -2  -7 1449.35   34.00
  -3   2   7 1417.36   34.70
   2  -2  -7  663.43   17.00
   2  -2  -7  686.33   17.70
  -2   2   7  684.13   17.80
   1  -2  -7 1014.80   25.80
   1  -2  -7 1048.90   24.70
  -1   2   7 1054.39   23.30
  -1   2   7 1024.10   25.60
   0  -2  -7 1172.08   27.20
   0  -2  -7 1170.48   27.70
   0   2   7 1136.29   28.60
   0   2   7 1171.88   26.30
  -1  -2  -7 1031.60   24.40
  -1  -2  -7 1043.50   25.70
  -1  -2  -7 1047.70   24.00
  -1  -2  -7 1030.30   25.10
  -2  -2  -7  154.08    5.20
  -2  -2  -7  155.08    5.00
  -2  -2  -7  161.58    6.40
  -2  -2  -7  147.79    5.90
  -3  -2  -7   81.69    3.80
  -3  -2  -7   79.79    4.60
   3   2   7   86.39    4.50
  -4  -2  -7  449.26   13.90
  -4  -2  -7  446.26   12.70
   4   2   7  436.66   14.00
  -5  -2  -7   76.69    4.30
   5   2   7   77.49    5.20
   5  -3  -7  685.73   17.60
   5  -3  -7  661.53   19.20
  -5   3   7  666.63   19.00
   4  -3  -7  556.74   16.00
   4  -3  -7  539.35   14.60
  -4   3   7  536.15   15.60
   3  -3  -7  879.51   21.80
   3  -3  -7  878.51   23.00
  -3   3   7  871.71   22.50
   2  -3  -7  862.71   23.10
   2  -3  -7  872.91   21.30
  -2   3   7  854.11   21.90
   1  -3  -7 1182.48   28.30
   1  -3  -7 1223.88   30.50
  -1   3   7 1191.98   29.10
   0  -3  -7    6.60    1.50
   0  -3  -7    7.00    1.30
   0   3   7    9.20    1.00
   0   3   7   13.10    2.00
  -1  -3  -7   77.49    3.50
  -1  -3  -7   76.89    4.20
  -1  -3  -7   77.09    3.10
   1   3   7   79.49    4.20
  -2  -3  -7  371.86   11.70
  -2  -3  -7  354.56    9.90
  -2  -3  -7  358.66   11.00
  -3  -3  -7  170.48    6.90
  -3  -3  -7  167.98    6.10
   3   3   7  179.28    7.60
  -4  -3  -7   62.19    3.70
   4   3   7   58.39    4.50
   5  -4  -7  141.99    5.80
   5  -4  -7  151.58    7.50
  -5   4   7  144.29    6.80
   4  -4  -7  496.55   14.00
   4  -4  -7  515.95   16.10
  -4   4   7  503.05   15.00
   3  -4  -7 1148.49   30.30
   3  -4  -7 1144.69   27.80
  -3   4   7 1144.99   28.60
   2  -4  -7   11.90    2.70
   2  -4  -7   14.10    2.00
  -2   4   7   14.90    2.20
   1  -4  -7   80.99    4.00
   1  -4  -7  110.99    5.80
  -1   4   7   87.19    4.30
   0  -4  -7  473.75   14.40
   0  -4  -7  469.75   13.00
   0   4   7  480.75   13.40
  -1  -4  -7  527.25   15.40
  -1  -4  -7  507.35   12.70
   1   4   7  480.65   13.90
  -2  -4  -7   74.19    3.40
  -2  -4  -7   79.69    4.90
   2   4   7   70.49    3.60
  -3  -4  -7   10.90    1.70
   3   4   7   11.50    2.50
   4  -5  -7   49.70    4.60
   4  -5  -7   49.50    3.30
  -4   5   7   49.20    3.70
   3  -5  -7  126.69    7.70
   3  -5  -7  144.19    5.80
  -3   5   7  134.09    6.00
   2  -5  -7  418.36   12.20
   2  -5  -7  414.96   15.30
  -2   5   7  409.86   12.40
   1  -5  -7  551.34   15.10
   1  -5  -7  551.34   17.40
  -1   5   7  537.75   15.00
   0  -5  -7   47.50    4.00
   0   5   7   49.40    3.20
  -1  -5  -7    1.00    1.10
   1   5   7    0.10    0.70
  -2  -5  -7  396.46   13.80
   2   5   7  375.76   11.40
   3  -6  -7  365.06   15.60
  -3   6   7  379.46   11.80
  -3   6   7  383.66   12.20
   2  -6  -7   39.00    4.50
  -2   6   7   34.60    2.90
   1  -6  -7    3.90    1.70
  -1   6   7    3.50    1.30
   0  -6  -7  374.56   13.80
   0   6   7  393.76   12.00
  -1  -6  -7  352.46   13.30
   1   6   7  372.06   11.50
   0   7  -8  610.64   17.00
   0  -7   8  599.14   16.80
  -1   7  -8  147.99    6.30
   1  -7   8  146.89    6.30
  -2   7  -8    0.50    1.00
   2  -7   8    0.00    0.80
   2   6  -8  517.95   14.80
  -2  -6   8  498.65   14.60
   1   6  -8  176.78    6.90
  -1  -6   8  176.38    6.90
   0   6  -8   89.99    4.50
   0  -6   8   83.79    4.40
  -1   6  -8  605.44   16.20
   1  -6   8  597.14   16.40
  -2   6  -8  428.26   12.20
  -2   6  -8  437.76   13.30
   2  -6   8  423.76   12.70
  -3   6  -8  125.69    6.10
   3  -6   8  115.49    5.50
   3   5  -8  331.17   10.60
  -3  -5   8  322.97   10.40
   2   5  -8  130.99    5.60
  -2  -5   8  126.89    5.50
   1   5  -8  382.86   11.50
  -1  -5   8  409.96   11.70
   0   5  -8  490.25   13.40
   0  -5   8  485.55   13.70
  -1   5  -8  321.37   10.30
  -1   5  -8  315.77    9.40
   1  -5   8  306.87    9.70
  -2   5  -8   22.30    2.40
  -2   5  -8   20.60    1.90
   2  -5   8   23.20    2.60
  -3   5  -8  393.46   12.30
   3  -5   8  366.16   11.60
  -4   5  -8   69.09    4.60
   4  -5   8   72.79    4.20
   4   4  -8  189.88    7.20
  -4  -4   8  185.28    7.00
   3   4  -8   59.69    3.60
  -3  -4   8   61.49    3.50
   2   4  -8  829.42   20.90
  -2  -4   8  830.22   21.00
   1   4  -8  402.86   11.50
   1   4  -8  412.46   12.20
  -1  -4   8  413.56   11.70
   0   4  -8   13.90    1.80
   0   4  -8   11.20    1.80
   0  -4   8    9.00    1.50
  -1   4  -8  403.36   11.10
  -1   4  -8  416.16   12.40
   1  -4   8  403.66   11.70
  -2   4  -8  333.77    9.40
  -2   4  -8  335.47   10.70
   2  -4   8  331.97   10.20
  -3   4  -8  365.16   11.70
   3  -4   8  363.76   11.10
  -4   4  -8   15.30    2.50
   4  -4   8   18.20    2.60
  -5   4  -8    5.70    1.80
   5  -4   8    3.20    1.30
   5   3  -8   25.70    2.60
  -5  -3   8   29.80    2.60
   4   3  -8  720.83   18.70
  -4  -3   8  694.93   18.30
   3   3  -8  681.93   17.90
  -3  -3   8  693.03   17.70
  -3  -3   8  696.93   17.50
   2   3  -8  242.18    7.80
  -2  -3   8  243.28    7.80
  -2  -3   8  255.07    8.30
   1   3  -8  912.71   23.30
   1   3  -8  879.41   21.90
  -1  -3   8  909.61   22.10
   0   3  -8  325.97   10.30
   0   3  -8  314.87    9.10
   0  -3   8  324.67    9.50
  -1   3  -8  423.56   12.60
  -1   3  -8  419.36   11.20
   1  -3   8  423.56   11.80
  -2   3  -8    2.30    0.70
  -2   3  -8    2.70    1.10
   2  -3   8    9.30    1.60
  -3   3  -8   82.59    4.60
   3  -3   8   70.59    3.90
  -4   3  -8  361.66   11.90
   4  -3   8  351.56   11.20
  -5   3  -8  230.68    9.30
   5  -3   8  222.78    8.50
   5   2  -8  444.76   13.00
  -5  -2   8  440.86   12.50
   4   2  -8  102.59    4.70
  -4  -2   8  102.89    4.40
  -4  -2   8  105.29    4.60
   3   2  -8  424.66   12.10
  -3  -2   8  447.06   11.80
  -3  -2   8  428.16   12.20
   2   2  -8  403.36   11.30
  -2  -2   8  426.66   12.40
  -2  -2   8  402.06   11.10
   1   2  -8  830.82   21.90
   1   2  -8  838.22   20.40
  -1  -2   8  837.12   20.40
   0   2  -8    1.40    0.60
   0   2  -8    1.40    0.90
   0  -2   8    3.20    0.90
  -1   2  -8    1.90    0.70
  -1   2  -8    0.80    0.80
   1  -2   8    2.10    0.80
  -2   2  -8  241.68    7.00
   2  -2   8  243.58    7.80
  -3   2  -8  968.90   25.00
   3  -2   8  979.90   24.20
  -4   2  -8   37.10    3.20
   4  -2   8   35.70    2.90
  -5   2  -8   40.10    3.60
   5  -2   8   39.60    3.20
   5   1  -8  187.48    7.00
   5   1  -8  186.08    7.00
  -5  -1   8  182.58    7.10
   4   1  -8  547.55   14.90
   4   1  -8  537.55   14.40
  -4  -1   8  542.05   15.00
  -4  -1   8  550.34   14.00
   3   1  -8  533.55   14.50
   3   1  -8  548.15   13.70
  -3  -1   8  556.24   13.80
  -3  -1   8  544.15   15.00
   2   1  -8  168.68    6.10
   2   1  -8  181.18    6.20
  -2  -1   8  197.78    7.30
  -2  -1   8  191.68    5.90
   1   1  -8   31.80    2.10
  -1  -1   8   22.30    2.40
  -1  -1   8   28.70    1.90
   0   1  -8  526.75   15.00
   0   1  -8  548.15   13.70
   0  -1   8  531.95   13.60
  -1   1  -8 1235.48   28.70
  -1   1  -8 1244.38   30.80
   1  -1   8 1252.37   29.10
  -2   1  -8  142.19    4.60
  -2   1  -8  142.59    6.20
   2  -1   8  136.79    5.20
  -3   1  -8    0.00    0.80
   3  -1   8    1.70    0.90
  -4   1  -8 1570.94   38.70
   4  -1   8 1609.64   37.80
  -5   1  -8  164.38    7.50
   5  -1   8  169.88    6.90
   5   0  -8  452.75   12.80
   5   0  -8  438.06   13.00
  -5   0   8  433.76   13.30
   4   0  -8   98.19    4.30
   4   0  -8   89.59    4.30
  -4   0   8   88.69    4.50
   3   0  -8  218.48    7.30
   3   0  -8  220.68    6.80
  -3   0   8  221.18    7.80
  -3   0   8  224.98    6.40
   2   0  -8  142.99    5.30
   2   0  -8  138.39    4.50
  -2   0   8  149.59    4.80
  -2   0   8  146.69    6.10
   1   0  -8 1997.80   44.20
   1   0  -8 2078.69   45.20
  -1   0   8 1899.61   44.50
   0   0  -8  227.48    5.70
   0   0  -8  217.28    6.90
   0   0  -8  229.18    8.10
   0   0   8  237.98    6.80
  -1   0  -8   11.30    2.00
  -1   0  -8   10.80    1.40
   1   0   8   12.90    1.30
   1   0   8   13.30    1.60
  -2   0  -8 1322.07   33.90
  -2   0  -8 1415.56   31.60
   2   0   8 1397.56   32.30
   2   0   8 1407.96   31.70
  -3   0  -8  533.25   15.70
   3   0   8  544.35   14.20
   3   0   8  532.65   14.40
  -4   0  -8  169.38    7.30
   4   0   8  164.98    6.50
   4   0   8  167.38    6.50
  -5   0  -8  434.06   14.10
   5   0   8  422.26   13.90
   5   0   8  442.06   13.20
   5  -1  -8   14.90    2.00
   5  -1  -8   18.80    2.60
  -5   1   8   18.70    2.20
   4  -1  -8  115.59    5.00
   4  -1  -8  117.79    5.10
  -4   1   8  112.09    5.40
   3  -1  -8 1384.06   32.10
   3  -1  -8 1357.16   31.70
  -3   1   8 1309.37   32.70
   2  -1  -8  115.29    4.50
   2  -1  -8  110.79    4.70
  -2   1   8  113.69    5.30
  -2   1   8  121.19    3.80
   1  -1  -8  167.28    5.90
   1  -1  -8  175.98    6.00
  -1   1   8  165.38    6.90
  -1   1   8  180.68    5.30
   0  -1  -8 2117.49   47.60
   0  -1  -8 2168.18   49.50
   0  -1  -8 2078.89   47.00
   0   1   8 2079.49   46.90
  -1  -1  -8 1301.47   31.90
  -1  -1  -8 1303.37   30.20
  -1  -1  -8 1315.97   30.00
   1   1   8 1298.47   30.10
  -2  -1  -8  325.77    9.00
  -2  -1  -8  321.67   11.10
   2   1   8  337.57    9.60
   2   1   8  340.87    9.50
  -3  -1  -8  227.08    8.60
  -3  -1  -8  212.18    7.20
   3   1   8  205.18    7.40
  -4  -1  -8  633.94   17.00
  -4  -1  -8  628.34   18.40
   4   1   8  641.84   17.70
  -5  -1  -8  186.88    7.50
  -5  -1  -8  198.98    8.50
   5   1   8  201.58    8.30
   5  -2  -8  635.64   18.00
   5  -2  -8  622.44   16.80
  -5   2   8  635.54   18.10
   4  -2  -8  141.99    5.60
   4  -2  -8  144.09    6.10
  -4   2   8  132.99    6.10
   3  -2  -8   12.20    1.70
   3  -2  -8   15.70    1.80
  -3   2   8   15.90    2.40
   2  -2  -8 1074.89   26.00
   2  -2  -8 1097.79   26.80
  -2   2   8 1062.09   27.10
   1  -2  -8  989.00   24.70
   1  -2  -8  937.71   23.80
  -1   2   8 1032.50   25.50
   0  -2  -8  731.23   18.40
   0  -2  -8  732.73   18.60
   0   2   8  754.92   20.20
   0   2   8  745.33   17.50
  -1  -2  -8  118.89    4.90
  -1  -2  -8  120.69    4.60
  -1  -2  -8  117.79    5.40
   1   2   8  125.89    4.40
  -2  -2  -8 1112.89   28.00
  -2  -2  -8 1093.59   26.00
  -2  -2  -8 1107.99   26.30
   2   2   8 1131.19   27.30
  -3  -2  -8  286.27   10.30
  -3  -2  -8  279.07    8.80
   3   2   8  293.77    9.70
  -4  -2  -8   87.89    4.50
  -4  -2  -8   98.29    5.60
   4   2   8   89.59    5.20
   5  -3  -8   78.59    4.90
   5  -3  -8   75.29    4.10
  -5   3   8   75.79    4.70
   4  -3  -8  151.18    6.00
   4  -3  -8  148.09    6.80
  -4   3   8  145.19    6.60
   3  -3  -8  932.31   24.40
   3  -3  -8  907.01   23.00
  -3   3   8  926.01   23.90
   2  -3  -8  514.35   14.20
   2  -3  -8  511.75   15.90
  -2   3   8  526.55   14.90
   1  -3  -8    1.50    0.80
   1  -3  -8    4.30    1.40
  -1   3   8    0.60    0.70
   0  -3  -8 1284.47   30.00
   0  -3  -8 1266.17   30.80
   0   3   8 1234.48   31.00
  -1  -3  -8  967.80   23.40
  -1  -3  -8  964.00   22.70
  -1  -3  -8  969.40   24.40
   1   3   8  948.81   24.80
  -2  -3  -8  321.47   10.40
  -2  -3  -8  308.77    9.20
  -2  -3  -8  318.67   10.50
  -2  -3  -8  312.37    9.10
  -3  -3  -8  296.87   10.10
  -3  -3  -8  290.57    9.10
   3   3   8  294.97   10.50
  -4  -3  -8  127.09    5.60
   4   3   8  137.69    6.90
   5  -4  -8  486.85   14.00
   5  -4  -8  482.75   16.20
   4  -4  -8  522.55   16.30
   4  -4  -8  483.75   14.10
  -4   4   8  483.35   15.00
   3  -4  -8   92.19    5.80
   3  -4  -8   95.29    4.60
  -3   4   8   86.59    4.90
   2  -4  -8 1284.27   30.60
   2  -4  -8 1231.08   33.50
  -2   4   8 1269.87   31.20
   1  -4  -8  758.12   19.40
   1  -4  -8  753.62   21.20
  -1   4   8  739.23   19.90
   0  -4  -8  418.86   12.00
   0  -4  -8  427.06   13.20
   0   4   8  402.76   12.40
  -1  -4  -8  321.17    9.70
  -1  -4  -8  325.27   10.90
   1   4   8  304.37   10.20
  -2  -4  -8  335.07    9.70
  -2  -4  -8  346.57   11.80
   2   4   8  335.27   10.10
  -3  -4  -8  317.07    9.80
   3   4   8  313.37   11.60
   4  -5  -8  393.06   12.10
   4  -5  -8  398.36   15.10
  -4   5   8  388.76   13.00
   3  -5  -8  521.35   14.80
   3  -5  -8  504.35   18.20
  -3   5   8  509.55   15.30
   2  -5  -8  542.05   18.10
   2  -5  -8  530.75   15.20
  -2   5   8  532.25   15.50
   1  -5  -8  190.08    8.60
   1  -5  -8  192.68    7.30
  -1   5   8  192.38    7.40
   0  -5  -8  309.47   11.30
   0   5   8  293.57    9.70
  -1  -5  -8  390.56   13.40
   1   5   8  401.86   12.00
  -2  -5  -8   50.39    4.20
   2   5   8   42.00    3.10
   2  -6  -8  285.87   12.30
  -2   6   8  275.67    9.70
  -2   6   8  272.77    9.90
   1  -6  -8  406.46   14.50
  -1   6   8  401.46   12.60
   0  -6  -8   58.79    4.80
   0   6   8   59.69    3.90
   2   6  -9   38.90    3.30
  -2  -6   9   42.30    3.30
   1   6  -9    4.10    1.40
  -1  -6   9    4.30    1.40
   0   6  -9  163.58    6.60
   0  -6   9  158.98    6.70
  -1   6  -9  561.54   15.20
   1  -6   9  523.15   15.30
  -2   6  -9   59.59    4.40
  -2   6  -9   53.69    3.40
   2  -6   9   65.19    3.90
  -3   6  -9   61.99    4.50
   3  -6   9   69.39    4.20
   3   5  -9    0.70    1.00
  -3  -5   9    0.80    0.90
   2   5  -9  111.99    5.30
  -2  -5   9  112.59    5.30
   1   5  -9  785.32   20.30
  -1  -5   9  777.72   20.50
   0   5  -9  127.39    5.40
   0  -5   9  124.69    5.50
  -1   5  -9    3.30    1.40
  -1   5  -9    5.30    1.20
   1  -5   9    4.10    1.30
  -2   5  -9  972.20   23.70
  -2   5  -9  970.60   25.50
   2  -5   9  964.70   24.60
  -3   5  -9  242.18    9.30
   3  -5   9  234.88    8.60
  -4   5  -9    3.40    1.60
   4  -5   9    1.00    0.80
   4   4  -9   37.90    3.20
  -4  -4   9   39.70    3.10
   3   4  -9  693.03   18.70
  -3  -4   9  711.53   18.70
   2   4  -9  208.48    7.50
  -2  -4   9  219.78    7.70
   1   4  -9    6.70    1.40
  -1  -4   9    7.40    1.60
   0   4  -9 1259.47   31.10
   0   4  -9 1273.57   30.10
   0  -4   9 1262.37   30.50
  -1   4  -9  534.35   14.00
  -1   4  -9  509.65   15.50
   1  -4   9  536.15   14.70
  -2   4  -9  143.09    5.30
  -2   4  -9  155.88    6.80
   2  -4   9  151.38    6.10
  -3   4  -9  290.17   10.40
   3  -4   9  294.47    9.70
  -4   4  -9  365.56   12.80
   4  -4   9  395.26   12.20
   4   3  -9   69.39    4.10
  -4  -3   9   73.39    4.00
   3   3  -9   11.40    1.90
  -3  -3   9    9.50    1.70
  -3  -3   9   11.40    1.80
   2   3  -9  741.13   19.10
  -2  -3   9  750.62   19.10
  -2  -3   9  737.23   20.10
   1   3  -9 1005.60   24.90
   1   3  -9 1052.79   26.50
  -1  -3   9 1026.50   25.20
   0   3  -9  228.48    7.40
   0   3  -9  244.48    8.60
   0  -3   9  229.68    7.70
  -1   3  -9  133.79    4.90
  -1   3  -9  129.29    6.10
   1  -3   9  130.49    5.30
  -2   3  -9  554.04   16.10
  -2   3  -9  547.65   14.00
   2  -3   9  532.45   14.80
  -3   3  -9  249.48    9.30
   3  -3   9  231.08    8.30
  -4   3  -9   46.80    3.90
   4  -3   9   52.09    3.60
  -5   3  -9   79.99    5.40
   5  -3   9  103.69    5.40
   5   2  -9   70.29    4.20
  -5  -2   9   73.09    3.90
   4   2  -9  278.77    9.30
  -4  -2   9  292.17    9.50
  -4  -2   9  287.07    9.00
   3   2  -9  745.33   19.60
  -3  -2   9  764.02   20.20
  -3  -2   9  783.12   19.40
   2   2  -9  415.46   11.80
  -2  -2   9  397.16   13.10
  -2  -2   9  437.86   11.80
   1   2  -9    3.00    1.30
   1   2  -9    3.90    1.00
  -1  -2   9    2.60    1.00
   0   2  -9 1671.03   40.70
   0   2  -9 1718.33   39.20
   0  -2   9 1744.13   39.50
  -1   2  -9  542.95   14.00
  -1   2  -9  533.85   16.00
   1  -2   9  554.94   14.50
  -2   2  -9  239.88    9.00
  -2   2  -9  222.78    6.90
   2  -2   9  236.58    7.80
  -3   2  -9  127.49    6.20
   3  -2   9  129.99    5.50
  -4   2  -9  165.58    7.50
   4  -2   9  168.18    6.80
  -5   2  -9  211.58    9.10
   5  -2   9  214.58    8.40
   5   1  -9  722.23   19.00
  -5  -1   9  690.03   19.20
   4   1  -9  410.76   12.30
  -4  -1   9  425.96   12.80
  -4  -1   9  415.96   11.40
   3   1  -9    1.00    0.90
  -3  -1   9    1.60    0.90
  -3  -1   9    0.70    0.60
   2   1  -9 1397.76   32.10
  -2  -1   9 1264.77   33.60
  -2  -1   9 1395.26   31.70
   1   1  -9  743.63   18.40
  -1  -1   9  748.53   20.60
  -1  -1   9  689.23   18.00
   0   1  -9  432.06   11.80
   0   1  -9  438.76   13.10
   0  -1   9  427.46   11.60
  -1   1  -9  497.85   15.10
  -1   1  -9  509.55   13.20
   1  -1   9  507.45   13.50
  -2   1  -9  199.38    6.20
  -2   1  -9  202.08    8.20
   2  -1   9  196.58    6.90
  -3   1  -9  316.27   11.10
   3  -1   9  317.97   10.00
  -4   1  -9  158.78    7.40
   4  -1   9  163.68    6.70
  -5   1  -9    9.70    2.30
   5  -1   9    4.70    1.50
   5   0  -9  120.59    5.50
  -5   0   9  126.69    6.00
   4   0  -9  695.73   18.50
  -4   0   9  710.73   19.40
   3   0  -9  696.13   18.40
  -3   0   9  732.53   19.70
   2   0  -9  272.47    8.50
  -2   0   9  257.27    9.60
  -2   0   9  270.57    7.80
   1   0  -9  119.39    4.70
  -1   0   9  106.59    5.80
  -1   0   9  120.89    4.40
   0   0  -9  448.36   13.40
   0   0  -9  440.06   11.90
   0   0   9  427.36   11.50
  -1   0  -9  717.73   19.70
  -1   0  -9  741.83   17.90
   1   0   9  704.73   17.90
  -2   0  -9  219.88    8.80
  -2   0  -9  230.98    6.80
   2   0   9  219.98    7.40
  -3   0  -9   -0.20    0.80
   3   0   9    0.60    0.70
  -4   0  -9   66.29    4.60
   4   0   9   59.19    3.70
  -5   0  -9  748.93   22.00
   5   0   9  769.52   20.70
   5  -1  -9  488.85   14.50
   5  -1  -9  493.65   14.10
  -5   1   9  478.55   14.90
   4  -1  -9  588.84   15.90
   4  -1  -9  575.64   15.70
  -4   1   9  564.04   16.70
   3  -1  -9   35.80    2.50
   3  -1  -9   34.80    2.70
  -3   1   9   39.80    3.20
   2  -1  -9  636.94   16.40
   2  -1  -9  652.13   16.70
  -2   1   9  597.64   17.90
   1  -1  -9  251.67    8.00
  -1   1   9  237.78    9.20
  -1   1   9  260.37    7.30
   0  -1  -9  572.14   16.00
   0  -1  -9  513.15   14.10
   0   1   9  526.95   13.50
  -1  -1  -9   24.60    2.50
  -1  -1  -9   23.90    1.90
   1   1   9   26.00    1.90
  -2  -1  -9  138.59    5.00
  -2  -1  -9  145.89    6.70
   2   1   9  144.59    5.40
  -3  -1  -9  914.81   25.20
   3   1   9  934.01   23.10
  -4  -1  -9  142.59    7.10
   4   1   9  140.99    6.00
   5  -2  -9    1.70    1.00
   5  -2  -9    0.50    0.80
  -5   2   9    0.40    0.90
   4  -2  -9  227.18    8.00
   4  -2  -9  220.98    8.30
  -4   2   9  228.28    8.90
   3  -2  -9  273.57    9.00
   3  -2  -9  278.27    9.30
  -3   2   9  279.67   10.00
   2  -2  -9  551.24   15.10
   2  -2  -9  567.04   16.10
  -2   2   9  561.54   16.50
   1  -2  -9   24.80    2.10
   1  -2  -9   24.10    2.20
  -1   2   9   16.90    2.60
   0  -2  -9    2.10    0.80
   0  -2  -9    1.10    0.70
   0   2   9    1.50    0.60
   0   2   9    4.60    1.50
  -1  -2  -9 1506.85   36.50
  -1  -2  -9 1467.25   34.90
  -1  -2  -9 1495.05   34.90
   1   2   9 1521.15   34.40
  -2  -2  -9  312.47    9.20
  -2  -2  -9  308.37   10.70
   2   2   9  327.57   10.00
   2   2   9  323.77    9.40
  -3  -2  -9   11.60    2.30
  -3  -2  -9   11.00    1.70
   3   2   9   11.10    2.00
  -4  -2  -9  429.26   14.60
  -4  -2  -9  438.86   13.00
   5  -3  -9  173.48    6.90
   5  -3  -9  174.68    7.90
  -5   3   9  158.88    7.60
   4  -3  -9  604.34   16.80
   4  -3  -9  617.44   18.00
  -4   3   9  602.94   17.90
   3  -3  -9   10.00    1.80
   3  -3  -9   13.80    2.50
  -3   3   9    9.90    2.00
   2  -3  -9   26.10    3.60
   2  -3  -9   21.50    2.30
  -2   3   9   23.80    2.50
   1  -3  -9 1165.98   28.30
   1  -3  -9 1140.59   29.00
  -1   3   9 1170.38   29.60
   0  -3  -9  264.27    9.00
   0  -3  -9  264.37    8.60
   0   3   9  275.77    9.80
  -1  -3  -9   78.79    4.30
  -1  -3  -9   82.49    4.00
   1   3   9   79.19    4.70
   1   3   9   83.59    4.30
  -2  -3  -9  598.34   15.80
  -2  -3  -9  631.94   17.30
  -2  -3  -9  622.84   17.60
  -2  -3  -9  607.54   16.00
  -3  -3  -9  659.73   18.60
  -3  -3  -9  648.64   17.40
   3   3   9  668.43   18.90
   4  -4  -9    6.80    2.00
   4  -4  -9    8.20    1.80
  -4   4   9    6.70    1.80
   3  -4  -9  545.35   18.20
   3  -4  -9  557.84   15.70
  -3   4   9  568.34   16.70
   2  -4  -9  487.05   14.10
   2  -4  -9  485.15   16.30
  -2   4   9  488.35   14.80
   1  -4  -9   70.09    4.00
   1  -4  -9   67.89    4.50
  -1   4   9   76.69    4.50
   0  -4  -9  163.78    7.10
   0  -4  -9  165.28    6.50
   0   4   9  170.68    7.10
  -1  -4  -9  619.54   17.70
  -1  -4  -9  618.54   16.60
   1   4   9  610.54   17.50
  -2  -4  -9  239.38    9.20
   2   4   9  231.58    7.90
   3  -5  -9  141.89    6.40
   3  -5  -9  141.69    8.50
  -3   5   9  146.59    6.90
   2  -5  -9   11.60    2.80
   2  -5  -9   15.90    2.40
  -2   5   9   16.60    2.60
   1  -5  -9  958.70   26.30
   1  -5  -9  962.70   24.70
  -1   5   9  947.81   25.00
   0  -5  -9  305.97   11.30
   0  -5  -9  301.87   10.20
  -1  -5  -9   39.60    3.60
   1   5   9   41.00    3.10
   1   6 -10   31.60    2.90
  -1  -6  10   31.20    3.50
   0   6 -10  164.58    6.70
   0  -6  10  153.08    6.80
  -1   6 -10   59.99    3.80
   1  -6  10   64.19    4.10
  -2   6 -10    3.80    1.20
   2  -6  10    2.60    1.10
   2   5 -10  168.68    7.00
  -2  -5  10  164.18    7.00
   1   5 -10   53.89    3.50
  -1  -5  10   50.49    3.50
   0   5 -10   29.60    2.60
   0  -5  10   28.90    2.70
  -1   5 -10  383.96   12.80
  -1   5 -10  373.76   11.20
   1  -5  10  376.76   11.80
  -2   5 -10  253.97    8.40
  -2   5 -10  258.27   10.10
   2  -5  10  264.17    9.20
  -3   5 -10    7.00    2.00
   3  -5  10   11.10    2.00
   3   4 -10   18.30    2.40
  -3  -4  10   23.20    2.80
   2   4 -10   53.79    3.50
  -2  -4  10   51.29    3.50
   1   4 -10  229.68    7.80
  -1  -4  10  220.18    8.00
  -1  -4  10  217.88    8.70
   0   4 -10  333.77   10.90
   0   4 -10  319.67    9.90
   0  -4  10  322.47   10.30
  -1   4 -10    0.40    0.70
  -1   4 -10    1.40    1.30
   1  -4  10    1.10    0.90
  -2   4 -10   86.19    5.30
  -2   4 -10   90.79    4.10
   2  -4  10   99.79    4.80
  -3   4 -10 1015.90   27.30
   3  -4  10 1016.90   25.90
  -4   4 -10  118.99    6.60
   4  -4  10  117.99    5.80
   4   3 -10   36.40    3.10
  -4  -3  10   38.60    3.10
   3   3 -10  100.19    4.90
  -3  -3  10  104.69    5.20
  -3  -3  10   99.59    4.90
   2   3 -10  428.96   12.40
  -2  -3  10  403.16   13.60
  -2  -3  10  442.56   12.60
   1   3 -10   21.80    2.10
  -1  -3  10   20.20    2.50
  -1  -3  10   26.00    2.80
   0   3 -10   49.90    3.60
   0   3 -10   46.90    2.90
   0  -3  10   52.69    3.20
  -1   3 -10 1594.84   39.20
  -1   3 -10 1552.44   36.60
   1  -3  10 1596.04   37.30
  -2   3 -10  264.47    8.10
  -2   3 -10  277.07   10.30
   2  -3  10  253.07    8.70
  -3   3 -10    2.80    1.50
   3  -3  10    5.00    1.40
  -4   3 -10  684.23   20.60
   4  -3  10  716.73   19.50
   4   2 -10  561.64   16.20
  -4  -2  10  590.04   16.00
  -4  -2  10  592.84   16.70
   3   2 -10   15.90    2.20
  -3  -2  10   16.50    2.10
  -3  -2  10   14.30    2.40
   2   2 -10   11.10    1.80
  -2  -2  10    9.00    2.20
  -2  -2  10   12.70    1.90
   1   2 -10 1309.27   30.60
  -1  -2  10 1265.07   32.70
  -1  -2  10 1255.07   30.50
   0   2 -10  497.95   14.70
   0   2 -10  473.75   13.30
   0  -2  10  499.25   13.50
  -1   2 -10    0.60    1.00
  -1   2 -10    0.40    0.60
   1  -2  10    0.30    0.60
  -2   2 -10  897.41   24.70
  -2   2 -10  895.71   21.80
   2  -2  10  905.71   22.70
  -3   2 -10  547.25   17.00
   3  -2  10  546.85   15.50
  -4   2 -10   74.89    5.10
   4  -2  10   73.19    4.40
   5   1 -10   15.20    2.20
  -5  -1  10   16.50    2.60
   4   1 -10    2.00    1.10
  -4  -1  10    4.60    1.40
   3   1 -10  880.41   22.90
  -3  -1  10  923.11   22.40
  -3  -1  10  904.51   24.50
   2   1 -10  486.85   13.40
  -2  -1  10  458.15   12.90
  -2  -1  10  459.65   15.10
   1   1 -10   90.19    4.30
  -1  -1  10   88.59    4.10
  -1  -1  10   99.59    5.60
   0   1 -10  322.47    9.70
   0   1 -10  333.87   11.00
   0  -1  10  320.37    9.50
  -1   1 -10 1283.97   30.30
  -1   1 -10 1279.07   32.50
   1  -1  10 1311.57   30.60
  -2   1 -10  127.29    4.70
  -2   1 -10  128.39    6.60
   2  -1  10  121.89    5.20
  -3   1 -10    4.10    1.60
   3  -1  10    2.90    1.10
  -4   1 -10  290.77   11.20
   4  -1  10  288.57   10.00
   5   0 -10  293.57   10.10
  -5   0  10  316.27   11.10
   4   0 -10  723.73   19.40
  -4   0  10  743.43   20.80
   3   0 -10  220.98    7.80
  -3   0  10  221.38    9.00
   2   0 -10  185.48    6.70
  -2   0  10  167.98    6.00
  -2   0  10  175.48    7.90
   1   0 -10 1445.36   34.80
  -1   0  10 1520.35   37.50
  -1   0  10 1479.35   34.20
   0   0 -10  402.46   11.40
   0   0 -10  426.56   13.20
   0   0  10  396.26   11.00
  -1   0 -10   26.70    2.10
  -1   0 -10   25.00    2.70
   1   0  10   29.50    2.20
  -2   0 -10  919.01   22.10
  -2   0 -10  902.71   25.00
   2   0  10  926.21   22.90
  -3   0 -10  215.78    9.30
   3   0  10  214.48    7.80
  -4   0 -10  117.59    6.70
   4   0  10  109.99    5.40
   5  -1 -10   54.69    3.70
  -5   1  10   55.29    4.20
   4  -1 -10    7.80    1.70
  -4   1  10    6.50    1.80
   3  -1 -10 1463.45   35.00
  -3   1  10 1454.25   36.70
   2  -1 -10  666.23   17.30
  -2   1  10  623.14   19.00
   1  -1 -10   54.49    3.30
  -1   1  10   69.59    4.60
   0  -1 -10  544.85   16.00
   0  -1 -10  507.85   14.10
   0   1  10  524.35   13.40
  -1  -1 -10  396.66   11.20
  -1  -1 -10  396.66   12.70
   1   1  10  388.06   10.90
  -2  -1 -10  285.57    8.50
  -2  -1 -10  275.57   10.30
   2   1  10  280.67    8.90
  -3  -1 -10   17.40    2.90
   3   1  10   14.10    2.00
  -4  -1 -10   74.89    5.40
   4   1  10   73.79    4.30
   4  -2 -10  477.55   14.10
  -4   2  10  486.65   15.50
   3  -2 -10  309.87   10.10
  -3   2  10  315.17   11.40
   2  -2 -10  512.35   14.40
  -2   2  10  507.65   16.00
   1  -2 -10  909.81   23.10
  -1   2  10  924.11   25.10
   0  -2 -10  253.77    8.50
   0   2  10  272.97   10.10
  -1  -2 -10   23.70    2.20
  -1  -2 -10   31.80    3.10
   1   2  10   25.80    2.10
  -2  -2 -10  172.38    7.40
  -2  -2 -10  172.18    6.20
   2   2  10  167.38    6.20
  -3  -2 -10  166.58    7.50
   3   2  10  159.78    6.40
   4  -3 -10  270.57    9.40
   4  -3 -10  252.27   13.50
  -4   3  10  262.07   10.40
   3  -3 -10  657.93   18.00
   3  -3 -10  614.04   20.40
  -3   3  10  693.93   19.60
   2  -3 -10  382.76   14.00
   2  -3 -10  395.16   12.20
  -2   3  10  418.66   13.50
   1  -3 -10   38.00    3.40
   1  -3 -10   37.30    2.90
  -1   3  10   31.20    3.10
   0  -3 -10  270.57    9.00
   0  -3 -10  265.87   11.40
   0   3  10  270.17   10.10
  -1  -3 -10   26.50    2.40
   1   3  10   34.70    3.20
  -2  -3 -10  512.05   14.40
  -2  -3 -10  559.94   16.30
   2   3  10  508.65   14.20
  -3  -3 -10    7.90    2.10
   3   3  10    6.60    1.50
   3  -4 -10   80.49    5.90
   3  -4 -10   77.79    4.50
  -3   4  10   77.49    5.00
   2  -4 -10  108.99    5.40
   2  -4 -10  125.39    6.80
  -2   4  10  110.89    6.00
   1  -4 -10  154.18    6.50
   1  -4 -10  152.68    6.90
  -1   4  10  152.58    7.10
   0  -4 -10  689.63   19.20
   0  -4 -10  681.73   18.50
   0   4  10  688.13   19.60
  -1  -4 -10   24.90    2.50
  -1  -4 -10   24.70    2.70
   1   4  10   24.60    2.80
  -2  -4 -10    4.30    1.50
   2   4  10    5.80    1.50
   1  -5 -10   63.99    4.20
   1  -5 -10   70.09    4.90
  -1   5  10   69.89    4.50
   2   5 -11   73.59    4.50
  -2  -5  11   60.49    4.30
   1   5 -11  562.54   15.90
  -1  -5  11  544.95   16.10
   0   5 -11   11.10    2.00
   0  -5  11    8.20    1.80
  -1   5 -11   16.20    2.80
  -1   5 -11   21.60    2.50
   1  -5  11   20.20    2.70
  -2   5 -11  338.77   10.50
  -2   5 -11  347.57   12.70
   3   4 -11  604.74   17.30
  -3  -4  11  615.14   17.50
   2   4 -11   68.79    4.20
  -2  -4  11   79.49    4.60
   1   4 -11   80.29    4.30
  -1  -4  11   70.59    4.30
  -1  -4  11   88.49    5.10
   0   4 -11  309.57   10.60
   0   4 -11  301.27    9.70
   0  -4  11  302.07   10.10
  -1   4 -11   38.30    2.80
  -1   4 -11   31.50    3.40
   1  -4  11   35.90    2.90
  -2   4 -11  250.67    8.20
  -2   4 -11  266.87   10.60
   2  -4  11  248.58    9.00
  -3   4 -11    0.30    1.20
   3  -4  11    0.10    0.90
   3   3 -11  130.99    6.00
  -3  -3  11  132.29    6.10
  -3  -3  11  123.89    6.60
   2   3 -11  315.77    9.90
  -2  -3  11  271.07   10.90
  -2  -3  11  298.27   10.00
   1   3 -11  156.18    6.30
  -1  -3  11  165.08    6.50
  -1  -3  11  157.98    7.40
   0   3 -11  289.97    9.30
   0   3 -11  307.77   10.50
   0  -3  11  290.37    9.50
  -1   3 -11   14.10    1.90
  -1   3 -11   19.50    3.10
   1  -3  11   12.80    2.00
  -2   3 -11   49.60    4.30
  -2   3 -11   47.60    2.90
   2  -3  11   55.19    3.50
  -3   3 -11  168.88    8.30
   3  -3  11  171.88    7.00
   4   2 -11  227.18    8.60
  -4  -2  11  241.08    8.90
  -4  -2  11  237.58    9.30
   3   2 -11  254.57    9.00
  -3  -2  11  260.17    8.90
  -3  -2  11  255.97   10.20
   2   2 -11  206.08    7.40
  -2  -2  11  182.18    8.70
  -2  -2  11  203.68    7.40
   1   2 -11   77.99    4.00
  -1  -2  11   67.39    3.90
  -1  -2  11   97.69    5.60
   0   2 -11   18.40    2.20
   0   2 -11   16.90    2.60
   0  -2  11   16.80    2.10
  -1   2 -11  105.79    4.70
   1  -2  11  117.09    5.00
  -2   2 -11  735.13   21.70
  -2   2 -11  728.13   18.30
   2  -2  11  726.93   19.30
  -3   2 -11   19.10    3.20
   3  -2  11   18.10    2.50
   4  -2  11   24.20    3.10
   4   1 -11  146.69    6.40
  -4  -1  11  158.38    7.50
   3   1 -11  168.78    6.70
  -3  -1  11  160.38    7.90
   2   1 -11   49.30    3.30
  -2  -1  11   51.59    3.20
  -2  -1  11   51.89    4.30
   1   1 -11  130.29    5.60
  -1  -1  11  149.19    5.60
  -1  -1  11  130.39    6.90
   0   1 -11 1250.37   30.10
   0   1 -11 1256.57   32.00
   0  -1  11 1272.17   30.00
  -1   1 -11  169.38    6.10
  -1   1 -11  163.48    7.40
   1  -1  11  170.78    6.20
  -2   1 -11   29.70    2.20
  -2   1 -11   29.10    3.40
   2  -1  11   26.50    2.50
  -3   1 -11  896.91   25.80
   3  -1  11  901.51   23.30
  -4   1 -11  190.68    9.20
   4  -1  11  187.18    7.70
   4   0 -11   48.20    3.50
  -4   0  11   54.69    4.40
   3   0 -11  109.49    5.20
  -3   0  11  105.69    6.30
   2   0 -11 1124.39   27.10
  -2   0  11 1058.99   29.50
   1   0 -11  122.99    5.30
  -1   0  11  122.09    4.90
  -1   0  11  132.79    6.80
   0   0 -11    3.40    1.10
   0   0 -11    6.00    1.90
   0   0  11    6.70    1.30
  -1   0 -11  821.12   20.50
  -1   0 -11  792.12   22.20
   1   0  11  824.02   20.50
  -2   0 -11  679.63   20.10
  -2   0 -11  692.83   17.50
   2   0  11  685.63   18.10
  -3   0 -11    4.90    1.90
   3   0  11    3.30    1.20
   4  -1 -11  407.66   12.80
  -4   1  11  419.46   14.50
   3  -1 -11  227.98    8.40
  -3   1  11  232.58    9.90
   2  -1 -11    0.40    0.80
  -2   1  11    0.30    0.80
   1  -1 -11  824.12   21.20
  -1   1  11  816.92   23.30
   0  -1 -11  988.40   24.50
   0   1  11  944.11   26.60
   0   1  11 1031.90   23.70
  -1  -1 -11   99.39    4.50
  -1  -1 -11   94.39    5.40
   1   1  11   95.79    4.30
  -2  -1 -11   41.60    3.70
  -2  -1 -11   45.30    2.90
   2   1  11   44.20    3.00
  -3  -1 -11  704.13   21.10
   3   1  11  730.13   19.40
   4  -2 -11    2.40    1.20
  -4   2  11    0.50    1.10
   3  -2 -11  213.88    8.10
  -3   2  11  213.28    9.40
   2  -2 -11 1194.28   29.00
  -2   2  11 1124.09   30.90
   1  -2 -11  126.19    5.60
  -1   2  11  135.69    7.00
   0  -2 -11   73.29    3.90
   0   2  11   66.09    4.70
  -1  -2 -11  860.21   23.20
  -1  -2 -11  807.32   21.20
  -2  -2 -11  252.77    9.60
  -2  -2 -11  221.88    7.80
   2   2  11  233.08    8.10
  -3  -2 -11   54.39    4.30
   3   2  11   55.69    3.60
   3  -3 -11  117.89    5.80
  -3   3  11  117.69    6.70
   2  -3 -11   10.60    2.00
  -2   3  11   12.90    2.70
   1  -3 -11  840.42   22.20
  -1   3  11  853.11   23.90
   0  -3 -11  538.85   15.40
   0   3  11  551.54   17.00
  -1  -3 -11   51.99    3.40
   1   3  11   47.90    4.00
  -2  -3 -11   41.10    3.00
   2  -4 -11  487.15   14.70
  -2   4  11  490.05   15.90
   1  -4 -11  145.79    6.50
  -1   4  11  143.59    7.30
   0  -4 -11   97.49    5.10
   0   4  11   98.69    5.80
   0   5 -12   17.90    2.60
   0  -5  12   16.20    2.60
  -1   5 -12  324.47   12.00
  -1   5 -12  342.57   10.90
   1  -5  12  345.57   11.30
   2   4 -12    3.20    1.40
  -2  -4  12    2.20    1.30
   1   4 -12  419.76   12.80
  -1  -4  12  444.26   13.30
  -1  -4  12  394.46   13.80
   0   4 -12  622.34   17.00
   0   4 -12  597.54   17.90
   0  -4  12  626.74   17.40
  -1   4 -12    0.80    1.10
  -1   4 -12    1.30    0.90
   1  -4  12    0.00    0.80
  -2   4 -12   10.10    2.50
  -2   4 -12    9.70    1.70
   2  -4  12    6.10    1.70
   3   3 -12  168.48    7.20
  -3  -3  12  175.48    7.50
   2   3 -12  691.23   18.90
  -2  -3  12  659.43   19.00
  -2  -3  12  726.03   21.10
   1   3 -12    7.80    1.70
  -1  -3  12    4.70    1.40
  -1  -3  12    4.10    1.50
   0   3 -12   10.50    2.20
   0   3 -12   14.50    2.20
   0  -3  12    9.60    1.90
  -1   3 -12  636.94   19.20
  -1   3 -12  645.64   17.30
   1  -3  12  666.73   17.80
  -2   3 -12   27.00    2.30
  -2   3 -12   23.30    3.80
   2  -3  12   25.80    2.60
  -3   3 -12  121.49    7.30
   3  -3  12  113.19    5.70
   3   2 -12   23.50    2.90
  -3  -2  12   26.20    3.10
  -3  -2  12   23.20    3.70
   2   2 -12    3.10    1.30
  -2  -2  12    6.20    2.00
  -2  -2  12    3.90    1.30
   1   2 -12  831.52   21.30
  -1  -2  12  782.42   23.10
  -1  -2  12  830.92   21.10
   0   2 -12  195.58    8.20
   0   2 -12  187.58    7.10
   0  -2  12  189.28    7.00
  -1   2 -12  207.68    8.70
  -1   2 -12  194.58    7.10
   1  -2  12  203.08    7.30
  -2   2 -12   63.89    3.40
  -2   2 -12   61.09    5.00
   2  -2  12   59.59    3.80
  -3   2 -12  104.99    6.80
   3  -2  12  105.69    5.40
   3   1 -12  680.13   18.10
  -3  -1  12  614.34   20.30
   2   1 -12  267.37    9.20
  -2  -1  12  282.87   11.40
  -2  -1  12  262.77    9.00
   1   1 -12  107.09    5.00
  -1  -1  12  117.69    6.50
  -1  -1  12  102.69    4.70
   0   1 -12  112.69    6.00
   0   1 -12  103.29    4.80
   0  -1  12  103.59    4.60
  -1   1 -12  246.68    9.60
  -1   1 -12  226.98    7.80
   1  -1  12  232.78    7.90
  -2   1 -12  197.18    6.90
  -2   1 -12  206.98    9.20
   2  -1  12  194.58    7.40
  -3   1 -12  170.68    8.90
   3  -1  12  177.58    7.30
   4   0 -12  294.77   10.20
  -4   0  12  282.37   11.90
   3   0 -12   97.69    5.10
  -3   0  12   89.59    6.20
   2   0 -12    9.70    1.80
  -2   0  12    9.00    2.40
   1   0 -12  264.87    9.10
  -1   0  12  276.07   10.90
   0   0 -12  137.99    5.80
   0   0 -12  136.39    6.90
   0   0  12  138.19    5.30
  -1   0 -12  338.87   10.30
  -1   0 -12  337.37   11.90
   1   0  12  331.57   10.10
  -2   0 -12    1.30    0.90
  -2   0 -12    0.00    1.10
   2   0  12    3.80    1.30
  -3   0 -12   94.59    6.30
   3   0  12   96.29    5.10
   3  -1 -12  222.58    8.40
  -3   1  12  213.08   10.00
   2  -1 -12  129.59    5.90
  -2   1  12  138.89    7.60
   1  -1 -12  459.55   13.70
  -1   1  12  472.65   15.70
   0  -1 -12   10.40    1.80
   0   1  12   11.20    2.50
  -1  -1 -12   98.09    5.70
  -1  -1 -12   91.49    4.50
   1   1  12   91.99    4.30
  -2  -1 -12  700.53   20.50
   2   1  12  703.83   18.70
   3  -2 -12  279.27   10.00
  -3   2  12  284.37   11.80
   2  -2 -12   10.00    2.00
  -2   2  12   11.50    2.80
   1  -2 -12   22.60    2.70
  -1   2  12   26.90    3.20
   0  -2 -12  660.73   17.80
   0   2  12  635.64   19.60
  -1  -2 -12  251.17    8.50
   1   2  12  231.08    9.90
  -2  -2 -12    2.80    1.60
   2   2  12    5.70    1.60
   2  -3 -12  385.26   12.60
  -2   3  12  399.36   14.30
   1  -3 -12  576.34   16.60
  -1   3  12  576.14   18.30
   0  -3 -12    1.00    1.10
   0   3  12    2.10    1.30
   1   3  12  260.67   10.50
   0   4 -13   11.40    2.00
   0   4 -13   12.80    2.50
   0  -4  13   11.20    2.00
   2   3 -13    5.30    1.60
  -2  -3  13    8.50    2.30
  -2  -3  13    6.00    1.70
   1   3 -13   20.00    2.60
  -1  -3  13   19.50    3.20
  -1  -3  13   20.00    2.70
   0   3 -13  669.93   19.50
   0   3 -13  641.74   18.00
   0  -3  13  662.23   18.00
  -1   3 -13  224.58    8.20
  -1   3 -13  238.38    9.80
   1  -3  13  226.58    8.40
  -2   3 -13   49.40    4.60
   2  -3  13   48.60    3.60
   2   2 -13  432.06   13.50
  -2  -2  13  449.36   13.50
  -2  -2  13  447.86   15.60
   1   2 -13  447.56   13.50
  -1  -2  13  428.76   15.00
  -1  -2  13  461.65   13.20
   0   2 -13   32.20    2.90
   0   2 -13   28.90    3.40
   0  -2  13   30.10    2.70
  -1   2 -13  231.38    9.70
  -1   2 -13  234.78    8.10
   1  -2  13  239.18    8.40
  -2   2 -13  565.64   18.60
   2  -2  13  592.94   16.50
   3   1 -13  602.94   16.90
  -3  -1  13  562.64   19.50
   2   1 -13    6.50    1.70
  -2  -1  13    6.50    2.10
   1   1 -13   42.80    3.30
  -1  -1  13   34.30    3.60
  -1  -1  13   46.50    3.10
   0   1 -13  724.73   19.40
   0   1 -13  774.22   21.70
   0  -1  13  715.23   19.00
  -1   1 -13   10.60    2.40
  -1   1 -13   12.30    2.00
   1  -1  13   12.90    2.00
  -2   1 -13    5.90    2.00
   2  -1  13    5.20    1.50
   3   0 -13   14.60    2.40
  -3   0  13   11.50    2.90
   2   0 -13 1014.30   26.40
  -2   0  13 1050.39   29.30
   1   0 -13  135.19    6.10
  -1   0  13  137.39    7.30
   0   0 -13   24.10    2.50
   0   0  13   27.40    2.30
   0   0  13   29.30    3.30
  -1   0 -13  320.47   10.10
  -1   0 -13  311.37   11.70
   1   0  13  312.57    9.80
  -2   0 -13  178.08    8.50
   2   0  13  179.08    7.10
   2  -1 -13   23.50    3.10
  -2   1  13   27.80    4.20
   1  -1 -13  239.68    8.80
  -1   1  13  252.97   10.60
   0  -1 -13  295.87    9.70
   0   1  13  275.67   11.20
  -1  -1 -13   66.79    4.90
  -1  -1 -13   65.69    3.90
   2  -2 -13  444.36   13.80
   1  -2 -13  136.59    6.30
  -1   2  13  138.09    7.50
   0  -2 -13   69.89    4.20
   0   2  13   65.89    4.90
   0   2 -14   40.80    3.30
   0   2 -14   47.00    4.20
   0  -2  14   46.90    3.30
   1   1 -14  508.85   14.70
  -1  -1  14  467.75   16.20
   0   1 -14  176.88    7.00
   0  -1  14  170.18    6.60
   0  -1  14  156.28    8.10
   1   0 -14  149.49    6.60
  -1   0  14  139.29    7.60
   0   0 -14  301.17    9.80
   0   0  14  247.88   10.90
   0   0   0    0.00    0.00
_computing_structure_solution     'SHELXT 2018/2 (Sheldrick, 2018)'
;
_shelx_hkl_checksum              81901
_shelx_res_file
;
TITL eb829_a.res in P-1
    I:\XRAYDATA\EB829G~1\eb829_a.res
    created by SHELXL-2018/3 at 11:59:08 on 09-Jul-2019
CELL 0.71073 5.4399 6.3599 11.0232 96.702 92.728 98.599
ZERR 1.0000 0.0004 0.0004 0.0008 0.001 0.001 0.001
LATT 1
SFAC C H CL I
UNIT 12 6 4 2
BOND $H
RTAB XBOND I1 C4
RTAB XANG C1 I1 C4
MPLA 3 C1 C2 C3
MPLA 3 C4 C5 C6 I1
ACTA
HTAB 2.0
LIST 4 1
TEMP -173
L.S. 16
WGHT    0.012900    0.210700
FVAR       0.65592
I1    4    0.632044    0.242409    0.709749    11.00000    0.01473    0.01688 =
         0.01605   -0.00209    0.00276    0.00549
CL1   3    0.709623    0.355398    0.422453    11.00000    0.01945    0.01586 =
         0.01943    0.00377    0.00007    0.00981
C1    1    0.849656    0.096984    0.583499    11.00000    0.01120    0.01125 =
         0.01433   -0.00170    0.00159    0.00212
CL2   3    1.042872    0.147599    0.241484    11.00000    0.02327    0.02049 =
         0.01409    0.00617    0.00371    0.00780
C2    1    0.871601    0.160812    0.467080    11.00000    0.01222    0.00996 =
         0.01704    0.00168   -0.00165    0.00307
C3    1    1.020666    0.064754    0.384308    11.00000    0.01291    0.01319 =
         0.01168    0.00132   -0.00044    0.00142
C4    1    0.292571    0.493617    0.920880    11.00000    0.01599    0.03628 =
         0.01492    0.00186    0.00125    0.00916
AFIX  43
H4    2    0.150280    0.488464    0.866558    11.00000   -1.20000
AFIX   0
C5    1    0.473840    0.673205    0.936673    11.00000    0.02396    0.02505 =
         0.01824    0.00519    0.00627    0.00858
AFIX  43
H5    2    0.455940    0.791629    0.893655    11.00000   -1.20000
AFIX   0
C6    1    0.682585    0.680099    1.015733    11.00000    0.01918    0.02569 =
         0.01906   -0.00083    0.00497    0.00152
AFIX  43
H6    2    0.808105    0.803023    1.026540    11.00000   -1.20000
AFIX   0
HKLF 4
REM  eb829_a.res in P-1
REM wR2 = 0.0317, GooF = S = 1.094, Restrained GooF = 1.094 for all data
REM R1 = 0.0131 for 1634 Fo > 4sig(Fo) and 0.0134 for all 1668 data
REM 82 parameters refined using 0 restraints
END
WGHT      0.0129      0.2107
REM No hydrogen bonds found for HTAB generation
REM Highest difference peak  0.461,  deepest hole -0.388,  1-sigma level  0.082
Q1    1   0.7513  0.3737  0.7077  11.00000  0.05    0.46
Q2    1   0.0951  0.2677  0.8663  11.00000  0.05    0.45
Q3    1   0.6217  0.3406  0.7924  11.00000  0.05    0.34
Q4    1   0.5089  0.0775  0.7059  11.00000  0.05    0.34
Q5    1   0.9006  0.1696  0.5249  11.00000  0.05    0.31
Q6    1   0.8852 -0.0039  0.5914  11.00000  0.05    0.30
Q7    1   0.3693  0.6068  0.9541  11.00000  0.05    0.29
Q8    1   0.4215  0.8687  1.0011  11.00000  0.05    0.29
Q9    1   0.9869  0.1487  0.4356  11.00000  0.05    0.28
Q10   1   0.5859  0.6571  0.9573  11.00000  0.05    0.28
Q11   1   0.4698  0.7280  0.9114  11.00000  0.05    0.26
Q12   1   0.7165  0.1229  0.6255  11.00000  0.05    0.25
Q13   1   0.4472  0.5790  0.9062  11.00000  0.05    0.25
Q14   1   0.9168  0.0898  0.4201  11.00000  0.05    0.24
Q15   1   1.2125  0.3471  0.1810  11.00000  0.05    0.24
Q16   1   0.4915  0.1739  0.7687  11.00000  0.05    0.21
Q17   1   0.7856 -0.0038  0.2990  11.00000  0.05    0.21
Q18   1   0.7681  0.5500  0.7246  11.00000  0.05    0.21
Q19   1   0.6970  0.1619  0.7456  11.00000  0.05    0.20
Q20   1   1.0778  0.2767  0.5599  11.00000  0.05    0.20
;
_shelx_res_checksum              19119
loop_
_space_group_symop_operation_xyz
'x, y, z'
'-x, -y, -z'
loop_
_atom_site_type_symbol
_atom_site_label
_atom_site_fract_x
_atom_site_fract_y
_atom_site_fract_z
_atom_site_U_iso_or_equiv
_atom_site_adp_type
_atom_site_calc_flag
_atom_site_occupancy
I I1 0.63204(2) 0.24241(2) 0.70975(2) 0.01586(5) Uani d 1
Cl Cl1 0.70962(8) 0.35540(7) 0.42245(4) 0.01743(9) Uani d 1
C C1 0.8497(3) 0.0970(3) 0.58350(15) 0.0125(3) Uani d 1
Cl Cl2 1.04287(8) 0.14760(7) 0.24148(4) 0.01843(9) Uani d 1
C C2 0.8716(3) 0.1608(3) 0.46708(16) 0.0130(3) Uani d 1
C C3 1.0207(3) 0.0648(3) 0.38431(16) 0.0127(3) Uani d 1
C C4 0.2926(4) 0.4936(3) 0.92088(17) 0.0220(4) Uani d 1
H H4 0.150280 0.488464 0.866558 0.026 Uiso calc 1
C C5 0.4738(4) 0.6732(3) 0.93667(18) 0.0216(4) Uani d 1
H H5 0.455940 0.791629 0.893655 0.026 Uiso calc 1
C C6 0.6826(4) 0.6801(3) 1.01573(18) 0.0217(4) Uani d 1
H H6 0.808105 0.803023 1.026540 0.026 Uiso calc 1
loop_
_atom_site_aniso_label
_atom_site_aniso_U_11
_atom_site_aniso_U_22
_atom_site_aniso_U_33
_atom_site_aniso_U_12
_atom_site_aniso_U_13
_atom_site_aniso_U_23
I1 0.01473(7) 0.01688(7) 0.01605(7) 0.00549(4) 0.00276(4) -0.00209(4)
Cl1 0.0194(2) 0.01586(19) 0.0194(2) 0.00981(16) 0.00007(16) 0.00377(15)
C1 0.0112(7) 0.0113(7) 0.0143(8) 0.0021(6) 0.0016(6) -0.0017(6)
Cl2 0.0233(2) 0.0205(2) 0.0141(2) 0.00780(16) 0.00371(16) 0.00617(16)
C2 0.0122(7) 0.0100(7) 0.0170(8) 0.0031(6) -0.0016(6) 0.0017(6)
C3 0.0129(8) 0.0132(8) 0.0117(7) 0.0014(6) -0.0004(6) 0.0013(6)
C4 0.0160(8) 0.0363(11) 0.0149(8) 0.0092(8) 0.0013(7) 0.0019(7)
C5 0.0240(9) 0.0251(9) 0.0182(9) 0.0086(8) 0.0063(7) 0.0052(7)
C6 0.0192(9) 0.0257(10) 0.0191(9) 0.0015(7) 0.0050(7) -0.0008(7)
loop_
_atom_type_symbol
_atom_type_description
_atom_type_scat_dispersion_real
_atom_type_scat_dispersion_imag
_atom_type_scat_source
C C 0.0033 0.0016 'International Tables Vol C Tables 4.2.6.8 and 6.1.1.4'
H H 0.0000 0.0000 'International Tables Vol C Tables 4.2.6.8 and 6.1.1.4'
Cl Cl 0.1484 0.1585 'International Tables Vol C Tables 4.2.6.8 and 6.1.1.4'
I I -0.4742 1.8119 'International Tables Vol C Tables 4.2.6.8 and 6.1.1.4'
loop_
_geom_angle_atom_site_label_1
_geom_angle_atom_site_label_2
_geom_angle_atom_site_label_3
_geom_angle_site_symmetry_1
_geom_angle_site_symmetry_3
_geom_angle
C2 C1 C3 . 2_756 118.86(15)
C2 C1 I1 . . 121.01(12)
C3 C1 I1 2_756 . 120.13(12)
C1 C2 C3 . . 120.44(15)
C1 C2 Cl1 . . 120.37(13)
C3 C2 Cl1 . . 119.17(13)
C2 C3 C1 . 2_756 120.70(16)
C2 C3 Cl2 . . 119.10(13)
C1 C3 Cl2 2_756 . 120.21(13)
C5 C4 C6 . 2_667 120.31(18)
C5 C4 H4 . . 119.8
C6 C4 H4 2_667 . 119.8
C4 C5 C6 . . 119.78(18)
C4 C5 H5 . . 120.1
C6 C5 H5 . . 120.1
C5 C6 C4 . 2_667 119.90(19)
C5 C6 H6 . . 120.0
C4 C6 H6 2_667 . 120.0
loop_
_geom_bond_atom_site_label_1
_geom_bond_atom_site_label_2
_geom_bond_site_symmetry_2
_geom_bond_distance
I1 C1 . 2.0922(17)
Cl1 C2 . 1.7254(17)
C1 C2 . 1.396(2)
C1 C3 2_756 1.400(2)
Cl2 C3 . 1.7215(17)
C2 C3 . 1.397(2)
C4 C5 . 1.381(3)
C4 C6 2_667 1.394(3)
C4 H4 . 0.9500
C5 C6 . 1.390(3)
C5 H5 . 0.9500
C6 H6 . 0.9500

_cod_database_fobs_code 1552118
