#------------------------------------------------------------------------------
#$Date: 2019-11-12 01:12:38 +0200 (Tue, 12 Nov 2019) $
#$Revision: 227475 $
#$URL: file:///home/coder/svn-repositories/cod/cif/1/55/28/1552842.cif $
#------------------------------------------------------------------------------
#
# This file is available in the Crystallography Open Database (COD),
# http://www.crystallography.net/
#
# All data on this site have been placed in the public domain by the
# contributors.
#
data_1552842
loop_
_publ_author_name
'Chen, Jianhua'
'Wang, Lei'
'Yang, Jie'
'Yang, Kun'
'Uddin, Mohammad Afsar'
'Tang, Yumin'
'Zhou, Xin'
'Liao, Qiaogan'
'Yu, Jianwei'
'Liu, Bin'
'Woo, Han Young'
'Guo, Xugang'
_publ_section_title
;
 Backbone Conformation Tuning of Carboxylate-Functionalized Wide Band Gap
 Polymers for Efficient Non-Fullerene Organic Solar Cells
;
_journal_issue                   1
_journal_name_full               Macromolecules
_journal_page_first              341
_journal_paper_doi               10.1021/acs.macromol.8b02360
_journal_volume                  52
_journal_year                    2018
_chemical_formula_moiety         'C9 H6 O2 S2'
_chemical_formula_sum            'C9 H6 O2 S2'
_chemical_formula_weight         210.26
_space_group_crystal_system      triclinic
_space_group_IT_number           2
_space_group_name_Hall           '-P 1'
_space_group_name_H-M_alt        'P -1'
_atom_sites_solution_hydrogens   geom
_atom_sites_solution_primary     dual
_audit_creation_date             2017-10-17
_audit_creation_method
;
Olex2 1.2
(compiled 2017.08.10 svn.r3458 for OlexSys, GUI svn.r5381)
;
_cell_angle_alpha                72.62(2)
_cell_angle_beta                 86.100(19)
_cell_angle_gamma                69.463(17)
_cell_formula_units_Z            2
_cell_length_a                   6.052(3)
_cell_length_b                   7.230(4)
_cell_length_c                   10.735(6)
_cell_measurement_reflns_used    9670
_cell_measurement_temperature    100
_cell_measurement_theta_max      27.491
_cell_measurement_theta_min      3.146
_cell_volume                     419.4(4)
_computing_cell_refinement       'SAINT v8.37A (Bruker, 2015)'
_computing_data_reduction        'SAINT v8.37A (Bruker, 2015)'
_computing_molecular_graphics    'Olex2 (Dolomanov et al., 2009)'
_computing_publication_material  'Olex2 (Dolomanov et al., 2009)'
_computing_structure_refinement  'XL (Sheldrick, 2008)'
_computing_structure_solution    'ShelXT (Sheldrick, 2015)'
_diffrn_ambient_temperature      100
_diffrn_detector                 'Bruker PHOTO 100 area detector'
_diffrn_detector_area_resol_mean 7.9
_diffrn_detector_type            'CCD area detector'
_diffrn_measured_fraction_theta_full 0.997
_diffrn_measured_fraction_theta_max 0.996
_diffrn_measurement_device       'three-circle diffractometer'
_diffrn_measurement_device_type  'Bruker PHOTO 100 area detector'
_diffrn_measurement_method       '\w and \f scans'
_diffrn_radiation_monochromator  'mirror optics'
_diffrn_radiation_probe          x-ray
_diffrn_radiation_type           MoK\a
_diffrn_radiation_wavelength     0.71073
_diffrn_reflns_av_R_equivalents  0.0241
_diffrn_reflns_av_unetI/netI     0.0185
_diffrn_reflns_Laue_measured_fraction_full 0.997
_diffrn_reflns_Laue_measured_fraction_max 0.996
_diffrn_reflns_limit_h_max       7
_diffrn_reflns_limit_h_min       -7
_diffrn_reflns_limit_k_max       9
_diffrn_reflns_limit_k_min       -9
_diffrn_reflns_limit_l_max       13
_diffrn_reflns_limit_l_min       -13
_diffrn_reflns_number            10587
_diffrn_reflns_point_group_measured_fraction_full 0.997
_diffrn_reflns_point_group_measured_fraction_max 0.996
_diffrn_reflns_theta_full        25.242
_diffrn_reflns_theta_max         27.540
_diffrn_reflns_theta_min         3.148
_diffrn_source                   'microfocus sealed X-ray tube'
_diffrn_source_type              'Incoatec I\ms'
_exptl_absorpt_coefficient_mu    0.589
_exptl_absorpt_correction_T_max  0.2616
_exptl_absorpt_correction_T_min  0.2259
_exptl_absorpt_correction_type   multi-scan
_exptl_crystal_colour            yellow
_exptl_crystal_colour_primary    yellow
_exptl_crystal_density_diffrn    1.665
_exptl_crystal_description       plate
_exptl_crystal_F_000             216
_exptl_crystal_size_max          0.4
_exptl_crystal_size_mid          0.4
_exptl_crystal_size_min          0.2
_refine_diff_density_max         0.410
_refine_diff_density_min         -0.239
_refine_diff_density_rms         0.057
_refine_ls_extinction_coef       0.049(5)
_refine_ls_extinction_expression Fc^*^=kFc[1+0.001xFc^2^\l^3^/sin(2\q)]^-1/4^
_refine_ls_extinction_method     'SHELXL-2016/6 (Sheldrick 2016)'
_refine_ls_goodness_of_fit_ref   1.049
_refine_ls_hydrogen_treatment    constr
_refine_ls_matrix_type           full
_refine_ls_number_parameters     120
_refine_ls_number_reflns         1922
_refine_ls_number_restraints     0
_refine_ls_restrained_S_all      1.049
_refine_ls_R_factor_all          0.0238
_refine_ls_R_factor_gt           0.0226
_refine_ls_shift/su_max          0.001
_refine_ls_shift/su_mean         0.000
_refine_ls_structure_factor_coef Fsqd
_refine_ls_weighting_details
'w=1/[\s^2^(Fo^2^)+(0.0191P)^2^+0.3438P] where P=(Fo^2^+2Fc^2^)/3'
_refine_ls_weighting_scheme      calc
_refine_ls_wR_factor_gt          0.0555
_refine_ls_wR_factor_ref         0.0562
_reflns_Friedel_coverage         0.000
_reflns_number_gt                1838
_reflns_number_total             1922
_reflns_threshold_expression     'I > 2\s(I)'
_cod_data_source_file            ma8b02360_si_003.cif
_cod_data_source_block           mo_cxy0177_0m
_cod_database_code               1552842
_shelx_shelxl_version_number     2016/6
_shelx_space_group_comment
;
The symmetry employed for this shelxl refinement is uniquely defined
by the following loop, which should always be used as a source of
symmetry information in preference to the above space-group names.
They are only intended as comments.
;
_olex2_refinement_description
;
1. Fixed Uiso
 At 1.2 times of:
  All C(H) groups
 At 1.5 times of:
  All C(H,H,H) groups
2.a Aromatic/amide H refined with riding coordinates:
 C6(H6), C8(H8), C9(H9)
2.b Idealised Me refined as rotating group:
 C1(H1A,H1B,H1C)
;
_shelx_res_file
;
TITL mo_cxy0177_0m_a.res in P-1
    mo_cxy0177_0m.res
    created by SHELXL-2016/6 at 10:46:18 on 12-Oct-2017
CELL 0.71073 6.0515 7.2304 10.7355 72.623 86.1 69.463
ZERR 2 0.0033 0.0043 0.0056 0.023 0.019 0.017
LATT 1
SFAC C H O S
UNIT 18 12 4 4

L.S. 4
PLAN  -2 0 0
TEMP 20
HTAB
BOND $H
CONF
fmap 2
acta
OMIT 0 1 2
REM <olex2.extras>
REM <HklSrc "%.\\mo_cxy0177_0m.hkl">
REM </olex2.extras>

WGHT    0.019100    0.343800
EXTI    0.048724
FVAR       1.28960
S1    4    0.663942    0.222559    0.479544    11.00000    0.00784    0.00753 =
         0.01102   -0.00062    0.00093   -0.00147
S2    4    0.894990    0.697556    0.341365    11.00000    0.01257    0.00886 =
         0.01112   -0.00214   -0.00182   -0.00447
O1    3    0.246540    0.766352    0.071324    11.00000    0.01107    0.01071 =
         0.01474   -0.00153   -0.00462   -0.00280
O2    3    0.429185    0.428272    0.174932    11.00000    0.01456    0.00929 =
         0.01776   -0.00257   -0.00149   -0.00430
C1    1    0.088269    0.711592    0.006014    11.00000    0.01113    0.01702 =
         0.01601   -0.00525   -0.00281   -0.00500
AFIX 137
H1A   2    0.177644    0.624078   -0.045145    11.00000   -1.50000
H1B   2   -0.022655    0.834765   -0.050083    11.00000   -1.50000
H1C   2    0.004691    0.639561    0.069889    11.00000   -1.50000
AFIX   0
C2    1    0.410285    0.607282    0.154586    11.00000    0.00868    0.01090 =
         0.00977   -0.00241    0.00196   -0.00258
C3    1    0.562782    0.682391    0.213573    11.00000    0.01020    0.00823 =
         0.00929   -0.00236    0.00181   -0.00285
C4    1    0.751965    0.554868    0.300165    11.00000    0.01012    0.00860 =
         0.00919   -0.00343    0.00191   -0.00400
C5    1    0.839727    0.332092    0.367520    11.00000    0.01122    0.00839 =
         0.00743   -0.00121    0.00000   -0.00441
C6    1    1.068678    0.200097    0.371703    11.00000    0.01072    0.00852 =
         0.00914   -0.00196    0.00019   -0.00394
AFIX  43
H6    2    1.186809    0.233228    0.319825    11.00000   -1.20000
AFIX   0
C7    1    1.100550    0.005676    0.466252    11.00000    0.00881    0.00784 =
         0.00953   -0.00246   -0.00033   -0.00213
C8    1    0.705916    0.926047    0.244234    11.00000    0.01617    0.00727 =
         0.01310   -0.00206    0.00073   -0.00382
AFIX  43
H8    2    0.716274    1.054762    0.235010    11.00000   -1.20000
AFIX   0
C9    1    0.538668    0.895612    0.182265    11.00000    0.01245    0.00796 =
         0.01156   -0.00109    0.00036   -0.00197
AFIX  43
H9    2    0.421030    1.002102    0.125528    11.00000   -1.20000
AFIX   0
HKLF 4




REM  mo_cxy0177_0m_a.res in P-1
REM R1 =  0.0226 for    1838 Fo > 4sig(Fo)  and  0.0238 for all    1922 data
REM    120 parameters refined using      0 restraints

END

WGHT      0.0191      0.3437

REM Instructions for potential hydrogen bonds
EQIV $2 -x+1, -y+1, -z
HTAB C1 O2_$2
EQIV $3 x+1, y, z
HTAB C6 O2_$3
EQIV $4 x, y+1, z
HTAB C8 O2_$4

REM Highest difference peak  0.410,  deepest hole -0.239,  1-sigma level  0.057
Q1    1   0.5014  0.6429  0.1841  11.00000  0.05    0.41
Q2    1   0.7930  0.4346  0.3315  11.00000  0.05    0.40
;
_shelx_res_checksum              68054
_shelx_hkl_file
;
  -1   0   0 2.50555 0.43486   4
  -1   0   0 2.03855 0.32943   2
  -1   0   0 1.85728 0.38965   3
   1   0   0 2.18265 0.33484   2
   1   0   0 1.72865 0.36634   3
   1   0   0 3.18520 0.43578   4
  -2   0   0 0.34691 0.46439   4
  -2   0   0 1.22410 0.51109   3
  -2   0   0 2.69746 0.60973   4
  -2   0   0 1.80687 0.47728   2
   2   0   0 2.95076 0.72059   4
   2   0   0 1.83178 0.50303   4
   2   0   0 0.76418 0.41796   2
  -3   0   0 0.63739 0.80242   4
  -3   0   0 2.54680 0.86065   4
  -3   0   0 1.07925 0.76370   3
  -3   0   0 1.41766 0.61932   2
   3   0   0 0.40942 0.58127   2
   3   0   0 0.39670 0.64696   4
   3   0   0 1.58744 0.80802   3
  -4   0   0 616.271 20.8216   3
  -4   0   0 605.617 20.2445   2
  -4   0   0 624.503 21.0289   4
  -4   0   0 628.229 20.8451   4
   4   0   0 630.930 20.4375   2
   4   0   0 618.368 21.1611   4
   4   0   0 612.130 20.6268   4
  -5   0   0 699.941 23.9764   3
  -5   0   0 673.134 23.9670   4
  -5   0   0 686.626 23.1423   2
  -5   0   0 720.450 23.9833   4
   5   0   0 709.579 23.3722   2
   5   0   0 720.729 23.7494   3
   5   0   0 704.897 23.6558   4
   5   0   0 691.838 24.2669   4
  -6   0   0 254.658 11.2683   3
  -6   0   0 266.795 11.1373   4
  -6   0   0 247.672 10.9978   4
  -6   0   0 256.832 10.1632   2
   6   0   0 247.952 10.5672   4
   6   0   0 263.560 10.8398   3
   6   0   0 262.278 11.4745   4
  -7   0   0 5.54448 2.58297   4
  -7   0   0 12.7368 3.65897   3
  -7   0   0 4.41059 2.61790   2
  -7   1   0 346.499 13.4621   2
  -7   1   0 308.242 14.9940   3
  -7   1   0 357.019 15.1973   4
   6  -1   0 14.2876 3.13992   3
   6  -1   0 19.1459 3.13095   4
   6  -1   0 21.3341 3.42836   4
  -6   1   0 13.3882 2.80950   4
  -6   1   0 18.3379 3.54799   4
  -6   1   0 18.8227 3.52739   3
  -6   1   0 19.5655 2.78606   2
   5  -1   0 67.5052 4.25246   2
   5  -1   0 71.7438 5.20986   4
   5  -1   0 73.7144 4.72820   4
   5  -1   0 70.2237 4.75756   3
  -5   1   0 73.6281 5.18133   4
  -5   1   0 67.0433 4.66643   4
  -5   1   0 77.2300 5.21725   3
  -5   1   0 68.2390 4.11956   2
   4  -1   0 11.3357 1.55883   2
   4  -1   0 10.7542 1.99622   4
   4  -1   0 10.7201 1.96278   3
  -4   1   0 9.00131 1.42279   2
  -4   1   0 9.35611 1.93448   3
  -4   1   0 8.32584 1.75714   4
  -4   1   0 9.60955 1.73805   4
   3  -1   0 1803.49 56.4851   2
   3  -1   0 1927.48 57.5413   4
   3  -1   0 1823.17 57.0198   4
   3  -1   0 1805.12 56.9585   3
  -3   1   0 1893.66 57.5104   4
  -3   1   0 1730.82 56.4360   2
  -3   1   0 1795.20 57.0854   4
  -3   1   0 1800.16 57.1818   3
   2  -1   0 599.397 20.0764   4
   2  -1   0 603.879 19.3878   2
   2  -1   0 597.578 19.7790   3
   2  -1   0 598.826 19.8169   4
  -2   1   0 624.505 19.4314   2
  -2   1   0 625.971 19.9682   3
  -2   1   0 642.678 20.2004   4
   1  -1   0 171.448 5.94785   2
   1  -1   0 182.251 6.44159   4
   1  -1   0 192.154 6.36083   3
  -1   1   0 164.231 6.21407   4
  -1   1   0 189.663 6.47594   4
  -1   1   0 179.867 6.35483   3
  -1   1   0 189.795 5.99780   2
   0  -1   0 277.566 8.62436   3
   0  -1   0 257.442 8.35904   2
   0  -1   0 262.577 8.43781   4
   0  -1   0 249.023 8.54808   4
   0   1   0 260.112 8.60421   3
   0   1   0 284.645 8.56995   4
  -1  -1   0 949.749 28.4190   3
  -1  -1   0 938.729 28.3247   4
  -1  -1   0 893.086 28.3182   2
   1   1   0 903.283 28.3105   4
   1   1   0 893.624 28.3280   2
  -2  -1   0 1389.67 44.5500   4
  -2  -1   0 1463.22 44.6434   3
  -2  -1   0 1442.05 44.6051   2
  -2  -1   0 1465.12 44.5891   4
   2   1   0 1426.01 44.6333   2
   2   1   0 1461.47 44.5914   4
  -3  -1   0 509.546 16.6095   2
  -3  -1   0 505.190 16.7102   4
  -3  -1   0 491.140 16.7273   4
  -3  -1   0 511.798 16.7694   3
   3   1   0 512.785 16.6723   4
   3   1   0 524.259 16.7517   2
  -4  -1   0 244.435 9.15452   4
  -4  -1   0 235.992 9.02936   4
  -4  -1   0 245.045 9.13177   3
  -4  -1   0 251.126 8.88653   2
   4   1   0 248.706 9.00152   4
   4   1   0 224.446 9.23952   4
   4   1   0 242.901 8.99943   2
  -5  -1   0 1115.85 37.3653   4
  -5  -1   0 1122.74 36.9236   2
  -5  -1   0 1140.73 37.4012   3
  -5  -1   0 1163.87 37.4749   4
   5   1   0 1188.48 37.2864   4
   5   1   0 1190.77 37.8590   4
   5   1   0 1158.56 37.2148   2
  -6  -1   0 747.243 25.7744   4
  -6  -1   0 759.537 25.9020   4
  -6  -1   0 719.991 25.7119   3
  -6  -1   0 759.335 25.2038   2
   6   1   0 758.958 25.5785   4
   6   1   0 764.880 26.3794   4
  -7  -1   0 54.3929 5.63944   4
  -7  -1   0 68.3241 5.12910   2
  -7  -1   0 58.7944 6.16935   3
   7   1   0 61.0297 6.99315   4
   6  -2   0 4.16499 2.58638   2
   6  -2   0 6.99009 3.76967   4
  -6   2   0 5.28708 3.61306   3
  -6   2   0 8.41651 2.58820   2
  -6   2   0 3.44856 3.46580   4
   5  -2   0 302.327 12.4422   4
   5  -2   0 315.910 12.5732   3
   5  -2   0 329.770 11.8131   2
   5  -2   0 310.837 13.1144   4
  -5   2   0 311.987 13.2314   4
  -5   2   0 315.807 11.6928   2
  -5   2   0 321.584 13.2330   3
   4  -2   0 192.864 8.40057   4
   4  -2   0 197.712 7.74780   2
   4  -2   0 198.585 8.90519   4
   4  -2   0 198.098 8.41004   3
  -4   2   0 196.537 8.80327   3
  -4   2   0 203.101 8.59872   4
  -4   2   0 196.280 8.97313   4
  -4   2   0 203.000 7.72639   2
   3  -2   0 186.824 8.03182   4
   3  -2   0 188.644 6.98740   2
   3  -2   0 188.642 7.77761   3
   3  -2   0 183.779 7.67563   4
  -3   2   0 196.625 7.08987   2
  -3   2   0 192.631 8.01844   3
  -3   2   0 194.837 8.21637   4
   2  -2   0 158.230 5.92046   2
   2  -2   0 165.438 6.82915   4
   2  -2   0 163.852 6.56314   3
   2  -2   0 164.051 6.54002   4
  -2   2   0 166.813 6.78565   3
  -2   2   0 170.565 6.01433   2
  -2   2   0 171.287 6.89649   4
   1  -2   0 986.453 30.8151   4
   1  -2   0 972.302 30.9924   4
   1  -2   0 967.319 30.8981   3
   1  -2   0 1000.93 30.3385   2
  -1   2   0 935.568 30.3239   2
  -1   2   0 973.697 30.7594   4
  -1   2   0 979.475 31.0305   3
  -1   2   0 984.513 31.0566   4
   0   2   0 3292.07 100.961   4
  -1  -2   0 349.177 11.1825   4
  -1  -2   0 343.449 11.4153   3
  -1  -2   0 326.456 10.8674   4
  -1  -2   0 348.189 11.1606   2
   1   2   0 327.418 11.1337   2
   1   2   0 346.906 11.1269   4
   1   2   0 342.535 11.3779   3
  -2  -2   0 6.20815 1.03396   3
  -2  -2   0 5.62037 0.68870   4
  -2  -2   0 5.93660 0.88275   4
  -2  -2   0 6.07621 0.88096   2
   2   2   0 4.70308 0.83866   2
   2   2   0 7.92969 0.99105   4
  -3  -2   0 75.5728 3.44884   3
  -3  -2   0 71.9313 3.29943   4
  -3  -2   0 72.2642 3.39167   2
  -3  -2   0 70.4651 3.16232   4
   3   2   0 70.6242 3.37381   4
   3   2   0 69.4542 3.42561   2
  -4  -2   0 647.218 21.4676   3
  -4  -2   0 642.513 21.2477   4
  -4  -2   0 634.254 21.3368   4
  -4  -2   0 666.765 21.4088   2
   4   2   0 658.629 21.5433   2
   4   2   0 643.181 21.4018   4
  -5  -2   0 328.860 12.3013   4
  -5  -2   0 333.901 12.4718   4
  -5  -2   0 342.521 12.6157   3
  -5  -2   0 341.399 12.3542   2
   5   2   0 356.840 12.6823   2
   5   2   0 342.875 12.4900   4
  -6  -2   0 107.167 6.02594   3
  -6  -2   0 104.420 5.59669   4
  -6  -2   0 108.511 5.49508   2
  -6  -2   0 99.7681 5.68726   4
   6   2   0 100.047 5.67304   4
  -7  -2   0 34.7331 4.57119   4
  -7  -2   0 34.6781 4.15434   4
  -7  -2   0 29.9343 4.14423   2
  -7  -2   0 30.3698 4.08189   3
   6  -3   0 149.759 8.46245   2
  -6   3   0 177.343 10.2081   4
  -6   3   0 168.350 8.28823   2
   5  -3   0 74.6873 6.37317   4
   5  -3   0 76.7540 4.78868   2
   5  -3   0 67.8043 5.73797   4
  -5   3   0 77.9971 4.86618   2
  -5   3   0 74.8581 6.90734   4
  -5   3   0 82.1348 6.87028   3
   4  -3   0 107.717 5.98832   4
   4  -3   0 103.562 6.25087   4
   4  -3   0 103.987 5.98761   3
   4  -3   0 106.913 4.95992   2
  -4   3   0 100.980 5.03082   2
  -4   3   0 95.3448 5.73870   4
  -4   3   0 105.617 6.57908   3
  -4   3   0 101.463 6.62591   4
   3  -3   0 1303.47 43.1784   4
   3  -3   0 1333.96 42.7745   3
   3  -3   0 1376.78 42.9179   4
   3  -3   0 1349.46 41.7810   2
  -3   3   0 1283.85 43.2901   4
  -3   3   0 1296.26 42.7281   4
  -3   3   0 1368.82 41.8821   2
  -3   3   0 1308.46 43.2186   3
   2  -3   0 330.363 10.9067   2
   2  -3   0 328.528 11.7328   4
   2  -3   0 316.547 11.9541   4
  -2   3   0 321.645 12.0352   3
  -2   3   0 322.971 12.1036   4
  -2   3   0 316.476 10.9348   2
  -2   3   0 305.046 11.5348   4
   1  -3   0 3243.53 100.040   4
   1  -3   0 3247.93 99.3965   2
   1  -3   0 3098.81 100.145   3
   1  -3   0 3170.73 100.216   4
  -1   3   0 3375.40 99.9531   4
  -1   3   0 3242.28 100.359   4
  -1   3   0 3301.65 100.466   3
   0  -3   0 627.330 20.5320   4
   0  -3   0 625.690 20.3647   4
   0  -3   0 604.307 20.0335   2
   0  -3   0 651.354 20.8023   3
   0   3   0 612.450 20.7940   3
   0   3   0 640.259 20.2168   4
   0   3   0 646.488 20.6598   4
  -1  -3   0 176.166 6.37910   4
  -1  -3   0 184.039 6.67744   4
  -1  -3   0 188.470 6.61882   2
  -1  -3   0 177.654 6.95003   3
   1   3   0 172.141 6.92611   3
   1   3   0 184.533 6.66505   4
  -2  -3   0 3088.49 93.5998   2
  -2  -3   0 2964.14 93.8993   3
  -2  -3   0 3048.42 93.6249   4
   2   3   0 3144.21 93.6712   2
   2   3   0 2958.26 93.7886   3
   2   3   0 3022.68 93.4618   4
  -3  -3   0 44.4278 2.70093   4
  -3  -3   0 51.9460 3.19261   3
  -3  -3   0 47.4886 2.83546   2
  -3  -3   0 48.2380 2.40338   4
   3   3   0 49.7382 2.58781   4
   3   3   0 52.1405 2.87397   4
   3   3   0 48.8474 2.89222   2
  -4  -3   0 1031.19 33.3999   4
  -4  -3   0 1058.80 33.9140   3
  -4  -3   0 1012.76 33.8501   2
  -4  -3   0 1067.06 33.7840   4
   4   3   0 1096.97 34.1734   2
   4   3   0 1077.86 33.8401   4
   4   3   0 1042.60 33.9299   4
  -5  -3   0 219.453 8.97399   3
  -5  -3   0 192.795 7.94309   4
  -5  -3   0 208.043 8.54093   3
  -5  -3   0 203.373 8.37824   2
  -5  -3   0 208.001 8.36563   4
   5   3   0 219.260 8.82158   2
   5   3   0 206.191 8.50416   4
   5   3   0 206.298 8.55535   4
  -6  -3   0 146.895 6.92013   4
  -6  -3   0 165.953 7.55371   4
  -6  -3   0 171.439 7.76156   3
  -6  -3   0 162.771 7.40280   2
   6   3   0 151.192 7.35614   4
   6   3   0 165.210 7.76311   4
  -7  -3   0 10.6859 2.67518   4
  -7  -3   0 12.1548 2.59962   2
  -7  -3   0 20.5334 3.71497   3
  -7  -3   0 7.92187 1.91864   4
   7   3   0 12.1138 2.87893   4
   5  -4   0 508.822 20.4855   4
   5  -4   0 506.299 20.0540   4
  -5   4   0 488.776 20.4584   3
  -5   4   0 542.842 18.4152   2
  -5   4   0 523.539 20.0025   4
  -5   4   0 538.688 21.4116   4
   4  -4   0 27.2508 3.01488   2
   4  -4   0 27.1156 4.03670   4
   4  -4   0 28.5209 3.92090   4
   4  -4   0 18.3166 3.41357   3
  -4   4   0 27.6686 3.58448   4
  -4   4   0 24.6340 4.14245   3
  -4   4   0 21.7772 3.16665   2
  -4   4   0 16.4504 3.14917   4
   3  -4   0 515.109 18.9909   4
   3  -4   0 530.056 19.0096   3
   3  -4   0 566.370 17.7790   2
   3  -4   0 521.407 19.2740   4
  -3   4   0 520.301 19.5503   3
  -3   4   0 539.198 18.8729   4
  -3   4   0 571.376 17.9689   2
  -3   4   0 450.489 20.8581   4
   2  -4   0 450.781 14.2390   2
   2  -4   0 417.829 15.4593   4
   2  -4   0 414.330 15.1572   4
   2  -4   0 402.088 15.1815   3
  -2   4   0 405.924 15.5960   3
  -2   4   0 432.283 14.3230   2
  -2   4   0 402.232 14.8685   4
  -2   4   0 421.564 15.6740   4
   1  -4   0 984.988 29.9803   2
   1  -4   0 913.305 30.8776   4
   1  -4   0 962.426 31.0314   3
   1  -4   0 941.572 30.7282   4
  -1   4   0 922.485 31.2310   3
  -1   4   0 928.717 31.0868   4
  -1   4   0 943.972 30.4373   4
   0  -4   0 630.270 21.0205   3
   0  -4   0 578.911 20.4333   4
   0  -4   0 620.977 20.0832   2
   0  -4   0 627.465 20.7400   4
   0   4   0 623.034 20.2320   4
   0   4   0 630.121 20.8909   4
   0   4   0 629.011 21.1961   3
  -1  -4   0 9.60202 1.69916   3
  -1  -4   0 10.7975 1.34773   4
  -1  -4   0 7.36060 1.17265   2
  -1  -4   0 5.79641 1.04264   4
   1   4   0 9.10629 1.37952   4
   1   4   0 8.66116 1.63252   3
   1   4   0 9.69894 1.17909   4
  -2  -4   0 112.385 5.19493   4
  -2  -4   0 134.306 5.86523   3
  -2  -4   0 122.615 4.84020   4
  -2  -4   0 122.457 5.23634   2
   2   4   0 118.277 5.59261   3
   2   4   0 123.698 5.18794   4
  -3  -4   0 45.6099 2.35612   4
  -3  -4   0 39.3646 2.77562   2
  -3  -4   0 41.2191 3.28142   3
  -3  -4   0 35.1943 2.71297   4
   3   4   0 36.3237 2.63671   4
   3   4   0 37.1162 2.31920   4
   3   4   0 37.7212 2.95286   3
   3   4   0 40.5791 4.36494   2
  -4  -4   0 677.516 23.2664   4
  -4  -4   0 707.313 22.7716   4
  -4  -4   0 741.140 24.1217   3
  -4  -4   0 688.059 23.4687   2
   4   4   0 709.656 23.3938   4
   4   4   0 697.113 23.0844   4
   4   4   0 710.807 23.6776   2
  -5  -4   0 30.6095 3.48393   2
  -5  -4   0 32.4839 2.51252   4
  -5  -4   0 33.2092 3.00992   4
  -5  -4   0 41.2612 4.00092   3
  -5  -4   0 33.6912 3.29759   3
   5   4   0 32.4594 3.13225   4
   5   4   0 34.6801 3.06809   4
  -6  -4   0 222.745 8.86167   4
  -6  -4   0 227.895 9.64938   3
  -6  -4   0 235.104 9.52422   4
  -6  -4   0 229.453 9.63288   2
   6   4   0 232.291 9.91690   2
   6   4   0 215.033 9.55953   4
   6   4   0 208.592 9.45353   4
  -7  -4   0 157.767 8.36946   3
  -7  -4   0 148.139 7.86831   2
  -7  -4   0 160.018 8.10330   4
   7   4   0 153.110 8.35042   4
   4  -5   0 52.5351 6.55007   4
   4  -5   0 63.5837 7.17578   4
  -4   5   0 67.1555 5.00566   2
  -4   5   0 69.9471 6.25270   4
  -4   5   0 71.4072 7.62585   3
  -4   5   0 69.0333 7.59248   4
   3  -5   0 386.101 15.5871   4
   3  -5   0 362.298 15.0614   3
   3  -5   0 398.897 13.7694   2
   3  -5   0 383.807 15.2370   4
  -3   5   0 390.091 16.0585   3
  -3   5   0 399.440 14.9758   4
  -3   5   0 399.739 16.1238   4
  -3   5   0 381.606 13.8688   2
   2  -5   0 8.91448 1.60111   2
   2  -5   0 6.07729 2.39389   3
   2  -5   0 3.57588 1.97348   4
   2  -5   0 6.61753 2.43071   4
  -2   5   0 7.18859 2.14403   4
  -2   5   0 7.98789 1.95651   4
  -2   5   0 3.31298 2.56969   3
   1  -5   0 454.124 17.0761   3
   1  -5   0 490.335 17.1390   4
   1  -5   0 484.626 16.9536   4
  -1   5   0 474.550 17.3665   4
  -1   5   0 453.522 17.4279   3
  -1   5   0 466.415 16.3890   4
   0  -5   0 3.41161 1.57597   3
   0  -5   0 2.05250 1.27850   4
   0  -5   0 1.21731 1.39462   4
   0  -5   0 0.03909 0.89987   2
   0   5   0 1.90931 1.61870   3
   0   5   0 4.90238 2.10476   4
   0   5   0 1.69381 1.09599   4
  -1  -5   0 174.667 7.05779   2
  -1  -5   0 173.681 7.04733   4
  -1  -5   0 170.826 7.28741   4
  -1  -5   0 173.696 6.88631   2
  -1  -5   0 193.887 7.91701   3
   1   5   0 152.704 7.19113   4
   1   5   0 166.219 8.64581   4
   1   5   0 179.831 7.93058   3
  -2  -5   0 361.296 13.5449   3
  -2  -5   0 347.288 12.5134   4
  -2  -5   0 357.557 13.0812   4
  -2  -5   0 351.379 12.8215   2
   2   5   0 361.992 12.9716   4
   2   5   0 387.110 13.7359   3
  -3  -5   0 608.470 20.8370   4
  -3  -5   0 587.724 20.0158   4
  -3  -5   0 610.571 20.7254   2
  -3  -5   0 626.502 21.4514   3
   3   5   0 642.562 20.6289   4
   3   5   0 586.361 21.0592   3
   3   5   0 615.503 20.0277   4
  -4  -5   0 342.547 12.6203   2
  -4  -5   0 331.099 11.7556   4
  -4  -5   0 334.551 12.4863   4
  -4  -5   0 331.531 13.1423   3
   4   5   0 338.684 12.3343   4
   4   5   0 326.293 11.9271   4
   4   5   0 349.838 12.8778   2
  -5  -5   0 84.5149 4.31690   4
  -5  -5   0 83.4189 5.14367   2
  -5  -5   0 80.3932 4.83892   4
   5   5   0 88.1459 5.00180   4
   5   5   0 90.9246 4.79053   4
  -6  -5   0 160.670 7.56466   4
  -6  -5   0 164.591 8.01756   3
  -6  -5   0 159.190 7.76236   2
  -6  -5   0 165.769 9.06341   3
  -6  -5   0 149.258 6.76374   4
   6   5   0 158.556 7.59637   4
   6   5   0 158.685 8.31833   2
   6   5   0 148.188 7.64445   4
  -7  -5   0 15.1295 3.21259   4
  -7  -5   0 13.2916 3.50548   3
  -7  -5   0 15.3651 3.16266   2
   3  -6   0 417.612 16.9980   4
  -3   6   0 417.896 16.1572   4
  -3   6   0 423.811 17.9409   4
  -3   6   0 389.547 17.3439   3
   2  -6   0 395.040 16.2782   4
   2  -6   0 423.947 14.7480   2
   2  -6   0 415.575 16.3953   4
  -2   6   0 405.482 16.9773   4
  -2   6   0 424.328 15.6982   4
  -2   6   0 436.308 17.5069   3
   1  -6   0 19.4958 2.90596   4
   1  -6   0 14.1111 2.41009   4
   1  -6   0 16.4796 2.21661   2
  -1   6   0 17.7316 3.54271   4
  -1   6   0 12.9717 3.17332   3
  -1   6   0 19.0997 2.87490   4
   0  -6   0 112.623 5.35920   2
   0  -6   0 103.049 5.83953   4
   0  -6   0 117.397 5.65212   2
   0  -6   0 107.254 6.00386   4
   0   6   0 114.737 5.41195   4
   0   6   0 108.859 6.36073   4
   0   6   0 120.590 6.89271   3
  -1  -6   0 2672.65 82.3699   4
  -1  -6   0 2725.38 82.7193   4
  -1  -6   0 2610.59 82.0892   2
  -1  -6   0 2753.32 81.9607   2
   1   6   0 2418.94 84.0841   3
   1   6   0 2665.51 82.7828   4
   1   6   0 2552.13 81.5753   4
  -2  -6   0 -0.2777 1.46776   4
  -2  -6   0 2.37820 2.08146   3
  -2  -6   0 2.58434 1.33482   4
  -2  -6   0 0.26146 1.36611   2
   2   6   0 4.02220 3.75525   3
   2   6   0 -0.1415 1.26322   4
   2   6   0 -0.8592 0.65476   4
  -3  -6   0 29.2243 3.78783   3
  -3  -6   0 36.5325 2.81098   4
  -3  -6   0 37.7119 3.47251   4
  -3  -6   0 35.5379 3.67422   2
   3   6   0 35.3089 4.11150   3
   3   6   0 37.8173 3.43836   4
   3   6   0 34.8387 2.56304   4
  -4  -6   0 123.906 5.54505   4
  -4  -6   0 120.107 6.27141   4
  -4  -6   0 115.230 6.28866   2
   4   6   0 124.600 5.55137   4
   4   6   0 118.977 6.01682   4
  -5  -6   0 107.941 5.95860   4
  -5  -6   0 113.897 6.33485   2
  -5  -6   0 104.255 7.16656   3
  -5  -6   0 106.311 5.19392   4
   5   6   0 97.6813 5.76376   4
   5   6   0 106.323 6.73591   2
   5   6   0 101.719 5.40568   4
  -6  -6   0 177.157 8.77858   2
  -6  -6   0 180.334 7.72734   4
  -6  -6   0 183.484 8.60896   4
   6   6   0 175.622 8.37203   4
  -7  -6   0 16.6136 3.57551   2
  -7  -6   0 11.8191 2.66866   4
  -7  -6   0 17.7821 3.72471   3
   2  -7   0 170.310 8.65665   2
   2  -7   0 192.177 10.3430   4
  -2   7   0 194.034 9.40722   4
  -2   7   0 171.229 10.8894   3
  -2   7   0 200.404 14.9554   4
   1  -7   0 828.427 29.4917   4
   1  -7   0 867.974 29.1336   4
  -1   7   0 818.078 29.9226   3
  -1   7   0 807.586 27.7096   4
  -1   7   0 773.972 29.2059   4
   0  -7   0 -0.5245 2.65900   3
   0  -7   0 -2.1061 2.25205   4
   0  -7   0 1.12087 1.83204   2
   0  -7   0 0.82785 1.73098   2
   0   7   0 -0.7061 1.38817   4
   0   7   0 5.68991 3.24335   3
   0   7   0 5.57540 3.00916   4
  -1  -7   0 5.06207 1.90645   2
  -1  -7   0 2.80398 1.70955   2
  -1  -7   0 2.03361 2.15966   4
  -1  -7   0 3.78681 2.23803   4
   1   7   0 1.85215 1.25063   4
   1   7   0 5.81613 2.89808   3
   1   7   0 4.92281 2.32160   4
  -2  -7   0 257.652 10.5285   4
  -2  -7   0 268.128 11.1303   4
  -2  -7   0 265.525 10.6532   2
   2   7   0 255.993 11.6552   3
   2   7   0 255.118 11.0279   4
   2   7   0 254.551 9.75116   4
  -3  -7   0 1117.47 36.3445   2
  -3  -7   0 1116.86 36.7334   4
  -3  -7   0 1038.53 35.7900   4
  -3  -7   0 1090.87 37.4127   3
   3   7   0 1095.38 37.2182   3
   3   7   0 1091.64 36.3599   4
   3   7   0 1145.99 36.0128   4
  -4  -7   0 313.551 12.4695   2
  -4  -7   0 316.480 12.6946   4
  -4  -7   0 278.975 11.5363   4
  -4  -7   0 314.586 13.7350   3
   4   7   0 320.129 11.6085   4
   4   7   0 310.238 12.3583   4
   4   7   0 307.036 13.0125   3
  -5  -7   0 78.4973 5.72120   2
  -5  -7   0 70.8168 5.49312   4
  -5  -7   0 63.7075 4.38347   4
   5   7   0 64.8117 4.61972   4
  -6  -7   0 559.972 20.2929   4
  -6  -7   0 546.375 20.5127   2
   0  -8   0 268.756 12.4595   4
   0  -8   0 271.216 11.1559   2
   0  -8   0 261.461 11.3854   2
   0   8   0 256.591 13.2626   3
  -1  -8   0 524.842 19.9802   4
  -1  -8   0 483.899 18.6499   2
  -1  -8   0 582.083 24.4797   4
  -1  -8   0 524.278 19.0342   2
   1   8   0 510.032 20.9630   3
   1   8   0 524.221 18.3768   4
  -2  -8   0 2.47970 2.63921   2
  -2  -8   0 1.26726 2.47658   4
  -2  -8   0 0.72977 2.37884   2
  -2  -8   0 -0.3093 2.22440   4
   2   8   0 0.93671 1.44505   4
   2   8   0 6.93035 3.31180   3
  -3  -8   0 33.7013 4.89540   4
  -3  -8   0 36.5839 4.04077   4
  -3  -8   0 45.7990 4.79439   2
   3   8   0 41.2838 3.57345   4
   3   8   0 48.0268 6.12267   3
  -4  -8   0 4.71548 2.55257   4
  -4  -8   0 12.2768 3.06549   2
   4   8   0 9.55462 3.51424   3
  -5  -8   0 750.557 26.7735   4
  -5  -8   0 753.426 26.7332   2
  -5  -8   1 168.247 9.43061   4
  -5  -8   1 155.383 8.86993   2
   4   8  -1 701.148 25.9563   3
  -4  -8   1 678.931 24.8194   2
  -4  -8   1 733.565 25.7718   4
   3   8  -1 63.1721 6.86896   3
  -3  -8   1 70.3284 5.72177   2
  -3  -8   1 61.8834 6.23412   4
   2   8  -1 1.60664 1.51083   4
   2   8  -1 -0.6779 3.50083   3
  -2  -8   1 4.52301 2.74219   2
  -2  -8   1 1.76538 2.42853   2
  -2  -8   1 -3.0484 3.09379   4
   1   8  -1 531.864 21.9133   3
  -1  -8   1 554.602 19.6463   2
  -1  -8   1 570.232 21.3453   4
  -1  -8   1 553.518 19.9112   2
   0   8  -1 -6.8352 4.43266   3
   0  -8   1 1.16238 2.47198   2
   0  -8   1 11.9222 4.02475   4
   0  -8   1 9.16876 3.07735   2
  -6  -7   1 255.202 11.8483   2
  -6  -7   1 282.921 12.1147   4
   5   7  -1 2.31949 2.01272   4
  -5  -7   1 -1.2596 2.21562   2
  -5  -7   1 0.29099 2.27508   4
  -5  -7   1 -1.4630 1.76381   4
   4   7  -1 18.8175 3.02309   4
   4   7  -1 24.2267 3.71844   3
  -4  -7   1 19.6879 3.08304   2
  -4  -7   1 19.3447 2.97369   4
  -4  -7   1 24.4713 3.67851   4
  -4  -7   1 17.4280 3.71154   3
   3   7  -1 435.410 15.0548   4
   3   7  -1 375.621 16.0632   3
   3   7  -1 412.563 15.7469   4
  -3  -7   1 411.850 16.4538   3
  -3  -7   1 394.455 15.0195   4
  -3  -7   1 422.405 16.0357   4
   2   7  -1 232.346 11.1987   3
   2   7  -1 247.387 10.8725   4
   2   7  -1 237.586 9.37312   4
  -2  -7   1 250.736 10.8485   4
  -2  -7   1 247.952 10.0325   2
  -2  -7   1 240.621 11.4014   3
  -2  -7   1 236.875 10.1419   4
   1   7  -1 232.945 11.0606   4
   1   7  -1 265.771 11.9943   3
   1   7  -1 248.945 9.61987   4
  -1  -7   1 232.846 10.7046   4
  -1  -7   1 228.044 10.3147   4
  -1  -7   1 245.443 9.75714   2
  -1  -7   1 243.632 9.93962   2
  -1  -7   1 235.188 11.3251   3
   0   7  -1 37.0736 5.62517   4
   0   7  -1 36.2889 4.94146   3
   0   7  -1 34.0662 3.63682   4
   0  -7   1 33.5100 4.69839   4
   0  -7   1 28.4820 3.61961   2
   0  -7   1 27.7690 4.20145   2
   0  -7   1 36.3783 4.86975   4
  -1   7  -1 272.106 13.6374   3
  -1   7  -1 307.815 11.9911   4
  -1   7  -1 271.617 13.5688   4
   1  -7   1 297.569 13.0912   4
   1  -7   1 280.842 12.9267   4
   1  -7   1 287.128 11.0474   2
   1  -7   1 310.019 11.6443   2
  -2   7  -1 67.9649 7.97472   4
  -2   7  -1 94.8977 13.8512   3
   2  -7   1 90.7868 7.94107   4
  -7  -6   1 58.5489 6.02874   3
  -7  -6   1 43.7353 5.48231   4
  -7  -6   1 42.6904 7.45534   2
   6   6  -1 152.374 8.06956   4
  -6  -6   1 162.514 8.22623   2
  -6  -6   1 148.812 7.25217   4
  -6  -6   1 165.194 8.27865   4
   5   6  -1 11.8623 3.22013   2
   5   6  -1 10.5604 2.60331   4
   5   6  -1 8.12530 1.85110   4
  -5  -6   1 9.12627 2.56382   2
  -5  -6   1 6.39956 1.65921   4
  -5  -6   1 17.4900 2.95748   4
  -5  -6   1 1.77784 2.75124   3
   4   6  -1 172.360 8.16384   4
   4   6  -1 184.719 8.56665   3
  -4  -6   1 188.639 8.23599   2
  -4  -6   1 180.957 8.42181   4
  -4  -6   1 172.646 7.43365   4
   3   6  -1 125.657 6.34288   4
   3   6  -1 122.697 5.48401   4
   3   6  -1 119.958 6.76973   3
  -3  -6   1 118.417 6.79176   3
  -3  -6   1 117.048 5.66570   4
  -3  -6   1 121.384 6.47544   4
   2   6  -1 8.67226 2.24484   4
   2   6  -1 2.65714 0.94346   4
   2   6  -1 4.43546 2.32009   3
  -2  -6   1 6.62728 1.88026   4
  -2  -6   1 6.22745 1.68861   4
  -2  -6   1 3.43537 1.54187   2
  -2  -6   1 3.33553 2.17992   3
   1   6  -1 219.655 8.72452   4
   1   6  -1 207.362 10.1547   3
   1   6  -1 231.727 9.93411   4
  -1  -6   1 216.081 10.0255   3
  -1  -6   1 229.845 9.45684   4
  -1  -6   1 233.582 9.80449   4
  -1  -6   1 236.596 9.08288   2
  -1  -6   1 241.780 8.97143   2
   0   6  -1 74.9550 5.54827   4
   0   6  -1 68.1983 4.09220   4
   0   6  -1 72.1248 5.85510   3
   0  -6   1 67.1361 4.14474   2
   0  -6   1 63.4303 3.89647   2
   0  -6   1 68.9915 4.98531   4
   0  -6   1 74.5897 5.02191   4
  -1   6  -1 319.249 12.2646   4
  -1   6  -1 321.772 13.6619   4
  -1   6  -1 306.448 13.8499   3
   1  -6   1 313.900 12.9997   4
   1  -6   1 343.597 13.3245   4
   1  -6   1 316.169 11.5449   2
  -2   6  -1 5.68412 3.39734   3
  -2   6  -1 1.67967 2.09841   4
  -2   6  -1 -3.5198 2.67094   4
   2  -6   1 0.39114 2.56512   4
   2  -6   1 -0.1020 2.86174   4
   2  -6   1 0.58568 1.55600   2
  -3   6  -1 403.443 17.6688   3
  -3   6  -1 386.082 17.6753   4
  -3   6  -1 409.433 15.9399   4
   3  -6   1 391.479 16.8013   4
   3  -6   1 407.331 14.3390   2
   3  -6   1 405.040 16.7383   4
  -7  -5   1 25.6280 3.98560   3
  -7  -5   1 25.3370 3.63891   2
  -7  -5   1 30.9366 3.99411   4
   6   5  -1 772.221 27.1906   4
   6   5  -1 788.860 27.1000   4
  -6  -5   1 838.162 27.2527   3
  -6  -5   1 805.761 27.1431   2
  -6  -5   1 780.417 27.9117   3
  -6  -5   1 786.225 27.0573   4
  -6  -5   1 759.885 26.1201   4
   5   5  -1 1105.63 37.3429   4
  -5  -5   1 1163.03 37.4484   2
  -5  -5   1 1126.31 36.5353   4
  -5  -5   1 1166.52 37.4255   4
   4   5  -1 241.178 9.50366   4
   4   5  -1 235.333 9.67907   2
  -4  -5   1 252.420 10.1167   3
  -4  -5   1 236.261 8.78390   4
  -4  -5   1 227.648 9.47492   4
  -4  -5   1 196.575 9.86681   2
   3   5  -1 12.8455 1.83283   4
   3   5  -1 16.5713 2.30251   4
   3   5  -1 15.4246 2.52548   3
  -3  -5   1 9.31775 2.31188   3
  -3  -5   1 11.3913 1.64818   4
  -3  -5   1 12.7681 2.06987   4
  -3  -5   1 9.14576 1.73379   2
   2   5  -1 1906.44 56.9119   4
   2   5  -1 1798.15 58.1324   3
   2   5  -1 1858.04 57.6875   4
  -2  -5   1 1788.93 58.0681   3
  -2  -5   1 1742.18 57.0908   4
  -2  -5   1 1804.89 57.2741   2
  -2  -5   1 1857.10 57.8568   4
   1   5  -1 278.889 11.5607   3
   1   5  -1 284.628 10.2582   4
  -1  -5   1 284.485 10.7081   4
  -1  -5   1 297.751 10.4232   2
  -1  -5   1 293.695 10.5224   2
  -1  -5   1 295.986 11.4798   3
  -1  -5   1 276.414 10.9838   4
   0   5  -1 72.9332 3.89126   4
   0   5  -1 73.2561 5.03195   3
   0  -5   1 77.9508 3.94749   2
   0  -5   1 72.8675 4.70582   3
   0  -5   1 75.8838 3.77436   2
   0  -5   1 73.5430 4.47677   4
   0  -5   1 73.6901 4.38551   4
  -1   5  -1 317.664 13.8175   3
  -1   5  -1 339.440 13.5829   4
  -1   5  -1 357.854 12.6028   4
   1  -5   1 338.060 11.8427   2
   1  -5   1 348.156 13.2079   4
  -2   5  -1 70.2602 5.66307   4
  -2   5  -1 82.2892 4.88421   4
  -2   5  -1 83.5518 6.24088   3
   2  -5   1 70.5751 5.19439   4
   2  -5   1 66.0716 4.28639   2
   2  -5   1 80.1216 5.42022   4
  -3   5  -1 883.147 32.0573   4
  -3   5  -1 904.760 32.3178   3
  -3   5  -1 945.789 31.0820   4
   3  -5   1 940.993 31.8021   4
   3  -5   1 891.069 31.3582   4
   3  -5   1 921.614 29.5091   2
  -4   5  -1 41.1042 6.15296   4
  -4   5  -1 37.9890 5.27879   4
  -4   5  -1 42.0139 6.09103   3
   4  -5   1 35.2400 3.78414   2
   4  -5   1 33.1405 4.67411   4
   4  -5   1 36.2995 5.09792   4
   7   4  -1 24.7307 4.84429   4
  -7  -4   1 34.8335 4.97392   3
  -7  -4   1 42.9535 4.85756   4
  -7  -4   1 39.7222 4.65187   2
   6   4  -1 45.5103 4.41879   4
   6   4  -1 41.2132 4.96576   2
  -6  -4   1 38.2136 3.19150   4
  -6  -4   1 45.9640 4.00427   4
  -6  -4   1 45.8072 4.09085   2
  -6  -4   1 44.2447 4.02083   3
   5   4  -1 285.791 11.1977   4
  -5  -4   1 263.306 10.2194   4
  -5  -4   1 279.466 10.8855   4
  -5  -4   1 282.329 10.8922   3
  -5  -4   1 285.129 10.9809   2
  -5  -4   1 293.766 11.5849   3
   4   4  -1 2098.64 65.9064   4
   4   4  -1 2109.68 65.9917   2
  -4  -4   1 2174.87 66.3221   3
  -4  -4   1 1981.53 65.0272   4
  -4  -4   1 2086.54 65.8136   4
  -4  -4   1 2114.50 65.7926   2
   3   4  -1 5.61945 1.15133   4
   3   4  -1 4.22196 1.65992   2
   3   4  -1 4.16028 1.32564   4
   3   4  -1 7.91797 1.67867   3
  -3  -4   1 5.79662 1.49330   4
  -3  -4   1 5.47158 1.01286   4
  -3  -4   1 4.14714 1.57389   3
  -3  -4   1 5.26438 1.27503   2
   2   4  -1 758.635 25.3549   3
   2   4  -1 792.780 25.0671   4
  -2  -4   1 731.359 24.4811   4
  -2  -4   1 772.730 25.1877   4
  -2  -4   1 749.841 24.7685   2
  -2  -4   1 775.335 25.4120   3
   1   4  -1 534.934 18.5061   3
   1   4  -1 547.784 18.1701   4
   1   4  -1 561.868 17.5274   4
  -1  -4   1 493.521 18.2001   3
  -1  -4   1 515.146 17.5893   2
  -1  -4   1 533.189 18.0999   4
  -1  -4   1 548.961 17.7806   4
   0   4  -1 2632.35 80.4189   4
   0   4  -1 2513.88 81.3322   3
   0   4  -1 2628.74 81.1666   4
   0  -4   1 2664.85 81.4571   3
   0  -4   1 2594.78 80.2833   2
   0  -4   1 2525.08 80.7309   4
   0  -4   1 2681.05 81.0339   4
   0  -4   1 2541.51 80.0837   2
  -1   4  -1 34.4600 3.35570   3
  -1   4  -1 31.7476 3.15406   4
  -1   4  -1 29.4908 2.47444   4
   1  -4   1 29.9069 2.86529   4
   1  -4   1 30.7005 3.01266   3
   1  -4   1 27.6161 2.02322   2
  -2   4  -1 366.299 14.3268   4
  -2   4  -1 366.884 14.3940   3
  -2   4  -1 392.469 13.6560   4
   2  -4   1 367.954 13.9285   3
   2  -4   1 376.624 12.5727   2
   2  -4   1 377.272 14.1031   4
   2  -4   1 349.895 13.7014   4
  -3   4  -1 309.172 12.3857   4
  -3   4  -1 326.752 13.4618   3
  -3   4  -1 317.389 13.3972   4
  -3   4  -1 303.885 11.3104   2
   3  -4   1 336.650 13.1938   4
   3  -4   1 339.279 11.3625   2
   3  -4   1 311.854 12.6984   4
  -4   4  -1 141.489 8.80171   4
  -4   4  -1 140.577 6.49723   2
  -4   4  -1 157.246 7.98189   4
  -4   4  -1 150.012 9.06781   3
   4  -4   1 149.955 6.39514   2
   4  -4   1 153.703 8.54068   4
   4  -4   1 141.052 8.07298   4
  -5   4  -1 724.923 23.6136   2
  -5   4  -1 716.474 25.4845   4
  -5   4  -1 653.545 26.2568   3
  -7  -3   1 182.273 8.90627   3
  -7  -3   1 164.937 8.60317   4
  -7  -3   1 179.055 8.87743   4
  -7  -3   1 169.751 8.38925   2
  -7  -3   1 177.912 11.4877   3
   6   3  -1 266.568 11.1047   2
   6   3  -1 261.729 11.0004   4
  -6  -3   1 264.835 10.8441   4
  -6  -3   1 258.617 10.6777   3
  -6  -3   1 260.974 10.3296   4
  -6  -3   1 280.401 10.7894   2
   5   3  -1 328.756 12.0776   4
   5   3  -1 319.261 12.0492   2
  -5  -3   1 316.176 11.7936   4
  -5  -3   1 292.225 11.2212   4
  -5  -3   1 331.180 12.1826   3
  -5  -3   1 293.931 11.6387   2
  -5  -3   1 309.449 11.6446   3
   4   3  -1 0.10980 0.99782   4
   4   3  -1 1.17636 1.06521   4
   4   3  -1 0.96160 1.19139   2
  -4  -3   1 -0.1167 1.24692   3
  -4  -3   1 0.50260 0.75521   4
  -4  -3   1 2.29875 1.03140   4
  -4  -3   1 2.27363 0.99788   2
   3   3  -1 250.148 9.59624   4
   3   3  -1 257.024 9.60021   2
   3   3  -1 275.524 9.36707   4
  -3  -3   1 281.674 9.89489   3
  -3  -3   1 246.285 9.52920   4
  -3  -3   1 256.561 9.04918   4
  -3  -3   1 264.677 9.53427   2
   2   3  -1 1909.57 57.6493   2
   2   3  -1 1865.38 57.8409   3
   2   3  -1 1851.55 57.6946   4
   2   3  -1 1855.61 57.2434   4
  -2  -3   1 1864.91 57.5466   2
  -2  -3   1 1817.69 57.7855   4
  -2  -3   1 1862.21 57.9480   3
  -2  -3   1 1777.97 57.1701   4
   1   3  -1 651.460 21.7008   4
   1   3  -1 707.475 22.0989   3
   1   3  -1 663.939 21.2594   4
  -1  -3   1 643.870 21.3725   2
  -1  -3   1 699.467 21.8339   4
  -1  -3   1 680.139 21.4209   4
  -1  -3   1 635.954 21.8709   3
   0   3  -1 26.3475 2.27135   3
   0   3  -1 27.5826 1.83547   4
   0   3  -1 28.7860 2.21605   4
   0  -3   1 29.9136 1.72464   2
   0  -3   1 30.6930 2.03793   4
   0  -3   1 29.7903 2.29334   3
   0  -3   1 30.4145 2.13925   4
  -1   3  -1 17.3581 2.23772   3
  -1   3  -1 17.8395 2.14972   4
  -1   3  -1 17.4073 1.69290   4
   1  -3   1 19.8217 2.15604   3
   1  -3   1 18.3014 1.34936   2
   1  -3   1 18.7704 1.96486   4
  -2   3  -1 2112.87 63.9706   4
  -2   3  -1 2082.85 64.5355   4
  -2   3  -1 2029.62 64.4736   3
  -2   3  -1 1966.91 62.9514   2
   2  -3   1 2020.26 64.2468   4
   2  -3   1 1948.32 62.8651   2
   2  -3   1 2114.91 64.2052   3
   2  -3   1 2030.41 64.0203   4
  -3   3  -1 831.457 26.2079   2
  -3   3  -1 784.060 27.8135   4
  -3   3  -1 857.105 27.4293   4
  -3   3  -1 791.861 27.8219   3
   3  -3   1 812.667 27.3541   3
   3  -3   1 832.432 27.7394   4
   3  -3   1 812.000 26.0736   2
  -4   3  -1 125.941 7.60794   4
  -4   3  -1 132.363 7.57180   3
  -4   3  -1 134.083 5.76301   2
  -4   3  -1 144.189 7.06736   4
   4  -3   1 138.434 7.02218   4
   4  -3   1 138.173 7.33386   4
   4  -3   1 113.073 6.74053   3
   4  -3   1 132.477 5.68580   2
  -5   3  -1 341.149 14.9134   3
  -5   3  -1 345.043 15.1766   4
  -5   3  -1 367.002 12.7151   2
  -5   3  -1 329.054 14.0074   4
   5  -3   1 322.198 14.0099   4
   5  -3   1 354.797 12.6720   2
   5  -3   1 357.938 14.6630   4
  -7  -2   1 108.726 6.34274   2
  -7  -2   1 111.148 6.92277   3
  -7  -2   1 96.1725 6.26866   4
  -7  -2   1 107.608 6.95761   4
   6   2  -1 -2.6552 1.67645   4
  -6  -2   1 1.11419 1.50017   4
  -6  -2   1 0.87212 1.71151   2
  -6  -2   1 2.78285 1.88881   3
  -6  -2   1 4.88774 2.04292   4
   5   2  -1 230.653 9.10993   2
   5   2  -1 214.500 8.91756   4
  -5  -2   1 213.863 8.85986   4
  -5  -2   1 217.640 8.66208   2
  -5  -2   1 228.133 8.87357   3
  -5  -2   1 215.389 8.65783   4
   4   2  -1 2351.86 69.5289   4
   4   2  -1 2203.44 69.5195   2
   4   2  -1 2257.04 69.5800   4
  -4  -2   1 2196.14 69.1508   3
  -4  -2   1 2260.72 69.0928   4
  -4  -2   1 2122.10 69.0988   2
  -4  -2   1 2156.77 69.2527   4
   3   2  -1 2412.50 73.9773   4
   3   2  -1 2324.18 74.0843   4
   3   2  -1 2399.72 74.0583   2
  -3  -2   1 2318.58 73.8974   2
  -3  -2   1 2434.85 74.0566   3
  -3  -2   1 2396.62 73.7059   4
  -3  -2   1 2432.88 73.9995   4
   2   2  -1 298.900 10.4365   4
   2   2  -1 314.026 10.6804   2
   2   2  -1 337.073 10.8842   4
   2   2  -1 308.516 10.6502   3
  -2  -2   1 326.557 10.8174   3
  -2  -2   1 306.792 10.6030   2
  -2  -2   1 306.810 10.7368   4
  -2  -2   1 321.639 10.3804   4
   1   2  -1 68.5643 3.21856   3
   1   2  -1 78.5644 3.08473   2
   1   2  -1 77.3111 3.23721   4
  -1  -2   1 75.9661 3.03761   2
  -1  -2   1 74.5455 2.92914   4
  -1  -2   1 72.1499 3.23447   4
  -1  -2   1 77.2842 3.32751   3
   0   2  -1 981.360 30.7757   3
   0   2  -1 982.438 30.6606   4
   0   2  -1 983.297 30.3338   4
   0  -2   1 955.300 30.5700   4
   0  -2   1 957.090 30.4140   4
   0  -2   1 969.604 30.6783   3
  -1   2  -1 84.1628 3.90843   4
  -1   2  -1 87.3728 3.65793   4
  -1   2  -1 77.1529 3.85517   3
  -1   2  -1 86.5171 3.16499   2
   1  -2   1 81.1016 3.09270   2
   1  -2   1 83.8588 3.82977   3
   1  -2   1 80.4452 3.78572   4
  -2   2  -1 10.8239 1.73525   4
  -2   2  -1 10.0492 1.64674   3
  -2   2  -1 9.83752 1.06704   2
   2  -2   1 14.1574 1.70612   3
   2  -2   1 8.48783 1.30561   4
   2  -2   1 10.7657 1.69827   4
   2  -2   1 10.9138 1.04265   2
  -3   2  -1 6.72252 1.08505   2
  -3   2  -1 11.1269 2.03703   3
  -3   2  -1 5.92505 1.25817   4
  -3   2  -1 8.29434 1.97620   4
   3  -2   1 9.83716 1.26094   2
   3  -2   1 5.06600 1.33956   4
   3  -2   1 10.5917 1.80731   3
   3  -2   1 4.07178 1.16026   4
  -4   2  -1 223.457 8.57341   2
  -4   2  -1 246.810 9.71129   4
  -4   2  -1 230.860 10.1600   4
   4  -2   1 228.482 9.90903   4
   4  -2   1 237.549 9.58440   3
   4  -2   1 233.557 9.55261   4
   4  -2   1 237.871 8.60056   2
  -5   2  -1 52.6282 5.27547   3
  -5   2  -1 49.5975 3.59382   2
  -5   2  -1 47.2890 5.15927   4
  -5   2  -1 42.1166 5.87275   4
   5  -2   1 44.7999 3.58663   2
   5  -2   1 39.7668 4.24259   4
   5  -2   1 52.8282 4.82368   4
   5  -2   1 51.0191 4.50791   3
  -6   2  -1 116.541 6.27331   2
  -6   2  -1 118.625 8.01734   4
  -6   2  -1 115.804 8.58676   3
   6  -2   1 127.557 12.0981   4
   7   1  -1 1093.94 39.8513   4
  -7  -1   1 1200.11 39.3903   3
  -7  -1   1 1186.71 38.5308   2
  -7  -1   1 1195.96 39.5188   4
   6   1  -1 293.206 12.4199   4
   6   1  -1 295.428 11.8635   4
  -6  -1   1 282.956 11.8043   4
  -6  -1   1 285.197 11.3877   2
  -6  -1   1 308.205 11.9892   3
  -6  -1   1 319.395 12.2557   4
   5   1  -1 1050.64 33.2434   2
   5   1  -1 969.772 33.6555   4
   5   1  -1 1004.82 33.1841   4
  -5  -1   1 1010.40 32.9014   2
  -5  -1   1 1041.03 33.4417   4
  -5  -1   1 1012.95 33.2649   4
  -5  -1   1 1032.75 33.1853   3
   4   1  -1 316.374 11.8320   4
   4   1  -1 304.835 12.0197   2
   4   1  -1 326.502 11.5045   4
  -4  -1   1 313.445 11.3282   3
  -4  -1   1 331.195 11.5915   4
  -4  -1   1 318.948 11.2565   2
  -4  -1   1 318.299 11.4614   4
   3   1  -1 6.81261 1.21786   4
   3   1  -1 9.69238 1.39845   4
   3   1  -1 8.90059 1.26910   2
  -3  -1   1 11.4019 1.33941   4
  -3  -1   1 12.9497 1.36259   3
  -3  -1   1 10.0045 1.28183   2
   2   1  -1 4734.00 152.105   1
  -2  -1   1 4782.02 152.328   1
   1   1  -1 149.313 5.14925   3
   1   1  -1 155.041 5.32228   4
   1   1  -1 149.240 5.14391   2
   1   1  -1 146.767 5.05871   4
  -1  -1   1 153.466 5.13647   2
  -1  -1   1 153.759 5.30321   4
  -1  -1   1 141.148 5.14323   3
  -1  -1   1 153.042 5.03729   4
   0   1  -1 2950.37 93.5013   1
   0  -1   1 2921.83 93.4889   1
  -1   1  -1 4.36005 0.78236   4
  -1   1  -1 4.28229 0.47429   2
  -1   1  -1 2.55443 0.56996   4
  -1   1  -1 2.97947 0.67895   3
   1  -1   1 4.29972 0.71865   3
   1  -1   1 2.91069 0.71719   4
   1  -1   1 2.11386 0.49723   4
   1  -1   1 3.23199 0.40441   2
  -2   1  -1 6781.00 207.485   4
  -3   1  -1 1.98650 1.09398   3
  -3   1  -1 1.74244 0.96288   4
  -3   1  -1 1.41103 0.68115   2
  -3   1  -1 1.73034 0.86512   4
   3  -1   1 3.40091 1.14670   3
   3  -1   1 1.39304 0.63036   2
   3  -1   1 0.93350 0.69811   4
   3  -1   1 1.62733 1.15477   4
  -4   1  -1 31.4834 2.90655   4
  -4   1  -1 39.5168 3.37995   4
  -4   1  -1 32.0187 3.18525   3
  -4   1  -1 33.8656 2.42485   2
   4  -1   1 33.6188 3.42841   4
   4  -1   1 37.3973 3.10044   3
   4  -1   1 30.1825 2.36285   2
   4  -1   1 33.7807 2.86323   4
  -5   1  -1 55.6210 3.52804   2
  -5   1  -1 50.0024 4.49314   4
  -5   1  -1 55.3092 4.74704   3
  -5   1  -1 51.1348 4.09847   4
   5  -1   1 49.9237 4.24370   3
   5  -1   1 54.9096 3.57610   2
   5  -1   1 46.8587 4.33428   4
   5  -1   1 49.2579 3.95362   4
  -6   1  -1 290.333 12.2366   4
  -6   1  -1 263.096 12.3494   4
  -6   1  -1 290.493 10.9129   2
  -6   1  -1 285.211 12.7417   3
   6  -1   1 269.106 11.7132   4
   6  -1   1 297.648 12.6399   4
  -7   0   1 127.323 8.37191   3
  -7   0   1 128.911 8.74726   4
  -7   0   1 131.791 7.25879   2
   6   0  -1 -1.7552 2.50044   4
   6   0  -1 -4.1955 1.84454   3
   6   0  -1 -0.0403 1.98329   4
  -6   0   1 -0.0483 1.80444   2
  -6   0   1 1.00060 1.79345   4
  -6   0   1 3.33101 2.00660   4
  -6   0   1 -3.1240 2.22186   3
   5   0  -1 662.837 23.2625   4
   5   0  -1 691.164 24.0111   4
   5   0  -1 732.337 23.2701   2
   5   0  -1 680.156 23.1525   3
  -5   0   1 689.654 22.9441   2
  -5   0   1 681.235 23.6598   4
  -5   0   1 710.192 23.5491   3
  -5   0   1 666.997 23.5264   4
   4   0  -1 380.474 13.0883   4
   4   0  -1 353.869 13.3439   2
   4   0  -1 363.587 13.4678   4
   4   0  -1 385.187 12.9391   3
  -4   0   1 368.418 12.7021   2
  -4   0   1 366.138 13.2661   4
  -4   0   1 361.838 12.9738   3
  -4   0   1 351.913 13.0850   4
   3   0  -1 254.763 9.29077   3
   3   0  -1 263.639 9.34323   2
   3   0  -1 258.728 9.83208   4
   3   0  -1 274.658 9.53878   4
  -3   0   1 265.074 9.58535   4
  -3   0   1 272.805 9.31266   2
  -3   0   1 275.834 9.45570   3
  -3   0   1 269.124 9.70737   4
   2   0  -1 46.8328 2.20279   2
   2   0  -1 47.2858 2.29290   4
   2   0  -1 44.9356 2.14643   3
   2   0  -1 45.3705 2.49213   4
  -2   0   1 50.5409 2.37102   4
  -2   0   1 45.6722 2.16005   2
  -2   0   1 43.7647 2.33057   4
  -2   0   1 49.3675 2.22632   3
   1   0  -1 4124.41 129.369   1
  -1   0   1 4088.91 129.092   1
  -1   0  -1 81.0979 3.00611   4
  -1   0  -1 81.6818 2.90749   4
  -1   0  -1 84.8525 3.03882   3
   1   0   1 78.0849 2.98786   3
   1   0   1 77.4459 2.72137   2
   1   0   1 81.0806 2.89384   4
  -2   0  -1 1054.31 32.4475   4
  -2   0  -1 1071.58 32.5958   3
  -2   0  -1 1034.06 32.6299   4
  -2   0  -1 981.053 32.0810   2
   2   0   1 1028.58 32.5167   3
   2   0   1 1050.40 32.3906   4
   2   0   1 1040.23 32.1568   2
  -3   0  -1 259.710 9.60044   4
  -3   0  -1 256.801 8.92726   2
  -3   0  -1 261.029 9.51002   3
  -3   0  -1 264.257 9.38943   4
   3   0   1 272.742 9.48367   3
   3   0   1 270.004 9.04699   2
   3   0   1 255.110 9.23355   4
  -4   0  -1 1328.16 43.3118   4
  -4   0  -1 1314.21 42.4107   2
  -4   0  -1 1384.77 43.3152   3
  -4   0  -1 1362.00 43.0956   4
   4   0   1 1354.89 43.0945   3
   4   0   1 1386.61 42.6009   2
   4   0   1 1309.98 43.1624   4
   4   0   1 1381.93 43.3966   4
  -5   0  -1 248.383 10.4934   4
  -5   0  -1 268.547 10.3954   4
  -5   0  -1 256.444 9.58551   2
   5   0   1 262.624 10.0878   4
   5   0   1 255.145 10.2555   3
   5   0   1 261.776 9.78795   2
   5   0   1 249.845 10.5773   4
  -6   0  -1 1096.83 36.2933   2
  -6   0  -1 1086.49 37.2847   4
  -6   0  -1 1184.63 37.7165   3
  -6   0  -1 1116.71 37.1560   4
   6   0   1 1080.02 36.9454   3
   6   0   1 1128.24 36.7677   4
   6   0   1 1143.37 37.8059   4
   6   0   1 1095.92 36.3191   2
  -7   0  -1 81.6658 6.94970   4
  -7   0  -1 94.2528 7.61514   3
  -7   0  -1 83.4625 5.89009   2
   7   0   1 95.0619 6.51250   2
  -7   1   1 435.222 18.0406   3
  -7   1   1 435.163 17.9529   4
  -7   1   1 437.189 16.5205   2
   6  -1  -1 37.8314 5.24954   4
   6  -1  -1 34.5165 4.67597   3
   6  -1  -1 29.4464 4.48377   4
   6  -1  -1 36.8677 4.51064   2
  -6   1   1 39.0572 4.02391   2
  -6   1   1 28.1191 4.14214   3
  -6   1   1 34.8784 4.94829   4
  -6   1   1 31.9443 4.54150   4
   5  -1  -1 1193.55 38.1400   4
   5  -1  -1 1205.23 37.6325   2
   5  -1  -1 1160.00 38.7661   4
   5  -1  -1 1180.12 37.9045   3
  -5   1   1 1179.81 37.5051   2
  -5   1   1 1101.77 38.3750   4
  -5   1   1 1126.92 38.2305   4
   4  -1  -1 163.795 6.89217   4
   4  -1  -1 157.856 7.29901   4
   4  -1  -1 159.903 6.70735   3
   4  -1  -1 154.641 6.44347   2
  -4   1   1 156.250 6.92328   3
  -4   1   1 146.863 7.04658   4
  -4   1   1 157.850 6.41877   2
  -4   1   1 163.275 7.02932   4
   3  -1  -1 710.108 22.2355   2
   3  -1  -1 698.973 22.4250   3
   3  -1  -1 682.732 23.0038   4
   3  -1  -1 683.383 22.5676   4
  -3   1   1 652.428 22.5989   4
  -3   1   1 691.152 22.9253   4
  -3   1   1 691.399 22.1982   2
  -3   1   1 697.599 22.6432   3
   2  -1  -1 455.304 14.8670   4
   2  -1  -1 452.531 14.5636   4
   2  -1  -1 426.184 14.3315   3
   2  -1  -1 429.070 14.1962   2
  -2   1   1 440.280 14.2472   2
  -2   1   1 419.450 14.4480   3
  -2   1   1 433.885 14.5591   4
  -2   1   1 452.263 14.8123   4
   1  -1  -1 23.1973 1.47387   4
   1  -1  -1 22.8875 1.22351   2
   1  -1  -1 22.2965 1.32175   4
   1  -1  -1 22.3717 1.30960   3
  -1   1   1 19.1462 1.50944   4
  -1   1   1 21.2408 1.20862   2
  -1   1   1 22.4259 1.43725   4
   0  -1  -1 514.198 15.0434   3
   0  -1  -1 490.136 14.9455   4
   0  -1  -1 493.744 14.9434   2
   0   1   1 481.709 14.9434   2
   0   1   1 408.626 14.9866   4
   0   1   1 459.577 15.0024   3
   0   1   1 504.015 14.9423   4
  -1  -1  -1 10.2416 0.53134   4
  -1  -1  -1 8.56949 0.71543   2
  -1  -1  -1 8.40393 0.53443   4
   1   1   1 8.75334 0.52397   4
   1   1   1 11.3446 0.57421   4
   1   1   1 8.81244 0.72271   2
  -2  -1  -1 95.9634 3.91604   3
  -2  -1  -1 102.574 3.83515   2
  -2  -1  -1 97.0348 3.71497   4
  -2  -1  -1 100.426 3.82144   4
   2   1   1 99.9580 3.84702   2
   2   1   1 102.250 3.85587   4
   2   1   1 113.755 3.77601   4
  -3  -1  -1 0.83443 0.54895   4
  -3  -1  -1 0.38875 0.72379   3
  -3  -1  -1 0.36911 0.65379   4
  -3  -1  -1 0.61955 0.51044   2
   3   1   1 0.75015 0.67846   2
   3   1   1 1.49339 0.71361   4
   3   1   1 2.50662 0.83106   3
   3   1   1 1.44873 0.67385   4
  -4  -1  -1 8.04450 1.31545   2
  -4  -1  -1 5.50193 1.10094   4
  -4  -1  -1 7.13526 1.35508   4
  -4  -1  -1 5.47330 1.40064   3
   4   1   1 10.0233 1.47533   2
   4   1   1 11.1012 2.44615   4
   4   1   1 9.20187 1.45019   4
  -5  -1  -1 250.308 9.85336   4
  -5  -1  -1 270.245 10.2209   3
  -5  -1  -1 245.608 9.41420   2
  -5  -1  -1 240.097 9.89856   4
   5   1   1 255.578 9.66465   2
   5   1   1 254.387 9.64305   4
  -6  -1  -1 323.222 12.6691   4
  -6  -1  -1 308.228 12.0159   2
  -6  -1  -1 325.395 12.6543   4
  -6  -1  -1 339.091 13.0272   3
   6   1   1 318.909 12.2879   2
   6   1   1 311.052 12.2447   4
  -7  -1  -1 158.584 7.68242   2
  -7  -1  -1 157.971 8.70672   3
  -7  -1  -1 159.389 8.60944   4
   7   1   1 141.961 8.14937   2
   6  -2  -1 289.078 13.4055   4
   6  -2  -1 267.359 11.7641   2
   6  -2  -1 266.340 12.4486   4
  -6   2   1 289.044 11.5946   2
  -6   2   1 285.606 13.2046   4
  -6   2   1 303.355 13.0368   4
  -6   2   1 294.812 13.2127   3
   5  -2  -1 207.832 8.97388   3
   5  -2  -1 218.296 8.52498   2
   5  -2  -1 192.830 8.94054   4
   5  -2  -1 199.427 9.69902   4
  -5   2   1 204.918 9.30651   4
  -5   2   1 162.005 9.44535   2
  -5   2   1 211.596 9.82949   4
  -5   2   1 206.275 9.45524   3
   4  -2  -1 16.9455 2.17079   2
   4  -2  -1 17.9827 2.75737   4
   4  -2  -1 16.5598 2.38085   3
  -4   2   1 18.5002 2.27644   2
  -4   2   1 18.5407 2.60184   4
  -4   2   1 22.9514 3.03720   3
   3  -2  -1 2303.05 72.4571   3
   3  -2  -1 2369.43 73.1996   4
   3  -2  -1 2331.69 72.6864   4
   3  -2  -1 2296.52 72.0048   2
  -3   2   1 2263.14 72.0413   2
  -3   2   1 2359.31 72.7776   4
  -3   2   1 2324.44 73.1187   4
  -3   2   1 2359.46 72.8590   3
   2  -2  -1 0.99171 0.95206   4
   2  -2  -1 0.29741 0.59046   4
   2  -2  -1 2.32258 0.70110   2
   2  -2  -1 2.42675 0.89602   3
  -2   2   1 0.80189 0.88396   3
  -2   2   1 0.89390 0.72605   4
  -2   2   1 0.46144 0.53751   2
  -2   2   1 -0.0713 0.57081   4
   1  -2  -1 546.215 18.1546   4
   1  -2  -1 542.359 18.3615   4
   1  -2  -1 558.542 18.2292   3
   1  -2  -1 613.830 17.9459   2
  -1   2   1 565.287 17.9193   2
  -1   2   1 566.826 18.1672   4
  -1   2   1 571.993 18.4237   4
  -1   2   1 529.344 18.2564   3
   0  -2  -1 191.881 6.53142   4
   0  -2  -1 182.729 6.35286   4
   0  -2  -1 186.814 6.34284   2
   0  -2  -1 184.006 6.63495   3
   0   2   1 182.976 6.64405   3
   0   2   1 181.671 6.48274   4
   0   2   1 195.980 6.40261   2
  -1  -2  -1 2893.84 88.9056   3
  -2  -2  -1 15.5816 0.97180   4
  -2  -2  -1 16.9319 1.39710   3
  -2  -2  -1 14.7448 1.28673   2
  -2  -2  -1 14.5473 1.06667   4
   2   2   1 17.4726 1.06217   4
   2   2   1 14.8743 1.09221   4
   2   2   1 14.4737 1.23594   2
  -3  -2  -1 1010.30 31.9956   3
  -3  -2  -1 989.604 31.6567   4
  -3  -2  -1 966.651 31.5862   4
  -3  -2  -1 1026.67 31.9335   2
   3   2   1 1064.52 32.0376   2
   3   2   1 985.618 31.7457   4
   3   2   1 1010.48 31.7222   4
  -4  -2  -1 275.421 9.64956   4
  -4  -2  -1 264.872 9.65756   2
  -4  -2  -1 270.936 9.93162   3
  -4  -2  -1 256.681 9.53121   4
   4   2   1 264.729 9.77965   4
   4   2   1 268.512 9.82280   2
  -5  -2  -1 137.196 6.43221   3
  -5  -2  -1 138.325 6.26033   4
  -5  -2  -1 143.159 6.27538   4
  -5  -2  -1 148.734 6.28883   2
   5   2   1 151.898 6.30375   4
   5   2   1 137.432 6.45077   4
   5   2   1 148.960 6.51420   2
  -6  -2  -1 1847.24 59.9770   4
  -6  -2  -1 1862.41 59.7374   2
  -6  -2  -1 1906.79 60.4690   3
  -6  -2  -1 1972.30 60.3026   4
   6   2   1 1888.56 60.3681   4
   6   2   1 1871.74 59.9144   4
  -7  -2  -1 40.9978 4.74761   4
  -7  -2  -1 40.5687 4.59810   4
  -7  -2  -1 39.3458 4.43099   2
  -7  -2  -1 38.0994 5.30261   3
   7   2   1 47.6028 5.16022   4
   7   2   1 36.6411 5.05995   2
  -6   3   1 165.650 8.35001   2
  -6   3   1 163.545 10.3894   3
  -6   3   1 152.271 9.81753   4
   5  -3  -1 453.204 17.8255   4
   5  -3  -1 429.122 16.7083   3
   5  -3  -1 429.483 17.0246   4
  -5   3   1 435.881 17.7308   4
  -5   3   1 464.685 17.2809   4
  -5   3   1 471.549 17.7883   3
  -5   3   1 442.376 16.0378   2
   4  -3  -1 2.03147 1.94704   4
   4  -3  -1 1.04422 2.14143   4
   4  -3  -1 0.35837 1.75708   3
  -4   3   1 1.36148 1.35426   2
  -4   3   1 -1.1952 1.75204   3
  -4   3   1 0.47666 2.22511   4
   3  -3  -1 199.988 8.31979   4
   3  -3  -1 181.814 8.47201   4
   3  -3  -1 208.795 8.26176   3
  -3   3   1 183.539 8.06140   4
  -3   3   1 198.996 7.57591   2
  -3   3   1 197.393 8.72018   4
  -3   3   1 193.109 8.51973   3
   2  -3  -1 5.83895 1.20789   4
   2  -3  -1 6.77590 1.63862   4
   2  -3  -1 9.16203 1.34540   2
   2  -3  -1 4.53064 1.39167   3
  -2   3   1 6.03496 1.40211   4
  -2   3   1 4.98375 1.13396   2
  -2   3   1 7.98140 1.67547   3
  -2   3   1 4.57919 1.29051   4
   1  -3  -1 1778.66 54.0156   4
   1  -3  -1 1689.30 53.8406   3
   1  -3  -1 1751.95 53.7241   4
   1  -3  -1 1655.81 53.2045   2
  -1   3   1 1743.53 54.0083   4
  -1   3   1 1783.82 53.6611   4
  -1   3   1 1627.80 53.9130   3
  -1   3   1 1705.03 53.2954   2
   0  -3  -1 -0.5392 0.57334   4
   0  -3  -1 0.65801 0.71414   3
   0  -3  -1 0.68621 0.47187   4
   0  -3  -1 0.30074 0.45238   2
   0   3   1 0.38276 0.40685   4
   0   3   1 0.13899 0.66309   4
   0   3   1 0.41560 0.69627   3
  -1  -3  -1 99.8351 3.99363   4
  -1  -3  -1 98.6426 3.79566   4
  -1  -3  -1 99.9376 4.15250   2
  -1  -3  -1 104.165 4.50534   3
   1   3   1 103.363 3.69079   4
   1   3   1 98.3592 4.41865   3
   1   3   1 95.9135 3.96192   4
  -2  -3  -1 439.818 14.7801   3
  -2  -3  -1 433.083 14.4439   2
  -2  -3  -1 430.145 14.2306   4
  -2  -3  -1 428.238 13.8266   4
   2   3   1 445.952 14.0982   4
   2   3   1 426.962 13.8225   4
   2   3   1 443.512 14.5305   2
   2   3   1 414.183 14.5602   3
  -3  -3  -1 2189.41 67.6822   4
  -3  -3  -1 2145.19 68.3094   2
  -3  -3  -1 2231.52 68.0466   4
  -3  -3  -1 2333.70 68.8022   3
   3   3   1 2220.70 67.8760   4
   3   3   1 2100.32 67.9575   4
   3   3   1 2174.16 68.3937   2
  -4  -3  -1 710.726 23.5174   4
  -4  -3  -1 738.646 23.3429   4
  -4  -3  -1 736.328 23.9604   3
  -4  -3  -1 735.727 23.8744   2
  -4  -3  -1 735.691 24.4260   3
   4   3   1 730.954 23.6155   4
   4   3   1 692.168 24.6018   2
   4   3   1 719.197 23.6193   4
  -5  -3  -1 288.523 10.7349   4
  -5  -3  -1 300.058 10.9952   4
  -5  -3  -1 297.445 11.1475   2
  -5  -3  -1 288.199 11.2783   3
   5   3   1 302.621 11.1669   4
   5   3   1 302.054 11.0888   4
   5   3   1 307.815 11.4502   2
  -6  -3  -1 154.128 6.95655   4
  -6  -3  -1 152.062 6.90326   2
  -6  -3  -1 144.118 7.17450   3
  -6  -3  -1 145.604 6.60688   4
   6   3   1 136.798 6.88467   4
   6   3   1 134.900 6.66035   4
  -7  -3  -1 6.87605 2.59092   4
  -7  -3  -1 4.86271 2.10511   4
  -7  -3  -1 5.06574 2.31660   2
  -7  -3  -1 8.21320 3.20260   3
   7   3   1 6.49791 2.63579   4
   5  -4  -1 60.8358 7.11436   4
   5  -4  -1 59.0978 6.47908   4
   5  -4  -1 52.3272 4.84889   2
  -5   4   1 43.7315 7.51238   4
  -5   4   1 62.3553 7.26835   3
  -5   4   1 55.7033 5.05421   2
  -5   4   1 71.5572 8.05125   4
   4  -4  -1 163.647 8.45347   3
   4  -4  -1 194.812 8.99030   4
   4  -4  -1 173.355 9.15549   4
   4  -4  -1 176.240 7.50720   2
  -4   4   1 176.407 9.19310   3
  -4   4   1 156.221 8.89926   2
  -4   4   1 170.114 8.42569   4
  -4   4   1 177.270 9.42138   4
   3  -4  -1 938.717 32.1569   3
   3  -4  -1 988.819 32.8470   4
   3  -4  -1 1028.48 32.4948   4
   3  -4  -1 981.913 31.2381   2
  -3   4   1 949.554 32.7326   3
  -3   4   1 969.336 32.9393   4
  -3   4   1 985.896 32.2581   4
  -3   4   1 907.602 31.2417   2
   2  -4  -1 317.801 11.8292   3
   2  -4  -1 316.328 12.1048   4
   2  -4  -1 302.702 11.6795   4
   2  -4  -1 307.334 10.9928   2
  -2   4   1 304.661 12.1517   3
  -2   4   1 311.817 11.0613   2
  -2   4   1 297.285 12.0560   4
  -2   4   1 312.209 11.5852   4
   1  -4  -1 1.05825 0.96268   4
   1  -4  -1 2.32431 0.89650   2
   1  -4  -1 2.78806 1.37907   4
  -1   4   1 1.36135 0.93817   2
  -1   4   1 5.19254 1.59214   3
  -1   4   1 3.38658 1.07516   4
  -1   4   1 1.95947 1.34377   4
   0  -4  -1 134.269 5.43053   4
   0  -4  -1 135.154 5.62641   4
   0  -4  -1 131.405 5.18735   2
   0  -4  -1 122.684 5.75068   3
   0   4   1 128.290 5.63831   4
   0   4   1 128.604 5.21434   4
   0   4   1 115.346 5.73350   3
  -1  -4  -1 272.371 9.99664   4
  -1  -4  -1 277.856 9.79976   4
  -1  -4  -1 307.863 10.7388   3
  -1  -4  -1 273.897 10.0810   2
  -1  -4  -1 273.934 9.90246   2
   1   4   1 288.396 10.6477   3
   1   4   1 288.537 10.1043   4
  -2  -4  -1 96.2420 4.84015   3
  -2  -4  -1 94.3785 3.92603   4
  -2  -4  -1 97.3077 4.43739   2
  -2  -4  -1 100.187 4.38013   4
   2   4   1 95.6270 3.79276   4
   2   4   1 102.146 4.24629   4
   2   4   1 99.0656 4.80702   3
  -3  -4  -1 71.6841 3.66434   4
  -3  -4  -1 70.1636 3.15086   4
  -3  -4  -1 76.7773 4.28287   3
  -3  -4  -1 75.2282 3.90447   2
   3   4   1 72.7421 3.98522   2
   3   4   1 68.8618 3.18387   4
   3   4   1 75.3099 3.53251   4
  -4  -4  -1 449.153 15.0896   4
  -4  -4  -1 443.916 16.3701   3
  -4  -4  -1 463.923 15.5754   4
  -4  -4  -1 454.782 15.9414   2
   4   4   1 465.524 15.5552   4
   4   4   1 467.204 16.1177   2
   4   4   1 450.933 15.3786   4
  -5  -4  -1 637.876 22.9111   3
  -5  -4  -1 693.818 23.5120   3
  -5  -4  -1 674.005 23.7261   2
  -5  -4  -1 651.166 22.5104   4
  -5  -4  -1 671.724 22.0250   4
   5   4   1 678.600 22.4835   4
   5   4   1 700.351 23.1460   2
  -6  -4  -1 629.490 22.5754   3
  -6  -4  -1 670.991 23.4739   3
  -6  -4  -1 650.758 22.1456   4
  -6  -4  -1 632.801 22.3224   2
  -6  -4  -1 632.808 21.6330   4
   6   4   1 669.179 22.9500   2
   6   4   1 642.007 22.2284   4
  -7  -4  -1 -1.5668 2.18430   2
  -7  -4  -1 1.72664 1.63253   4
  -7  -4  -1 3.59330 2.21691   4
  -7  -4  -1 2.43171 2.67402   3
   7   4   1 -1.8200 2.22057   4
   4  -5  -1 223.175 11.2738   4
   4  -5  -1 199.088 10.5470   4
   4  -5  -1 219.738 10.2193   2
  -4   5   1 187.821 11.2157   3
  -4   5   1 227.503 10.5341   4
  -4   5   1 219.334 9.30774   2
  -4   5   1 210.166 11.4687   4
   3  -5  -1 180.079 9.10955   4
   3  -5  -1 178.094 7.45867   2
   3  -5  -1 174.996 8.67052   4
   3  -5  -1 165.385 8.61531   3
  -3   5   1 171.785 8.19394   4
  -3   5   1 164.366 7.87971   2
  -3   5   1 164.814 9.26401   3
  -3   5   1 171.308 9.26589   4
   2  -5  -1 333.062 13.2316   3
   2  -5  -1 325.880 13.0216   4
   2  -5  -1 348.854 13.4885   4
   2  -5  -1 327.772 12.0197   2
  -2   5   1 355.929 13.7493   4
  -2   5   1 327.258 12.6261   4
  -2   5   1 343.222 12.2679   2
  -2   5   1 328.223 13.6127   3
   1  -5  -1 1288.18 41.1005   3
   1  -5  -1 1221.09 39.8614   2
   1  -5  -1 1296.96 41.0381   4
   1  -5  -1 1221.14 40.6095   4
  -1   5   1 1195.25 41.2026   3
  -1   5   1 1275.31 41.1382   4
  -1   5   1 1302.42 40.3336   4
   0  -5  -1 78.0085 4.41156   4
   0  -5  -1 77.6449 4.22935   4
   0  -5  -1 71.3978 4.61530   2
   0  -5  -1 81.3424 4.83991   3
   0   5   1 77.6022 4.97284   3
   0   5   1 87.2077 4.11225   4
   0   5   1 80.8923 4.63956   4
  -1  -5  -1 113.317 5.31997   4
  -1  -5  -1 107.560 5.40316   2
  -1  -5  -1 113.662 5.09641   4
  -1  -5  -1 116.293 5.92221   3
  -1  -5  -1 120.617 5.39545   2
   1   5   1 115.773 5.91339   3
   1   5   1 120.498 5.55429   4
  -2  -5  -1 69.3505 3.85994   2
  -2  -5  -1 62.1608 3.28627   4
  -2  -5  -1 67.6210 3.72874   4
  -2  -5  -1 62.8826 4.14445   3
   2   5   1 64.7474 2.99043   4
   2   5   1 62.1151 4.06129   3
   2   5   1 63.4910 3.56916   4
  -3  -5  -1 3015.58 93.1503   4
  -3  -5  -1 2876.49 92.3700   4
  -3  -5  -1 3103.63 94.0696   3
  -3  -5  -1 2923.32 93.2134   2
   3   5   1 3055.32 93.6816   3
   3   5   1 2992.83 92.3388   4
   3   5   1 3026.61 92.7986   4
  -4  -5  -1 41.4827 3.07843   4
  -4  -5  -1 41.8222 3.38267   2
  -4  -5  -1 41.9310 2.60838   4
  -4  -5  -1 42.5415 4.06170   3
   4   5   1 44.4112 3.73412   2
   4   5   1 44.4409 3.02160   4
   4   5   1 37.2541 2.60643   4
  -5  -5  -1 43.8972 3.66588   2
  -5  -5  -1 51.5080 3.51113   4
  -5  -5  -1 49.8898 3.03943   4
   5   5   1 45.6879 3.34145   4
  -6  -5  -1 16.5449 2.99844   3
  -6  -5  -1 21.6986 2.82612   4
  -6  -5  -1 12.3600 3.67340   3
  -6  -5  -1 15.1065 2.86935   2
  -6  -5  -1 20.2695 2.57974   4
   6   5   1 18.3181 2.71673   4
   6   5   1 16.2022 3.31917   2
   6   5   1 14.2974 2.42543   4
  -7  -5  -1 115.280 7.11652   2
  -7  -5  -1 114.688 6.66324   4
  -7  -5  -1 114.797 7.51048   3
   7   5   1 127.243 8.96444   4
   3  -6  -1 96.1089 7.79917   4
   3  -6  -1 84.4557 7.50560   2
   3  -6  -1 119.735 8.19368   4
  -3   6   1 97.4619 8.28453   4
  -3   6   1 116.495 6.80066   4
  -3   6   1 103.520 8.43961   3
   2  -6  -1 172.681 8.89485   4
   2  -6  -1 177.348 7.66537   2
   2  -6  -1 169.231 9.09326   3
   2  -6  -1 179.405 9.25241   4
  -2   6   1 176.065 8.23415   4
  -2   6   1 195.064 10.0532   3
  -2   6   1 174.999 9.39454   4
   1  -6  -1 107.913 6.16221   4
   1  -6  -1 112.235 6.64042   3
   1  -6  -1 117.211 5.55167   2
   1  -6  -1 117.059 6.46664   4
  -1   6   1 103.112 6.54332   4
  -1   6   1 109.426 6.84284   3
  -1   6   1 112.586 5.63991   4
   0  -6  -1 837.578 26.7100   2
   0  -6  -1 815.246 27.4728   4
   0  -6  -1 770.767 27.1094   4
   0   6   1 800.308 27.6306   4
   0   6   1 830.060 26.6622   4
   0   6   1 808.401 28.2161   3
  -1  -6  -1 1081.72 33.1078   2
  -1  -6  -1 1012.14 33.2417   2
  -1  -6  -1 1037.21 33.4841   4
  -1  -6  -1 987.427 33.1559   4
   1   6   1 940.488 34.2410   3
   1   6   1 1043.64 33.6243   4
  -2  -6  -1 17.3427 2.50508   4
  -2  -6  -1 13.2101 2.22462   2
  -2  -6  -1 14.8245 2.21242   2
  -2  -6  -1 13.7054 3.98861   3
  -2  -6  -1 15.3959 2.06487   4
   2   6   1 18.0784 2.62000   4
   2   6   1 13.4231 1.58126   4
   2   6   1 8.01383 2.21581   3
  -3  -6  -1 767.722 26.4281   4
  -3  -6  -1 803.780 27.4060   2
  -3  -6  -1 827.605 27.2683   4
   3   6   1 834.311 26.2377   4
   3   6   1 838.045 26.9468   4
  -4  -6  -1 520.237 18.1184   4
  -4  -6  -1 521.578 18.3077   2
  -4  -6  -1 491.973 17.2195   4
   4   6   1 514.625 17.2749   4
  -5  -6  -1 1266.30 41.0011   4
  -5  -6  -1 1282.54 42.4621   3
  -5  -6  -1 1274.82 41.4953   2
  -5  -6  -1 1239.42 40.2609   4
   5   6   1 1260.90 40.5203   4
  -6  -6  -1 597.378 20.3550   4
  -6  -6  -1 488.365 21.6719   4
  -6  -6  -1 608.375 20.9836   2
   6   6   1 601.676 20.1724   4
  -7  -6  -1 30.4298 4.40891   4
  -7  -6  -1 33.7005 4.55149   3
  -7  -6  -1 32.9296 4.32194   2
   2  -7  -1 273.504 12.6527   4
   2  -7  -1 246.935 10.7087   2
  -2   7   1 286.161 11.7359   4
  -2   7   1 271.873 13.6857   3
   1  -7  -1 126.808 7.51452   4
   1  -7  -1 130.416 7.63353   4
  -1   7   1 128.207 8.18957   4
  -1   7   1 128.438 8.75658   3
  -1   7   1 130.096 6.71885   4
   0  -7  -1 128.276 7.90682   3
   0  -7  -1 140.619 7.53111   4
   0   7   1 136.309 8.48697   3
   0   7   1 130.527 7.71355   4
   0   7   1 144.923 6.53460   4
  -1  -7  -1 -1.0307 1.68914   2
  -1  -7  -1 1.87127 1.73370   2
  -1  -7  -1 0.42386 1.43088   4
  -1  -7  -1 1.47798 1.52131   4
   1   7   1 1.03628 1.27583   4
   1   7   1 1.09415 1.82671   4
   1   7   1 0.58215 2.50058   3
  -2  -7  -1 295.481 11.2934   4
  -2  -7  -1 282.493 11.4240   2
  -2  -7  -1 291.357 11.6718   4
   2   7   1 296.938 12.6354   3
   2   7   1 283.737 10.4437   4
   2   7   1 277.668 11.5104   4
  -3  -7  -1 814.325 28.0181   2
  -3  -7  -1 844.425 28.2014   4
  -3  -7  -1 810.812 27.4080   4
   3   7   1 833.093 27.8305   4
   3   7   1 803.927 28.7781   3
   3   7   1 856.183 26.9279   4
  -4  -7  -1 37.1646 4.06203   4
  -4  -7  -1 47.8849 4.47260   2
  -4  -7  -1 42.0436 3.34539   4
  -4  -7  -1 36.6986 5.53648   3
   4   7   1 43.0359 3.16592   4
   4   7   1 41.0911 4.94399   3
   4   7   1 40.5079 3.85628   4
  -5  -7  -1 57.2214 4.79532   4
  -5  -7  -1 54.4037 3.92708   4
  -5  -7  -1 61.0218 5.23354   2
   5   7   1 58.9719 4.07707   4
  -6  -7  -1 28.6876 3.85360   2
  -6  -7  -1 33.5516 4.32488   4
   1  -8  -1 170.063 10.0647   4
  -1   8   1 147.485 15.2228   3
   0  -8  -1 77.0063 6.47434   4
   0  -8  -1 70.8381 5.82678   2
   0  -8  -1 64.9392 5.46202   2
   0   8   1 46.3651 6.06906   3
  -1  -8  -1 251.079 10.6956   2
  -1  -8  -1 248.146 11.0586   4
  -1  -8  -1 259.668 10.9714   2
  -1  -8  -1 251.791 11.3145   4
   1   8   1 231.968 12.3125   3
   1   8   1 241.334 9.86442   4
  -2  -8  -1 225.008 10.0872   2
  -2  -8  -1 239.264 10.5365   4
  -2  -8  -1 224.908 9.96021   2
  -2  -8  -1 219.360 9.90628   4
   2   8   1 211.904 8.73875   4
   2   8   1 216.380 11.0030   3
  -3  -8  -1 7.73927 2.54270   4
  -3  -8  -1 7.67510 2.65057   2
  -3  -8  -1 5.72749 1.89301   4
   3   8   1 10.3108 3.66402   3
   3   8   1 3.28266 1.47429   4
  -4  -8  -1 17.1611 3.14012   4
  -4  -8  -1 25.1185 3.42980   4
  -4  -8  -1 20.2015 3.43806   2
   4   8   1 23.8265 4.26169   3
   4   8   1 23.1045 3.16672   4
  -5  -8  -1 377.579 15.7885   2
  -5  -8  -1 419.305 15.8372   4
  -6  -8  -1 0.49350 2.87952   4
  -2  -9  -1 84.9637 7.31414   4
  -2  -9  -1 103.025 7.35268   2
  -3  -9  -1 225.908 11.1304   2
  -3  -9  -1 226.618 11.5265   4
   3   9   1 264.211 17.9620   3
  -4  -9  -1 23.3692 4.24725   2
  -4  -9  -1 15.2474 3.67742   4
   4   8  -2 190.181 10.9566   3
  -4  -8   2 203.558 10.9141   4
  -4  -8   2 218.700 10.0546   2
   3   8  -2 47.2542 6.71360   3
  -3  -8   2 46.3213 5.75969   4
  -3  -8   2 52.0873 5.23667   2
   2   8  -2 -1.4583 3.66728   3
  -2  -8   2 3.53624 2.54804   2
  -2  -8   2 5.87080 3.79048   4
  -2  -8   2 6.17472 2.64567   2
   1   8  -2 199.477 12.1250   3
  -1  -8   2 229.124 9.89593   2
  -1  -8   2 215.786 9.59285   2
  -1  -8   2 222.986 11.5879   4
  -6  -7   2 488.496 19.1490   2
  -6  -7   2 529.555 19.7107   4
  -5  -7   2 22.9603 3.47529   2
  -5  -7   2 30.0863 4.24445   4
   4   7  -2 0.40498 2.01792   4
   4   7  -2 3.60700 3.22452   4
   4   7  -2 -1.7314 2.78979   3
  -4  -7   2 -1.0615 2.59345   4
  -4  -7   2 -3.1692 1.86600   4
  -4  -7   2 4.20384 2.29383   2
  -4  -7   2 2.63288 3.74368   3
   3   7  -2 104.187 7.15699   3
   3   7  -2 102.255 6.76532   4
   3   7  -2 101.511 5.26305   4
  -3  -7   2 92.3781 6.56021   4
  -3  -7   2 90.5505 5.75671   2
  -3  -7   2 96.8326 7.34500   3
  -3  -7   2 85.9696 5.66331   4
   2   7  -2 469.353 18.4534   3
   2   7  -2 441.334 17.7009   4
   2   7  -2 431.434 16.1779   4
  -2  -7   2 462.370 17.2401   4
  -2  -7   2 473.593 17.9694   4
  -2  -7   2 481.470 18.2287   3
  -2  -7   2 483.536 16.8043   2
   1   7  -2 98.9220 7.68077   3
   1   7  -2 99.5935 7.18448   4
   1   7  -2 107.021 5.52986   4
  -1  -7   2 102.896 6.25352   2
  -1  -7   2 100.627 5.59505   2
  -1  -7   2 98.3379 6.35512   4
  -1  -7   2 100.498 6.69833   4
   0   7  -2 -0.2368 3.61258   3
   0   7  -2 5.29033 2.42523   4
   0   7  -2 10.1319 3.89815   4
   0  -7   2 3.99562 2.91608   4
   0  -7   2 0.68721 1.96428   2
   0  -7   2 6.22919 3.13465   4
   0  -7   2 2.54894 1.86265   2
  -1   7  -2 39.1776 4.81506   4
  -1   7  -2 44.8407 6.48563   4
  -1   7  -2 37.2679 5.60807   3
   1  -7   2 46.1308 5.50978   4
   1  -7   2 44.0842 6.03399   4
   1  -7   2 40.1857 4.88497   2
   1  -7   2 44.5630 3.84370   2
  -6  -6   2 78.7598 6.22351   4
  -6  -6   2 77.2117 5.98997   2
   5   6  -2 181.948 9.37532   2
   5   6  -2 193.625 8.74045   4
   5   6  -2 193.014 9.29384   4
  -5  -6   2 195.391 9.15071   4
  -5  -6   2 180.210 8.59961   2
  -5  -6   2 191.425 8.16660   4
   4   6  -2 903.416 29.2231   4
   4   6  -2 856.449 29.7726   4
   4   6  -2 849.306 29.9165   3
  -4  -6   2 852.232 28.9683   4
  -4  -6   2 888.948 29.5091   2
  -4  -6   2 927.811 30.2323   4
   3   6  -2 315.959 12.5287   4
   3   6  -2 328.152 12.9686   3
   3   6  -2 324.888 11.5858   4
  -3  -6   2 287.910 12.7878   2
  -3  -6   2 316.964 12.7794   4
  -3  -6   2 305.718 11.8024   4
   2   6  -2 0.34521 2.11456   3
   2   6  -2 -0.3884 0.81150   4
   2   6  -2 -1.6427 1.62773   4
  -2  -6   2 0.96869 1.33305   4
  -2  -6   2 -0.4825 1.60268   4
  -2  -6   2 1.47662 1.47330   2
  -2  -6   2 4.30923 2.22137   3
   1   6  -2 81.9475 5.70573   4
   1   6  -2 69.6243 4.05311   4
   1   6  -2 74.0512 5.85938   3
  -1  -6   2 73.6265 4.93171   4
  -1  -6   2 76.2912 4.22633   2
  -1  -6   2 80.1648 5.31977   4
  -1  -6   2 71.0717 4.27222   2
   0   6  -2 742.262 27.8382   3
   0   6  -2 812.479 26.3707   4
   0   6  -2 786.416 27.7326   4
   0  -6   2 788.363 27.6600   3
   0  -6   2 797.920 26.0136   2
   0  -6   2 788.568 27.1738   4
   0  -6   2 816.689 25.8672   2
   0  -6   2 789.715 27.3715   4
  -1   6  -2 94.4731 6.95672   3
  -1   6  -2 102.318 5.68990   4
  -1   6  -2 103.211 7.29894   4
   1  -6   2 96.6938 4.71983   2
   1  -6   2 99.8838 5.01214   2
   1  -6   2 87.9569 6.23355   4
   1  -6   2 93.4671 6.34203   3
  -2   6  -2 87.9273 10.0035   4
  -2   6  -2 64.3993 7.29673   3
  -2   6  -2 63.1372 5.12455   4
   2  -6   2 62.6898 6.19539   4
   2  -6   2 52.2146 6.04734   4
   2  -6   2 69.6901 3.94353   2
  -3   6  -2 17.5862 3.76060   4
  -3   6  -2 8.29276 6.62101   3
  -3   6  -2 9.96502 6.41220   4
   3  -6   2 20.6085 5.12818   4
   3  -6   2 3.29481 3.66102   4
  -7  -5   2 265.658 12.0535   3
  -7  -5   2 276.269 12.1037   2
  -7  -5   2 283.666 12.3857   4
   6   5  -2 121.257 7.29698   4
   6   5  -2 125.912 8.22819   4
  -6  -5   2 136.915 7.05687   3
  -6  -5   2 133.981 6.91626   2
  -6  -5   2 125.399 6.24516   4
  -6  -5   2 129.735 7.21137   4
  -6  -5   2 121.681 8.07190   3
   5   5  -2 29.6637 4.22237   2
   5   5  -2 25.1345 4.47338   4
   5   5  -2 27.3618 3.88664   4
  -5  -5   2 31.5568 3.48141   2
  -5  -5   2 26.5146 3.55296   4
  -5  -5   2 17.0322 3.45171   3
  -5  -5   2 24.9956 2.80099   4
   4   5  -2 326.435 12.6025   2
   4   5  -2 322.241 12.0521   4
   4   5  -2 316.407 12.5473   4
  -4  -5   2 332.827 12.6882   4
  -4  -5   2 321.315 12.8646   2
  -4  -5   2 306.912 11.6809   4
  -4  -5   2 350.069 13.1482   3
   3   5  -2 302.196 11.8975   2
   3   5  -2 325.630 11.4730   4
   3   5  -2 318.475 12.1603   4
   3   5  -2 307.472 12.2742   3
  -3  -5   2 323.643 11.8093   2
  -3  -5   2 314.575 12.2786   4
  -3  -5   2 321.304 11.4928   4
  -3  -5   2 323.474 12.4863   3
   2   5  -2 2298.16 72.6061   4
   2   5  -2 2344.50 72.9911   3
   2   5  -2 2329.88 71.7197   4
  -2  -5   2 2219.21 71.9689   4
  -2  -5   2 2312.74 72.7801   4
  -2  -5   2 2287.43 71.9507   2
  -2  -5   2 2350.62 72.9184   3
   1   5  -2 69.5563 3.63855   4
   1   5  -2 70.0493 4.84945   3
  -1  -5   2 69.2476 3.73376   2
  -1  -5   2 64.5830 4.01664   4
  -1  -5   2 68.4120 4.67906   3
  -1  -5   2 68.7370 4.38794   4
   0   5  -2 854.350 28.6585   3
   0   5  -2 849.434 27.2675   4
   0   5  -2 732.932 30.8974   4
   0  -5   2 822.062 27.8328   4
   0  -5   2 833.852 28.1658   3
   0  -5   2 855.744 28.1187   4
   0  -5   2 867.910 26.8177   2
   0  -5   2 836.785 26.9273   2
  -1   5  -2 500.284 19.0533   3
  -1   5  -2 481.879 19.3897   4
  -1   5  -2 509.843 17.7917   4
   1  -5   2 528.724 16.9535   2
   1  -5   2 528.426 18.6150   4
   1  -5   2 514.024 17.1647   2
  -2   5  -2 1575.38 51.1243   4
  -2   5  -2 1516.93 51.1137   3
  -2   5  -2 1546.74 49.7295   4
   2  -5   2 1557.42 48.3649   2
   2  -5   2 1547.97 50.3278   4
   2  -5   2 1537.99 50.4279   4
  -3   5  -2 271.967 12.9960   3
  -3   5  -2 244.996 12.5116   4
  -3   5  -2 270.241 11.3813   4
   3  -5   2 249.293 11.8839   4
   3  -5   2 268.966 12.0476   4
   3  -5   2 297.959 9.95330   2
  -4   5  -2 8.41484 3.86861   4
  -4   5  -2 7.41086 4.96524   3
  -7  -4   2 466.180 17.7181   3
  -7  -4   2 483.000 18.1481   4
  -7  -4   2 468.092 17.6756   2
   6   4  -2 288.066 12.3392   4
   6   4  -2 292.159 12.3883   2
  -6  -4   2 285.830 11.8791   4
  -6  -4   2 286.984 11.1423   4
  -6  -4   2 308.261 11.8410   3
  -6  -4   2 300.742 11.9032   2
   5   4  -2 283.548 11.4679   4
   5   4  -2 285.907 11.3593   4
  -5  -4   2 281.762 10.4691   4
  -5  -4   2 276.105 11.4970   3
  -5  -4   2 290.141 11.2495   4
  -5  -4   2 277.618 10.9790   2
   4   4  -2 350.152 13.2363   4
   4   4  -2 351.515 12.8313   4
   4   4  -2 356.277 13.1549   2
  -4  -4   2 368.017 13.1902   4
  -4  -4   2 347.499 12.8632   2
  -4  -4   2 343.093 12.3287   4
  -4  -4   2 360.406 13.3781   3
   3   4  -2 561.674 19.2973   3
   3   4  -2 548.999 18.7549   4
   3   4  -2 559.893 19.8831   4
   3   4  -2 567.832 19.2079   2
  -3  -4   2 564.724 18.6472   4
  -3  -4   2 579.655 20.2276   3
  -3  -4   2 558.556 19.4359   4
  -3  -4   2 572.371 19.0514   2
   2   4  -2 150.720 6.22441   2
   2   4  -2 147.464 6.47844   4
   2   4  -2 145.621 5.80030   4
   2   4  -2 148.872 6.62642   3
  -2  -4   2 156.742 6.02914   4
  -2  -4   2 145.759 6.55053   3
  -2  -4   2 149.222 6.60552   4
  -2  -4   2 145.182 6.02696   2
   1   4  -2 176.690 6.64424   4
   1   4  -2 169.967 7.26157   4
   1   4  -2 172.795 7.57685   3
  -1  -4   2 175.224 7.44161   3
  -1  -4   2 172.334 7.28423   4
  -1  -4   2 173.862 6.64443   2
  -1  -4   2 175.317 6.92142   4
   0   4  -2 1811.55 56.2401   4
   0   4  -2 1782.21 57.0362   4
   0   4  -2 1848.78 57.3350   3
   0  -4   2 1674.42 55.6905   2
   0  -4   2 1809.62 56.6615   4
   0  -4   2 1785.77 55.8792   2
   0  -4   2 1829.62 57.0229   3
   0  -4   2 1847.08 56.9257   4
  -1   4  -2 80.9432 4.99430   4
  -1   4  -2 77.8239 4.97728   3
  -1   4  -2 82.9383 4.22995   4
   1  -4   2 84.7362 4.82100   3
   1  -4   2 82.0044 4.67957   4
   1  -4   2 79.6272 3.51685   2
   1  -4   2 79.8713 4.54502   4
  -2   4  -2 263.142 11.2033   4
  -2   4  -2 234.169 12.0764   3
  -2   4  -2 270.330 10.2722   4
   2  -4   2 262.797 9.03744   2
   2  -4   2 269.359 10.7754   4
  -3   4  -2 74.8130 5.85217   4
  -3   4  -2 69.7198 4.74902   4
  -3   4  -2 76.2486 6.00461   3
   3  -4   2 65.3814 3.44000   2
   3  -4   2 64.6228 5.05666   4
   3  -4   2 71.6344 5.17568   4
  -4   4  -2 377.856 15.7487   3
  -4   4  -2 348.236 15.5682   4
  -4   4  -2 368.841 12.7047   2
  -4   4  -2 373.159 14.4717   4
   4  -4   2 361.936 15.0794   4
   4  -4   2 332.828 14.5008   4
   4  -4   2 358.908 12.5528   2
  -5   4  -2 798.309 28.4832   4
   7   3  -2 112.925 8.15903   4
  -7  -3   2 114.301 6.86094   2
  -7  -3   2 111.743 7.67916   3
  -7  -3   2 118.366 7.37553   4
   6   3  -2 271.361 11.6497   4
   6   3  -2 257.268 11.2061   4
   6   3  -2 263.704 11.3684   2
  -6  -3   2 264.901 11.0565   4
  -6  -3   2 267.903 10.7466   3
  -6  -3   2 269.156 10.4797   4
  -6  -3   2 273.536 10.8955   2
   5   3  -2 450.273 15.7707   4
   5   3  -2 432.077 15.6346   4
  -5  -3   2 440.052 15.5061   3
  -5  -3   2 402.026 14.6962   4
  -5  -3   2 429.202 15.0660   3
  -5  -3   2 408.542 15.1638   2
  -5  -3   2 404.146 15.2537   4
   4   3  -2 34.9218 3.20427   4
   4   3  -2 35.9938 2.97015   4
   4   3  -2 33.1769 2.85325   2
  -4  -3   2 35.7048 2.43597   4
  -4  -3   2 32.6380 3.03987   3
  -4  -3   2 33.5697 2.85964   4
  -4  -3   2 32.8764 2.64238   2
   3   3  -2 176.588 7.11365   4
   3   3  -2 170.293 6.61761   4
   3   3  -2 170.733 6.81107   2
  -3  -3   2 167.364 6.89367   3
  -3  -3   2 157.151 6.23706   4
  -3  -3   2 173.206 6.99346   4
  -3  -3   2 160.178 6.57411   2
   2   3  -2 297.945 10.7391   4
   2   3  -2 306.535 10.7188   3
   2   3  -2 296.320 10.4371   2
   2   3  -2 306.276 10.2204   4
  -2  -3   2 300.030 10.3540   2
  -2  -3   2 291.292 10.6938   3
  -2  -3   2 289.666 10.1342   4
  -2  -3   2 285.975 10.7320   4
   1   3  -2 2.27015 0.71676   4
   1   3  -2 0.45735 0.82789   3
   1   3  -2 1.26772 0.88477   4
  -1  -3   2 2.59325 0.74337   2
  -1  -3   2 1.41099 0.87417   4
  -1  -3   2 2.11859 0.96699   3
  -1  -3   2 1.30273 0.67026   4
   0   3  -2 15.2081 1.42520   4
   0   3  -2 15.4187 1.87850   4
   0   3  -2 16.4451 2.03599   3
   0  -3   2 13.8951 1.84759   3
   0  -3   2 17.1153 1.80881   4
   0  -3   2 13.9330 1.23426   2
   0  -3   2 14.4490 1.60235   4
   0  -3   2 15.1112 1.22231   2
  -1   3  -2 103.232 5.22237   4
  -1   3  -2 111.654 5.39452   3
  -1   3  -2 108.610 4.74144   4
   1  -3   2 103.387 3.99058   2
   1  -3   2 104.922 4.91433   4
   1  -3   2 103.879 5.03728   3
   1  -3   2 113.324 5.11721   4
  -2   3  -2 947.179 31.6950   3
  -2   3  -2 962.215 29.9335   2
  -2   3  -2 914.679 30.9206   4
  -2   3  -2 954.986 31.6947   4
   2  -3   2 980.795 31.2642   4
   2  -3   2 986.443 31.4493   4
   2  -3   2 923.957 31.2268   3
   2  -3   2 962.644 29.8517   2
  -3   3  -2 122.423 6.59979   4
  -3   3  -2 105.086 7.92444   3
  -3   3  -2 118.425 5.90648   4
  -3   3  -2 114.073 4.69992   2
   3  -3   2 116.372 6.05611   4
   3  -3   2 114.160 4.56634   2
   3  -3   2 111.497 5.86818   4
  -4   3  -2 628.256 22.8129   4
  -4   3  -2 637.334 23.6347   3
  -4   3  -2 665.923 21.3610   2
  -4   3  -2 654.770 23.7984   4
   4  -3   2 673.567 23.0501   4
   4  -3   2 663.676 21.2917   2
   4  -3   2 654.467 23.2352   4
  -5   3  -2 18.7668 4.67672   4
  -5   3  -2 6.10256 3.83634   4
  -5   3  -2 15.3598 2.26987   2
  -5   3  -2 17.9967 4.24641   3
   5  -3   2 9.89890 3.08502   4
   5  -3   2 13.6842 3.20953   4
   5  -3   2 11.4037 2.22091   2
   7   2  -2 795.717 29.8643   4
  -7  -2   2 944.514 32.4050   4
  -7  -2   2 822.519 28.8858   2
  -7  -2   2 840.885 29.1544   3
  -7  -2   2 862.202 29.7664   4
   6   2  -2 58.7163 4.92545   2
   6   2  -2 60.3041 4.97171   4
   6   2  -2 62.2570 4.73557   4
  -6  -2   2 62.7580 4.51618   3
  -6  -2   2 61.4443 4.41113   2
  -6  -2   2 55.9081 4.75911   4
  -6  -2   2 55.2098 4.15053   4
   5   2  -2 454.075 16.1814   4
   5   2  -2 453.692 16.0234   4
   5   2  -2 446.060 15.9274   2
  -5  -2   2 450.226 15.4954   3
  -5  -2   2 433.031 15.7923   4
  -5  -2   2 433.628 15.4452   4
  -5  -2   2 412.733 15.9641   2
   4   2  -2 90.3687 4.67642   2
   4   2  -2 97.0124 4.86025   4
   4   2  -2 98.9053 4.92353   4
  -4  -2   2 93.2832 4.37561   4
  -4  -2   2 89.1009 4.58837   4
  -4  -2   2 95.2746 4.59699   3
  -4  -2   2 97.3581 4.43551   3
  -4  -2   2 97.6666 4.58182   2
   3   2  -2 1418.66 45.7394   4
   3   2  -2 1500.09 46.0967   4
   3   2  -2 1508.72 45.8823   2
  -3  -2   2 1446.40 45.7030   3
  -3  -2   2 1466.76 45.6783   2
  -3  -2   2 1414.83 45.4182   4
  -3  -2   2 1435.03 45.8256   4
   2   2  -2 346.626 11.9396   4
   2   2  -2 363.611 12.1183   2
   2   2  -2 364.298 12.0599   3
   2   2  -2 369.394 12.4354   4
  -2  -2   2 353.243 12.3019   4
  -2  -2   2 357.028 11.8187   4
  -2  -2   2 355.707 12.0104   2
  -2  -2   2 362.594 12.1639   3
   1   2  -2 2.60289 0.72022   3
   1   2  -2 4.04550 0.92651   4
   1   2  -2 2.39207 0.49531   4
  -1  -2   2 4.41594 0.72040   4
  -1  -2   2 3.13434 0.58577   2
  -1  -2   2 2.01311 0.65317   4
  -1  -2   2 3.05675 0.79371   3
   0   2  -2 3603.65 111.587   4
   0   2  -2 3630.19 111.653   3
   0  -2   2 3659.21 111.549   3
  -1   2  -2 1181.07 36.8710   4
  -1   2  -2 1111.02 36.7990   3
  -1   2  -2 1131.76 36.3828   4
   1  -2   2 1156.46 35.6372   2
   1  -2   2 1221.32 36.7515   4
   1  -2   2 1194.18 36.7248   3
   1  -2   2 1109.00 36.4862   4
  -2   2  -2 2277.73 76.0503   3
  -2   2  -2 2461.88 76.2282   4
  -2   2  -2 2364.84 74.6978   2
  -2   2  -2 2454.88 75.7505   4
   2  -2   2 2520.39 75.9781   3
   2  -2   2 2512.88 76.0519   4
   2  -2   2 2472.75 75.8292   4
  -3   2  -2 98.1021 4.96222   4
  -3   2  -2 95.8940 5.29096   3
  -3   2  -2 98.7521 5.45286   4
  -3   2  -2 104.237 4.07417   2
   3  -2   2 105.195 4.04325   2
   3  -2   2 97.2595 5.01175   3
   3  -2   2 103.563 5.30078   4
  -4   2  -2 9.13884 2.45461   3
  -4   2  -2 11.4253 2.58044   4
  -4   2  -2 9.19013 1.43752   2
  -4   2  -2 14.4407 2.42546   4
   4  -2   2 12.7335 2.36276   4
   4  -2   2 7.65214 1.79855   4
   4  -2   2 11.2237 1.52033   2
  -5   2  -2 149.645 8.42070   4
  -5   2  -2 163.124 8.88830   3
  -5   2  -2 161.518 7.94122   4
  -5   2  -2 161.688 6.57245   2
   5  -2   2 167.410 8.32807   4
   5  -2   2 149.222 7.71642   4
   5  -2   2 142.730 7.69879   3
   5  -2   2 156.450 6.65027   2
  -6   2  -2 136.602 8.26242   4
  -6   2  -2 118.347 8.58764   3
   6  -2   2 126.239 6.69535   2
   7   1  -2 109.411 7.72411   4
  -7  -1   2 86.9909 6.03512   2
  -7  -1   2 96.1354 6.88913   3
  -7  -1   2 89.8442 7.11971   4
   6   1  -2 252.491 11.7004   4
   6   1  -2 277.486 11.3392   2
   6   1  -2 289.834 11.5560   4
  -6  -1   2 276.588 11.2460   4
  -6  -1   2 277.452 10.9280   2
  -6  -1   2 279.406 11.1532   3
   5   1  -2 453.538 16.3594   4
   5   1  -2 468.862 16.3591   2
   5   1  -2 463.528 16.8777   4
  -5  -1   2 442.961 16.1902   4
  -5  -1   2 449.469 15.9867   2
  -5  -1   2 455.006 16.0120   3
  -5  -1   2 473.602 16.5387   4
   4   1  -2 2.26191 1.18730   2
   4   1  -2 4.23134 1.30392   4
   4   1  -2 2.41621 1.10816   4
  -4  -1   2 4.01023 1.09446   3
  -4  -1   2 4.92044 1.30186   4
  -4  -1   2 3.90718 1.13168   2
  -4  -1   2 2.67976 1.27320   4
   3   1  -2 374.798 13.2422   2
   3   1  -2 399.258 13.4379   4
   3   1  -2 423.387 13.6316   4
  -3  -1   2 363.870 13.0846   2
  -3  -1   2 393.878 13.2285   4
  -3  -1   2 397.051 13.3972   4
  -3  -1   2 381.115 12.9735   3
   2   1  -2 19.3841 1.47742   2
   2   1  -2 19.7605 1.57152   4
   2   1  -2 17.9860 1.42302   4
  -2  -1   2 19.1299 1.32586   4
  -2  -1   2 18.3207 1.50500   4
  -2  -1   2 19.6882 1.32349   3
  -2  -1   2 19.4757 1.39588   2
   1   1  -2 2705.01 81.4775   4
  -1  -1   2 2592.98 81.3949   4
   0   1  -2 1.68374 0.29436   2
   0   1  -2 2.75243 0.52184   4
   0   1  -2 2.68964 0.47056   4
   0   1  -2 1.89949 0.54642   3
   0  -1   2 1.95973 0.52393   4
   0  -1   2 1.29839 0.32577   4
  -1   1  -2 220.385 7.62197   3
  -1   1  -2 204.889 6.69368   2
  -1   1  -2 223.232 7.62868   4
  -1   1  -2 205.072 7.31821   4
   1  -1   2 226.050 6.69454   2
   1  -1   2 209.661 7.37991   4
   1  -1   2 204.236 7.46670   3
  -2   1  -2 988.144 29.4502   2
  -2   1  -2 945.948 30.2272   4
  -2   1  -2 956.861 30.5431   3
  -2   1  -2 958.036 30.5710   4
   2  -1   2 934.841 30.2122   4
   2  -1   2 945.910 30.3433   3
   2  -1   2 937.208 29.4367   2
  -3   1  -2 6.07426 0.87433   2
  -3   1  -2 7.68086 1.53760   3
  -3   1  -2 5.22500 1.38306   4
   3  -1   2 4.81321 1.52731   3
   3  -1   2 6.93592 1.53931   4
   3  -1   2 6.15573 0.93185   2
   3  -1   2 4.83627 1.22217   4
  -4   1  -2 1568.23 51.3423   4
  -4   1  -2 1586.37 51.2843   3
  -4   1  -2 1631.21 49.8126   2
   4  -1   2 1591.03 50.7114   4
   4  -1   2 1615.49 50.9651   3
   4  -1   2 1611.06 52.9076   4
   4  -1   2 1588.65 49.8620   2
  -5   1  -2 -3.5251 2.12373   3
  -5   1  -2 1.69330 1.23800   2
  -5   1  -2 -0.5423 1.99452   4
   5  -1   2 -2.9824 1.61403   3
   5  -1   2 -0.5215 1.25112   2
   5  -1   2 0.67084 1.32502   4
  -6   1  -2 132.438 8.57174   3
  -6   1  -2 142.639 6.68204   2
  -6   1  -2 145.964 8.46359   4
   6  -1   2 148.680 6.89827   2
  -7   0   2 942.676 32.0273   4
  -7   0   2 885.739 31.3533   3
  -7   0   2 882.116 30.5741   2
   6   0  -2 124.259 7.01260   4
   6   0  -2 120.434 7.40941   4
   6   0  -2 127.210 6.89363   2
  -6   0   2 118.191 6.29688   2
  -6   0   2 129.185 6.99608   3
  -6   0   2 125.754 7.05570   4
   5   0  -2 185.747 7.85877   2
   5   0  -2 183.809 7.94665   4
   5   0  -2 175.158 7.51496   3
   5   0  -2 176.116 8.36885   4
  -5   0   2 166.826 7.91127   4
  -5   0   2 187.448 7.93284   3
  -5   0   2 187.167 8.16548   4
  -5   0   2 182.734 7.66700   2
   4   0  -2 182.141 7.24162   3
   4   0  -2 193.175 8.12709   4
   4   0  -2 184.213 7.59267   4
   4   0  -2 194.308 7.55590   2
  -4   0   2 179.954 7.35885   3
  -4   0   2 183.001 7.73229   4
  -4   0   2 197.189 7.86425   4
  -4   0   2 190.048 7.37332   2
   3   0  -2 1257.23 38.2353   2
   3   0  -2 1254.21 38.7891   4
   3   0  -2 1259.03 38.4084   4
   3   0  -2 1198.51 37.9423   3
  -3   0   2 1190.68 38.1024   2
  -3   0   2 1159.67 37.9775   3
  -3   0   2 1184.92 38.4046   4
  -3   0   2 1190.47 38.4182   4
   2   0  -2 168.441 5.82711   3
   2   0  -2 162.599 6.06010   2
   2   0  -2 170.668 6.21170   4
   2   0  -2 170.706 6.36714   4
  -2   0   2 178.181 6.26342   4
  -2   0   2 169.712 5.87320   3
  -2   0   2 179.758 6.28991   4
  -2   0   2 155.735 5.98585   2
   1   0  -2 6429.32 206.750   1
  -1   0   2 6819.46 207.031   1
   0   0  -2 14.1419 0.67209   2
   0   0  -2 13.9803 0.70384   3
   0   0  -2 13.1871 0.87063   4
   0   0  -2 13.9750 0.69603   4
   0   0   2 14.5044 0.70627   4
   0   0   2 14.2544 0.67898   3
  -1   0  -2 717.724 22.1688   2
  -1   0  -2 722.493 22.6122   4
  -1   0  -2 733.913 22.5174   4
  -1   0  -2 714.132 22.6794   3
   1   0   2 714.296 22.4972   4
   1   0   2 734.518 22.6721   3
   1   0   2 735.653 22.5496   4
   1   0   2 717.585 22.1866   2
  -2   0  -2 510.487 16.6569   3
  -2   0  -2 512.253 16.6325   4
  -2   0  -2 510.189 15.9939   2
  -2   0  -2 495.275 16.3962   4
   2   0   2 506.209 16.6041   3
   2   0   2 513.929 16.3732   4
   2   0   2 514.679 16.0465   2
   2   0   2 513.633 16.5261   4
  -3   0  -2 321.428 10.3347   2
  -3   0  -2 293.343 11.0596   4
  -3   0  -2 312.725 10.8673   4
  -3   0  -2 316.376 11.1563   3
   3   0   2 312.639 10.7430   4
   3   0   2 323.151 10.4344   2
   3   0   2 299.480 11.9781   4
   3   0   2 308.651 11.0061   3
  -4   0  -2 62.8196 3.66307   4
  -4   0  -2 64.4353 3.95675   4
  -4   0  -2 64.2760 3.97139   3
  -4   0  -2 64.1249 3.15481   2
   4   0   2 61.7094 3.26449   2
   4   0   2 65.4462 3.93130   3
   4   0   2 72.7284 3.63976   4
  -5   0  -2 5.18701 1.43746   2
  -5   0  -2 2.86120 1.55652   4
  -5   0  -2 2.42782 1.40472   4
  -5   0  -2 9.54172 2.45215   3
   5   0   2 5.85699 1.70357   4
   5   0   2 1.56683 1.27977   2
   5   0   2 4.23551 1.74481   3
  -6   0  -2 486.520 19.0553   4
  -6   0  -2 550.219 19.6543   3
  -6   0  -2 504.857 17.8117   2
  -6   0  -2 528.506 19.0161   4
   6   0   2 481.266 18.8076   3
   6   0   2 551.469 18.2240   2
   6   0   2 536.238 18.6523   4
  -7   0  -2 11.9643 3.06592   4
  -7   0  -2 14.6912 2.98290   2
  -7   0  -2 8.39122 3.98160   3
   7   0   2 15.6488 3.16429   2
  -7   1   2 -2.1686 3.16003   4
  -7   1   2 2.40553 3.58531   3
  -7   1   2 0.12331 2.80630   2
   6  -1  -2 147.949 7.68373   3
   6  -1  -2 153.880 7.98414   2
   6  -1  -2 149.120 8.89040   4
   6  -1  -2 148.595 7.97337   4
  -6   1   2 150.700 10.6417   4
  -6   1   2 151.423 8.26658   3
  -6   1   2 142.020 7.36327   2
  -6   1   2 168.053 8.55116   4
   5  -1  -2 131.299 6.16418   2
   5  -1  -2 118.863 6.90624   4
   5  -1  -2 128.197 6.47754   4
   5  -1  -2 128.578 6.14503   3
  -5   1   2 106.612 6.56731   2
  -5   1   2 121.687 6.39573   3
  -5   1   2 114.290 6.50195   4
  -5   1   2 126.340 6.65600   4
   4  -1  -2 42.2707 2.90127   2
   4  -1  -2 39.0878 3.47132   4
   4  -1  -2 38.2447 3.11802   4
  -4   1   2 34.6480 3.13149   4
  -4   1   2 42.0559 2.88550   2
  -4   1   2 35.0541 3.02088   3
  -4   1   2 41.8728 3.37771   4
   3  -1  -2 677.500 22.6656   2
   3  -1  -2 707.640 22.6756   3
   3  -1  -2 701.690 23.4828   4
   3  -1  -2 672.759 22.9480   4
  -3   1   2 697.611 22.7029   2
  -3   1   2 732.621 23.2018   4
  -3   1   2 711.911 23.2892   4
  -3   1   2 708.721 22.8869   3
   2  -1  -2 16.9601 1.72273   4
   2  -1  -2 17.8287 1.54913   4
   2  -1  -2 20.2484 1.39986   3
   2  -1  -2 19.8079 1.47433   2
  -2   1   2 20.0019 1.49076   3
  -2   1   2 18.8555 1.70281   4
  -2   1   2 18.8977 1.55482   4
  -2   1   2 19.1813 1.45900   2
   1  -1  -2 9999.99 307.660   1
  -1   1   2 9766.58 306.811   1
   0   1   2 1418.07 45.7846   1
  -2  -1  -2 288.086 9.46026   3
  -2  -1  -2 266.211 9.02164   4
  -2  -1  -2 271.733 9.24715   4
  -2  -1  -2 270.729 9.13686   2
   2   1   2 286.124 8.97580   4
   2   1   2 283.795 9.10021   4
   2   1   2 277.705 9.16930   2
   2   1   2 275.880 9.41111   3
  -3  -1  -2 1372.46 44.1363   4
  -3  -1  -2 1398.63 44.0453   2
  -3  -1  -2 1406.89 44.5278   3
  -3  -1  -2 1439.82 44.3786   4
   3   1   2 1463.63 44.1703   2
   3   1   2 1429.71 44.5164   3
   3   1   2 1441.90 44.2973   4
   3   1   2 1383.91 44.0062   4
  -4  -1  -2 271.459 9.59752   2
  -4  -1  -2 253.661 9.97616   4
  -4  -1  -2 277.526 10.2581   3
  -4  -1  -2 278.955 9.92170   4
   4   1   2 282.835 9.75942   2
   4   1   2 271.521 10.0234   4
   4   1   2 267.673 9.66089   4
   4   1   2 273.035 10.1586   3
  -5  -1  -2 287.470 11.2357   4
  -5  -1  -2 288.597 11.0308   4
  -5  -1  -2 299.276 10.6226   2
  -5  -1  -2 276.112 11.5232   3
   5   1   2 292.235 10.7916   2
   5   1   2 298.929 11.3397   3
   5   1   2 290.977 11.2104   4
   5   1   2 306.618 10.8464   4
  -6  -1  -2 202.869 8.34641   2
  -6  -1  -2 199.906 9.03399   4
  -6  -1  -2 203.993 9.32601   3
  -6  -1  -2 199.638 8.88986   4
   6   1   2 200.983 8.59559   2
   6   1   2 196.611 8.97371   4
   6   1   2 197.844 8.48384   4
  -7  -1  -2 22.4214 3.72593   4
  -7  -1  -2 21.7134 4.11285   3
  -7  -1  -2 20.5872 3.11441   2
   7   1   2 19.2503 3.31581   2
   6  -2  -2 140.840 9.28959   4
   6  -2  -2 134.509 8.34326   4
   6  -2  -2 170.401 11.0254   2
  -6   2   2 148.515 8.77736   3
  -6   2   2 121.288 8.50523   4
  -6   2   2 143.403 7.50991   2
  -6   2   2 139.437 8.51575   4
   5  -2  -2 28.8641 3.86114   4
   5  -2  -2 27.9238 4.01568   4
   5  -2  -2 31.2391 3.68533   3
  -5   2   2 28.5928 3.70717   4
  -5   2   2 29.2660 4.05105   3
  -5   2   2 29.9268 3.28595   2
   4  -2  -2 491.624 16.6030   2
   4  -2  -2 494.288 17.8444   4
   4  -2  -2 472.738 17.1044   4
   4  -2  -2 485.541 16.7855   3
  -4   2   2 479.424 17.5531   4
  -4   2   2 476.236 16.5581   2
  -4   2   2 466.306 17.1344   3
  -4   2   2 487.417 17.3282   4
   3  -2  -2 330.699 11.5995   2
   3  -2  -2 333.472 12.0869   4
   3  -2  -2 336.911 11.8102   3
   3  -2  -2 333.054 12.5571   4
  -3   2   2 348.327 12.2338   4
  -3   2   2 330.794 11.6387   2
  -3   2   2 326.562 12.0564   3
  -3   2   2 322.387 12.3317   4
   2  -2  -2 690.347 22.1726   2
   2  -2  -2 688.288 22.8739   4
   2  -2  -2 691.231 22.3319   3
   2  -2  -2 671.660 22.4875   4
  -2   2   2 666.789 22.4376   3
  -2   2   2 737.435 22.9108   4
  -2   2   2 678.989 22.1953   2
  -2   2   2 700.148 22.5736   4
   1  -2  -2 31.5597 1.82981   3
   1  -2  -2 28.2289 1.75863   4
   1  -2  -2 26.3396 1.63647   2
   1  -2  -2 32.1887 2.02486   4
  -1   2   2 25.2451 1.68737   4
  -1   2   2 27.0684 1.84938   4
  -1   2   2 29.2876 1.83815   3
  -1   2   2 26.8839 1.62617   2
   0  -2  -2 205.296 6.96710   3
   0  -2  -2 201.765 6.79932   2
   0  -2  -2 185.670 6.63096   4
   0  -2  -2 198.263 6.80072   4
   0   2   2 199.352 6.94840   3
   0   2   2 200.014 6.62400   4
   0   2   2 195.849 6.75352   4
   0   2   2 200.577 6.80569   2
  -1  -2  -2 3273.45 102.308   1
   1   2   2 3311.21 102.592   1
  -2  -2  -2 1985.13 59.8667   2
   2   2   2 1887.82 59.8220   2
  -3  -2  -2 2107.96 64.7669   4
  -3  -2  -2 2027.37 65.2191   3
  -3  -2  -2 2047.63 65.0302   2
  -3  -2  -2 2086.83 64.7205   4
   3   2   2 2126.51 64.7019   4
   3   2   2 2135.16 64.8113   4
   3   2   2 2171.42 65.1489   2
  -4  -2  -2 127.282 5.23149   2
  -4  -2  -2 127.794 5.52788   3
  -4  -2  -2 113.820 5.00026   4
   4   2   2 122.275 5.19295   4
   4   2   2 121.051 5.28602   2
   4   2   2 122.354 5.05182   4
  -5  -2  -2 1001.70 33.0527   2
  -5  -2  -2 1029.23 33.7104   3
  -5  -2  -2 1026.11 33.2735   4
  -5  -2  -2 1023.25 33.2506   4
   5   2   2 1041.93 33.3386   2
   5   2   2 1041.27 33.3815   4
   5   2   2 1037.16 33.0302   4
  -6  -2  -2 790.321 26.1577   4
  -6  -2  -2 712.928 25.8673   4
  -6  -2  -2 798.427 26.6831   3
   6   2   2 776.359 26.1841   4
   6   2   2 755.159 25.6989   4
   6   2   2 805.493 26.1310   2
  -7  -2  -2 13.2277 2.78805   2
  -7  -2  -2 18.3094 3.29102   4
   7   2   2 9.23364 3.00279   2
   7   2   2 5.52460 2.66548   4
  -6   3   2 55.3712 7.42428   3
  -6   3   2 64.6486 5.83713   2
   5  -3  -2 386.469 16.0971   4
   5  -3  -2 376.891 14.8664   3
   5  -3  -2 387.109 14.4960   2
   5  -3  -2 394.059 15.3610   4
  -5   3   2 403.632 15.8207   3
  -5   3   2 381.025 14.4152   2
  -5   3   2 384.024 15.9027   4
   4  -3  -2 205.012 9.59616   4
   4  -3  -2 208.744 9.74919   4
   4  -3  -2 224.269 9.11513   3
   4  -3  -2 223.591 8.58614   2
  -4   3   2 210.493 9.83871   4
  -4   3   2 200.697 8.55076   2
   3  -3  -2 79.2927 5.02871   4
   3  -3  -2 78.8872 4.38336   3
   3  -3  -2 77.6816 4.50332   4
   3  -3  -2 77.6609 3.97161   2
  -3   3   2 72.5082 4.83304   4
  -3   3   2 84.1018 4.85928   3
  -3   3   2 75.6387 4.03729   2
   2  -3  -2 1523.30 47.4750   3
   2  -3  -2 1544.49 47.0613   2
   2  -3  -2 1500.98 47.5296   4
   2  -3  -2 1525.46 47.9795   4
  -2   3   2 1419.38 47.0203   2
  -2   3   2 1500.16 47.8890   4
  -2   3   2 1494.35 47.6809   3
   1  -3  -2 2041.72 64.7518   2
   1  -3  -2 2069.79 65.1851   3
   1  -3  -2 2127.14 65.0891   4
   1  -3  -2 2153.09 65.4198   4
  -1   3   2 2040.68 65.2729   3
  -1   3   2 2092.75 64.8436   2
  -1   3   2 2129.52 65.3546   4
   0  -3  -2 656.060 21.5537   2
   0  -3  -2 706.394 21.8063   4
   0  -3  -2 693.512 21.9927   3
   0   3   2 679.919 22.0230   3
   0   3   2 628.210 21.5400   2
   0   3   2 685.579 21.7328   4
  -1  -3  -2 83.9407 3.36538   4
  -1  -3  -2 81.6196 3.54883   2
  -1  -3  -2 90.3460 4.02280   3
   1   3   2 83.5342 3.06336   4
   1   3   2 84.6565 3.36054   4
   1   3   2 85.8947 3.88755   3
  -2  -3  -2 64.9698 2.76035   4
  -2  -3  -2 62.0673 3.40986   3
  -2  -3  -2 65.1961 2.48209   4
  -2  -3  -2 63.5005 3.12532   2
   2   3   2 63.3260 2.57489   4
   2   3   2 63.9047 2.45622   4
   2   3   2 65.6774 3.22492   3
  -3  -3  -2 2414.56 77.9995   4
  -3  -3  -2 2548.30 78.6237   2
  -3  -3  -2 2564.60 78.9773   3
   3   3   2 2585.37 77.9795   4
   3   3   2 2546.98 78.6547   2
   3   3   2 2563.65 77.9657   4
  -4  -3  -2 968.205 31.5593   2
  -4  -3  -2 981.041 31.1266   4
  -4  -3  -2 1004.90 31.0287   4
  -4  -3  -2 1027.61 32.1428   3
  -4  -3  -2 979.341 31.7443   3
   4   3   2 995.632 31.1370   4
   4   3   2 868.591 32.2396   2
   4   3   2 1013.69 31.2190   4
  -5  -3  -2 211.843 8.74461   3
  -5  -3  -2 214.830 8.19377   4
  -5  -3  -2 219.359 8.14071   4
  -5  -3  -2 203.536 8.34452   2
   5   3   2 205.382 8.17974   4
   5   3   2 192.528 8.05313   4
   5   3   2 217.903 8.65160   2
  -6  -3  -2 34.2022 3.47774   2
  -6  -3  -2 31.9420 3.93888   3
  -6  -3  -2 24.8604 3.03426   4
  -6  -3  -2 24.8924 3.01030   4
   6   3   2 28.3127 3.31106   4
  -7  -3  -2 46.3620 5.39594   3
  -7  -3  -2 32.2500 4.42739   2
  -7  -3  -2 37.9385 4.05174   4
  -7  -3  -2 35.7950 4.31342   4
   7   3   2 48.8784 4.87549   4
   7   3   2 35.5019 5.04574   2
   5  -4  -2 -0.1316 2.31666   2
   5  -4  -2 -3.2618 3.34318   4
   5  -4  -2 1.92005 3.60315   4
  -5   4   2 -0.0913 3.76606   4
  -5   4   2 1.29593 3.63179   3
  -5   4   2 2.08171 2.37342   2
  -5   4   2 -0.3007 2.86024   4
   4  -4  -2 142.580 7.83551   4
   4  -4  -2 151.744 8.38411   4
   4  -4  -2 143.868 7.46386   3
  -4   4   2 139.152 8.17822   3
  -4   4   2 153.320 8.73752   4
  -4   4   2 160.324 7.97212   4
  -4   4   2 150.488 7.00953   2
   3  -4  -2 104.562 5.86117   4
   3  -4  -2 110.634 5.20411   2
   3  -4  -2 105.320 5.67336   3
   3  -4  -2 112.089 6.39371   4
  -3   4   2 107.783 6.29444   4
  -3   4   2 100.717 5.64186   4
  -3   4   2 108.766 5.33674   2
  -3   4   2 101.205 6.80714   3
   2  -4  -2 558.593 19.0200   3
   2  -4  -2 562.963 19.4218   4
   2  -4  -2 579.238 18.3844   2
   2  -4  -2 566.116 19.0240   4
  -2   4   2 552.175 18.4143   2
  -2   4   2 549.004 18.8304   4
  -2   4   2 460.952 21.4186   4
  -2   4   2 537.714 19.2275   3
   1  -4  -2 381.847 13.6262   4
   1  -4  -2 397.012 13.3035   2
   1  -4  -2 401.209 14.0376   4
   1  -4  -2 376.502 13.8537   3
  -1   4   2 395.781 13.3905   2
  -1   4   2 392.703 14.1254   3
  -1   4   2 383.849 13.4782   4
  -1   4   2 375.777 13.8903   4
   0  -4  -2 697.176 22.6014   3
   0  -4  -2 672.825 22.2235   4
   0  -4  -2 650.146 21.8809   2
   0   4   2 693.761 22.2805   4
   0   4   2 664.049 22.5870   3
  -1  -4  -2 2623.84 85.1914   3
  -1  -4  -2 2730.93 84.5774   4
  -1  -4  -2 2793.79 84.4097   4
  -1  -4  -2 2840.00 84.7320   2
   1   4   2 2683.69 85.2015   3
   1   4   2 2773.26 84.6074   4
  -2  -4  -2 194.276 7.42440   2
  -2  -4  -2 186.096 6.96134   4
  -2  -4  -2 191.141 6.66721   4
  -2  -4  -2 183.977 7.70431   3
   2   4   2 190.809 6.47433   4
   2   4   2 188.653 7.60897   3
   2   4   2 195.877 6.85601   4
  -3  -4  -2 1015.44 33.1837   3
  -3  -4  -2 1014.72 32.2092   4
  -3  -4  -2 1006.06 31.7088   4
  -3  -4  -2 988.035 32.6479   2
   3   4   2 1015.55 31.7728   4
   3   4   2 1052.47 31.9358   4
  -4  -4  -2 3.91644 0.83608   4
  -4  -4  -2 5.53351 1.89720   3
  -4  -4  -2 7.57647 1.28502   4
  -4  -4  -2 4.77722 1.39638   2
   4   4   2 5.47845 1.46754   2
   4   4   2 5.70703 1.13088   4
   4   4   2 6.34687 1.22382   4
  -5  -4  -2 241.910 10.0247   3
  -5  -4  -2 218.757 8.32431   4
  -5  -4  -2 227.398 9.20468   2
   5   4   2 221.702 8.62116   4
   5   4   2 223.864 9.33786   2
  -6  -4  -2 35.0271 3.83893   3
  -6  -4  -2 33.4447 3.67608   2
  -6  -4  -2 38.5115 3.41926   4
  -6  -4  -2 41.9404 4.89457   3
  -6  -4  -2 33.5066 3.16311   4
   6   4   2 35.9031 3.35386   4
  -7  -4  -2 8.26665 2.35227   4
  -7  -4  -2 7.93216 2.80216   3
  -7  -4  -2 2.85494 2.48440   2
  -7  -4  -2 6.86246 2.31431   4
   7   4   2 9.48333 2.63442   4
   4  -5  -2 765.425 27.2580   4
   4  -5  -2 768.376 25.8439   2
   4  -5  -2 798.936 28.7858   4
  -4   5   2 727.060 25.9518   2
  -4   5   2 787.618 27.1449   4
  -4   5   2 747.998 27.9343   4
  -4   5   2 756.756 27.8512   3
   3  -5  -2 67.7523 4.46713   2
   3  -5  -2 69.1787 5.48038   3
   3  -5  -2 65.4036 5.30999   4
   3  -5  -2 63.6436 5.49885   4
  -3   5   2 79.1203 6.07143   3
  -3   5   2 71.3910 4.59862   2
  -3   5   2 80.5634 6.03318   4
  -3   5   2 69.2227 4.91611   4
   2  -5  -2 917.974 30.3944   2
   2  -5  -2 969.152 31.5060   3
   2  -5  -2 950.637 31.7334   4
   2  -5  -2 896.966 31.1865   4
  -2   5   2 938.599 30.6299   2
  -2   5   2 982.531 31.1072   4
  -2   5   2 933.900 31.7668   4
  -2   5   2 904.132 32.7343   3
   1  -5  -2 578.304 20.5104   4
   1  -5  -2 618.141 21.0143   3
   1  -5  -2 599.025 20.8800   4
   1  -5  -2 621.478 20.0993   2
  -1   5   2 619.589 20.2347   2
  -1   5   2 592.448 20.2310   4
  -1   5   2 578.669 21.1156   3
  -1   5   2 592.564 20.9177   4
   0  -5  -2 718.167 23.8381   4
   0  -5  -2 723.976 24.2499   3
   0  -5  -2 725.985 23.4132   2
   0   5   2 690.336 24.2597   3
   0   5   2 700.841 23.8414   4
  -1  -5  -2 843.364 27.9553   3
  -1  -5  -2 812.793 27.1671   4
  -1  -5  -2 891.147 29.4639   2
  -1  -5  -2 796.023 26.9489   4
   1   5   2 845.870 28.0039   3
   1   5   2 848.490 26.5610   4
   1   5   2 817.591 27.2082   4
  -2  -5  -2 180.812 7.37016   2
  -2  -5  -2 177.116 7.00133   4
  -2  -5  -2 176.460 6.78997   4
  -2  -5  -2 171.175 7.76305   3
   2   5   2 167.931 7.57489   3
   2   5   2 182.312 6.94369   4
   2   5   2 183.586 6.35046   4
  -3  -5  -2 569.547 20.0984   3
  -3  -5  -2 586.955 19.1542   4
  -3  -5  -2 557.387 18.4958   4
  -3  -5  -2 576.493 19.5392   2
   3   5   2 559.947 19.7200   3
   3   5   2 565.719 18.3913   4
   3   5   2 578.415 18.7607   4
  -4  -5  -2 583.903 20.3203   3
  -4  -5  -2 553.811 18.4363   4
  -4  -5  -2 544.852 19.4990   2
  -4  -5  -2 573.979 19.0546   4
   4   5   2 586.992 18.7272   4
   4   5   2 558.038 18.5711   4
  -5  -5  -2 985.677 33.5108   2
  -5  -5  -2 1019.39 32.3674   4
  -5  -5  -2 1034.53 32.9005   4
   5   5   2 1029.19 32.7063   4
  -6  -5  -2 7.91898 3.17984   3
  -6  -5  -2 10.4350 2.59059   2
  -6  -5  -2 10.0800 1.97633   4
  -6  -5  -2 9.08871 2.68593   3
  -6  -5  -2 9.24969 1.71915   4
   6   5   2 11.6739 2.77688   4
   6   5   2 4.53168 2.55396   2
   6   5   2 7.30492 1.95237   4
  -7  -5  -2 347.826 14.1885   3
  -7  -5  -2 348.031 13.4109   4
  -7  -5  -2 343.769 13.9014   2
   7   5   2 341.380 13.2401   4
   3  -6  -2 51.8173 4.82979   2
   3  -6  -2 65.7293 6.73873   4
   3  -6  -2 59.6582 6.19030   4
  -3   6   2 61.0946 6.99909   3
  -3   6   2 61.9938 5.06478   2
  -3   6   2 60.4055 5.32311   4
  -3   6   2 51.7597 6.69096   4
   2  -6  -2 876.744 30.8819   3
   2  -6  -2 943.914 30.9871   4
   2  -6  -2 834.791 33.2282   4
  -2   6   2 894.635 31.3590   4
  -2   6   2 901.477 31.6270   3
  -2   6   2 962.842 30.4990   4
   1  -6  -2 22.9737 3.37118   4
   1  -6  -2 17.6457 3.03067   3
   1  -6  -2 27.4459 2.90055   2
   1  -6  -2 19.7008 3.10287   4
  -1   6   2 20.7085 3.56143   3
  -1   6   2 24.2068 2.78312   4
   0  -6  -2 662.420 22.2572   2
   0  -6  -2 659.821 22.8273   4
   0  -6  -2 662.463 23.3394   3
   0   6   2 666.766 22.0430   4
   0   6   2 665.915 22.9827   4
  -1  -6  -2 463.181 15.7420   4
  -1  -6  -2 457.655 15.6970   2
  -1  -6  -2 440.461 16.5524   3
  -1  -6  -2 432.079 15.7773   4
   1   6   2 446.758 15.9388   4
   1   6   2 417.313 16.4983   3
   1   6   2 459.379 15.0536   4
  -2  -6  -2 810.596 27.8147   2
  -2  -6  -2 844.347 28.1483   2
  -2  -6  -2 841.963 27.5340   4
  -2  -6  -2 843.014 27.8846   4
  -2  -6  -2 877.436 28.9803   3
   2   6   2 820.308 26.9208   4
   2   6   2 867.296 28.8426   3
   2   6   2 867.867 27.8439   4
  -3  -6  -2 476.279 16.1832   4
  -3  -6  -2 471.152 17.0792   2
  -3  -6  -2 468.750 16.6043   4
   3   6   2 479.961 15.6840   4
  -4  -6  -2 3.92600 1.51501   4
  -4  -6  -2 0.83504 0.94522   4
  -4  -6  -2 1.56805 1.58688   2
   4   6   2 1.11748 0.94058   4
  -5  -6  -2 336.778 12.5888   4
  -5  -6  -2 342.615 12.0211   4
  -5  -6  -2 340.694 13.3739   2
   5   6   2 342.546 12.2137   4
  -6  -6  -2 70.6354 4.74460   4
  -6  -6  -2 74.6309 5.54701   2
  -6  -6  -2 76.6970 4.26243   4
  -6  -6  -2 66.0130 5.44875   3
   6   6   2 68.4023 4.67037   4
  -7  -6  -2 194.972 9.81000   2
  -7  -6  -2 203.644 9.15160   4
  -7  -6  -2 203.613 10.0700   3
   2  -7  -2 86.4716 7.27590   4
   2  -7  -2 74.9975 5.61494   2
  -2   7   2 84.4110 6.09391   4
  -2   7   2 91.9576 7.96577   3
   1  -7  -2 249.946 11.0887   4
   1  -7  -2 249.858 10.3436   2
   1  -7  -2 261.996 11.4471   4
  -1   7   2 245.396 10.1807   4
  -1   7   2 254.803 12.2910   3
  -1   7   2 230.917 11.4189   4
   0  -7  -2 803.969 26.6716   4
   0  -7  -2 745.478 27.0015   3
   0  -7  -2 739.167 26.2433   4
   0   7   2 802.954 25.6554   4
   0   7   2 750.849 26.6423   4
   0   7   2 748.593 27.3482   3
  -1  -7  -2 28.8643 3.57355   2
  -1  -7  -2 24.0785 3.19608   4
  -1  -7  -2 23.5772 3.26613   4
  -1  -7  -2 25.9032 3.94947   3
   1   7   2 31.9960 4.24413   3
   1   7   2 24.2458 2.62089   4
   1   7   2 26.6451 3.69358   4
  -2  -7  -2 10.4614 2.23030   4
  -2  -7  -2 11.4877 2.35944   2
   2   7   2 14.9166 2.40280   4
   2   7   2 9.69566 1.41205   4
   2   7   2 12.4848 2.97128   3
  -3  -7  -2 353.738 12.8778   4
  -3  -7  -2 336.755 13.0204   2
  -3  -7  -2 317.783 12.0979   4
   3   7   2 318.730 13.4156   3
   3   7   2 326.408 11.5314   4
  -4  -7  -2 6.60737 1.98368   4
  -4  -7  -2 2.37598 1.48314   4
  -4  -7  -2 5.06620 2.27946   2
   4   7   2 2.53391 1.25223   4
  -5  -7  -2 9.53212 1.87855   4
  -5  -7  -2 9.04670 2.21275   4
  -5  -7  -2 7.30348 2.54253   2
   5   7   2 7.96427 1.93765   4
  -6  -7  -2 43.9123 5.30095   2
  -6  -7  -2 41.9137 4.27523   4
   6   7   2 40.2267 4.16315   4
   1  -8  -2 17.4759 4.12487   4
  -1   8   2 11.0036 4.91049   3
   0  -8  -2 9.24310 3.20329   2
   0  -8  -2 7.21713 2.89229   2
   0  -8  -2 4.78151 2.90122   4
   0   8   2 9.65591 3.88316   3
  -1  -8  -2 91.6643 6.08836   2
  -1  -8  -2 100.693 6.43013   2
  -1  -8  -2 89.2363 6.21795   4
   1   8   2 89.9538 5.00539   4
   1   8   2 99.4965 7.65966   3
  -2  -8  -2 720.868 23.9318   4
  -2  -8  -2 684.271 23.7591   2
  -2  -8  -2 622.762 23.2162   2
  -2  -8  -2 663.070 23.3486   4
   2   8   2 658.404 24.7873   3
   2   8   2 668.697 22.2357   4
  -3  -8  -2 382.513 14.8341   4
  -3  -8  -2 396.012 15.5444   4
  -3  -8  -2 417.413 15.8352   2
   3   8   2 404.715 14.0805   4
   3   8   2 416.688 16.5053   3
  -4  -8  -2 13.4197 2.74538   4
  -4  -8  -2 27.6916 3.84593   2
  -4  -8  -2 15.8482 2.88206   4
   4   8   2 20.6560 3.86114   3
   4   8   2 20.4762 2.92873   4
  -5  -8  -2 11.5372 2.92562   2
  -5  -8  -2 6.00416 2.66433   4
   5   8   2 9.80071 2.21042   4
  -6  -8  -2 375.527 16.0348   4
  -1  -9  -2 54.4234 6.32561   2
  -1  -9  -2 58.1225 6.59365   4
  -2  -9  -2 119.308 7.70457   4
  -2  -9  -2 107.447 7.54587   2
   2   9   2 104.887 9.06599   3
  -3  -9  -2 92.3121 7.02280   4
  -3  -9  -2 87.2280 7.01468   2
   3   9   2 98.3813 8.07996   3
  -4  -9  -2 353.710 15.1179   4
  -4  -9  -2 374.711 15.4598   2
   4   9   2 375.750 21.2792   3
   3   8  -3 3.20653 4.27615   3
  -3  -8   3 10.0242 4.19707   4
  -3  -8   3 7.17799 3.07569   2
   2   8  -3 28.2392 5.21056   3
  -2  -8   3 48.5964 7.02728   4
  -2  -8   3 39.1738 5.14163   2
  -2  -8   3 27.0324 3.57829   2
  -5  -7   3 720.384 25.1340   4
  -5  -7   3 644.167 23.9885   2
   4   7  -3 160.842 8.98267   3
   4   7  -3 163.813 7.99579   4
  -4  -7   3 147.131 7.70821   4
  -4  -7   3 172.009 9.25376   4
  -4  -7   3 157.847 8.04964   2
   3   7  -3 32.4702 3.56814   4
   3   7  -3 27.8794 4.22685   3
   3   7  -3 29.9299 4.29361   4
  -3  -7   3 38.6960 5.16264   4
  -3  -7   3 38.2846 5.45620   3
  -3  -7   3 32.0952 4.11036   2
  -3  -7   3 30.3363 4.19407   4
   2   7  -3 616.727 23.7299   4
   2   7  -3 658.531 24.2694   3
   2   7  -3 683.172 22.3749   4
  -2  -7   3 645.167 22.3131   2
  -2  -7   3 658.238 23.9240   4
  -2  -7   3 638.760 23.1662   4
   1   7  -3 7.42982 3.81039   3
   1   7  -3 11.1179 3.73414   4
   1   7  -3 5.79420 1.90823   4
  -1  -7   3 7.94851 3.03549   4
  -1  -7   3 5.47040 2.78800   4
  -1  -7   3 7.28653 2.17301   2
   0   7  -3 467.459 19.8226   3
   0   7  -3 469.520 19.8228   4
   0   7  -3 519.461 17.8260   4
   0  -7   3 486.642 19.2197   4
   0  -7   3 471.387 18.9156   4
   0  -7   3 482.977 16.9918   2
   0  -7   3 499.559 16.8734   2
  -1   7  -3 8.80633 3.09762   4
  -1   7  -3 1.42486 4.50702   3
  -1   7  -3 2.80167 5.19084   4
   1  -7   3 2.90388 4.02417   4
   1  -7   3 7.99508 2.36045   2
   1  -7   3 2.50420 3.86901   4
  -6  -6   3 22.1862 3.60243   4
  -6  -6   3 22.3531 3.44428   2
   5   6  -3 87.5193 6.75086   4
   5   6  -3 104.483 6.11354   4
  -5  -6   3 90.7184 5.42413   4
  -5  -6   3 90.7727 6.41108   4
  -5  -6   3 96.7205 7.39468   3
  -5  -6   3 81.9395 5.76861   2
   4   6  -3 368.338 15.1625   2
   4   6  -3 409.220 14.8098   4
   4   6  -3 397.429 15.6058   4
   4   6  -3 396.933 15.4332   3
  -4  -6   3 413.733 15.7181   4
  -4  -6   3 409.805 14.9548   2
  -4  -6   3 396.247 14.5960   4
   3   6  -3 232.752 10.4477   3
   3   6  -3 228.723 10.3638   4
   3   6  -3 247.145 9.42022   4
  -3  -6   3 240.607 10.5482   4
  -3  -6   3 236.741 9.62255   2
  -3  -6   3 223.254 9.54022   4
   2   6  -3 740.169 26.6439   4
   2   6  -3 814.601 25.6027   4
   2   6  -3 758.938 26.9730   3
  -2  -6   3 776.333 25.5730   2
  -2  -6   3 747.590 26.0004   4
  -2  -6   3 769.198 26.8028   4
   1   6  -3 168.551 8.70514   4
   1   6  -3 179.393 7.39877   4
   1   6  -3 175.980 9.16058   3
  -1  -6   3 161.657 7.97385   4
  -1  -6   3 166.143 7.09540   2
  -1  -6   3 171.143 7.18465   2
  -1  -6   3 170.756 8.53682   4
   0   6  -3 483.815 19.1889   3
   0   6  -3 489.751 19.0593   4
   0   6  -3 528.858 17.6486   4
   0  -6   3 502.228 18.7617   3
   0  -6   3 494.999 16.9212   2
   0  -6   3 492.996 18.6325   4
   0  -6   3 499.987 16.8075   2
   0  -6   3 477.122 18.3364   4
  -1   6  -3 64.7224 4.77498   4
  -1   6  -3 54.2786 6.54185   4
  -1   6  -3 64.5246 6.81647   3
   1  -6   3 62.9444 3.89598   2
   1  -6   3 66.1956 5.81821   4
  -2   6  -3 261.666 11.3033   4
  -2   6  -3 257.725 13.3608   3
  -2   6  -3 255.791 13.4867   4
   2  -6   3 262.920 12.3458   4
   2  -6   3 251.602 12.2908   4
   2  -6   3 268.337 9.75663   2
  -7  -5   3 304.576 16.1433   2
  -7  -5   3 262.591 12.0844   3
  -7  -5   3 270.538 12.7205   4
   6   5  -3 69.9702 6.10594   4
  -6  -5   3 72.4984 5.46376   2
  -6  -5   3 71.1830 6.92525   3
  -6  -5   3 71.1739 4.80264   4
  -6  -5   3 66.3514 5.29848   3
  -6  -5   3 76.3067 5.95144   4
   5   5  -3 560.071 20.8538   2
   5   5  -3 593.119 20.6097   4
   5   5  -3 569.015 21.0148   4
  -5  -5   3 568.214 19.8758   4
  -5  -5   3 584.067 20.4717   2
  -5  -5   3 608.572 20.9781   4
   4   5  -3 504.120 18.6236   4
   4   5  -3 529.028 18.0771   4
   4   5  -3 508.750 18.3948   2
  -4  -5   3 544.358 18.8045   4
  -4  -5   3 497.196 17.6292   4
  -4  -5   3 516.728 18.7403   3
  -4  -5   3 493.654 17.9745   2
   3   5  -3 247.891 9.23518   4
   3   5  -3 228.514 9.90630   3
   3   5  -3 235.701 10.0117   4
   3   5  -3 241.767 9.68927   2
  -3  -5   3 247.425 10.1136   3
  -3  -5   3 226.706 9.23238   2
  -3  -5   3 230.839 9.98280   4
  -3  -5   3 237.030 9.21409   4
   2   5  -3 411.480 16.0459   3
   2   5  -3 453.864 15.1194   4
   2   5  -3 433.304 15.9975   4
  -2  -5   3 449.987 15.1867   2
  -2  -5   3 429.273 16.0680   4
  -2  -5   3 452.855 16.0936   3
  -2  -5   3 416.931 15.3050   4
   1   5  -3 443.437 16.5183   3
   1   5  -3 398.595 17.9150   4
   1   5  -3 447.940 15.1652   4
  -1  -5   3 449.978 14.9832   2
  -1  -5   3 442.603 16.1494   4
  -1  -5   3 458.508 16.2233   3
  -1  -5   3 412.997 15.5244   4
   0   5  -3 1118.45 35.8418   4
   0  -5   3 1155.32 36.8826   3
   0  -5   3 1084.83 36.4875   4
   0  -5   3 1082.03 35.1110   2
   0  -5   3 1123.99 35.3082   2
   0  -5   3 1107.18 36.7652   4
  -1   5  -3 6.79789 2.70274   3
  -1   5  -3 -0.8145 3.42007   4
   1  -5   3 4.72620 1.07824   2
   1  -5   3 3.88956 2.01277   4
   1  -5   3 4.63645 1.26621   2
   1  -5   3 1.90205 1.73168   4
  -2   5  -3 433.604 17.1840   3
  -2   5  -3 405.888 16.8417   4
  -2   5  -3 388.840 15.3002   4
   2  -5   3 415.293 16.1420   4
   2  -5   3 423.045 16.2861   3
   2  -5   3 422.799 16.2271   4
   2  -5   3 423.099 13.8616   2
   2  -5   3 423.661 14.1445   2
  -3   5  -3 24.0197 4.53773   3
  -3   5  -3 23.3775 3.40754   4
  -3   5  -3 30.4056 4.97691   4
   3  -5   3 20.5685 3.90277   4
   3  -5   3 17.8367 2.32935   2
   3  -5   3 17.0730 3.85471   4
  -7  -4   3 580.934 20.7745   3
  -7  -4   3 582.116 21.4687   4
  -7  -4   3 553.581 20.7620   2
   6   4  -3 89.4824 6.70646   4
   6   4  -3 95.9669 6.42996   4
  -6  -4   3 86.1717 5.52376   3
  -6  -4   3 96.3611 6.11736   4
  -6  -4   3 95.5588 5.87512   2
  -6  -4   3 82.7478 5.00809   4
   5   4  -3 149.742 7.97358   4
   5   4  -3 173.248 7.82815   4
   5   4  -3 163.458 8.03072   2
  -5  -4   3 168.340 7.51533   2
  -5  -4   3 164.093 6.94755   4
  -5  -4   3 165.477 7.79141   4
  -5  -4   3 165.077 8.05321   3
   4   4  -3 149.268 6.76848   4
   4   4  -3 154.967 7.08782   2
   4   4  -3 155.260 7.41883   4
  -4  -4   3 151.533 6.34375   4
  -4  -4   3 141.556 7.01404   3
  -4  -4   3 161.329 7.20463   4
  -4  -4   3 143.395 6.63823   2
   3   4  -3 1432.18 45.3932   4
   3   4  -3 1433.63 45.7758   3
   3   4  -3 1460.04 45.7120   2
  -3  -4   3 1454.74 45.4711   2
  -3  -4   3 1385.72 45.1679   4
  -3  -4   3 1432.11 46.1133   4
   2   4  -3 32.5445 3.04747   4
   2   4  -3 31.2991 2.25683   4
   2   4  -3 33.9853 2.70167   2
   2   4  -3 30.2900 3.01189   3
  -2  -4   3 27.6024 2.93907   4
  -2  -4   3 28.7609 2.34519   2
  -2  -4   3 26.6130 2.32501   4
  -2  -4   3 33.0087 2.98004   3
   1   4  -3 14.5260 2.28038   3
   1   4  -3 17.1867 1.74381   4
   1   4  -3 17.6676 2.45575   4
  -1  -4   3 15.3456 1.73004   2
  -1  -4   3 18.3374 2.40091   4
  -1  -4   3 16.6556 1.98223   4
   0   4  -3 10.5646 1.98146   4
   0   4  -3 8.41491 2.10826   3
   0   4  -3 8.91527 1.44324   4
   0  -4   3 8.10287 1.18598   2
   0  -4   3 11.8966 2.03859   3
   0  -4   3 7.82846 1.09389   2
   0  -4   3 5.62370 1.36176   4
   0  -4   3 6.58629 1.41255   4
  -1   4  -3 272.869 11.5132   3
  -1   4  -3 285.207 11.5499   4
  -1   4  -3 288.722 10.5794   4
   1  -4   3 277.263 9.48809   2
   1  -4   3 270.114 10.9907   3
   1  -4   3 286.240 9.65556   2
   1  -4   3 289.201 11.0630   4
   1  -4   3 282.468 11.1133   4
  -2   4  -3 260.819 11.7597   3
  -2   4  -3 277.781 11.9152   4
  -2   4  -3 282.787 10.9217   4
   2  -4   3 288.906 11.4546   4
   2  -4   3 277.877 11.3182   4
   2  -4   3 292.963 9.49801   2
  -3   4  -3 34.5837 3.78171   4
  -3   4  -3 27.9704 4.16874   4
  -3   4  -3 26.8565 4.13296   3
   3  -4   3 32.6800 2.19940   2
   3  -4   3 30.7663 4.20036   4
   3  -4   3 30.9076 4.11481   4
  -4   4  -3 79.6911 7.28839   3
  -4   4  -3 82.0864 6.01309   4
   4  -4   3 72.5236 6.69169   4
   4  -4   3 68.8711 3.81817   2
   4  -4   3 76.8073 6.42998   4
  -7  -3   3 166.666 8.42780   2
  -7  -3   3 176.433 8.66465   3
  -7  -3   3 164.722 9.32285   4
  -7  -3   3 159.356 9.46419   3
   6   3  -3 123.951 7.46570   2
   6   3  -3 127.910 7.43402   4
   6   3  -3 134.670 7.54935   4
  -6  -3   3 126.789 7.19600   3
  -6  -3   3 134.677 7.08041   4
  -6  -3   3 132.626 6.55644   3
  -6  -3   3 128.219 6.57200   2
  -6  -3   3 127.557 6.28262   4
   5   3  -3 1044.29 35.4473   4
   5   3  -3 1068.08 35.3411   4
  -5  -3   3 1013.97 34.3747   4
  -5  -3   3 1087.16 35.2266   4
  -5  -3   3 1076.38 34.8559   2
  -5  -3   3 1066.85 34.5605   3
  -5  -3   3 1117.47 35.1547   3
   4   3  -3 35.4468 3.48029   4
   4   3  -3 32.6546 3.15868   2
   4   3  -3 34.6704 2.97662   4
  -4  -3   3 36.2358 2.54854   4
  -4  -3   3 36.6283 3.12786   4
  -4  -3   3 39.9044 2.93972   2
  -4  -3   3 40.2945 3.29196   3
   3   3  -3 261.103 11.1868   2
   3   3  -3 289.198 10.4299   4
   3   3  -3 290.838 10.9934   4
  -3  -3   3 288.522 10.3730   2
  -3  -3   3 281.152 10.7653   4
  -3  -3   3 296.908 10.1596   4
  -3  -3   3 300.299 10.6771   3
   2   3  -3 1619.12 50.3408   2
   2   3  -3 1583.38 50.5539   3
   2   3  -3 1617.19 50.8712   4
   2   3  -3 1602.47 50.1880   4
  -2  -3   3 1582.58 50.1261   4
  -2  -3   3 1666.56 50.9733   4
  -2  -3   3 1648.29 50.6368   3
  -2  -3   3 1538.70 50.1307   2
   1   3  -3 903.986 30.7987   3
   1   3  -3 946.416 30.1605   2
   1   3  -3 903.678 30.1660   4
   1   3  -3 970.161 30.9249   4
  -1  -3   3 1009.34 30.8282   3
  -1  -3   3 981.478 30.0885   2
  -1  -3   3 917.559 30.3379   4
  -1  -3   3 999.915 31.0349   4
   0   3  -3 900.630 30.4019   4
   0   3  -3 915.870 29.7578   4
   0   3  -3 913.842 30.5041   3
   0  -3   3 916.626 30.0458   4
   0  -3   3 1004.98 30.4076   3
   0  -3   3 958.645 30.4007   4
   0  -3   3 937.820 29.2632   2
  -1   3  -3 13.9223 1.73576   4
  -1   3  -3 14.4194 2.33495   3
  -1   3  -3 13.3466 2.14998   4
   1  -3   3 15.0666 1.98231   4
   1  -3   3 12.4072 1.84175   4
   1  -3   3 15.4577 1.24179   2
   1  -3   3 13.9855 1.09503   2
  -2   3  -3 39.1751 3.52595   4
  -2   3  -3 36.5294 2.92268   4
  -2   3  -3 42.0691 3.83446   3
   2  -3   3 39.6814 1.91144   2
   2  -3   3 40.4154 3.30717   4
   2  -3   3 41.1023 3.30018   3
  -3   3  -3 604.843 22.4135   4
  -3   3  -3 632.695 21.6517   4
  -3   3  -3 607.540 22.4823   3
   3  -3   3 633.897 20.0216   2
   3  -3   3 660.419 21.9884   4
   3  -3   3 639.252 22.0398   4
  -4   3  -3 262.827 12.2259   4
  -4   3  -3 295.635 11.5734   4
  -4   3  -3 275.594 12.5215   3
  -4   3  -3 282.222 9.69714   2
   4  -3   3 287.152 11.6802   4
   4  -3   3 278.052 9.66743   2
   4  -3   3 248.343 13.1477   3
   4  -3   3 281.449 11.7769   4
  -5   3  -3 7.20837 3.74460   3
  -5   3  -3 9.10657 3.23548   4
  -5   3  -3 9.68343 1.88824   2
   5  -3   3 2.75368 4.92499   4
   7   2  -3 259.026 12.7880   4
  -7  -2   3 248.987 11.0232   2
  -7  -2   3 259.832 12.0295   4
  -7  -2   3 269.732 11.3878   3
  -7  -2   3 255.410 11.8139   3
   6   2  -3 251.201 11.0789   4
   6   2  -3 254.214 11.1284   2
   6   2  -3 257.524 11.3317   4
  -6  -2   3 261.684 10.4854   4
  -6  -2   3 274.043 10.6768   2
  -6  -2   3 274.154 10.8767   3
  -6  -2   3 227.736 12.2878   3
   5   2  -3 13.2903 2.27605   4
   5   2  -3 9.67305 1.84824   4
  -5  -2   3 8.33205 1.49216   4
  -5  -2   3 16.5145 2.30241   3
  -5  -2   3 16.0256 2.36020   3
  -5  -2   3 9.39191 1.81094   4
   4   2  -3 381.036 13.7845   4
   4   2  -3 387.242 13.6474   2
   4   2  -3 380.654 13.8740   4
  -4  -2   3 394.827 13.3914   3
  -4  -2   3 370.952 13.1541   4
  -4  -2   3 364.632 13.2600   2
  -4  -2   3 371.770 13.5987   4
  -4  -2   3 375.513 13.0418   3
   3   2  -3 1982.35 62.3246   2
   3   2  -3 2065.55 62.7711   4
   3   2  -3 2017.99 62.3595   4
  -3  -2   3 1956.76 61.9221   4
  -3  -2   3 2002.51 62.4717   4
  -3  -2   3 1976.59 62.1094   2
  -3  -2   3 1967.58 62.0990   3
   2   2  -3 156.250 5.96672   4
   2   2  -3 161.335 6.49130   4
   2   2  -3 162.842 5.96886   3
   2   2  -3 161.199 6.07323   2
  -2  -2   3 160.799 6.06566   3
  -2  -2   3 143.782 5.81965   2
  -2  -2   3 160.598 5.83395   4
  -2  -2   3 153.522 6.30406   4
   1   2  -3 820.433 26.7908   3
   1   2  -3 835.115 26.4358   2
   1   2  -3 840.934 26.4891   4
   1   2  -3 843.889 27.0507   4
  -1  -2   3 842.292 27.0750   4
  -1  -2   3 882.484 26.7691   3
  -1  -2   3 813.157 26.3207   2
  -1  -2   3 838.562 26.5212   4
   0   2  -3 382.636 12.5198   4
   0   2  -3 392.897 13.0476   4
   0   2  -3 370.639 12.9281   3
   0  -2   3 371.866 12.9263   4
   0  -2   3 392.470 12.7068   4
   0  -2   3 380.690 12.0383   2
   0  -2   3 353.868 12.7284   3
  -1   2  -3 1605.85 50.1798   3
  -1   2  -3 1597.44 50.1465   4
  -1   2  -3 1526.60 49.5728   4
   1  -2   3 1605.44 49.9308   3
   1  -2   3 1619.81 49.8494   4
   1  -2   3 1601.76 49.9541   4
   1  -2   3 1575.40 48.6948   2
  -2   2  -3 604.171 20.2872   3
  -2   2  -3 605.446 20.3204   4
  -2   2  -3 598.266 19.7167   4
   2  -2   3 607.726 20.0136   4
   2  -2   3 578.396 19.7978   4
   2  -2   3 585.512 20.7126   3
   2  -2   3 571.240 18.4505   2
  -3   2  -3 700.699 24.0754   3
  -3   2  -3 679.898 24.0236   4
  -3   2  -3 721.871 22.1001   2
  -3   2  -3 716.916 23.5059   4
   3  -2   3 719.877 23.7981   4
   3  -2   3 696.082 23.5867   3
   3  -2   3 688.213 22.0617   2
   3  -2   3 684.928 23.4632   4
  -4   2  -3 0.66891 1.25627   4
  -4   2  -3 0.98699 1.90887   4
  -4   2  -3 2.46695 2.08522   3
  -4   2  -3 1.18590 0.96048   2
   4  -2   3 2.86532 2.04453   4
   4  -2   3 -1.8881 1.47803   4
   4  -2   3 1.78840 0.94314   2
  -5   2  -3 90.6970 4.36307   2
  -5   2  -3 85.8288 6.56192   4
  -5   2  -3 95.8580 6.03357   4
  -5   2  -3 89.5151 7.09729   3
   5  -2   3 87.6432 5.98931   4
   5  -2   3 84.9256 6.26808   4
   5  -2   3 84.8106 4.55062   2
  -6   2  -3 935.264 33.7242   3
  -6   2  -3 944.971 30.4313   2
  -6   2  -3 935.512 32.5589   4
   7   1  -3 85.7548 8.10975   4
  -7  -1   3 88.1625 6.22060   2
  -7  -1   3 102.612 7.44178   4
  -7  -1   3 87.6791 6.75616   3
   6   1  -3 5.36497 2.41157   4
   6   1  -3 2.73395 2.62283   2
   6   1  -3 2.71973 2.30398   4
  -6  -1   3 6.83355 2.11030   4
  -6  -1   3 7.76256 2.40458   4
  -6  -1   3 3.39564 1.90249   2
  -6  -1   3 6.93377 2.29007   3
   5   1  -3 958.567 32.8608   4
   5   1  -3 1013.27 32.5777   4
   5   1  -3 956.504 32.2900   2
  -5  -1   3 967.235 32.1689   4
  -5  -1   3 986.371 32.5441   4
  -5  -1   3 1009.46 31.8726   3
  -5  -1   3 975.419 32.1635   2
   4   1  -3 972.978 32.6543   4
   4   1  -3 1017.31 32.5259   4
   4   1  -3 1001.54 32.3164   2
  -4  -1   3 987.964 31.7686   3
  -4  -1   3 999.150 32.1714   4
  -4  -1   3 1023.49 32.5040   4
  -4  -1   3 972.615 32.0244   2
   3   1  -3 25.2701 2.10303   2
   3   1  -3 23.9434 2.16678   4
   3   1  -3 20.1909 1.99978   4
  -3  -1   3 23.6726 1.85114   4
  -3  -1   3 21.7337 2.04866   4
  -3  -1   3 22.0519 1.78742   2
  -3  -1   3 24.7359 1.71446   3
   2   1  -3 739.874 23.5646   4
   2   1  -3 694.296 23.7242   4
   2   1  -3 733.803 23.4846   2
  -2  -1   3 732.201 23.3638   2
  -2  -1   3 736.745 23.3181   4
  -2  -1   3 767.674 23.7191   4
  -2  -1   3 737.259 23.1717   3
   1   1  -3 2271.22 70.7087   2
   1   1  -3 2292.81 71.2081   4
   1   1  -3 2254.63 70.6320   3
  -1  -1   3 2428.13 71.2111   4
  -1  -1   3 2269.73 70.6320   3
   0   1  -3 21.1613 1.23309   4
   0   1  -3 18.4238 1.46739   4
   0   1  -3 19.8010 1.44521   3
   0  -1   3 19.7471 1.27465   4
   0  -1   3 20.5709 0.97098   2
   0  -1   3 21.8335 1.35185   3
  -1   1  -3 230.409 8.42813   3
  -1   1  -3 244.009 8.18168   4
  -1   1  -3 242.628 8.49728   4
   1  -1   3 244.821 8.38416   3
   1  -1   3 226.169 8.21175   4
  -2   1  -3 159.771 4.96877   2
  -2   1  -3 149.242 6.22394   4
  -2   1  -3 143.853 6.21022   3
  -2   1  -3 153.206 5.91627   4
   2  -1   3 151.958 5.91470   4
   2  -1   3 150.147 4.98124   2
   2  -1   3 151.140 6.03565   3
  -3   1  -3 364.609 11.6246   2
  -3   1  -3 364.305 12.7178   4
  -3   1  -3 341.867 13.0502   4
  -3   1  -3 352.197 13.0894   3
   3  -1   3 371.938 11.7185   2
   3  -1   3 361.221 12.8722   3
  -4   1  -3 374.816 12.2765   2
  -4   1  -3 362.307 14.1799   3
  -4   1  -3 365.122 14.0105   4
  -4   1  -3 370.308 13.4560   4
   4  -1   3 369.506 13.3412   4
   4  -1   3 369.595 12.3849   2
  -5   1  -3 21.8501 3.09151   4
  -5   1  -3 16.9286 2.23222   2
  -5   1  -3 20.3543 3.65047   3
  -5   1  -3 25.3057 3.56986   4
   5  -1   3 17.9225 2.41874   2
   5  -1   3 21.9200 2.79001   4
  -6   1  -3 109.329 7.95319   3
  -6   1  -3 98.9830 6.67868   4
  -6   1  -3 97.2854 5.10702   2
   6  -1   3 95.9652 5.46292   2
  -7   0   3 135.504 7.48526   2
  -7   0   3 123.651 8.18287   3
  -7   0   3 130.181 8.89797   4
   6   0  -3 438.962 17.1804   2
   6   0  -3 473.355 17.5918   4
   6   0  -3 485.489 18.3601   4
  -6   0   3 464.833 17.1291   3
  -6   0   3 453.841 16.8823   2
  -6   0   3 490.399 17.8674   4
  -6   0   3 457.785 17.4016   4
   5   0  -3 62.0360 4.87458   4
   5   0  -3 67.2743 4.32481   2
   5   0  -3 73.2951 4.70321   4
  -5   0   3 67.2596 4.51053   4
  -5   0   3 65.2750 4.16418   2
  -5   0   3 68.3473 4.22885   3
  -5   0   3 62.8514 4.42917   4
   4   0  -3 5.02314 1.49078   4
   4   0  -3 2.81708 1.33112   4
   4   0  -3 3.90445 1.36912   2
  -4   0   3 4.03409 1.05941   4
  -4   0   3 3.44094 1.23635   3
  -4   0   3 3.86398 1.19895   2
  -4   0   3 2.17020 1.07923   4
   3   0  -3 1012.85 32.8003   4
   3   0  -3 1004.30 32.4637   4
   3   0  -3 1039.16 32.3412   2
  -3   0   3 996.229 32.2022   2
  -3   0   3 1021.78 32.5530   4
  -3   0   3 1011.46 32.4288   4
  -3   0   3 1011.78 31.9058   3
   2   0  -3 153.655 6.06125   4
   2   0  -3 157.272 5.99631   4
   2   0  -3 150.313 5.80676   2
  -2   0   3 157.909 5.79783   2
  -2   0   3 160.975 6.00985   4
  -2   0   3 159.240 5.41703   3
  -2   0   3 163.545 5.91073   4
   0   0  -3 92.6047 3.31440   3
   0   0  -3 96.6127 3.61740   4
   0   0  -3 91.8033 3.24100   2
   0   0  -3 94.9642 3.33135   4
   0   0   3 95.7457 3.26453   2
   0   0   3 93.5396 3.22957   3
   0   0   3 98.9326 3.57517   4
   0   0   3 96.2510 3.33346   4
  -1   0  -3 4081.19 120.856   1
   1   0   3 3528.79 120.300   1
  -2   0  -3 93.6823 3.80996   4
  -2   0  -3 95.0612 3.32871   2
  -2   0  -3 92.5662 4.10762   3
  -2   0  -3 96.4296 4.07858   4
   2   0   3 104.991 3.87429   4
   2   0   3 94.5536 4.04499   3
   2   0   3 94.6917 3.37127   2
   2   0   3 94.0454 3.87086   4
  -3   0  -3 355.189 12.4397   4
  -3   0  -3 342.612 11.3923   2
  -3   0  -3 343.173 12.4752   3
   3   0   3 355.264 11.5311   2
   3   0   3 358.083 12.1926   4
   3   0   3 375.511 12.4829   3
   3   0   3 331.531 11.9072   4
  -4   0  -3 0.49192 1.06317   4
  -4   0  -3 1.45726 1.44361   3
  -4   0  -3 0.16975 0.77202   2
  -4   0  -3 1.63669 0.96009   4
   4   0   3 2.13239 1.01816   4
   4   0   3 0.31751 1.02507   4
   4   0   3 1.50157 1.22749   3
   4   0   3 -0.7294 0.79027   2
  -5   0  -3 1372.68 43.8885   4
  -5   0  -3 1389.48 44.0710   3
  -5   0  -3 1310.13 43.3087   4
  -5   0  -3 1339.60 42.3019   2
   5   0   3 1289.92 42.9333   4
   5   0   3 1396.98 42.5568   2
   5   0   3 1310.96 43.3806   4
  -6   0  -3 213.975 10.6694   3
  -6   0  -3 214.087 10.1197   4
  -6   0  -3 221.748 8.64304   2
   6   0   3 233.141 9.57448   2
   6   0   3 213.863 9.79450   4
  -7   0  -3 18.1912 5.40025   3
  -7   0  -3 21.8886 3.07090   2
   6  -1  -3 257.694 12.2080   4
   6  -1  -3 278.689 12.8190   2
   6  -1  -3 241.835 11.1862   4
   6  -1  -3 254.188 10.7154   3
  -6   1   3 268.789 11.3862   3
  -6   1   3 254.151 11.8531   4
  -6   1   3 264.517 10.8443   2
  -6   1   3 237.864 11.3213   4
   5  -1  -3 -0.2672 1.61649   3
   5  -1  -3 1.61677 1.78915   4
   5  -1  -3 -0.8708 1.32871   4
   5  -1  -3 1.55714 2.51384   2
  -5   1   3 -1.6484 1.88413   4
  -5   1   3 -1.0116 1.61747   3
  -5   1   3 0.50772 1.60137   4
  -5   1   3 1.93550 1.58528   2
   4  -1  -3 1822.64 55.9525   2
   4  -1  -3 1838.86 57.0019   4
   4  -1  -3 1808.33 56.2647   4
   4  -1  -3 1817.12 55.6425   3
  -4   1   3 1735.03 56.3407   4
  -4   1   3 1691.37 55.7729   2
  -4   1   3 1744.46 56.3657   4
  -4   1   3 1738.27 55.8606   3
   3  -1  -3 161.233 6.64202   4
   3  -1  -3 166.773 7.12416   4
   3  -1  -3 164.685 6.18036   3
  -3   1   3 162.406 6.78558   4
  -3   1   3 164.438 6.75758   4
  -3   1   3 164.343 6.35450   3
  -3   1   3 162.655 6.44454   2
   2  -1  -3 149.087 6.11928   4
   2  -1  -3 144.762 5.80801   4
   2  -1  -3 150.307 5.37154   3
   2  -1  -3 153.373 5.72872   2
  -2   1   3 155.448 5.95579   4
  -2   1   3 153.728 5.93173   4
  -2   1   3 149.212 5.49124   3
  -2   1   3 154.755 5.75709   2
   1  -1  -3 540.732 17.0055   2
   1  -1  -3 525.556 16.5650   3
   1  -1  -3 532.247 17.1819   4
   1  -1  -3 543.158 17.0510   4
  -1   1   3 524.690 17.0001   2
  -1   1   3 520.361 16.9977   4
  -1   1   3 537.293 16.6410   3
   0  -1  -3 1454.18 46.6942   4
   0  -1  -3 1557.81 46.8127   2
   0  -1  -3 1529.57 46.5868   3
   0   1   3 1516.59 46.6355   4
   0   1   3 1551.12 46.8410   2
  -1  -1  -3 3527.36 108.892   1
   1   1   3 3511.88 108.716   1
  -2  -1  -3 24.7452 1.31286   4
  -2  -1  -3 27.5074 1.44870   2
  -2  -1  -3 25.1286 1.51207   4
  -2  -1  -3 24.5050 1.67458   3
   2   1   3 24.2019 1.66479   3
   2   1   3 24.9935 1.28054   4
   2   1   3 23.2530 1.39909   2
   2   1   3 24.9674 1.21948   4
  -3  -1  -3 298.339 10.2845   4
  -3  -1  -3 310.261 10.5842   4
  -3  -1  -3 301.135 10.1505   2
  -3  -1  -3 310.337 10.8053   3
   3   1   3 309.245 10.2401   2
   3   1   3 291.700 10.6834   3
   3   1   3 298.656 10.1115   4
   3   1   3 306.656 10.3234   4
  -4  -1  -3 572.995 20.1299   3
  -4  -1  -3 587.837 20.1287   4
  -4  -1  -3 609.125 19.7662   4
  -4  -1  -3 586.517 19.3472   2
   4   1   3 602.678 19.5144   2
   4   1   3 621.509 19.5279   4
   4   1   3 607.307 19.8065   4
   4   1   3 581.182 20.0844   3
  -5  -1  -3 1448.84 46.4480   3
  -5  -1  -3 1417.50 46.1046   4
  -5  -1  -3 1406.92 45.1870   2
   5   1   3 1472.76 45.9313   4
  -6  -1  -3 46.0566 5.00546   3
  -6  -1  -3 43.2621 4.29187   4
  -6  -1  -3 45.5794 3.49636   2
  -6  -1  -3 46.2372 4.12502   4
   6   1   3 40.6215 3.62410   4
   6   1   3 44.9617 4.03465   4
   6   1   3 35.2941 3.76632   2
  -7  -1  -3 119.013 6.47170   2
  -7  -1  -3 122.309 7.32390   4
  -7  -1  -3 118.066 7.93560   3
   7   1   3 113.941 6.91545   2
   6  -2  -3 541.154 20.8141   4
   6  -2  -3 526.125 20.0742   3
   6  -2  -3 567.527 21.9524   4
  -6   2   3 590.426 21.1201   3
  -6   2   3 566.497 24.2734   4
  -6   2   3 544.422 20.0077   2
  -6   2   3 573.784 21.3986   4
   5  -2  -3 2.80997 2.23226   4
   5  -2  -3 -2.1471 2.19615   4
   5  -2  -3 0.17696 1.89230   3
  -5   2   3 1.23535 2.07588   3
  -5   2   3 -0.5770 1.58421   2
  -5   2   3 0.06637 2.03196   4
  -5   2   3 -0.7549 1.82287   4
   4  -2  -3 530.790 19.2602   4
   4  -2  -3 524.687 18.0077   3
   4  -2  -3 545.903 18.1747   2
   4  -2  -3 497.107 18.4269   4
  -4   2   3 561.861 19.0576   4
  -4   2   3 515.604 18.4029   3
  -4   2   3 521.185 18.1101   2
  -4   2   3 524.983 18.7158   4
   3  -2  -3 341.208 11.6105   2
   3  -2  -3 329.788 12.4278   4
   3  -2  -3 317.928 11.4064   3
   3  -2  -3 318.476 11.8389   4
  -3   2   3 309.422 11.8674   4
  -3   2   3 338.203 11.6339   2
  -3   2   3 319.521 11.7117   3
  -3   2   3 331.101 12.1576   4
   2  -2  -3 1753.18 52.8181   4
   2  -2  -3 1738.18 53.2184   4
   2  -2  -3 1720.51 52.5368   2
   2  -2  -3 1599.62 52.3323   3
  -2   2   3 1603.62 52.4886   2
  -2   2   3 1647.09 52.7606   4
  -2   2   3 1721.79 52.9843   4
  -2   2   3 1696.27 52.5838   3
   1  -2  -3 846.960 26.8877   4
   1  -2  -3 841.413 26.5501   2
   1  -2  -3 829.070 26.4305   3
   1  -2  -3 830.919 26.6002   4
  -1   2   3 841.596 26.5236   3
  -1   2   3 820.924 26.5846   2
  -1   2   3 867.519 26.7523   4
   0  -2  -3 1724.12 52.3470   4
   0  -2  -3 1788.58 52.4589   3
   0  -2  -3 1709.79 52.4171   2
   0  -2  -3 1532.88 52.4097   4
   0   2   3 1688.05 52.4458   2
   0   2   3 1696.58 52.3939   3
   0   2   3 1741.60 52.2005   4
  -1  -2  -3 2957.07 90.7902   3
  -2  -2  -3 623.088 20.0050   3
  -2  -2  -3 627.889 19.2953   4
  -2  -2  -3 628.426 19.2551   4
  -2  -2  -3 609.422 19.9066   2
  -3  -2  -3 321.536 11.3695   3
  -3  -2  -3 327.909 10.7138   4
  -3  -2  -3 327.024 11.0946   2
  -3  -2  -3 325.953 10.8038   4
   3   2   3 322.507 10.6219   4
   3   2   3 314.729 11.0831   2
   3   2   3 334.848 10.5767   4
  -4  -2  -3 65.9436 3.43191   2
  -4  -2  -3 68.5062 3.42387   4
  -4  -2  -3 61.9486 3.66165   3
  -4  -2  -3 67.6042 3.23359   4
   4   2   3 62.6376 3.02625   4
   4   2   3 68.2416 3.49746   2
   4   2   3 63.0847 3.21585   4
  -5  -2  -3 1564.22 48.3494   4
  -5  -2  -3 1473.19 49.8982   3
  -5  -2  -3 1526.32 48.3906   4
  -5  -2  -3 1473.83 48.0399   2
   5   2   3 1542.12 48.2523   4
   5   2   3 1569.67 48.3661   2
  -6  -2  -3 609.218 20.6127   4
  -6  -2  -3 580.716 21.1271   3
  -6  -2  -3 587.585 20.1475   2
   6   2   3 594.149 20.4415   2
   6   2   3 589.924 20.4514   4
  -7  -2  -3 341.315 14.4133   3
  -7  -2  -3 352.299 13.8535   4
  -7  -2  -3 343.603 13.1473   2
   7   2   3 337.310 13.5677   2
   7   2   3 359.932 14.3425   4
   6  -3  -3 349.336 15.7933   4
   6  -3  -3 312.850 14.5685   4
  -6   3   3 328.093 14.7061   3
  -6   3   3 305.721 13.1931   2
   5  -3  -3 2.79857 2.73284   4
   5  -3  -3 7.56463 2.55263   2
   5  -3  -3 4.65289 2.53946   3
   5  -3  -3 -3.8699 2.08444   4
  -5   3   3 -0.6860 2.13256   4
  -5   3   3 1.63038 2.12342   2
  -5   3   3 -1.7652 2.08706   4
  -5   3   3 2.73523 2.60614   3
   4  -3  -3 1324.38 44.1959   4
   4  -3  -3 1377.90 43.0400   3
   4  -3  -3 1337.66 43.4855   4
   4  -3  -3 1284.69 42.7052   2
  -4   3   3 1318.59 42.9013   2
  -4   3   3 1329.33 43.5342   3
  -4   3   3 1326.64 43.9042   4
  -4   3   3 1379.02 43.7021   4
   3  -3  -3 65.6581 4.49483   4
   3  -3  -3 57.5626 3.47812   2
   3  -3  -3 59.7072 3.88692   4
   3  -3  -3 59.3127 3.69271   3
  -3   3   3 60.6141 3.68290   2
  -3   3   3 55.5023 3.93257   3
  -3   3   3 61.6802 4.00062   4
  -3   3   3 59.8009 4.37610   4
   2  -3  -3 55.8484 3.07328   2
   2  -3  -3 52.5421 3.15446   3
   2  -3  -3 50.2607 3.61760   4
   2  -3  -3 51.0192 3.15613   4
  -2   3   3 52.5101 3.21786   4
  -2   3   3 53.4207 3.36693   3
  -2   3   3 55.1273 3.08227   2
  -2   3   3 48.6302 3.38787   4
   1  -3  -3 261.760 9.22790   2
   1  -3  -3 244.587 9.28938   4
   1  -3  -3 259.490 9.41130   3
   1  -3  -3 266.675 9.69605   4
  -1   3   3 263.357 9.32776   2
  -1   3   3 272.656 9.61539   4
  -1   3   3 269.611 9.57461   3
   0  -3  -3 167.484 6.34027   4
   0  -3  -3 176.184 6.20713   4
   0  -3  -3 176.184 6.59563   3
   0  -3  -3 164.949 6.28698   2
   0   3   3 167.468 6.25308   4
   0   3   3 168.954 6.04070   4
   0   3   3 175.123 6.41397   2
   0   3   3 176.058 6.60579   3
  -1  -3  -3 988.135 30.0594   4
  -1  -3  -3 981.038 30.9278   3
  -1  -3  -3 974.233 30.5939   2
  -1  -3  -3 950.681 30.1503   4
   1   3   3 958.702 29.7890   4
   1   3   3 1001.98 30.8332   3
   1   3   3 933.117 30.0015   4
  -2  -3  -3 569.162 18.3908   2
  -2  -3  -3 563.755 18.6463   3
  -2  -3  -3 547.631 17.3765   4
  -2  -3  -3 559.630 17.6112   4
  -3  -3  -3 349.395 12.5444   3
  -3  -3  -3 361.041 11.4577   4
  -3  -3  -3 332.224 12.1046   2
  -3  -3  -3 348.463 11.3346   4
   3   3   3 352.939 11.2635   4
   3   3   3 361.415 11.2087   4
  -4  -3  -3 633.106 20.3027   4
  -4  -3  -3 619.956 21.1522   3
  -4  -3  -3 593.794 20.8288   2
  -4  -3  -3 626.170 20.3348   4
   4   3   3 656.108 21.0623   2
   4   3   3 634.810 20.1979   4
   4   3   3 646.691 20.2750   4
  -5  -3  -3 492.368 18.7811   3
  -5  -3  -3 527.463 17.3198   4
  -5  -3  -3 494.885 17.6314   2
  -5  -3  -3 465.908 17.4470   4
   5   3   3 540.714 17.9321   2
   5   3   3 562.783 17.6579   4
   5   3   3 516.919 17.2697   4
  -6  -3  -3 90.0419 4.90659   4
  -6  -3  -3 85.2117 4.79168   4
  -6  -3  -3 87.2368 5.65012   3
  -6  -3  -3 93.8430 5.17891   2
   6   3   3 85.4696 4.81554   4
   6   3   3 92.4218 5.48551   2
  -7  -3  -3 0.39316 2.23782   2
  -7  -3  -3 3.96813 2.15805   4
  -7  -3  -3 2.10267 2.87554   3
  -7  -3  -3 0.56557 2.39245   4
   7   3   3 4.63452 2.34583   4
   7   3   3 1.26626 2.74795   2
   5  -4  -3 56.8540 6.55576   4
   5  -4  -3 61.6687 7.27171   4
  -5   4   3 57.1527 6.28441   4
  -5   4   3 57.4930 5.37103   2
  -5   4   3 55.0760 6.61977   4
  -5   4   3 56.8324 6.84938   3
   4  -4  -3 16.9472 3.04053   4
   4  -4  -3 14.4927 3.49204   4
   4  -4  -3 11.7641 2.59661   3
  -4   4   3 12.4485 3.13242   3
  -4   4   3 20.7130 3.32041   4
  -4   4   3 19.2636 2.74785   2
  -4   4   3 17.6290 3.66467   4
   3  -4  -3 8.10053 2.28154   4
   3  -4  -3 6.54649 2.02081   3
   3  -4  -3 7.37243 1.71901   2
   3  -4  -3 9.52530 2.56823   4
  -3   4   3 8.60278 1.93486   2
  -3   4   3 4.75335 2.18695   4
  -3   4   3 5.48896 1.86997   4
  -3   4   3 6.73114 2.15352   3
   2  -4  -3 1690.93 52.9666   2
   2  -4  -3 1677.80 53.9484   4
   2  -4  -3 1646.71 53.4131   4
   2  -4  -3 1673.80 53.3813   3
  -2   4   3 1732.29 53.7796   3
  -2   4   3 1695.27 53.3723   4
  -2   4   3 1677.76 53.0884   2
  -2   4   3 1676.19 53.7981   4
   1  -4  -3 12.2722 1.92725   3
   1  -4  -3 14.5508 2.06834   4
   1  -4  -3 14.4947 1.95836   4
   1  -4  -3 16.6118 1.88096   2
  -1   4   3 16.2603 2.20564   4
  -1   4   3 12.9436 1.94699   3
  -1   4   3 15.0214 1.89682   2
  -1   4   3 12.6572 1.79048   4
   0  -4  -3 0.16093 0.98976   3
   0  -4  -3 2.19648 0.85281   2
   0  -4  -3 0.22196 0.73238   4
   0  -4  -3 0.27188 0.62884   4
   0   4   3 0.86097 0.83798   4
   0   4   3 0.88731 1.10608   3
   0   4   3 0.40381 0.77967   2
   0   4   3 2.56637 0.76462   4
  -1  -4  -3 266.444 9.10453   4
  -1  -4  -3 259.324 9.20925   4
  -1  -4  -3 276.486 10.0288   3
  -1  -4  -3 263.566 9.47325   2
   1   4   3 270.276 8.76155   4
   1   4   3 256.092 9.83597   3
   1   4   3 264.250 9.15413   4
  -2  -4  -3 245.977 8.10279   4
  -2  -4  -3 241.480 8.33714   4
  -2  -4  -3 244.279 9.40665   3
  -2  -4  -3 235.254 8.98720   2
   2   4   3 244.592 7.86374   4
   2   4   3 239.419 9.11034   3
   2   4   3 242.042 8.13290   4
  -3  -4  -3 288.498 9.51720   4
  -3  -4  -3 276.946 10.5390   2
  -3  -4  -3 298.166 9.92263   4
  -3  -4  -3 280.451 11.1539   3
   3   4   3 296.597 9.51392   4
   3   4   3 296.869 9.52996   4
  -4  -4  -3 143.249 6.82511   3
  -4  -4  -3 147.078 5.58370   4
  -4  -4  -3 139.648 6.29341   2
  -4  -4  -3 137.314 5.28337   4
   4   4   3 149.823 6.52538   2
   4   4   3 145.027 5.31323   4
   4   4   3 143.313 5.40052   4
  -5  -4  -3 141.605 5.70249   4
  -5  -4  -3 141.620 5.96894   4
  -5  -4  -3 138.872 6.78606   3
  -5  -4  -3 139.846 6.53409   2
   5   4   3 147.627 6.79700   2
   5   4   3 147.119 5.77170   4
   5   4   3 143.246 5.80835   4
  -6  -4  -3 83.4734 4.47865   4
  -6  -4  -3 88.7060 4.79996   4
  -6  -4  -3 90.1779 5.67028   3
  -6  -4  -3 82.2828 5.24906   2
   6   4   3 92.7736 5.09395   4
   6   4   3 84.6754 4.61627   4
  -7  -4  -3 406.385 14.8466   4
  -7  -4  -3 366.892 14.2288   4
  -7  -4  -3 409.818 15.1062   2
  -7  -4  -3 404.678 15.8404   3
   7   4   3 382.517 14.4709   4
   4  -5  -3 953.936 33.6793   4
   4  -5  -3 1012.34 34.6033   4
   4  -5  -3 952.609 32.5234   2
  -4   5   3 983.901 34.2358   3
  -4   5   3 967.218 32.7251   2
  -4   5   3 956.931 34.2904   4
  -4   5   3 1047.82 33.8689   4
   3  -5  -3 291.406 12.3221   3
   3  -5  -3 298.857 12.4648   4
   3  -5  -3 297.932 13.0459   4
  -3   5   3 327.920 13.1978   3
  -3   5   3 309.814 13.0904   4
  -3   5   3 304.110 12.3423   4
  -3   5   3 313.370 11.9790   2
   2  -5  -3 153.978 7.48280   4
   2  -5  -3 141.783 6.36692   2
   2  -5  -3 131.616 6.91213   3
   2  -5  -3 137.251 6.86378   4
  -2   5   3 143.971 7.29122   4
  -2   5   3 137.221 6.56612   4
  -2   5   3 147.650 6.61310   2
  -2   5   3 138.340 7.40933   3
   1  -5  -3 3.86808 1.47084   4
   1  -5  -3 4.69370 1.33453   4
   1  -5  -3 6.42694 1.86029   3
   1  -5  -3 3.10652 1.28469   2
  -1   5   3 0.99733 1.60550   3
  -1   5   3 6.47240 1.92759   4
  -1   5   3 8.14557 1.64917   4
  -1   5   3 4.37872 1.48197   2
   0  -5  -3 1461.80 45.7295   2
   0  -5  -3 1515.79 46.5381   3
   0  -5  -3 1463.00 46.0524   4
   0  -5  -3 1418.14 45.7284   4
   0   5   3 1399.70 45.9035   4
   0   5   3 1402.29 45.3061   4
   0   5   3 1452.68 46.5452   3
  -1  -5  -3 431.781 17.3425   3
  -1  -5  -3 476.822 15.7956   4
  -1  -5  -3 447.855 15.8228   2
  -1  -5  -3 460.393 15.6023   4
   1   5   3 491.057 15.1658   4
   1   5   3 453.710 16.4198   3
   1   5   3 479.882 15.7651   4
  -2  -5  -3 141.762 6.25341   2
  -2  -5  -3 133.356 6.52367   3
  -2  -5  -3 142.192 5.64613   4
  -2  -5  -3 141.358 6.06015   2
  -2  -5  -3 136.264 5.36586   4
   2   5   3 140.389 5.00023   4
   2   5   3 143.846 6.51567   3
   2   5   3 137.611 5.47645   4
  -3  -5  -3 82.4782 3.92910   4
  -3  -5  -3 81.8827 3.49868   4
  -3  -5  -3 79.5211 4.47663   2
  -3  -5  -3 87.5320 5.01913   3
   3   5   3 83.6205 3.60218   4
   3   5   3 80.5008 3.33372   4
  -4  -5  -3 873.357 28.7173   4
  -4  -5  -3 911.628 30.1151   2
  -4  -5  -3 885.287 29.1856   4
  -4  -5  -3 960.707 30.9377   3
   4   5   3 901.949 28.7770   4
   4   5   3 937.922 28.8014   4
  -5  -5  -3 1122.64 35.3895   4
  -5  -5  -3 1085.25 34.9202   4
  -5  -5  -3 1108.30 36.3830   3
  -5  -5  -3 1118.05 36.3466   2
   5   5   3 1102.24 35.0749   4
  -6  -5  -3 15.5371 2.23412   4
  -6  -5  -3 20.9741 3.10795   2
  -6  -5  -3 18.4561 2.62256   4
  -6  -5  -3 18.5842 3.20667   3
  -6  -5  -3 21.5769 3.76090   3
   6   5   3 14.9371 2.16091   4
   6   5   3 18.8431 3.14234   2
   6   5   3 21.7150 2.73542   4
  -7  -5  -3 54.1948 4.90506   4
  -7  -5  -3 49.1275 5.16290   2
  -7  -5  -3 44.1721 4.17415   4
  -7  -5  -3 43.3605 5.61214   3
   7   5   3 42.6359 4.17912   4
   3  -6  -3 81.7896 7.28708   4
   3  -6  -3 71.8594 5.50551   2
  -3   6   3 75.0596 5.70520   2
  -3   6   3 82.7705 5.91257   4
  -3   6   3 84.8057 7.54481   3
  -3   6   3 75.4085 7.64116   4
   2  -6  -3 670.148 24.0341   4
   2  -6  -3 708.810 24.6497   4
   2  -6  -3 686.375 24.2995   3
  -2   6   3 648.971 24.4127   4
  -2   6   3 714.283 23.6064   2
  -2   6   3 695.228 23.7035   4
  -2   6   3 677.044 24.7888   3
   1  -6  -3 114.827 7.41336   4
   1  -6  -3 114.981 5.71258   2
   1  -6  -3 110.197 6.49530   3
   1  -6  -3 117.708 6.23147   4
  -1   6   3 111.515 6.39985   4
  -1   6   3 121.750 7.00483   3
   0  -6  -3 270.346 10.7123   4
   0  -6  -3 274.785 10.3358   2
   0  -6  -3 268.681 10.4987   4
   0  -6  -3 269.227 11.1931   3
   0   6   3 277.869 10.7820   4
   0   6   3 265.121 10.1545   4
   0   6   3 255.133 11.1789   3
  -1  -6  -3 90.6439 4.75760   2
  -1  -6  -3 93.0915 4.77508   4
  -1  -6  -3 85.5979 4.53770   4
  -1  -6  -3 96.4193 5.57737   3
   1   6   3 88.1512 4.78369   4
   1   6   3 88.3945 3.99613   4
   1   6   3 89.2318 5.38441   3
  -2  -6  -3 1220.85 38.9534   2
  -2  -6  -3 1202.73 39.5191   3
  -2  -6  -3 1225.07 38.0989   4
  -2  -6  -3 1218.04 38.6608   2
  -2  -6  -3 1210.05 38.3541   4
   2   6   3 1212.98 38.1933   4
   2   6   3 1157.52 37.3812   4
   2   6   3 1127.10 39.1444   3
  -3  -6  -3 516.305 18.6028   3
  -3  -6  -3 515.981 16.7695   4
  -3  -6  -3 497.976 17.6298   4
  -3  -6  -3 489.408 18.4974   2
   3   6   3 512.215 16.3490   4
   3   6   3 516.986 16.8684   4
   3   6   3 466.419 18.1645   3
  -4  -6  -3 7.12262 1.60736   4
  -4  -6  -3 10.0760 1.42395   4
  -4  -6  -3 7.03861 2.00728   2
   4   6   3 6.68666 1.35285   4
   4   6   3 6.81920 1.18953   4
  -5  -6  -3 144.525 7.25301   2
  -5  -6  -3 135.838 5.74090   4
  -5  -6  -3 148.048 6.33042   4
   5   6   3 137.545 5.82291   4
   5   6   3 141.131 5.79889   4
  -6  -6  -3 109.422 5.58826   4
  -6  -6  -3 101.787 6.51942   2
  -6  -6  -3 110.308 5.18458   4
  -6  -6  -3 113.178 6.67809   3
   6   6   3 118.346 5.60905   4
  -7  -6  -3 265.005 12.4307   3
  -7  -6  -3 284.705 12.2932   2
  -7  -6  -3 272.353 11.0845   4
   7   6   3 280.931 10.7206   4
   2  -7  -3 24.7578 4.62677   4
  -2   7   3 20.9914 4.78812   3
  -2   7   3 27.6568 3.72615   4
   1  -7  -3 5.67949 2.75608   4
   1  -7  -3 8.98216 2.33973   2
   1  -7  -3 5.74976 2.46631   4
   1  -7  -3 7.42058 3.10343   3
  -1   7   3 12.9090 3.58683   3
  -1   7   3 5.66703 2.85685   4
  -1   7   3 6.43070 2.17112   4
   0  -7  -3 132.164 6.70303   4
   0  -7  -3 121.549 6.69832   4
   0  -7  -3 127.318 7.59908   3
   0   7   3 119.752 7.35284   3
   0   7   3 116.861 6.67076   4
  -1  -7  -3 9.05826 2.20191   4
  -1  -7  -3 6.78396 2.68817   3
   1   7   3 7.32870 2.73237   3
   1   7   3 7.20709 2.09905   4
   1   7   3 6.73323 1.45005   4
  -2  -7  -3 381.887 13.8032   4
  -2  -7  -3 330.901 14.1959   4
  -2  -7  -3 387.216 15.0433   3
  -2  -7  -3 375.228 14.1552   2
   2   7   3 374.840 14.8450   3
   2   7   3 377.401 12.6634   4
  -3  -7  -3 76.6477 4.63095   4
  -3  -7  -3 75.1812 4.15282   4
  -3  -7  -3 74.7633 5.24788   2
   3   7   3 75.6655 3.58434   4
   3   7   3 80.0207 5.68048   3
  -4  -7  -3 484.045 16.9566   4
  -4  -7  -3 481.823 17.6422   2
  -4  -7  -3 462.983 16.2056   4
   4   7   3 470.613 16.3047   4
   4   7   3 472.709 15.8391   4
  -5  -7  -3 536.543 19.5377   2
  -5  -7  -3 500.844 17.7585   4
  -5  -7  -3 527.250 18.5057   4
   5   7   3 562.082 18.7605   4
   5   7   3 512.589 19.1581   4
  -6  -7  -3 309.574 12.2074   4
  -6  -7  -3 327.546 13.4527   2
  -6  -7  -3 318.958 11.7203   4
   6   7   3 325.293 11.7180   4
   1  -8  -3 515.003 19.7173   4
  -1   8   3 486.372 20.3918   3
   0  -8  -3 84.8239 6.47198   4
   0   8   3 96.4762 7.91209   3
  -1  -8  -3 134.628 7.34400   4
  -1  -8  -3 112.981 6.92017   2
  -1  -8  -3 135.009 7.56860   2
   1   8   3 135.819 6.01862   4
   1   8   3 127.515 8.46508   3
  -2  -8  -3 365.468 14.5080   4
  -2  -8  -3 400.878 15.0214   4
  -2  -8  -3 391.195 14.9850   2
  -2  -8  -3 398.543 15.3472   2
   2   8   3 395.925 16.2326   3
   2   8   3 383.179 13.4812   4
  -3  -8  -3 1.61678 1.78983   4
  -3  -8  -3 3.15526 1.92572   4
  -3  -8  -3 0.58435 2.33316   2
   3   8   3 0.43194 2.58619   3
   3   8   3 0.87030 1.13252   4
  -4  -8  -3 623.717 21.8014   4
  -4  -8  -3 637.943 22.4688   2
  -4  -8  -3 614.943 21.0889   4
   4   8   3 610.372 20.3918   4
   4   8   3 591.709 22.6984   3
  -5  -8  -3 75.1758 6.23905   2
  -5  -8  -3 81.2889 5.60940   4
  -5  -8  -3 75.9074 5.44415   4
   5   8   3 85.5783 4.66954   4
  -6  -8  -3 446.724 21.7847   2
  -6  -8  -3 344.023 15.6078   4
  -1  -9  -3 99.6144 7.61395   2
  -1  -9  -3 97.5791 7.23833   4
   1   9   3 107.115 9.31906   3
  -2  -9  -3 25.0110 4.15621   2
  -2  -9  -3 20.5666 3.61878   4
   2   9   3 14.1408 4.43170   3
  -3  -9  -3 1.16230 3.09491   2
  -3  -9  -3 5.36815 2.68636   4
   3   9   3 -1.6070 3.99231   3
  -4  -9  -3 849.767 29.6212   4
  -4  -9  -3 891.279 30.2818   2
   4   9   3 816.016 30.6880   3
  -5  -7   4 284.513 13.2634   4
  -5  -7   4 282.820 12.1758   2
   4   7  -4 77.0787 6.94937   3
  -4  -7   4 71.9305 5.65734   2
  -4  -7   4 80.6926 7.34713   4
   3   7  -4 45.5218 6.54203   4
   3   7  -4 54.9795 4.59940   4
   3   7  -4 67.1608 6.61839   3
  -3  -7   4 48.7526 5.50341   4
  -3  -7   4 58.6257 4.92606   2
  -3  -7   4 61.0580 6.36191   4
   2   7  -4 75.8240 5.01566   4
   2   7  -4 62.0162 7.07748   4
   2   7  -4 74.8432 7.18116   3
  -2  -7   4 68.3795 6.27649   4
  -2  -7   4 71.2642 5.00403   2
  -2  -7   4 72.9378 6.67161   4
   1   7  -4 151.848 10.3046   4
   1   7  -4 193.854 10.6426   3
  -1  -7   4 155.117 9.02960   4
  -1  -7   4 179.992 9.57479   2
  -1  -7   4 177.198 7.64244   2
  -1  -7   4 166.263 9.88607   4
   0   7  -4 255.301 13.3470   3
   0   7  -4 245.082 13.4340   4
   0  -7   4 255.001 9.83549   2
   0  -7   4 249.360 12.5893   4
   0  -7   4 256.146 12.5491   4
  -6  -6   4 128.274 7.87672   2
  -6  -6   4 138.316 8.77198   4
   5   6  -4 25.0424 3.74459   4
   5   6  -4 13.8994 5.45244   4
  -5  -6   4 23.9497 3.19678   4
  -5  -6   4 20.8985 4.58678   3
  -5  -6   4 13.2371 3.04412   4
  -5  -6   4 21.5968 3.28185   2
   4   6  -4 32.2561 4.83826   2
   4   6  -4 34.4980 4.76842   3
   4   6  -4 40.6683 5.76365   4
   4   6  -4 43.8618 4.14557   4
  -4  -6   4 36.8764 4.94876   4
  -4  -6   4 43.6037 4.05162   4
  -4  -6   4 38.7238 3.98173   2
  -4  -6   4 36.8365 4.92239   3
   3   6  -4 479.885 16.3110   4
   3   6  -4 430.343 17.1381   3
   3   6  -4 428.202 17.2085   4
  -3  -6   4 455.364 17.3924   4
  -3  -6   4 427.208 16.3310   4
  -3  -6   4 474.608 16.2252   2
   2   6  -4 143.637 8.29392   3
   2   6  -4 152.562 6.78818   4
   2   6  -4 141.836 8.07768   4
  -2  -6   4 137.193 7.86053   4
  -2  -6   4 156.435 6.73505   2
  -2  -6   4 155.813 8.16108   4
   1   6  -4 5.83866 1.83975   4
   1   6  -4 8.68900 3.35035   3
   1   6  -4 8.17934 2.91586   4
  -1  -6   4 6.95749 1.70525   2
  -1  -6   4 7.44582 2.76201   3
  -1  -6   4 8.99106 2.40049   4
  -1  -6   4 5.68243 2.54471   4
  -1  -6   4 8.35903 1.82993   2
   0   6  -4 56.6417 6.40673   3
   0   6  -4 50.5025 4.25586   4
   0   6  -4 44.4474 5.67948   4
   0  -6   4 53.9987 5.51804   4
   0  -6   4 58.8554 5.39995   4
   0  -6   4 53.2085 3.52575   2
   0  -6   4 53.5037 5.52657   3
  -1   6  -4 142.827 9.56251   4
  -1   6  -4 140.821 9.13628   3
  -1   6  -4 147.833 7.18350   4
   1  -6   4 138.148 5.85088   2
   1  -6   4 125.629 8.23718   4
   1  -6   4 140.969 5.69673   2
  -2   6  -4 1025.49 33.5409   4
  -2   6  -4 968.027 35.4767   3
   2  -6   4 970.714 34.6118   4
   2  -6   4 993.309 34.5851   4
   6   5  -4 347.850 14.7060   4
  -6  -5   4 371.406 14.2402   2
  -6  -5   4 333.462 14.9456   3
  -6  -5   4 357.054 14.7841   4
  -6  -5   4 365.735 13.9396   3
   5   5  -4 1270.07 43.6895   4
   5   5  -4 1366.19 43.3490   4
   5   5  -4 1256.71 43.3180   2
  -5  -5   4 1317.61 42.4876   4
  -5  -5   4 1376.56 43.6643   4
  -5  -5   4 1314.02 42.8217   2
   4   5  -4 -0.4559 2.00977   2
   4   5  -4 -1.3219 1.59453   4
   4   5  -4 -1.9151 2.22265   4
  -4  -5   4 -1.4299 2.18686   3
  -4  -5   4 -1.2324 1.46849   2
  -4  -5   4 0.56168 2.15575   4
  -4  -5   4 0.00608 1.44833   4
   3   5  -4 17.4103 2.85874   3
   3   5  -4 17.0520 2.35742   4
   3   5  -4 16.2712 2.53314   2
   3   5  -4 27.6623 4.11958   4
  -3  -5   4 17.0248 2.97618   3
  -3  -5   4 14.6459 2.58311   4
  -3  -5   4 14.4333 2.08007   4
  -3  -5   4 12.0284 1.94296   2
   2   5  -4 27.0060 3.79371   3
   2   5  -4 25.9045 3.54957   4
   2   5  -4 32.6481 2.63204   4
  -2  -5   4 22.3522 3.38372   3
  -2  -5   4 23.8251 2.79572   4
  -2  -5   4 26.7133 2.54977   2
  -2  -5   4 16.7017 2.53641   4
   1   5  -4 929.457 31.8860   4
   1   5  -4 898.505 31.5876   3
   1   5  -4 923.197 30.2789   4
  -1  -5   4 946.309 31.5140   4
  -1  -5   4 904.593 30.8140   4
  -1  -5   4 939.678 29.8851   2
  -1  -5   4 970.851 31.3189   3
   0   5  -4 77.2038 4.34533   4
   0   5  -4 71.2537 5.63803   3
   0  -5   4 68.6525 3.44475   2
   0  -5   4 65.8309 4.70105   4
   0  -5   4 75.8423 3.60826   2
   0  -5   4 66.4890 4.93849   4
  -1   5  -4 5.02841 1.70348   4
  -1   5  -4 1.02734 3.25682   4
  -1   5  -4 3.29061 2.80276   3
   1  -5   4 3.35224 1.06893   2
   1  -5   4 6.90473 2.41473   3
   1  -5   4 3.09360 2.25314   4
   1  -5   4 3.35272 1.00213   2
   1  -5   4 0.87224 1.92961   4
  -2   5  -4 26.1435 3.31138   4
  -2   5  -4 30.7861 4.84802   4
  -2   5  -4 31.9532 5.08410   3
   2  -5   4 24.8189 2.14707   2
   2  -5   4 28.4038 4.15907   4
   2  -5   4 27.5576 3.83665   4
   2  -5   4 25.8411 2.01870   2
  -3   5  -4 10.0280 4.07313   3
  -3   5  -4 14.8682 3.47376   4
   3  -5   4 6.59310 5.15542   4
   3  -5   4 17.8696 4.02481   4
  -7  -4   4 247.131 12.3266   2
  -7  -4   4 257.882 12.4992   4
  -7  -4   4 274.682 14.2964   3
  -7  -4   4 261.330 11.3992   3
   6   4  -4 233.510 11.5799   4
   6   4  -4 253.749 11.5003   4
  -6  -4   4 250.548 11.0723   4
  -6  -4   4 244.243 10.5909   2
  -6  -4   4 234.169 9.94791   4
  -6  -4   4 260.412 10.3245   3
   5   4  -4 123.440 7.26526   4
   5   4  -4 113.666 6.96310   2
   5   4  -4 130.309 6.82545   4
  -5  -4   4 121.205 5.96709   4
  -5  -4   4 116.685 6.80277   3
  -5  -4   4 135.194 7.00434   4
  -5  -4   4 132.757 6.52171   2
   4   4  -4 0.58393 1.70056   2
   4   4  -4 4.17471 2.24132   4
   4   4  -4 4.15378 1.53504   4
  -4  -4   4 4.33051 1.93526   3
  -4  -4   4 3.22320 1.42989   4
  -4  -4   4 1.49234 1.48950   4
   3   4  -4 142.884 6.35573   2
   3   4  -4 127.444 6.28702   3
   3   4  -4 135.488 6.01423   4
  -3  -4   4 138.188 5.96234   2
  -3  -4   4 133.663 5.86506   4
  -3  -4   4 130.261 6.56963   4
  -3  -4   4 136.333 6.55231   3
   2   4  -4 2.19613 1.27895   2
   2   4  -4 4.19942 1.67672   3
   2   4  -4 7.02735 1.88907   4
   2   4  -4 0.63863 0.84384   4
  -2  -4   4 2.42809 1.61503   4
  -2  -4   4 1.00392 1.01096   4
  -2  -4   4 -0.0266 0.88492   2
   1   4  -4 924.855 30.5886   4
   1   4  -4 941.295 31.5686   4
   1   4  -4 898.021 31.4675   3
  -1  -4   4 969.550 30.2722   2
  -1  -4   4 975.285 31.0456   4
  -1  -4   4 951.076 31.5914   4
  -1  -4   4 1004.81 31.4098   3
   0   4  -4 653.233 22.3007   3
   0   4  -4 622.803 21.1131   4
   0   4  -4 619.984 22.1568   4
   0  -4   4 617.105 21.9046   4
   0  -4   4 659.133 20.3903   2
   0  -4   4 654.202 21.8698   3
   0  -4   4 647.944 21.7259   4
   0  -4   4 615.185 20.3547   2
  -1   4  -4 877.415 30.8980   3
  -1   4  -4 851.617 30.7776   4
  -1   4  -4 943.606 29.8945   4
   1  -4   4 890.229 30.3711   3
   1  -4   4 957.979 28.5219   2
   1  -4   4 917.002 28.5877   2
   1  -4   4 912.809 30.5277   4
   1  -4   4 943.323 30.4740   4
  -2   4  -4 246.114 9.86475   4
  -2   4  -4 258.642 11.2403   3
  -2   4  -4 237.301 11.0388   4
   2  -4   4 245.495 10.3526   4
   2  -4   4 237.462 8.19623   2
   2  -4   4 246.344 8.08539   2
   2  -4   4 236.664 10.3047   4
  -3   4  -4 197.851 8.98427   4
  -3   4  -4 201.415 10.4646   4
  -3   4  -4 204.529 10.3749   3
   3  -4   4 219.164 12.9215   3
   3  -4   4 197.681 6.88730   2
   3  -4   4 198.556 9.63223   4
   3  -4   4 204.948 9.52093   4
  -4   4  -4 4.48613 3.96412   3
  -4   4  -4 7.82537 2.91164   4
  -7  -3   4 8.36881 2.86102   2
  -7  -3   4 1.95178 2.80955   3
  -7  -3   4 -1.3799 3.88326   3
  -7  -3   4 -0.4941 2.86228   4
   6   3  -4 7.46357 2.92997   4
   6   3  -4 3.38036 2.67970   4
  -6  -3   4 3.95899 2.05186   4
  -6  -3   4 6.11103 2.13710   4
  -6  -3   4 5.42687 2.84508   3
  -6  -3   4 5.27263 2.15349   3
  -6  -3   4 3.67909 2.17601   2
   5   3  -4 105.807 6.05393   4
   5   3  -4 100.136 6.29077   4
   5   3  -4 97.4450 5.80782   2
  -5  -3   4 100.203 5.06386   3
  -5  -3   4 97.5709 5.67160   3
  -5  -3   4 93.4891 4.98854   4
  -5  -3   4 102.109 5.47772   2
  -5  -3   4 99.1751 5.75343   4
   4   3  -4 868.165 28.8974   2
   4   3  -4 851.434 28.8442   4
   4   3  -4 880.391 29.4679   4
  -4  -3   4 878.966 28.5514   2
  -4  -3   4 880.484 29.0467   4
  -4  -3   4 856.206 28.2165   4
  -4  -3   4 877.739 28.6952   3
   3   3  -4 405.977 14.4887   4
   3   3  -4 385.032 13.7241   4
   3   3  -4 381.129 13.8029   2
  -3  -3   4 406.230 13.8449   3
  -3  -3   4 394.416 13.4370   4
  -3  -3   4 370.162 14.0748   4
  -3  -3   4 387.687 13.5245   2
   2   3  -4 40.7364 2.94119   3
   2   3  -4 45.1721 2.67844   4
   2   3  -4 41.2174 3.23803   4
   2   3  -4 41.6978 2.74056   2
  -2  -3   4 40.8200 2.86507   3
  -2  -3   4 39.7072 2.50304   2
  -2  -3   4 43.6463 2.61891   4
  -2  -3   4 44.5591 3.22568   4
   1   3  -4 1429.90 44.4382   4
   1   3  -4 1407.17 45.2012   4
   1   3  -4 1410.24 44.2300   2
   1   3  -4 1447.48 45.0949   3
  -1  -3   4 1396.83 44.5988   4
  -1  -3   4 1399.63 45.2183   4
  -1  -3   4 1453.06 44.8648   3
  -1  -3   4 1385.12 44.0630   2
   0   3  -4 63.2167 3.93384   3
   0   3  -4 60.1123 3.84688   4
   0   3  -4 60.2756 3.18646   4
   0  -3   4 62.0934 3.82602   4
   0  -3   4 68.0595 3.77185   3
   0  -3   4 62.7990 2.67434   2
   0  -3   4 61.4108 3.50906   4
  -1   3  -4 1504.94 48.0410   4
  -1   3  -4 1450.22 47.0964   4
  -1   3  -4 1441.99 47.9435   3
   1  -3   4 1480.98 45.8634   2
   1  -3   4 1550.22 47.6337   4
   1  -3   4 1437.44 45.9102   2
   1  -3   4 1563.19 47.6902   3
   1  -3   4 1526.81 47.7477   4
  -2   3  -4 121.271 6.64061   4
  -2   3  -4 133.005 5.97574   4
  -2   3  -4 122.043 6.73175   3
   2  -3   4 130.929 6.32349   3
   2  -3   4 119.711 6.09979   4
   2  -3   4 127.234 4.39380   2
   2  -3   4 126.063 4.29312   2
   2  -3   4 136.456 6.27888   4
  -3   3  -4 510.722 19.1382   4
  -3   3  -4 500.521 18.0548   4
  -3   3  -4 518.408 19.2747   3
   3  -3   4 520.062 16.1879   2
   3  -3   4 530.111 18.4951   4
   3  -3   4 496.621 18.3753   4
  -4   3  -4 1012.12 35.2590   4
  -4   3  -4 1068.07 35.5663   3
  -4   3  -4 1082.79 34.2904   4
   4  -3   4 953.954 34.1555   4
   4  -3   4 1006.52 31.8774   2
   4  -3   4 1004.95 34.3813   4
  -5   3  -4 430.054 16.4020   4
  -5   3  -4 393.681 17.7992   3
  -7  -2   4 102.145 6.71700   3
  -7  -2   4 114.449 7.78208   4
  -7  -2   4 110.787 6.86290   2
  -7  -2   4 89.4578 7.31822   3
   6   2  -4 402.958 16.1812   4
   6   2  -4 379.735 15.8377   4
   6   2  -4 478.963 20.7508   2
  -6  -2   4 403.282 15.1597   2
  -6  -2   4 419.523 15.2261   3
  -6  -2   4 408.599 14.9912   3
  -6  -2   4 401.384 17.6774   4
  -6  -2   4 373.758 14.8793   4
   5   2  -4 560.774 20.9031   4
   5   2  -4 597.745 21.1082   4
  -5  -2   4 596.538 19.8630   3
  -5  -2   4 587.166 20.1592   4
  -5  -2   4 587.461 20.2916   2
  -5  -2   4 596.686 20.2316   3
  -5  -2   4 608.409 20.8553   4
   4   2  -4 1.68879 1.31107   4
   4   2  -4 -0.1517 1.33809   2
   4   2  -4 2.32569 1.31360   4
  -4  -2   4 5.43190 1.39546   2
  -4  -2   4 2.54883 1.28462   3
  -4  -2   4 -0.1355 0.87947   3
  -4  -2   4 0.18686 0.91218   4
   3   2  -4 304.745 11.1643   2
   3   2  -4 286.394 11.3440   4
   3   2  -4 310.338 11.0924   4
  -3  -2   4 295.211 10.6672   3
  -3  -2   4 298.930 10.5911   4
  -3  -2   4 312.772 10.7921   2
  -3  -2   4 311.250 11.2493   4
   2   2  -4 432.274 15.0971   4
   2   2  -4 421.957 14.4474   2
   2   2  -4 415.237 14.2606   3
   2   2  -4 430.070 14.4842   4
  -2  -2   4 425.158 14.2751   4
  -2  -2   4 447.824 14.4064   3
  -2  -2   4 461.412 15.0410   4
  -2  -2   4 410.356 14.2307   2
   1   2  -4 283.707 10.2418   4
   1   2  -4 281.245 9.46960   2
   1   2  -4 276.716 9.84047   3
   1   2  -4 290.580 9.63521   4
  -1  -2   4 277.339 9.69027   3
  -1  -2   4 273.340 9.60816   4
  -1  -2   4 276.578 9.30949   2
  -1  -2   4 267.808 10.1285   4
   0   2  -4 320.161 11.5751   3
   0   2  -4 344.987 11.2143   4
   0   2  -4 305.107 11.6268   4
   0  -2   4 330.939 11.3587   4
   0  -2   4 344.593 11.8052   4
   0  -2   4 327.077 10.5265   2
   0  -2   4 333.548 11.4159   3
  -1   2  -4 2439.75 76.0183   4
  -1   2  -4 2398.52 75.9502   3
  -1   2  -4 2451.42 75.3871   4
   1  -2   4 2394.01 75.6246   4
   1  -2   4 2457.74 75.7011   3
   1  -2   4 2471.02 75.8138   4
  -2   2  -4 -0.8732 1.23163   4
  -2   2  -4 1.96315 1.48029   3
  -2   2  -4 0.93995 0.98152   4
   2  -2   4 -0.1995 1.19259   4
   2  -2   4 2.37772 1.30160   3
  -3   2  -4 1095.10 35.9966   3
  -3   2  -4 1021.73 35.7568   4
  -3   2  -4 1080.61 35.1261   4
   3  -2   4 1142.45 35.3882   4
   3  -2   4 1062.89 33.4524   2
   3  -2   4 1103.22 35.4304   3
  -4   2  -4 41.3037 4.99704   3
  -4   2  -4 45.8056 2.36776   2
  -4   2  -4 45.7700 4.63333   4
  -4   2  -4 45.6867 3.88721   4
   4  -2   4 43.1328 3.89046   4
   4  -2   4 43.2006 2.37769   2
   4  -2   4 44.4608 4.41116   4
  -5   2  -4 23.3916 3.30045   4
  -5   2  -4 27.0923 2.43115   2
  -5   2  -4 20.8306 3.57494   4
  -5   2  -4 28.5200 4.69561   3
   5  -2   4 26.1167 2.53940   2
   5  -2   4 21.9302 3.40644   4
  -7  -1   4 94.8550 7.64903   4
  -7  -1   4 88.3859 6.76486   3
  -7  -1   4 86.9028 6.27985   2
   6   1  -4 -0.5749 1.93751   4
   6   1  -4 0.51290 2.55053   4
   6   1  -4 -1.4632 2.84970   2
  -6  -1   4 -1.2747 2.09180   3
  -6  -1   4 1.37218 2.46882   4
  -6  -1   4 -0.7609 1.86122   4
   5   1  -4 32.1831 3.52988   4
   5   1  -4 36.4444 3.95664   4
  -5  -1   4 40.8081 3.04089   3
  -5  -1   4 37.1570 3.35481   4
  -5  -1   4 37.7746 3.70442   4
  -5  -1   4 37.9609 3.36076   2
   4   1  -4 468.326 17.0205   4
   4   1  -4 479.477 16.9282   4
   4   1  -4 494.089 16.7320   2
  -4  -1   4 454.570 16.3047   4
  -4  -1   4 484.239 16.8406   4
  -4  -1   4 509.852 16.1424   3
  -4  -1   4 471.173 15.8790   3
  -4  -1   4 455.911 16.3053   2
   3   1  -4 428.588 14.5794   2
   3   1  -4 438.094 14.8584   4
   3   1  -4 390.669 14.7456   4
  -3  -1   4 392.957 14.2486   2
  -3  -1   4 425.725 14.7303   4
  -3  -1   4 437.211 14.3677   4
  -3  -1   4 436.202 14.0536   3
  -3  -1   4 437.143 13.8756   3
   2   1  -4 67.1831 3.15744   2
   2   1  -4 58.7519 3.37697   4
   2   1  -4 63.5790 3.17441   4
  -2  -1   4 65.5139 3.34511   4
  -2  -1   4 62.0575 2.88508   4
  -2  -1   4 61.6177 2.72452   3
  -2  -1   4 59.5030 2.89927   2
   1   1  -4 621.472 19.9279   3
   1   1  -4 624.955 20.1379   4
   1   1  -4 620.169 20.0280   2
   1   1  -4 604.571 20.6048   4
  -1  -1   4 680.073 20.6669   4
  -1  -1   4 636.399 20.0655   4
  -1  -1   4 640.393 19.8863   3
  -1  -1   4 617.897 19.9134   2
   0   1  -4 94.5805 4.14990   4
   0   1  -4 94.4551 3.73468   4
   0   1  -4 94.0779 3.38904   2
   0   1  -4 99.1746 3.97556   3
   0  -1   4 97.3732 3.33434   2
   0  -1   4 94.5392 3.81631   4
   0  -1   4 99.8528 3.82908   3
  -1   1  -4 2620.61 82.5022   4
  -1   1  -4 2579.96 82.4541   3
  -1   1  -4 2654.70 82.0899   4
   1  -1   4 2695.96 82.3224   3
   1  -1   4 2790.76 82.3222   4
  -2   1  -4 288.101 10.7238   4
  -2   1  -4 297.817 10.3081   4
  -2   1  -4 282.126 10.7137   3
   2  -1   4 299.357 10.5542   3
   2  -1   4 301.139 10.4184   4
  -3   1  -4 879.953 28.8915   4
  -3   1  -4 894.716 29.5427   3
  -3   1  -4 830.957 29.3175   4
  -3   1  -4 868.242 27.5221   2
   3  -1   4 971.525 30.7778   4
   3  -1   4 880.607 28.8852   4
   3  -1   4 901.856 27.6358   2
   3  -1   4 905.597 29.2206   3
  -4   1  -4 416.113 15.0366   4
  -4   1  -4 440.846 13.6218   2
  -4   1  -4 417.818 15.6822   4
  -4   1  -4 409.142 15.6846   3
   4  -1   4 409.936 15.1257   4
   4  -1   4 431.858 13.7526   2
   4  -1   4 406.999 14.8634   4
  -5   1  -4 148.314 7.15311   4
  -5   1  -4 129.468 7.76842   3
  -5   1  -4 139.786 7.71141   4
  -5   1  -4 144.080 5.60147   2
   5  -1   4 138.975 5.74070   2
   5  -1   4 137.071 7.05271   4
   5  -1   4 145.106 6.88130   4
  -6   1  -4 77.4933 4.31046   2
  -6   1  -4 64.0612 6.70134   3
  -6   1  -4 89.6923 6.32543   4
   6  -1   4 75.4375 4.57520   2
  -7   0   4 158.034 9.93497   4
  -7   0   4 156.791 8.61844   2
  -7   0   4 145.008 8.86517   3
   6   0  -4 403.865 16.8239   4
   6   0  -4 422.095 16.3651   4
  -6   0   4 417.149 15.4760   3
  -6   0   4 436.870 16.4536   4
  -6   0   4 410.496 15.5217   2
  -6   0   4 404.446 15.8312   4
   5   0  -4 80.7472 5.48135   4
   5   0  -4 72.9005 5.08117   4
  -5   0   4 77.5489 4.97772   4
  -5   0   4 74.3590 4.40575   3
  -5   0   4 84.8647 5.20486   4
  -5   0   4 77.5158 4.63601   2
   4   0  -4 42.1988 3.25641   2
   4   0  -4 54.6033 3.65407   4
   4   0  -4 38.5458 3.56055   4
  -4   0   4 48.9058 3.41501   4
  -4   0   4 42.5775 2.81813   3
  -4   0   4 41.2337 3.03809   2
  -4   0   4 41.0120 3.17364   4
   3   0  -4 31.1343 2.42093   2
   3   0  -4 30.2415 2.64099   4
   3   0  -4 31.7754 2.57971   4
  -3   0   4 33.5390 2.35684   4
  -3   0   4 36.2003 1.98573   3
  -3   0   4 34.0655 2.56127   4
  -3   0   4 31.4555 2.25013   2
   2   0  -4 2184.25 67.4965   2
   2   0  -4 2232.03 67.8065   4
   2   0  -4 2236.29 67.7793   4
  -2   0   4 2189.79 67.4272   4
  -2   0   4 2024.27 67.3394   2
  -2   0   4 2251.92 67.7357   4
  -2   0   4 2151.73 66.7409   3
   1   0  -4 659.311 21.2257   4
   1   0  -4 675.335 21.1282   2
   1   0  -4 665.997 21.4726   4
  -1   0   4 681.896 21.1094   2
  -1   0   4 654.723 21.0177   4
   0   0  -4 27.5033 1.38267   4
   0   0  -4 28.6990 1.41745   3
   0   0  -4 28.4907 1.74181   4
   0   0  -4 28.7426 1.32591   2
   0   0   4 26.9363 1.60274   4
   0   0   4 28.5965 1.28881   3
   0   0   4 28.3968 1.40582   4
   0   0   4 27.2881 1.31715   2
  -1   0  -4 420.904 14.0467   3
  -1   0  -4 434.806 13.2729   2
  -1   0  -4 458.160 14.1042   4
  -1   0  -4 428.442 13.7721   4
   1   0   4 437.244 13.9762   4
   1   0   4 417.045 13.9570   3
   1   0   4 418.880 13.8363   4
  -2   0  -4 73.9911 3.56528   3
  -2   0  -4 74.8132 3.53116   4
  -2   0  -4 69.6572 3.17443   4
   2   0   4 75.3618 3.26747   4
   2   0   4 79.2856 3.58076   3
   2   0   4 74.6361 3.21214   4
  -3   0  -4 2669.78 80.4201   3
  -3   0  -4 2715.02 80.2801   4
  -3   0  -4 2602.66 79.7954   4
  -3   0  -4 2710.92 78.9155   2
   3   0   4 2299.12 80.1212   4
   3   0   4 2682.07 79.0346   2
   3   0   4 2243.14 80.6234   3
   3   0   4 2696.32 79.8456   4
  -4   0  -4 4.06015 1.78533   3
  -4   0  -4 5.17628 1.66487   4
  -4   0  -4 2.13686 0.90325   4
  -4   0  -4 3.69214 0.93482   2
   4   0   4 2.49660 0.91233   2
   4   0   4 4.13232 1.50143   3
   4   0   4 3.15540 1.13945   4
   4   0   4 3.77494 1.25979   4
  -5   0  -4 39.1783 3.88679   4
  -5   0  -4 38.0248 3.40117   4
  -5   0  -4 41.7162 2.68868   2
  -5   0  -4 39.4102 4.49399   3
   5   0   4 40.8924 2.81592   2
   5   0   4 38.0205 3.42936   4
   5   0   4 41.1679 3.16052   4
  -6   0  -4 86.5270 5.86080   4
  -6   0  -4 74.4063 6.76402   3
  -6   0  -4 80.4846 6.13846   4
  -6   0  -4 81.5211 4.48394   2
   6   0   4 91.8297 5.80976   4
   6   0   4 87.0696 4.86533   2
   6  -1  -4 14.0986 3.99553   4
   6  -1  -4 12.8186 3.13994   4
  -6   1   4 14.5169 3.46547   4
  -6   1   4 12.1336 2.95604   2
  -6   1   4 15.4250 3.60500   4
  -6   1   4 18.5521 3.28414   3
   5  -1  -4 5.88287 2.24155   4
   5  -1  -4 2.32766 1.54826   3
   5  -1  -4 1.63504 1.68895   4
  -5   1   4 2.27036 1.80732   3
  -5   1   4 5.79607 2.03255   2
  -5   1   4 -0.3774 1.58843   4
  -5   1   4 6.49849 2.27064   4
   4  -1  -4 2872.21 87.1136   4
   4  -1  -4 2733.57 86.1253   3
   4  -1  -4 2840.16 87.8136   4
   4  -1  -4 2702.13 86.7047   2
  -4   1   4 2739.77 86.4211   3
  -4   1   4 2698.48 86.6529   2
  -4   1   4 2872.02 87.1595   4
  -4   1   4 2828.17 87.2628   4
   3  -1  -4 27.4129 2.36661   4
   3  -1  -4 27.7287 2.66599   4
   3  -1  -4 26.0648 1.86507   3
  -3   1   4 29.5650 2.43679   4
  -3   1   4 28.1120 2.36484   4
  -3   1   4 27.9448 2.22830   2
  -3   1   4 26.3870 2.01184   3
   2  -1  -4 1641.46 50.5677   4
   2  -1  -4 1619.07 50.3896   2
   2  -1  -4 1621.01 49.7307   3
   2  -1  -4 1678.49 50.9147   4
  -2   1   4 1546.54 50.5309   4
  -2   1   4 1576.55 49.8451   3
  -2   1   4 1592.11 50.3884   2
  -2   1   4 1656.94 50.5180   4
   1  -1  -4 285.767 10.0011   4
   1  -1  -4 311.222 9.92919   2
   1  -1  -4 293.950 9.91432   4
   1  -1  -4 291.005 9.13889   3
  -1   1   4 300.564 9.78303   4
  -1   1   4 286.952 9.21842   3
  -1   1   4 286.152 9.86343   2
   0  -1  -4 4169.93 132.241   1
   0   1   4 4198.59 132.402   1
  -1  -1  -4 277.896 8.96431   4
  -1  -1  -4 274.402 9.17114   3
  -1  -1  -4 275.093 8.78821   4
  -1  -1  -4 289.066 9.01400   2
   1   1   4 274.161 8.75277   4
  -2  -1  -4 12.0151 1.02735   2
  -2  -1  -4 10.0022 1.25840   3
  -2  -1  -4 10.0857 0.89544   4
   2   1   4 12.8485 1.29328   3
   2   1   4 11.2941 0.87149   4
   2   1   4 11.4479 0.81181   4
  -3  -1  -4 763.579 24.6947   2
  -3  -1  -4 786.744 25.5493   3
  -3  -1  -4 804.406 25.2448   4
   3   1   4 785.448 25.5032   3
   3   1   4 797.171 24.8064   2
   3   1   4 789.578 24.8348   4
   3   1   4 765.812 24.6932   4
  -4  -1  -4 462.925 16.2683   3
  -4  -1  -4 464.173 16.0110   4
  -4  -1  -4 467.186 15.1959   2
  -4  -1  -4 441.474 15.5690   4
   4   1   4 459.753 15.3194   4
   4   1   4 463.358 16.1802   3
   4   1   4 461.604 15.3185   2
   4   1   4 472.605 15.5600   4
  -5  -1  -4 1424.87 45.3238   2
  -5  -1  -4 1420.00 46.7587   3
  -5  -1  -4 1372.32 47.6288   4
  -5  -1  -4 1451.28 46.0824   4
   5   1   4 1504.13 45.6339   2
   5   1   4 1493.18 46.0020   4
  -6  -1  -4 5.69235 2.26293   4
  -6  -1  -4 7.02211 2.69611   3
  -6  -1  -4 6.46737 1.88756   4
  -6  -1  -4 10.7178 1.94242   2
   6   1   4 6.73377 2.76724   4
   6   1   4 8.84118 2.06924   2
   6   1   4 9.68143 2.31946   4
  -7  -1  -4 3.83516 2.14387   2
  -7  -1  -4 2.45633 4.03909   3
   6  -2  -4 304.083 14.5117   4
   6  -2  -4 312.515 13.4995   4
   6  -2  -4 284.342 14.0830   3
  -6   2   4 298.797 12.4684   2
  -6   2   4 295.792 13.4591   4
  -6   2   4 314.993 13.7402   4
  -6   2   4 317.100 13.2146   3
   5  -2  -4 -1.8799 2.17758   4
   5  -2  -4 1.47248 1.83724   3
   5  -2  -4 0.23177 2.34266   4
   5  -2  -4 0.17897 2.00429   2
  -5   2   4 -1.8658 2.08333   4
  -5   2   4 3.12215 2.40616   4
  -5   2   4 2.01863 1.79458   2
  -5   2   4 0.29478 2.30279   3
   4  -2  -4 95.5720 5.89003   4
   4  -2  -4 95.0889 4.95833   2
   4  -2  -4 95.2861 4.71533   3
   4  -2  -4 89.0797 5.28773   4
  -4   2   4 91.0423 5.44381   4
  -4   2   4 93.4413 5.03318   3
  -4   2   4 94.4423 5.50274   4
   3  -2  -4 1.59743 1.20390   4
   3  -2  -4 2.57520 1.13651   2
   3  -2  -4 2.28408 1.01590   3
   3  -2  -4 1.73294 1.17578   4
  -3   2   4 1.59017 1.09886   4
  -3   2   4 3.43287 1.26390   2
  -3   2   4 2.30536 1.17025   4
   2  -2  -4 643.185 21.7165   4
   2  -2  -4 668.294 21.1654   2
   2  -2  -4 652.281 20.7251   3
   2  -2  -4 647.464 21.2780   4
  -2   2   4 644.204 21.3782   4
  -2   2   4 670.497 21.4089   4
  -2   2   4 639.788 20.8991   3
  -2   2   4 617.290 21.1097   2
   1  -2  -4 13.6516 1.38963   2
   1  -2  -4 13.2895 1.34822   4
   1  -2  -4 11.4192 1.09384   3
   1  -2  -4 12.3268 1.40712   4
  -1   2   4 13.4558 1.35596   2
  -1   2   4 11.7541 1.20928   3
  -1   2   4 11.0599 1.24857   4
   0  -2  -4 221.520 7.48625   3
   0  -2  -4 221.622 7.36840   4
   0  -2  -4 211.457 7.58511   2
   0  -2  -4 209.662 7.45175   4
   0   2   4 223.167 7.29917   4
   0   2   4 224.924 7.69941   2
   0   2   4 223.335 7.22613   4
   0   2   4 224.797 7.41987   3
  -1  -2  -4 3907.56 119.676   3
  -2  -2  -4 2367.80 74.2883   3
  -2  -2  -4 2447.93 74.2103   2
  -3  -2  -4 534.086 17.2041   4
  -3  -2  -4 537.496 17.0734   4
  -3  -2  -4 522.214 17.8355   3
  -3  -2  -4 503.788 17.4175   2
   3   2   4 565.528 16.7659   4
   3   2   4 550.365 16.7533   4
  -4  -2  -4 68.7608 3.32442   4
  -4  -2  -4 68.1344 3.49608   4
  -4  -2  -4 65.4043 3.42571   2
  -4  -2  -4 67.1366 4.00380   3
   4   2   4 69.8999 3.17881   4
   4   2   4 69.2890 3.04297   4
   4   2   4 68.9395 3.53795   2
  -5  -2  -4 34.8202 2.84163   2
  -5  -2  -4 31.0144 2.70878   4
  -5  -2  -4 40.7991 3.06316   4
  -5  -2  -4 31.5352 3.47266   3
   5   2   4 35.9527 2.67817   4
   5   2   4 35.0439 2.97672   2
  -6  -2  -4 16.6470 3.04801   3
  -6  -2  -4 17.5828 2.64572   4
  -6  -2  -4 10.8241 2.31312   4
  -6  -2  -4 15.7606 2.31510   2
   6   2   4 15.3528 2.47494   2
   6   2   4 18.5225 2.50933   4
  -7  -2  -4 265.416 10.7513   2
  -7  -2  -4 265.726 12.5066   3
  -7  -2  -4 273.383 11.4269   4
   7   2   4 276.028 12.1684   2
   6  -3  -4 96.6950 11.7499   4
  -6   3   4 98.0508 7.09978   2
  -6   3   4 105.590 8.35525   3
  -6   3   4 104.600 10.8241   4
   5  -3  -4 73.7500 5.49301   3
   5  -3  -4 79.5967 6.20822   4
   5  -3  -4 75.4385 6.77005   4
   5  -3  -4 84.2306 6.07883   2
  -5   3   4 90.1689 6.49334   4
  -5   3   4 76.7786 6.15160   3
  -5   3   4 81.7019 5.46995   2
  -5   3   4 73.9364 6.30829   4
   4  -3  -4 689.115 23.8538   4
   4  -3  -4 687.908 24.6120   4
   4  -3  -4 686.840 23.1542   3
  -4   3   4 669.392 23.3325   2
  -4   3   4 676.754 24.0700   4
  -4   3   4 712.725 24.0795   4
  -4   3   4 694.218 23.7135   3
   3  -3  -4 55.2992 3.78935   4
   3  -3  -4 53.0114 4.22470   4
   3  -3  -4 53.0448 3.49386   2
   3  -3  -4 53.7588 3.50468   3
  -3   3   4 52.7813 3.52290   2
  -3   3   4 48.3208 3.61044   4
  -3   3   4 50.4677 3.80628   4
  -3   3   4 53.7758 3.71273   3
   2  -3  -4 7.43232 1.37869   2
   2  -3  -4 11.2852 1.72177   4
   2  -3  -4 10.3888 1.53643   3
  -2   3   4 9.69249 1.78544   4
  -2   3   4 11.2696 1.62924   3
  -2   3   4 7.41008 1.42619   2
   1  -3  -4 120.201 5.01287   2
   1  -3  -4 125.874 5.05274   3
   1  -3  -4 111.935 4.96007   4
   1  -3  -4 128.799 5.44361   4
  -1   3   4 120.170 5.08692   3
  -1   3   4 120.557 5.09737   2
  -1   3   4 129.268 5.20274   4
   0  -3  -4 1220.68 38.5014   3
   0  -3  -4 1189.94 38.1358   4
   0  -3  -4 1245.56 38.3833   4
   0  -3  -4 1203.56 38.4077   2
   0   3   4 1240.42 38.1294   4
   0   3   4 1210.19 37.9985   4
   0   3   4 1300.02 38.5505   3
   0   3   4 1180.32 38.4465   2
  -1  -3  -4 290.778 9.90119   3
  -1  -3  -4 264.567 9.54160   2
  -1  -3  -4 280.895 9.07537   4
  -1  -3  -4 279.566 8.96013   4
   1   3   4 277.656 8.57209   4
   1   3   4 276.589 8.61948   4
   1   3   4 271.442 9.61858   3
  -2  -3  -4 1662.90 51.3271   4
  -2  -3  -4 1668.48 52.4253   2
  -2  -3  -4 1705.30 52.6765   3
  -3  -3  -4 10.0951 1.71055   3
  -3  -3  -4 13.1862 0.95306   4
  -3  -3  -4 10.9939 1.64724   2
  -3  -3  -4 13.7302 1.77840   3
  -4  -3  -4 31.1383 1.93255   4
  -4  -3  -4 29.8014 2.80929   3
  -4  -3  -4 33.1774 2.55849   2
  -4  -3  -4 29.1161 1.92938   4
   4   3   4 29.5035 1.65532   4
   4   3   4 29.0250 2.56534   2
   4   3   4 32.1138 1.67354   4
  -5  -3  -4 306.661 11.9155   3
  -5  -3  -4 282.297 10.7093   4
  -5  -3  -4 311.751 11.2137   2
  -5  -3  -4 295.892 10.7050   4
   5   3   4 301.411 10.4406   4
   5   3   4 298.405 11.2665   2
   5   3   4 310.269 10.4170   4
  -6  -3  -4 291.362 11.0561   4
  -6  -3  -4 297.782 12.0830   3
  -6  -3  -4 272.173 10.8626   4
   6   3   4 284.510 10.5144   4
   6   3   4 300.985 11.5081   2
   6   3   4 293.468 10.6754   4
  -7  -3  -4 4.32448 2.88626   3
  -7  -3  -4 6.47253 2.77770   4
  -7  -3  -4 5.62850 2.27000   4
  -7  -3  -4 7.60904 2.41329   2
   7   3   4 6.10740 3.94682   4
   7   3   4 2.13270 2.72406   2
   5  -4  -4 354.025 15.8588   4
   5  -4  -4 337.077 14.7212   4
  -5   4   4 375.213 14.1205   2
  -5   4   4 293.750 14.6657   4
  -5   4   4 360.553 14.9775   3
   4  -4  -4 273.963 12.0906   4
   4  -4  -4 281.888 12.8101   4
   4  -4  -4 291.151 11.5138   3
   4  -4  -4 297.098 11.4455   2
  -4   4   4 282.610 11.5126   2
  -4   4   4 287.787 12.1085   3
  -4   4   4 283.894 12.3345   4
   3  -4  -4 89.9051 5.34374   4
   3  -4  -4 100.635 5.02242   2
   3  -4  -4 88.7892 5.12434   3
   3  -4  -4 99.8292 6.13058   4
  -3   4   4 90.2749 5.48840   3
  -3   4   4 86.3231 5.00216   2
  -3   4   4 89.3354 5.67859   4
   2  -4  -4 789.681 26.8990   4
   2  -4  -4 781.899 26.0282   2
   2  -4  -4 796.807 26.4242   4
  -2   4   4 790.240 26.1944   2
  -2   4   4 806.819 26.7030   4
  -2   4   4 771.436 26.4637   3
  -2   4   4 822.427 26.4011   4
   1  -4  -4 1535.02 50.2177   3
   1  -4  -4 1617.24 50.2096   4
   1  -4  -4 1580.57 50.0484   2
   1  -4  -4 1569.97 50.5519   4
  -1   4   4 1596.44 50.2257   2
  -1   4   4 1622.54 50.5579   4
  -1   4   4 1624.79 50.4774   3
   0  -4  -4 26.5527 2.15940   2
   0  -4  -4 26.9490 2.51904   3
   0  -4  -4 32.6890 2.15192   4
   0  -4  -4 35.8975 2.38846   4
   0   4   4 29.6023 2.31072   2
   0   4   4 28.8327 2.08106   4
   0   4   4 28.8970 2.50545   3
   0   4   4 30.2470 1.89096   4
  -1  -4  -4 4.94927 1.23744   3
  -1  -4  -4 5.84162 1.16326   2
  -1  -4  -4 4.92817 0.91514   4
   1   4   4 4.64308 1.22378   3
   1   4   4 6.14768 0.70816   4
   1   4   4 5.51584 0.82271   4
  -2  -4  -4 1936.28 60.6036   2
  -2  -4  -4 1914.76 59.8004   4
  -2  -4  -4 1918.23 59.6414   4
  -2  -4  -4 1916.81 60.8651   2
  -2  -4  -4 2044.26 61.2572   3
   2   4   4 1934.17 60.8194   3
  -3  -4  -4 507.701 16.1852   4
  -3  -4  -4 515.886 16.4494   4
  -3  -4  -4 521.493 17.5482   2
  -4  -4  -4 934.807 29.7178   2
  -4  -4  -4 948.953 30.3680   3
  -4  -4  -4 887.951 28.5584   4
  -4  -4  -4 889.151 29.7205   3
  -4  -4  -4 888.012 28.3648   4
   4   4   4 893.970 27.9401   4
   4   4   4 906.689 27.9026   4
  -5  -4  -4 48.3384 2.68082   4
  -5  -4  -4 45.3604 3.68657   3
  -5  -4  -4 44.9486 2.83195   4
  -5  -4  -4 45.6117 3.59308   2
   5   4   4 48.5149 2.45198   4
   5   4   4 44.8905 2.50764   4
   5   4   4 41.7458 3.75047   2
  -6  -4  -4 44.6626 3.39986   4
  -6  -4  -4 46.6830 4.10308   2
  -6  -4  -4 35.8654 3.95738   3
  -6  -4  -4 47.8958 3.14446   4
   6   4   4 39.9085 2.88174   4
  -7  -4  -4 917.531 30.2707   2
  -7  -4  -4 906.426 31.2076   3
  -7  -4  -4 897.018 29.9496   4
  -7  -4  -4 887.615 29.5821   4
   7   4   4 861.078 30.7143   2
   7   4   4 918.819 29.3162   4
   4  -5  -4 14.6028 3.41842   4
   4  -5  -4 29.3039 6.56007   4
   4  -5  -4 22.4140 3.77298   3
  -4   5   4 23.1439 3.59691   2
  -4   5   4 18.0810 3.15195   4
  -4   5   4 28.5585 4.45804   3
  -4   5   4 19.2252 3.95098   4
   3  -5  -4 34.6108 3.78816   2
   3  -5  -4 41.8340 4.28144   3
   3  -5  -4 25.8843 3.48671   4
   3  -5  -4 31.9746 5.21357   4
  -3   5   4 29.9418 3.66645   4
  -3   5   4 37.4951 3.97815   2
  -3   5   4 31.2689 3.94342   3
  -3   5   4 37.4715 4.75188   4
   2  -5  -4 39.2700 3.73575   3
   2  -5  -4 44.5044 3.42615   2
   2  -5  -4 35.7593 3.87212   4
   2  -5  -4 29.8415 3.29081   4
  -2   5   4 32.2619 3.81721   4
  -2   5   4 30.5742 3.32012   4
  -2   5   4 48.0120 4.25169   3
  -2   5   4 34.5586 3.41757   2
   1  -5  -4 10.8914 1.83270   2
   1  -5  -4 12.7416 2.20230   3
   1  -5  -4 9.77101 1.79267   4
   1  -5  -4 14.9191 2.45883   4
  -1   5   4 9.66907 2.23628   3
  -1   5   4 14.4062 2.31944   4
  -1   5   4 10.3554 1.76719   2
   0  -5  -4 1222.48 43.3400   3
   0  -5  -4 1342.03 42.3402   4
   0  -5  -4 1340.94 42.1399   2
   0  -5  -4 1309.00 42.0091   4
   0   5   4 1343.48 41.6271   4
   0   5   4 1353.22 42.7707   3
   0   5   4 1355.64 42.1982   4
  -1  -5  -4 16.1713 2.07281   2
  -1  -5  -4 17.5761 1.83945   4
   1   5   4 19.1872 1.80870   4
   1   5   4 17.2082 1.32720   4
   1   5   4 17.4990 2.38072   3
  -2  -5  -4 1512.64 47.8943   4
  -2  -5  -4 1530.98 48.0921   4
  -2  -5  -4 1594.19 48.8338   2
  -2  -5  -4 1635.22 49.6475   3
  -2  -5  -4 1521.98 49.0637   2
   2   5   4 1508.57 47.3832   4
   2   5   4 1514.75 47.7429   4
   2   5   4 1522.28 49.0968   3
  -3  -5  -4 333.356 12.6615   3
  -3  -5  -4 317.261 10.6875   4
  -3  -5  -4 319.790 11.0767   4
  -3  -5  -4 327.717 12.0823   2
   3   5   4 324.402 10.3306   4
   3   5   4 321.223 10.3903   4
  -4  -5  -4 1008.26 32.8378   2
  -4  -5  -4 1026.19 33.5909   3
  -4  -5  -4 1012.50 31.6324   4
  -4  -5  -4 988.440 31.2677   4
   4   5   4 960.376 31.0243   4
   4   5   4 1005.65 30.8660   4
  -5  -5  -4 68.3170 4.61663   2
  -5  -5  -4 70.7174 3.60496   4
  -5  -5  -4 71.8033 4.69879   3
  -5  -5  -4 69.7252 3.29635   4
   5   5   4 73.4329 3.02649   4
   5   5   4 68.5648 3.15617   4
  -6  -5  -4 63.4690 6.05010   3
  -6  -5  -4 81.2916 5.44959   2
  -6  -5  -4 75.7063 3.89149   4
  -6  -5  -4 78.5127 4.31949   4
  -6  -5  -4 76.8004 5.61082   3
   6   5   4 76.2594 3.63008   4
   6   5   4 72.8688 3.72300   4
  -7  -5  -4 101.297 5.86827   4
  -7  -5  -4 112.102 7.36845   3
  -7  -5  -4 120.752 7.13050   2
  -7  -5  -4 116.086 5.93124   4
   7   5   4 105.867 5.30124   4
   3  -6  -4 87.4639 6.65354   4
   3  -6  -4 92.4395 9.02281   3
   3  -6  -4 89.1977 7.28571   4
  -3   6   4 87.4825 5.99549   4
  -3   6   4 97.6477 10.5656   4
  -3   6   4 105.538 7.75488   3
  -3   6   4 89.1405 6.13412   2
   2  -6  -4 179.316 9.00524   4
   2  -6  -4 169.259 8.38690   4
   2  -6  -4 179.763 8.81784   3
   2  -6  -4 177.904 8.02883   2
  -2   6   4 182.459 9.22580   3
  -2   6   4 184.500 9.10094   4
  -2   6   4 173.688 8.12053   4
  -2   6   4 180.383 8.32195   2
   1  -6  -4 764.741 26.0273   4
   1  -6  -4 776.701 26.4739   4
   1  -6  -4 765.123 26.4805   3
  -1   6   4 759.210 26.8448   3
  -1   6   4 761.165 26.2806   4
  -1   6   4 780.224 25.9475   2
   0  -6  -4 339.397 12.9361   3
   0  -6  -4 313.939 11.9944   4
   0  -6  -4 292.987 12.8077   4
   0  -6  -4 343.462 12.1781   2
   0   6   4 310.850 12.1082   4
   0   6   4 330.974 11.4984   4
   0   6   4 327.384 12.8629   3
  -1  -6  -4 49.7396 3.47290   2
  -1  -6  -4 43.4192 3.18342   4
  -1  -6  -4 51.4171 4.30857   3
   1   6   4 46.0519 4.04702   3
   1   6   4 35.8879 3.16275   4
   1   6   4 46.0666 2.50576   4
  -2  -6  -4 9.37872 2.38766   3
  -2  -6  -4 9.10808 1.85557   2
  -2  -6  -4 7.60589 1.43087   4
  -2  -6  -4 9.70758 1.55830   4
  -2  -6  -4 7.15562 1.76556   2
   2   6   4 7.80415 1.04919   4
   2   6   4 8.25250 2.00307   3
   2   6   4 9.46330 1.46806   4
  -3  -6  -4 137.744 7.23208   3
  -3  -6  -4 136.870 5.43938   4
   3   6   4 136.195 4.95916   4
   3   6   4 130.916 6.75477   3
   3   6   4 139.989 5.31042   4
  -4  -6  -4 1107.60 35.2721   4
  -4  -6  -4 1116.11 36.4361   2
  -4  -6  -4 1097.71 34.7609   4
   4   6   4 1098.74 34.4324   4
  -5  -6  -4 6.86271 2.20170   2
  -5  -6  -4 4.66191 1.19525   4
  -5  -6  -4 7.72117 1.56636   4
   5   6   4 6.63851 1.14883   4
  -6  -6  -4 105.919 4.79348   4
  -6  -6  -4 100.953 5.12232   4
  -6  -6  -4 100.787 6.48901   2
  -6  -6  -4 100.375 6.41194   3
   6   6   4 98.0791 4.23124   4
   6   6   4 107.057 4.45150   4
  -7  -6  -4 214.114 8.96451   4
  -7  -6  -4 212.260 10.2472   2
  -7  -6  -4 199.675 10.5418   3
   2  -7  -4 30.6688 4.29600   4
  -2   7   4 30.5913 4.98351   3
   1  -7  -4 6.53952 3.08346   3
   1  -7  -4 11.7004 3.12831   4
   1  -7  -4 7.82898 2.54871   2
   1  -7  -4 8.07611 2.31377   4
  -1   7   4 7.98425 2.34615   4
  -1   7   4 5.73068 3.28012   3
   0  -7  -4 36.6365 3.83448   4
   0  -7  -4 33.4622 4.96676   3
   0  -7  -4 43.6843 4.01369   2
   0  -7  -4 33.6743 3.89934   4
   0   7   4 40.7352 4.93983   3
   0   7   4 39.6339 3.15429   4
   0   7   4 35.5003 3.95967   4
  -1  -7  -4 1277.70 42.1121   3
  -1  -7  -4 1270.94 41.0182   4
   1   7   4 1277.42 39.8916   4
   1   7   4 1225.85 41.8520   3
  -2  -7  -4 590.498 19.9724   4
  -2  -7  -4 598.718 20.2284   4
  -2  -7  -4 580.599 20.8892   2
  -2  -7  -4 588.802 21.6151   3
   2   7   4 582.512 21.3016   3
   2   7   4 588.155 19.0410   4
  -3  -7  -4 16.1854 2.28315   4
  -3  -7  -4 13.4337 3.20265   3
  -3  -7  -4 10.4112 2.47063   2
  -3  -7  -4 7.85677 1.50740   4
   3   7   4 10.5054 1.51356   4
   3   7   4 11.7570 2.88029   3
  -4  -7  -4 212.025 8.48931   4
  -4  -7  -4 192.554 10.2893   3
  -4  -7  -4 207.016 9.46485   2
  -4  -7  -4 203.082 7.86804   4
   4   7   4 204.994 7.59309   4
   4   7   4 207.081 7.66076   4
  -5  -7  -4 76.5367 5.57054   2
  -5  -7  -4 76.6029 4.41625   4
  -5  -7  -4 71.7507 3.86428   4
   5   7   4 75.7300 3.60123   4
   5   7   4 67.4313 3.50422   4
  -6  -7  -4 637.358 21.0770   4
  -6  -7  -4 640.918 21.5595   4
  -6  -7  -4 628.470 22.9996   2
   1  -8  -4 713.497 26.2812   4
  -1   8   4 739.198 27.1517   3
   0  -8  -4 80.7004 6.13657   4
   0   8   4 78.7415 7.29843   3
   0   8   4 73.1329 4.79914   4
  -1  -8  -4 13.4810 2.59454   4
  -1  -8  -4 15.7830 3.06999   4
   1   8   4 14.1309 3.70116   3
   1   8   4 17.8573 2.24197   4
  -2  -8  -4 775.672 26.7924   4
  -2  -8  -4 808.392 27.1010   4
  -2  -8  -4 816.176 27.7891   2
   2   8   4 775.214 25.5734   4
   2   8   4 796.197 28.3114   3
  -3  -8  -4 270.143 10.8661   4
  -3  -8  -4 279.517 12.0087   2
  -3  -8  -4 279.737 11.2865   4
   3   8   4 280.104 12.5254   3
   3   8   4 286.178 9.91246   4
  -4  -8  -4 653.972 22.0491   4
  -4  -8  -4 636.322 23.4823   2
  -4  -8  -4 659.441 22.6561   4
   4   8   4 663.448 21.2362   4
  -5  -8  -4 106.722 7.28063   2
  -5  -8  -4 118.023 6.17481   4
  -5  -8  -4 114.484 5.65292   4
   5   8   4 109.544 5.01014   4
  -6  -8  -4 72.1625 7.78577   2
   6   8   4 69.4727 3.79499   4
  -1  -9  -4 588.680 21.6165   2
  -1  -9  -4 554.822 21.0613   4
   1   9   4 550.296 22.2787   3
  -2  -9  -4 114.026 7.10537   4
  -2  -9  -4 103.164 7.65310   2
   2   9   4 109.292 8.43065   3
  -3  -9  -4 1.19589 2.53702   4
  -3  -9  -4 5.35107 3.34185   2
   3   9   4 5.16672 4.05369   3
  -4  -9  -4 16.7226 3.96705   2
  -4  -9  -4 18.3625 3.42306   4
   4   7  -5 269.813 12.6534   3
  -4  -7   5 290.970 11.8063   2
  -4  -7   5 261.373 13.3014   4
   3   7  -5 215.921 12.1787   4
   3   7  -5 194.002 10.8288   3
  -3  -7   5 197.823 11.0828   4
  -3  -7   5 211.774 9.30952   2
   2   7  -5 8.18658 4.24239   3
   2   7  -5 13.8864 4.24202   4
   2   7  -5 5.28800 3.98182   4
  -2  -7   5 8.09874 2.46607   2
  -2  -7   5 0.18809 3.19229   4
  -2  -7   5 7.81021 5.25204   4
   1   7  -5 491.018 17.4111   4
   1   7  -5 433.624 19.7931   4
   1   7  -5 442.633 19.2375   3
  -1  -7   5 468.584 18.8708   4
  -1  -7   5 483.041 19.2792   4
  -1  -7   5 472.974 16.3743   2
  -5  -6   5 124.357 7.12909   2
  -5  -6   5 111.874 8.51697   3
  -5  -6   5 129.019 8.27827   4
   4   6  -5 91.3149 6.55042   3
   4   6  -5 88.7805 6.89419   2
   4   6  -5 92.2453 7.88866   4
   4   6  -5 91.8112 6.15097   4
  -4  -6   5 90.2802 5.92297   4
  -4  -6   5 89.3338 5.84490   2
  -4  -6   5 100.568 7.15760   3
  -4  -6   5 98.1154 7.07366   4
   3   6  -5 779.498 25.5219   4
   3   6  -5 738.592 26.2282   3
   3   6  -5 689.779 26.4449   4
  -3  -6   5 747.260 26.7388   4
  -3  -6   5 718.488 25.5674   4
  -3  -6   5 766.021 25.1007   2
  -3  -6   5 764.834 26.3712   3
   2   6  -5 157.767 9.12811   4
   2   6  -5 161.621 7.42202   4
   2   6  -5 158.765 8.96165   3
  -2  -6   5 156.090 8.85498   4
  -2  -6   5 163.676 7.12099   2
  -2  -6   5 158.996 8.68692   3
  -2  -6   5 169.952 8.16082   4
   1   6  -5 481.751 16.7568   4
   1   6  -5 466.162 18.4461   3
   1   6  -5 457.854 18.4615   4
  -1  -6   5 462.602 18.1748   4
  -1  -6   5 476.984 15.9556   2
  -1  -6   5 434.410 17.7598   3
  -1  -6   5 459.333 17.5912   4
  -1  -6   5 472.586 15.9842   2
   0   6  -5 -6.7447 3.61737   4
   0   6  -5 -0.0544 1.99439   4
   0   6  -5 -4.1551 3.57708   3
   0  -6   5 -1.2431 2.91229   4
   0  -6   5 0.08432 1.36063   2
   0  -6   5 5.03633 3.37524   4
   0  -6   5 1.98153 1.40445   2
  -1   6  -5 221.679 9.75602   4
  -1   6  -5 209.292 11.8185   3
  -1   6  -5 214.407 12.2942   4
   1  -6   5 213.217 11.0198   4
  -6  -5   5 44.0142 6.04495   4
  -6  -5   5 40.6485 5.03156   3
  -6  -5   5 49.2623 6.65051   3
  -6  -5   5 38.1147 4.95236   2
   5   5  -5 338.796 14.6736   4
   5   5  -5 357.387 14.0715   4
  -5  -5   5 341.459 14.1625   4
  -5  -5   5 331.077 13.3154   2
   4   5  -5 257.316 10.7122   4
   4   5  -5 253.518 11.5244   4
   4   5  -5 249.038 10.8626   2
  -4  -5   5 261.300 11.1484   3
  -4  -5   5 265.875 10.3614   2
  -4  -5   5 250.553 10.6335   4
  -4  -5   5 257.152 11.2531   4
   3   5  -5 808.756 25.8517   4
   3   5  -5 731.064 26.0734   3
   3   5  -5 771.009 26.8226   4
   3   5  -5 741.871 25.7700   2
  -3  -5   5 746.761 25.4083   2
  -3  -5   5 741.650 27.4140   4
  -3  -5   5 788.308 26.8179   4
  -3  -5   5 782.639 26.2535   3
   2   5  -5 45.5724 4.61976   4
   2   5  -5 38.4469 4.51835   3
   2   5  -5 39.3692 3.22031   4
  -2  -5   5 40.9773 3.67746   4
  -2  -5   5 55.7657 4.43933   3
  -2  -5   5 46.4740 4.31482   4
  -2  -5   5 42.1890 3.15084   2
   1   5  -5 181.736 8.86439   4
   1   5  -5 151.498 8.57288   3
   1   5  -5 172.991 7.29745   4
  -1  -5   5 171.463 8.11730   3
  -1  -5   5 182.291 8.63781   4
  -1  -5   5 166.835 6.69065   2
  -1  -5   5 168.534 7.93968   4
   0   5  -5 264.991 11.7472   3
   0   5  -5 268.160 10.2619   4
   0  -5   5 258.830 9.11957   2
   0  -5   5 269.750 11.4251   4
   0  -5   5 252.039 9.07592   2
   0  -5   5 248.923 10.8291   4
  -1   5  -5 962.639 30.7155   4
  -1   5  -5 905.691 32.2748   3
  -1   5  -5 904.550 33.0045   4
   1  -5   5 965.948 28.8074   2
   1  -5   5 917.951 31.5105   4
   1  -5   5 855.512 31.2501   3
   1  -5   5 950.706 31.7953   4
   1  -5   5 907.588 28.8369   2
  -2   5  -5 6.32421 3.96867   4
  -2   5  -5 3.53885 3.97407   3
  -2   5  -5 4.28095 2.47913   4
   2  -5   5 11.6702 3.58830   4
   2  -5   5 1.86970 2.91974   4
  -3   5  -5 239.580 12.9220   3
  -3   5  -5 260.058 11.4850   4
   6   4  -5 655.106 24.4391   4
   6   4  -5 642.608 24.8047   4
  -6  -4   5 677.068 22.9253   3
  -6  -4   5 650.236 23.3266   2
  -6  -4   5 709.418 24.4059   4
   5   4  -5 47.1309 5.33249   4
   5   4  -5 57.2898 5.27888   2
   5   4  -5 55.4942 4.96364   4
  -5  -4   5 46.5438 4.27834   2
  -5  -4   5 49.3454 3.93304   4
  -5  -4   5 56.1518 4.95811   4
  -5  -4   5 47.9648 5.05693   3
   4   4  -5 33.1325 4.36558   4
   4   4  -5 34.8891 3.93325   2
   4   4  -5 32.8790 3.39797   4
  -4  -4   5 34.8989 3.71189   3
  -4  -4   5 32.0227 3.06645   4
  -4  -4   5 38.9190 3.75536   4
  -4  -4   5 33.2784 3.21026   2
   3   4  -5 3.92141 1.29884   4
   3   4  -5 5.28274 1.67585   2
   3   4  -5 4.96751 2.35727   4
   3   4  -5 3.27977 1.72692   3
  -3  -4   5 6.70378 1.71070   4
  -3  -4   5 3.36021 1.76306   4
  -3  -4   5 4.82355 1.90840   3
  -3  -4   5 4.64143 1.41590   2
   2   4  -5 991.537 32.4287   2
   2   4  -5 994.313 32.3704   4
   2   4  -5 1002.62 33.3749   4
   2   4  -5 960.403 32.8314   3
  -2  -4   5 1010.15 33.3928   4
  -2  -4   5 1038.23 32.8377   3
  -2  -4   5 977.990 31.9655   2
  -2  -4   5 1029.87 32.5646   4
   1   4  -5 1716.38 52.1339   4
   1   4  -5 1683.82 53.0631   3
   1   4  -5 1668.37 53.1960   4
  -1  -4   5 1638.66 53.1102   4
  -1  -4   5 1738.08 52.6898   3
  -1  -4   5 1465.31 52.6520   4
  -1  -4   5 1652.68 51.4558   2
   0   4  -5 152.534 7.67179   4
   0   4  -5 155.931 6.63861   4
   0   4  -5 146.289 7.62601   3
   0  -4   5 162.415 7.28293   3
   0  -4   5 162.747 5.74253   2
   0  -4   5 157.119 7.22999   4
   0  -4   5 159.789 5.74104   2
   0  -4   5 155.441 7.41543   4
  -1   4  -5 140.962 7.55945   4
  -1   4  -5 133.283 7.47270   3
   1  -4   5 142.853 7.11596   4
   1  -4   5 136.154 6.99046   4
   1  -4   5 134.328 4.72094   2
   1  -4   5 135.624 6.87350   3
   1  -4   5 136.968 4.77718   2
  -2   4  -5 16.7034 3.48662   3
  -2   4  -5 22.1379 3.39845   4
  -2   4  -5 23.0498 3.80512   4
   2  -4   5 23.6594 3.31422   4
   2  -4   5 27.2363 3.88355   3
   2  -4   5 26.0133 3.53471   4
  -3   4  -5 850.566 27.1695   4
  -3   4  -5 759.483 28.4633   3
  -3   4  -5 727.521 28.2971   4
   3  -4   5 825.534 27.7434   4
   3  -4   5 774.299 27.5843   4
  -4   4  -5 120.200 9.69592   3
  -4   4  -5 123.879 7.72600   4
  -7  -3   5 1.46934 3.86920   3
  -7  -3   5 1.84001 2.92768   3
  -7  -3   5 1.35673 5.55547   4
   6   3  -5 6.39585 3.24425   4
   6   3  -5 0.82054 3.09790   4
  -6  -3   5 3.28450 2.22304   4
  -6  -3   5 3.33326 1.87854   4
  -6  -3   5 4.16842 2.22267   2
  -6  -3   5 7.52065 3.00685   3
   5   3  -5 0.62897 2.21642   2
   5   3  -5 1.70738 2.08363   4
   5   3  -5 2.96255 2.53375   4
  -5  -3   5 1.58419 1.59879   4
  -5  -3   5 0.49155 1.84752   4
  -5  -3   5 -0.1122 1.60058   2
  -5  -3   5 3.41913 2.07901   3
  -5  -3   5 3.23152 1.45300   3
   4   3  -5 1692.28 54.0835   4
   4   3  -5 1715.07 53.5576   4
   4   3  -5 1651.34 53.3531   2
  -4  -3   5 1713.29 53.6673   4
  -4  -3   5 1668.16 52.9871   3
  -4  -3   5 1590.58 52.6404   4
   3   3  -5 0.91737 1.25443   4
   3   3  -5 1.40097 1.39305   4
   3   3  -5 0.76320 1.33272   2
  -3  -3   5 0.80522 0.91063   4
  -3  -3   5 1.27227 1.26029   4
  -3  -3   5 0.99862 1.27156   3
  -3  -3   5 0.77267 0.96550   2
   2   3  -5 24.3384 2.53035   3
   2   3  -5 21.7759 2.11436   4
   2   3  -5 22.0380 2.28093   2
   2   3  -5 22.2863 2.87951   4
  -2  -3   5 22.5628 2.14910   4
  -2  -3   5 24.4296 2.62512   4
  -2  -3   5 24.2473 1.99379   2
  -2  -3   5 21.4217 2.30748   3
   1   3  -5 489.136 16.6647   3
   1   3  -5 469.570 15.7318   2
   1   3  -5 477.853 16.9335   4
   1   3  -5 488.888 16.0887   4
  -1  -3   5 468.221 15.5191   2
  -1  -3   5 480.104 16.2644   4
  -1  -3   5 478.520 16.8987   4
  -1  -3   5 462.767 16.2532   3
   0   3  -5 16.1640 2.40662   3
   0   3  -5 13.0603 2.07241   4
   0  -3   5 11.0650 1.74688   4
   0  -3   5 12.7670 1.95388   3
   0  -3   5 12.8427 1.12688   2
   0  -3   5 7.35539 1.53762   4
  -1   3  -5 1400.77 45.2994   3
  -1   3  -5 1396.33 44.3086   4
  -1   3  -5 1357.97 45.2495   4
   1  -3   5 1415.62 44.7752   3
   1  -3   5 1437.15 45.0530   4
   1  -3   5 1296.06 42.6667   2
   1  -3   5 1484.33 44.9398   4
  -2   3  -5 204.928 9.71891   4
  -2   3  -5 231.851 8.90831   4
   2  -3   5 219.955 9.24522   4
   2  -3   5 215.789 9.23879   4
   2  -3   5 230.223 9.28080   3
  -3   3  -5 67.4835 5.57641   3
  -3   3  -5 67.7943 4.50874   4
  -3   3  -5 61.6718 5.55361   4
   3  -3   5 66.6659 4.89492   4
   3  -3   5 68.2625 4.97606   4
   3  -3   5 72.4504 5.10893   3
  -4   3  -5 86.5494 7.20528   4
  -4   3  -5 97.6127 6.08995   4
  -4   3  -5 81.0633 6.90302   3
   4  -3   5 97.2964 6.53690   4
  -5   3  -5 744.597 26.3491   4
  -7  -2   5 105.989 8.54070   4
  -7  -2   5 103.021 6.84825   3
  -7  -2   5 105.175 7.81042   3
  -7  -2   5 119.358 9.20838   2
   6   2  -5 1218.42 40.9393   4
   6   2  -5 1150.06 40.5359   4
  -6  -2   5 1225.97 40.6534   4
  -6  -2   5 1195.02 39.5892   2
  -6  -2   5 1245.95 39.6284   3
  -6  -2   5 1202.19 39.4276   4
  -6  -2   5 1212.39 38.9548   3
   5   2  -5 0.89521 1.83185   4
   5   2  -5 -2.8417 1.94895   2
   5   2  -5 0.67668 2.16804   4
  -5  -2   5 1.20338 1.62503   4
  -5  -2   5 -1.2181 1.45505   2
  -5  -2   5 -2.6591 1.15497   3
  -5  -2   5 0.64837 1.47939   4
   4   2  -5 5.21834 1.84245   4
   4   2  -5 4.11661 1.52051   4
   4   2  -5 3.36753 1.85028   2
  -4  -2   5 7.62202 1.85128   4
  -4  -2   5 5.80460 1.59758   2
  -4  -2   5 6.48503 1.19739   3
  -4  -2   5 5.30550 1.34753   4
   3   2  -5 136.179 6.11196   4
   3   2  -5 139.163 6.11116   2
   3   2  -5 136.542 6.62322   4
  -3  -2   5 142.113 5.70194   3
  -3  -2   5 138.070 5.77565   2
  -3  -2   5 132.319 6.20730   4
  -3  -2   5 141.196 5.69833   4
   2   2  -5 1014.85 32.9694   4
   2   2  -5 993.176 32.5722   3
   2   2  -5 1055.19 33.7357   4
   2   2  -5 1053.18 32.9269   2
  -2  -2   5 1050.41 32.7775   4
  -2  -2   5 1013.18 32.6324   2
  -2  -2   5 1030.12 33.4577   4
  -2  -2   5 1050.28 32.6791   3
   1   2  -5 2850.11 84.3345   4
   1   2  -5 2689.36 84.9878   4
   1   2  -5 2695.76 84.0112   2
   1   2  -5 2719.01 84.4321   3
  -1  -2   5 2756.30 84.2259   3
  -1  -2   5 2794.55 85.0104   4
  -1  -2   5 2660.75 84.2741   4
  -1  -2   5 2677.36 83.8164   2
   0   2  -5 29.4611 1.54497   2
   0   2  -5 28.7509 2.49311   4
   0   2  -5 28.6302 2.43072   3
   0   2  -5 25.4306 1.92298   4
   0  -2   5 33.0476 1.41570   2
   0  -2   5 27.9804 2.63779   4
   0  -2   5 26.2648 2.13212   3
   0  -2   5 24.4035 2.09131   4
  -1   2  -5 20.0944 2.50694   3
  -1   2  -5 24.0476 2.54756   4
  -1   2  -5 20.8212 1.90293   4
   1  -2   5 19.2314 2.16809   4
   1  -2   5 21.8695 2.55399   4
   1  -2   5 22.1692 2.24058   3
  -2   2  -5 143.832 6.17531   4
  -2   2  -5 147.183 7.01871   3
  -2   2  -5 147.160 6.92360   4
   2  -2   5 148.656 6.47639   3
   2  -2   5 153.401 6.65753   4
  -3   2  -5 205.820 9.43104   3
  -3   2  -5 199.065 9.21783   4
  -3   2  -5 202.981 8.40182   4
   3  -2   5 216.036 8.89669   3
   3  -2   5 211.268 8.69901   4
  -4   2  -5 1.72038 2.66881   3
  -4   2  -5 6.20352 2.32128   4
  -4   2  -5 7.23457 1.74647   4
   4  -2   5 1.62889 2.23308   3
   4  -2   5 2.45640 1.85688   4
  -5   2  -5 80.6192 5.90355   4
  -5   2  -5 82.5844 7.03183   3
  -7  -1   5 493.682 18.7841   3
  -7  -1   5 489.837 18.8585   3
  -7  -1   5 523.063 20.3701   4
  -7  -1   5 543.479 21.7022   2
   6   1  -5 3.89081 2.88098   4
   6   1  -5 2.51425 2.20779   4
  -6  -1   5 5.36909 2.41530   4
  -6  -1   5 2.40923 2.66728   3
  -6  -1   5 3.26329 1.82453   4
  -6  -1   5 2.18671 1.97603   3
  -6  -1   5 2.88922 2.15162   2
   5   1  -5 64.5021 5.07275   4
   5   1  -5 74.5510 5.14577   4
  -5  -1   5 67.7361 4.31433   2
  -5  -1   5 72.5461 4.85333   4
  -5  -1   5 71.3417 3.86009   3
  -5  -1   5 49.6713 5.76631   4
  -5  -1   5 69.7196 4.26671   3
   4   1  -5 858.004 30.3099   4
   4   1  -5 928.327 30.5907   4
   4   1  -5 931.590 30.1244   2
  -4  -1   5 927.029 29.7379   4
  -4  -1   5 898.755 30.2098   4
  -4  -1   5 923.625 29.0378   3
  -4  -1   5 922.036 29.2666   3
  -4  -1   5 914.157 29.7614   2
   3   1  -5 286.189 11.0689   4
   3   1  -5 297.218 10.7415   2
   3   1  -5 293.223 10.9411   4
  -3  -1   5 288.258 10.4363   2
  -3  -1   5 291.032 10.3559   4
  -3  -1   5 290.438 10.8499   4
  -3  -1   5 291.744 9.97765   3
  -3  -1   5 294.338 9.75158   3
   2   1  -5 495.412 16.8271   4
   2   1  -5 495.537 17.2531   4
   2   1  -5 490.236 16.6597   2
  -2  -1   5 488.207 16.0474   3
  -2  -1   5 523.043 17.0711   4
  -2  -1   5 506.942 16.4826   4
  -2  -1   5 519.836 16.5489   2
   1   1  -5 201.419 7.12108   3
   1   1  -5 209.811 7.28981   2
   1   1  -5 210.632 8.00891   4
   1   1  -5 190.620 7.33562   4
  -1  -1   5 209.152 7.32962   4
  -1  -1   5 211.741 7.15391   2
  -1  -1   5 213.877 7.04674   3
   0   1  -5 65.8496 3.36909   4
   0   1  -5 63.4077 2.86050   4
   0   1  -5 61.0946 2.47474   2
   0   1  -5 67.2750 3.09666   3
   0  -1   5 60.5892 2.38213   2
   0  -1   5 59.1869 2.87941   4
   0  -1   5 64.1352 2.86049   3
  -1   1  -5 677.398 21.9081   4
  -1   1  -5 669.619 22.4265   4
  -1   1  -5 700.201 22.4016   3
   1  -1   5 700.043 22.1699   4
   1  -1   5 673.068 22.0991   3
  -2   1  -5 393.792 13.1442   4
  -2   1  -5 396.074 13.7795   3
  -2   1  -5 376.979 13.6782   4
   2  -1   5 371.023 13.3631   3
   2  -1   5 387.045 13.2930   4
   2  -1   5 381.541 13.3245   4
  -3   1  -5 22.9338 2.92152   3
  -3   1  -5 22.6914 2.27942   4
  -3   1  -5 20.5747 2.79617   4
   3  -1   5 25.6413 2.67759   3
   3  -1   5 21.1100 2.29011   4
   3  -1   5 20.1377 2.26001   4
  -4   1  -5 9.77131 1.98846   4
  -4   1  -5 8.72998 2.55528   3
  -4   1  -5 7.43296 2.13838   4
  -4   1  -5 8.62421 1.08032   2
   4  -1   5 9.33795 1.18396   2
   4  -1   5 10.7045 1.96987   4
   4  -1   5 6.36483 1.46360   4
  -5   1  -5 527.066 20.5434   4
  -5   1  -5 579.148 17.8233   2
  -5   1  -5 576.902 21.1077   3
  -5   1  -5 548.285 19.7754   4
   5  -1   5 550.369 19.7368   4
   5  -1   5 556.618 17.9955   2
  -6   1  -5 4.05042 2.94449   4
  -6   1  -5 8.14558 4.48328   3
   6   0  -5 388.808 16.3667   4
   6   0  -5 387.256 15.5991   4
  -6   0   5 388.763 15.6140   4
  -6   0   5 381.646 14.5887   3
  -6   0   5 380.826 14.7445   2
  -6   0   5 383.900 15.0497   4
   5   0  -5 94.3547 6.19670   4
   5   0  -5 85.4234 5.65030   4
  -5   0   5 88.3902 5.15423   2
  -5   0   5 84.1579 4.58728   3
  -5   0   5 83.2201 5.49151   4
  -5   0   5 81.4675 5.19296   4
   4   0  -5 3.31868 1.83736   4
   4   0  -5 7.39504 1.65609   2
   4   0  -5 5.24313 1.87323   4
  -4   0   5 4.77611 1.48576   2
  -4   0   5 4.37926 1.15111   3
  -4   0   5 1.67741 1.09438   4
  -4   0   5 3.76184 1.22781   4
   3   0  -5 234.100 8.94968   4
   3   0  -5 233.287 8.67229   2
   3   0  -5 222.430 9.01097   4
  -3   0   5 221.923 8.49653   2
  -3   0   5 230.104 7.75013   3
  -3   0   5 217.523 8.42555   4
  -3   0   5 225.343 8.82056   4
   2   0  -5 7729.20 245.562   1
  -2   0   5 7559.97 245.676   1
   1   0  -5 34.5129 2.32114   4
   1   0  -5 33.8529 1.96704   2
   1   0  -5 36.1898 2.07609   4
  -1   0   5 36.1489 1.85325   4
  -1   0   5 40.3455 2.02247   2
   0   0  -5 51.3718 2.09938   2
   0   0  -5 44.4414 2.13632   4
   0   0  -5 51.5261 2.17322   3
   0   0  -5 47.9994 2.60002   4
   0   0   5 49.1322 2.02077   3
   0   0   5 49.3495 2.20048   4
   0   0   5 46.6508 2.06676   2
   0   0   5 47.9875 2.44088   4
  -1   0  -5 84.9251 3.30079   4
  -1   0  -5 83.2882 2.80396   2
  -1   0  -5 71.7772 3.95220   4
  -1   0  -5 87.1176 3.63561   3
   1   0   5 83.1376 3.54844   4
   1   0   5 87.4445 3.42478   4
   1   0   5 84.0690 3.49786   3
  -2   0  -5 353.744 13.6764   4
  -2   0  -5 375.699 13.2726   3
  -2   0  -5 396.783 12.8011   4
   2   0   5 399.624 12.9072   4
   2   0   5 385.085 13.1475   3
   2   0   5 397.192 12.8460   4
  -3   0  -5 576.332 20.4495   3
  -3   0  -5 637.966 18.7915   2
  -3   0  -5 592.776 19.8377   4
   3   0   5 590.688 19.8016   4
   3   0   5 615.908 20.3625   3
   3   0   5 611.988 19.7904   4
  -4   0  -5 4.58320 1.29390   4
  -4   0  -5 3.68334 1.75448   4
  -4   0  -5 5.22127 2.14310   3
  -4   0  -5 6.38470 0.89479   2
   4   0   5 6.39087 0.97953   2
   4   0   5 3.39913 1.78561   3
   4   0   5 10.8921 1.74073   4
  -5   0  -5 42.8941 4.37653   4
  -5   0  -5 43.3267 2.59996   2
  -5   0  -5 38.7670 4.79514   3
  -5   0  -5 47.3966 3.75491   4
   5   0   5 39.6592 4.28278   3
   5   0   5 42.0394 3.60799   4
   5   0   5 44.1749 2.80739   2
  -6   0  -5 1.01387 2.25853   4
  -6   0  -5 -1.0797 3.54147   3
  -6   0  -5 3.69938 1.51487   2
   6   0   5 8.13725 2.48481   4
   6  -1  -5 13.0777 3.45014   4
   6  -1  -5 6.52629 3.06485   4
  -6   1   5 6.52707 2.78067   2
  -6   1   5 2.84978 2.51927   3
  -6   1   5 7.49955 3.09793   4
  -6   1   5 9.77476 3.70232   4
   5  -1  -5 282.457 11.5842   2
   5  -1  -5 289.981 12.0130   4
   5  -1  -5 268.906 12.4308   4
  -5   1   5 300.457 11.9042   4
  -5   1   5 304.246 12.1795   4
  -5   1   5 293.889 11.1441   3
  -5   1   5 298.609 11.6091   2
   4  -1  -5 468.502 17.1824   4
   4  -1  -5 491.563 16.1569   3
   4  -1  -5 503.724 18.0047   4
  -4   1   5 477.791 16.3981   3
  -4   1   5 503.146 17.3178   4
  -4   1   5 468.174 17.3021   4
   3  -1  -5 4.37233 0.89753   3
   3  -1  -5 5.11559 1.43073   4
   3  -1  -5 3.39322 1.23445   2
   3  -1  -5 5.19561 1.45723   4
  -3   1   5 5.44443 0.99921   3
  -3   1   5 3.35875 0.98375   4
  -3   1   5 5.71570 1.31006   2
  -3   1   5 4.40450 1.21698   4
   2  -1  -5 2849.68 87.0296   2
   2  -1  -5 2839.43 87.4823   4
   2  -1  -5 2805.38 87.1764   4
  -2   1   5 2866.17 86.9915   4
  -2   1   5 2728.42 86.9866   2
   1  -1  -5 230.431 8.35820   4
   1  -1  -5 249.330 8.31466   2
   1  -1  -5 238.751 8.42692   4
  -1   1   5 239.229 8.28813   2
  -1   1   5 235.193 8.40587   4
  -1   1   5 229.848 8.03748   4
   0  -1  -5 363.336 11.3928   3
   0  -1  -5 323.105 11.4019   3
   0  -1  -5 362.227 11.9489   4
   0  -1  -5 362.674 11.7120   4
   0  -1  -5 366.734 11.8036   2
   0   1   5 385.128 11.7718   4
   0   1   5 360.486 11.5157   4
   0   1   5 371.133 11.8490   2
  -1  -1  -5 69.0302 2.98633   3
  -1  -1  -5 74.3610 2.71232   4
  -1  -1  -5 73.4748 2.96896   4
  -1  -1  -5 72.6515 2.81990   2
   1   1   5 73.6145 2.72325   4
   1   1   5 75.8251 2.71624   4
  -2  -1  -5 929.975 29.0477   3
  -2  -1  -5 909.670 28.4108   2
  -2  -1  -5 930.955 28.3166   2
  -2  -1  -5 911.219 28.6798   4
  -2  -1  -5 902.082 28.4178   4
   2   1   5 915.472 28.3506   4
   2   1   5 887.245 28.2683   4
   2   1   5 913.219 29.0152   3
  -3  -1  -5 258.553 8.85240   4
  -3  -1  -5 258.003 8.55118   2
  -3  -1  -5 267.190 9.59274   3
  -3  -1  -5 253.156 9.18185   4
   3   1   5 265.923 8.69822   4
   3   1   5 226.938 8.62669   4
   3   1   5 250.940 9.42151   3
  -4  -1  -5 1860.22 57.0338   4
  -4  -1  -5 1763.24 55.9228   2
  -4  -1  -5 1737.74 56.4735   4
  -4  -1  -5 1825.54 57.3776   3
   4   1   5 1801.66 56.1205   2
   4   1   5 1815.16 56.3163   4
   4   1   5 1843.39 57.2684   3
   4   1   5 1820.62 56.1940   4
  -5  -1  -5 32.9192 3.53081   4
  -5  -1  -5 32.8376 4.04832   3
  -5  -1  -5 32.4052 2.43197   2
   5   1   5 36.3607 2.64725   2
   5   1   5 29.5265 2.82174   4
  -6  -1  -5 51.8289 5.26872   4
  -6  -1  -5 44.2911 3.47272   2
  -6  -1  -5 64.9175 5.53819   3
   6   1   5 52.4146 4.11609   4
   6   1   5 51.9225 3.88149   2
  -7  -1  -5 41.4488 5.89398   2
  -7  -1  -5 59.5927 5.74850   4
   6  -2  -5 51.1964 6.42581   4
   6  -2  -5 56.8635 5.52313   3
   6  -2  -5 62.4635 7.71412   4
  -6   2   5 52.0169 5.42056   2
  -6   2   5 50.8793 6.54081   4
  -6   2   5 46.7288 5.83756   3
  -6   2   5 64.2145 6.72707   4
   5  -2  -5 369.541 14.1592   2
   5  -2  -5 388.339 15.6337   4
   5  -2  -5 366.229 14.5370   4
   5  -2  -5 368.935 13.4861   3
  -5   2   5 369.256 14.7840   4
  -5   2   5 368.523 14.6457   4
  -5   2   5 361.341 13.9201   3
  -5   2   5 374.615 14.1663   2
   4  -2  -5 33.2707 3.95562   4
   4  -2  -5 24.7194 2.62989   3
   4  -2  -5 25.6814 3.27256   4
  -4   2   5 37.8862 3.60951   4
  -4   2   5 21.6838 3.37804   4
  -4   2   5 26.7861 2.91404   2
  -4   2   5 29.3880 2.90978   3
   3  -2  -5 151.313 5.76811   3
   3  -2  -5 149.751 7.10777   4
   3  -2  -5 153.755 6.43259   2
   3  -2  -5 157.919 6.68680   4
  -3   2   5 147.180 6.03284   3
  -3   2   5 141.914 6.58389   4
  -3   2   5 152.132 6.43592   2
  -3   2   5 135.898 6.53665   4
   2  -2  -5 496.147 17.2165   4
   2  -2  -5 489.508 15.9351   3
   2  -2  -5 498.116 16.7812   4
  -2   2   5 496.577 16.7304   2
  -2   2   5 485.303 16.1438   3
  -2   2   5 497.521 16.7346   4
  -2   2   5 516.935 16.9056   4
   1  -2  -5 7.60007 0.88100   3
   1  -2  -5 9.27748 1.24677   4
   1  -2  -5 8.94972 1.32718   4
   1  -2  -5 10.6267 1.33179   2
  -1   2   5 8.24449 1.18145   4
  -1   2   5 6.93170 1.18989   2
  -1   2   5 7.30821 0.96415   3
  -1   2   5 8.49173 1.11177   4
   0  -2  -5 379.761 12.4420   3
   0  -2  -5 370.669 12.7050   2
   0  -2  -5 394.361 12.6186   4
   0  -2  -5 392.758 12.4994   4
   0   2   5 380.962 12.1905   4
   0   2   5 392.635 12.8385   2
   0   2   5 383.990 12.3816   4
  -1  -2  -5 66.7999 2.90079   2
  -1  -2  -5 65.2093 2.44497   4
  -1  -2  -5 68.2683 2.38517   4
  -1  -2  -5 67.5088 3.01279   3
  -1  -2  -5 63.6810 2.78439   3
  -2  -2  -5 109.862 4.37691   2
  -2  -2  -5 104.381 4.44273   3
  -2  -2  -5 110.952 3.76685   4
  -2  -2  -5 108.631 4.22308   2
  -3  -2  -5 340.743 12.1271   3
  -3  -2  -5 341.314 11.6695   2
  -3  -2  -5 350.958 11.4489   4
  -4  -2  -5 860.924 27.6846   4
  -4  -2  -5 882.136 27.9661   4
  -4  -2  -5 874.748 28.6565   3
  -4  -2  -5 862.661 27.7989   2
   4   2   5 871.979 27.2520   4
   4   2   5 865.356 27.2022   4
  -5  -2  -5 1.54048 1.78656   3
  -5  -2  -5 1.94713 1.23465   2
  -5  -2  -5 3.11663 1.16869   4
  -5  -2  -5 2.38936 1.33343   4
   5   2   5 0.80525 1.00645   4
   5   2   5 -0.1349 1.22574   2
   5   2   5 2.06946 1.08472   4
  -6  -2  -5 60.8112 3.96274   2
  -6  -2  -5 57.6587 4.52607   4
  -6  -2  -5 54.8532 4.14728   4
  -6  -2  -5 59.4751 5.46569   3
   6   2   5 55.0203 3.69971   4
   6   2   5 57.6918 4.22488   2
   6   2   5 61.8410 3.87286   4
  -7  -2  -5 312.090 11.7736   2
  -7  -2  -5 298.596 13.9530   3
   5  -3  -5 127.685 10.4459   4
   5  -3  -5 113.924 7.21671   4
   5  -3  -5 111.488 6.31168   3
  -5   3   5 106.704 7.44911   4
  -5   3   5 109.088 7.29044   4
  -5   3   5 116.253 6.80473   2
  -5   3   5 112.788 6.93223   3
   4  -3  -5 60.0716 5.31854   4
   4  -3  -5 65.7106 4.82158   2
   4  -3  -5 66.0635 4.81795   4
   4  -3  -5 62.9217 4.16666   3
  -4   3   5 55.3941 4.55240   4
  -4   3   5 56.0921 4.39616   3
  -4   3   5 66.2417 5.01683   4
  -4   3   5 61.4733 4.52790   2
   3  -3  -5 2047.66 64.1160   2
   3  -3  -5 2051.96 64.4466   4
   3  -3  -5 2044.91 65.1527   4
   3  -3  -5 2051.96 63.6218   3
  -3   3   5 2109.26 64.6089   4
  -3   3   5 1970.65 64.3641   2
  -3   3   5 2033.51 64.0346   3
  -3   3   5 2011.56 64.5401   4
   2  -3  -5 436.541 15.8424   4
   2  -3  -5 450.075 14.8536   3
   2  -3  -5 464.443 15.3081   2
   2  -3  -5 456.508 15.4157   4
  -2   3   5 425.894 15.2579   2
  -2   3   5 417.934 15.2843   4
  -2   3   5 449.325 15.4530   4
  -2   3   5 440.935 15.0640   3
   1  -3  -5 57.9390 3.03344   2
   1  -3  -5 50.5193 3.15678   4
   1  -3  -5 53.8426 2.81678   3
  -1   3   5 53.4958 2.89142   4
  -1   3   5 54.4945 2.94112   4
  -1   3   5 54.4923 3.05869   2
  -1   3   5 55.6139 2.93218   3
   0  -3  -5 672.871 21.1400   3
   0  -3  -5 663.091 21.2111   2
   0  -3  -5 656.783 21.0835   4
   0  -3  -5 645.785 20.8190   4
   0   3   5 643.437 20.9942   3
   0   3   5 661.215 20.6525   4
   0   3   5 630.740 21.2419   2
  -1  -3  -5 219.544 7.25002   4
  -1  -3  -5 217.010 7.11852   4
  -1  -3  -5 212.142 7.99113   3
  -1  -3  -5 222.038 7.86611   2
  -2  -3  -5 3108.49 95.4777   2
  -2  -3  -5 3093.91 95.8897   3
  -3  -3  -5 663.782 20.7343   4
  -3  -3  -5 681.181 22.0262   3
  -3  -3  -5 660.743 21.8201   2
  -3  -3  -5 662.003 20.7341   4
  -4  -3  -5 323.923 10.7622   4
  -4  -3  -5 322.220 10.7165   4
  -4  -3  -5 309.176 11.3804   2
  -4  -3  -5 321.858 11.8812   3
  -5  -3  -5 57.6427 4.25770   3
  -5  -3  -5 51.8791 3.18413   4
  -5  -3  -5 52.5417 3.18400   4
  -5  -3  -5 56.7482 3.72009   2
   5   3   5 54.6802 2.58022   4
  -6  -3  -5 834.407 27.9416   4
  -6  -3  -5 841.447 28.1339   2
  -6  -3  -5 865.245 28.0032   4
  -6  -3  -5 837.751 29.1519   3
   6   3   5 884.743 28.4579   2
   6   3   5 863.742 27.2793   4
   6   3   5 823.529 27.2019   4
  -7  -3  -5 108.384 6.15047   4
  -7  -3  -5 106.828 6.24997   2
  -7  -3  -5 93.2822 7.37298   3
   7   3   5 99.3276 6.56033   2
   7   3   5 103.378 5.42028   4
   5  -4  -5 840.385 29.8195   4
   5  -4  -5 782.165 27.3312   3
  -5   4   5 720.194 29.9662   4
  -5   4   5 832.578 28.3657   3
  -5   4   5 805.521 27.7318   2
   4  -4  -5 40.3816 4.53402   4
   4  -4  -5 51.8125 4.54572   2
   4  -4  -5 39.8696 4.34840   3
   4  -4  -5 45.3297 5.60247   4
  -4   4   5 50.4860 4.82724   3
  -4   4   5 51.1755 4.49110   2
  -4   4   5 39.4944 4.87093   4
   3  -4  -5 0.92614 1.55672   3
   3  -4  -5 -0.0696 2.51755   4
   3  -4  -5 2.26538 2.20807   4
  -3   4   5 3.94288 1.69307   4
  -3   4   5 -0.3119 1.68914   3
  -3   4   5 0.64809 1.56855   2
   2  -4  -5 1.60376 1.37690   4
   2  -4  -5 3.11874 1.42930   3
   2  -4  -5 2.86908 1.39797   2
   2  -4  -5 0.31809 1.35238   4
  -2   4   5 0.67342 1.36747   2
  -2   4   5 2.23032 1.47673   3
  -2   4   5 2.07029 1.47466   4
   1  -4  -5 189.255 7.53727   3
   1  -4  -5 191.874 7.91209   4
   1  -4  -5 193.171 7.57614   2
   1  -4  -5 185.280 7.49352   4
  -1   4   5 193.054 7.39137   4
  -1   4   5 182.627 7.61768   3
  -1   4   5 199.453 7.59431   4
  -1   4   5 193.339 7.65246   2
   0  -4  -5 1511.05 47.0327   4
   0  -4  -5 1522.89 47.4987   3
   0  -4  -5 1491.26 47.3127   4
   0   4   5 1504.14 47.4391   3
   0   4   5 1504.84 47.5111   2
   0   4   5 1492.87 46.7536   4
  -1  -4  -5 2.45115 0.80580   4
  -1  -4  -5 1.43889 0.85771   2
  -1  -4  -5 0.75818 1.04433   3
  -1  -4  -5 2.26433 0.67114   4
   1   4   5 3.78634 1.15686   3
   1   4   5 2.80321 0.41152   4
  -2  -4  -5 117.992 5.28635   2
  -2  -4  -5 126.369 4.37624   4
  -2  -4  -5 127.548 4.44647   4
  -2  -4  -5 138.719 6.00147   3
  -3  -4  -5 464.100 14.5258   4
  -3  -4  -5 448.891 14.6371   4
  -3  -4  -5 477.861 16.1304   2
  -3  -4  -5 474.186 16.7445   3
  -4  -4  -5 770.472 24.7254   4
  -4  -4  -5 792.690 26.3226   3
  -4  -4  -5 786.450 26.1341   2
  -4  -4  -5 800.738 24.9109   4
  -4  -4  -5 807.805 26.8436   3
  -5  -4  -5 20.7170 2.93756   2
  -5  -4  -5 20.4959 3.00942   3
  -5  -4  -5 13.2728 2.78780   3
  -5  -4  -5 21.5847 1.83149   4
  -5  -4  -5 21.5928 1.98713   4
  -6  -4  -5 354.079 14.5734   3
  -6  -4  -5 353.608 12.7153   4
  -6  -4  -5 353.086 14.1065   3
  -6  -4  -5 352.086 13.3999   2
  -6  -4  -5 346.920 12.4923   4
   6   4   5 369.583 11.6791   4
   6   4   5 355.574 11.6361   4
  -7  -4  -5 535.804 18.5668   4
  -7  -4  -5 514.768 18.3121   4
  -7  -4  -5 522.192 19.8858   3
  -7  -4  -5 505.367 18.6373   2
   4  -5  -5 44.0156 5.42152   3
   4  -5  -5 45.4279 5.85922   4
  -4   5   5 42.6178 5.28275   3
  -4   5   5 42.0360 5.08282   4
  -4   5   5 37.9729 4.78378   2
   3  -5  -5 760.282 27.1899   4
   3  -5  -5 770.075 25.9600   2
   3  -5  -5 729.002 26.3168   4
   3  -5  -5 769.259 26.0535   3
  -3   5   5 786.944 26.4370   4
  -3   5   5 775.183 26.6381   3
  -3   5   5 756.609 26.6839   4
  -3   5   5 771.729 26.1722   2
   2  -5  -5 60.9115 4.35302   3
   2  -5  -5 44.3024 6.36444   4
   2  -5  -5 56.0170 4.07633   4
  -2   5   5 63.7862 4.66796   3
  -2   5   5 57.2065 4.05098   4
  -2   5   5 59.2523 4.48898   4
  -2   5   5 61.9612 4.37050   2
   1  -5  -5 0.39317 1.08827   4
   1  -5  -5 0.59913 1.18667   2
   1  -5  -5 -0.5049 1.42121   3
  -1   5   5 -0.0615 1.55062   3
  -1   5   5 -0.1027 1.17631   4
  -1   5   5 0.48201 1.24538   2
  -1   5   5 0.74356 0.91528   4
   0  -5  -5 247.490 9.22159   2
   0  -5  -5 236.968 9.21556   4
   0  -5  -5 222.771 10.4029   3
   0  -5  -5 244.039 9.77385   4
   0   5   5 241.904 8.52158   4
   0   5   5 225.676 9.19122   2
   0   5   5 246.273 9.56989   3
   0   5   5 231.879 8.83748   4
  -1  -5  -5 316.138 10.8653   4
  -1  -5  -5 313.076 11.0298   4
  -1  -5  -5 321.325 11.4977   2
  -1  -5  -5 318.409 12.0942   3
   1   5   5 312.693 11.7337   3
   1   5   5 306.479 10.6265   4
   1   5   5 313.688 10.2712   4
  -2  -5  -5 542.809 17.5600   4
  -2  -5  -5 550.291 18.4333   2
  -2  -5  -5 564.942 19.2312   3
  -2  -5  -5 546.665 17.4544   4
   2   5   5 510.230 18.5044   3
  -3  -5  -5 359.208 13.6747   3
  -3  -5  -5 356.834 11.5822   4
  -3  -5  -5 354.370 13.1535   2
  -3  -5  -5 362.329 12.9253   2
  -3  -5  -5 355.560 11.8462   4
  -4  -5  -5 149.936 5.31394   4
  -4  -5  -5 150.237 5.55538   4
  -4  -5  -5 149.836 6.97808   2
  -4  -5  -5 152.790 7.73471   3
  -5  -5  -5 79.1789 4.92524   2
  -5  -5  -5 68.9590 5.42635   3
  -5  -5  -5 75.6722 3.60513   4
  -5  -5  -5 76.3293 3.35754   4
  -5  -5  -5 77.1880 4.92239   3
  -6  -5  -5 706.358 24.7477   3
  -6  -5  -5 704.141 24.3055   2
  -6  -5  -5 695.583 23.1225   4
  -6  -5  -5 703.612 22.7452   4
  -7  -5  -5 8.77192 3.05063   2
  -7  -5  -5 11.4690 2.38232   4
  -7  -5  -5 13.3509 2.49342   4
  -7  -5  -5 5.34703 3.47135   3
   3  -6  -5 9.43202 3.52229   4
   3  -6  -5 12.0264 3.40053   3
  -3   6   5 10.4975 3.61685   3
  -3   6   5 9.70256 2.90711   4
  -3   6   5 12.7377 3.08871   2
   2  -6  -5 3.24119 2.13648   4
   2  -6  -5 4.75182 2.49468   3
   2  -6  -5 3.91926 2.10919   4
   2  -6  -5 2.62982 2.08243   2
  -2   6   5 4.48232 2.02634   4
  -2   6   5 9.69022 2.62523   2
  -2   6   5 6.36025 2.74127   3
  -2   6   5 7.72278 2.77407   4
   1  -6  -5 2268.33 71.6722   4
   1  -6  -5 2263.01 71.5421   3
   1  -6  -5 2269.40 71.1970   4
  -1   6   5 2176.14 71.2284   4
  -1   6   5 2237.38 70.6852   4
  -1   6   5 2319.74 71.3156   2
   0  -6  -5 170.400 7.30615   2
   0  -6  -5 170.407 7.42981   4
   0  -6  -5 165.916 7.19976   4
   0  -6  -5 161.462 7.84962   3
   0   6   5 169.107 6.57666   4
   0   6   5 148.851 7.61946   3
  -1  -6  -5 186.424 8.49959   3
  -1  -6  -5 182.890 7.33394   4
   1   6   5 190.555 6.65994   4
   1   6   5 176.621 8.25049   3
  -2  -6  -5 162.718 7.76987   4
  -2  -6  -5 175.065 8.29084   3
  -2  -6  -5 179.616 6.76983   4
   2   6   5 182.296 5.99258   4
   2   6   5 176.054 6.38661   4
   2   6   5 175.913 7.96789   3
  -3  -6  -5 359.134 12.4253   4
  -3  -6  -5 353.828 13.9414   3
  -3  -6  -5 322.410 13.5561   2
  -3  -6  -5 364.371 13.1251   2
  -3  -6  -5 353.800 11.8303   4
  -4  -6  -5 724.420 23.2952   4
  -4  -6  -5 721.993 25.9193   3
  -4  -6  -5 749.803 25.2185   2
  -4  -6  -5 736.248 23.6485   4
  -5  -6  -5 10.1572 1.62289   4
  -5  -6  -5 5.26467 2.32092   2
  -5  -6  -5 8.58435 1.29109   4
  -5  -6  -5 9.40405 3.25745   3
  -6  -6  -5 5.96669 2.65907   2
  -6  -6  -5 6.39457 1.43443   4
  -6  -6  -5 8.92028 1.65327   4
  -6  -6  -5 10.8201 2.94665   3
  -7  -6  -5 5.63468 2.14150   4
  -7  -6  -5 -5.7956 3.34722   3
  -7  -6  -5 2.34382 2.88160   2
   2  -7  -5 22.6920 4.55480   4
  -2   7   5 21.0934 3.69850   2
  -2   7   5 20.4648 4.34577   3
   1  -7  -5 311.797 13.0691   2
   1  -7  -5 312.788 13.2233   3
   1  -7  -5 293.596 12.4771   4
   1  -7  -5 304.488 13.0193   4
  -1   7   5 325.456 13.6457   3
  -1   7   5 318.712 11.9652   4
   0  -7  -5 75.0172 5.76804   3
   0  -7  -5 73.1495 5.19412   4
   0  -7  -5 75.1716 5.01337   4
   0  -7  -5 72.7943 5.10621   2
   0   7   5 84.7509 4.31152   4
   0   7   5 83.8403 6.03735   3
   0   7   5 68.8327 4.83030   4
  -1  -7  -5 884.893 30.2752   3
  -1  -7  -5 885.345 29.1386   4
  -1  -7  -5 878.691 28.9626   4
  -1  -7  -5 858.257 29.3178   2
   1   7   5 886.609 27.9770   4
   1   7   5 864.060 30.0317   3
  -2  -7  -5 44.5721 3.37654   4
  -2  -7  -5 43.3763 4.30262   2
  -2  -7  -5 43.1874 4.67118   3
   2   7   5 46.7349 2.34948   4
   2   7   5 44.5757 4.62236   3
  -3  -7  -5 -0.1173 2.45376   3
  -3  -7  -5 3.57526 1.31755   4
  -3  -7  -5 0.90728 1.91282   2
  -3  -7  -5 6.07101 1.53449   4
   3   7   5 2.68565 2.31458   3
   3   7   5 1.99028 0.74423   4
  -4  -7  -5 572.118 20.4391   2
  -4  -7  -5 545.227 20.0159   2
  -4  -7  -5 576.524 19.0020   4
  -4  -7  -5 554.940 21.3459   3
  -4  -7  -5 553.540 18.4904   4
  -5  -7  -5 378.982 12.9362   4
  -5  -7  -5 375.183 14.9926   2
  -5  -7  -5 380.855 13.2984   4
  -6  -7  -5 441.391 17.0842   3
  -6  -7  -5 425.478 16.8527   2
  -6  -7  -5 434.815 14.6895   4
  -6  -7  -5 426.424 15.0322   4
   1  -8  -5 407.804 16.7602   4
  -1   8   5 412.277 17.4966   3
   0  -8  -5 170.813 8.63111   4
   0   8   5 160.185 9.59564   3
   0   8   5 153.918 7.34784   4
  -1  -8  -5 28.4965 3.72084   4
  -1  -8  -5 30.6575 3.81358   4
  -1  -8  -5 38.7840 8.45448   3
   1   8   5 28.7682 4.43413   3
   1   8   5 25.5645 2.61688   4
  -2  -8  -5 -0.3728 3.37041   3
  -2  -8  -5 0.23899 1.87044   4
  -2  -8  -5 -0.6289 2.62604   2
   2   8   5 1.21449 2.93776   3
   2   8   5 -0.3685 1.01837   4
  -3  -8  -5 534.741 19.8771   2
  -3  -8  -5 525.873 18.4052   4
  -3  -8  -5 532.831 18.7616   4
   3   8   5 542.801 20.1234   3
   3   8   5 530.758 17.2667   4
  -4  -8  -5 422.528 15.1525   4
  -4  -8  -5 455.301 17.1626   2
  -4  -8  -5 425.957 15.6249   4
  -5  -8  -5 182.715 9.60672   2
  -5  -8  -5 194.748 8.14814   4
  -5  -8  -5 187.199 7.66707   4
  -1  -9  -5 45.8109 6.33915   2
  -1  -9  -5 38.1380 5.26796   4
   1   9   5 47.6461 6.26655   3
  -2  -9  -5 -1.7432 2.36003   4
  -2  -9  -5 1.48661 3.27068   2
   2   9   5 4.21724 3.94446   3
  -3  -9  -5 177.608 10.0417   2
  -3  -9  -5 185.713 8.78585   4
   3   9   5 167.064 10.3600   3
   3   9   5 191.642 7.63758   4
  -4  -9  -5 11.4379 3.85335   2
  -4  -9  -5 9.65005 2.79329   4
  -5  -6   6 132.913 9.30474   4
   4   6  -6 22.3408 6.67336   2
   4   6  -6 25.2708 4.28362   3
   4   6  -6 25.2419 5.06486   4
   4   6  -6 15.8112 3.29252   4
  -4  -6   6 28.2368 4.58229   3
  -4  -6   6 18.6109 3.80283   4
  -4  -6   6 31.5027 4.02104   4
  -4  -6   6 26.9305 3.48852   2
   3   6  -6 19.5798 4.02164   3
   3   6  -6 21.6206 3.36694   4
  -3  -6   6 22.9959 3.54164   4
  -3  -6   6 24.5884 4.25282   4
  -3  -6   6 17.2831 2.69374   2
  -3  -6   6 19.4490 3.75962   3
   2   6  -6 1.09123 3.01159   4
   2   6  -6 -0.1401 3.44858   3
   2   6  -6 2.95139 1.88753   4
  -2  -6   6 0.89107 3.08858   3
  -2  -6   6 8.00281 2.02409   2
  -2  -6   6 4.31802 2.57624   4
  -2  -6   6 9.58425 3.60819   4
   1   6  -6 493.707 17.3826   4
   1   6  -6 463.647 18.9407   3
   1   6  -6 454.785 19.1953   4
  -1  -6   6 473.798 18.9653   4
  -1  -6   6 471.110 16.0850   2
  -1  -6   6 483.622 18.4263   4
  -1  -6   6 482.302 16.1868   2
   0   6  -6 7.93744 2.71206   4
   0   6  -6 9.80655 4.45881   3
   0   6  -6 9.34081 4.49483   4
   0  -6   6 9.09062 4.20527   4
   0  -6   6 4.71425 4.03369   4
   0  -6   6 4.71510 1.72156   2
  -1   6  -6 258.990 11.3371   4
  -1   6  -6 249.479 13.2737   3
   5   5  -6 21.7637 3.72511   4
   5   5  -6 13.5053 3.96362   4
  -5  -5   6 14.4172 2.91683   4
  -5  -5   6 21.7671 3.89218   4
  -5  -5   6 21.5782 3.41674   2
   4   5  -6 824.917 26.9135   4
   4   5  -6 761.930 27.6176   4
   4   5  -6 730.476 26.5329   2
  -4  -5   6 742.142 26.1191   4
  -4  -5   6 816.545 27.4977   4
  -4  -5   6 757.193 25.9899   2
  -4  -5   6 770.798 26.6512   3
   3   5  -6 346.724 14.4307   4
   3   5  -6 291.891 15.7060   3
   3   5  -6 336.019 13.1765   2
   3   5  -6 370.531 13.3710   4
  -3  -5   6 367.674 13.6816   3
  -3  -5   6 350.964 14.2231   4
  -3  -5   6 341.223 12.6741   2
  -3  -5   6 331.528 13.1068   4
   2   5  -6 95.2756 6.69683   4
   2   5  -6 103.396 5.39098   4
   2   5  -6 89.0652 7.14502   3
  -2  -5   6 91.8576 4.75828   2
  -2  -5   6 103.306 6.24057   3
  -2  -5   6 94.7730 6.34693   4
  -2  -5   6 97.7014 5.80398   4
   1   5  -6 29.3762 3.20761   4
   1   5  -6 18.6668 3.48532   3
   1   5  -6 20.6789 3.40450   4
  -1  -5   6 23.7673 3.47314   4
  -1  -5   6 23.9382 2.29193   2
  -1  -5   6 16.6206 2.76017   4
   0   5  -6 87.9975 5.10658   4
   0   5  -6 96.7225 7.21760   3
   0   5  -6 95.3189 6.90025   4
   0  -5   6 87.3755 6.62133   4
   0  -5   6 91.3850 3.94058   2
   0  -5   6 88.1635 6.03074   4
   0  -5   6 90.8457 3.84888   2
   0  -5   6 95.5123 6.37482   3
  -1   5  -6 1107.83 37.7103   3
  -1   5  -6 1098.08 38.0615   4
  -1   5  -6 1074.43 35.8863   4
   1  -5   6 1081.19 36.9428   4
   1  -5   6 1100.14 37.1909   4
  -2   5  -6 33.5867 4.62229   4
  -2   5  -6 42.0603 5.72263   3
   6   4  -6 1024.82 35.4856   4
   6   4  -6 940.216 36.7245   4
  -6  -4   6 1041.93 33.3087   3
  -6  -4   6 1002.23 33.9580   2
  -6  -4   6 1040.43 35.0440   4
   5   4  -6 -4.7991 2.67411   4
   5   4  -6 1.72796 5.13709   2
   5   4  -6 0.15168 3.08521   4
  -5  -4   6 1.46969 1.89312   2
  -5  -4   6 2.69086 2.57262   4
  -5  -4   6 -0.5789 2.55309   3
  -5  -4   6 0.39892 1.80367   3
  -5  -4   6 -0.7517 1.84204   4
   4   4  -6 539.370 20.3351   4
   4   4  -6 517.605 19.4866   2
   4   4  -6 549.352 19.6573   4
  -4  -4   6 570.902 20.0692   4
  -4  -4   6 541.795 19.2171   3
  -4  -4   6 569.457 19.0781   2
  -4  -4   6 537.618 18.9364   4
   3   4  -6 1.73576 1.73081   2
   3   4  -6 3.72172 2.60465   4
   3   4  -6 2.61182 1.78867   3
   3   4  -6 2.72454 1.54718   4
  -3  -4   6 2.95771 1.90148   4
  -3  -4   6 7.49030 2.10909   3
  -3  -4   6 4.62841 1.50564   2
  -3  -4   6 3.82054 1.60020   4
   2   4  -6 1029.63 34.9755   2
   2   4  -6 1100.99 36.3238   4
   2   4  -6 1032.15 35.0608   4
   2   4  -6 1032.83 35.4495   3
  -2  -4   6 1098.14 34.5702   2
  -2  -4   6 1132.59 36.3144   4
  -2  -4   6 1124.50 35.3612   4
  -2  -4   6 1130.65 35.4259   3
   1   4  -6 75.8811 5.42704   4
   1   4  -6 85.8265 4.45927   4
   1   4  -6 85.6168 5.49009   3
  -1  -4   6 78.5969 5.21515   4
  -1  -4   6 91.2546 5.02648   3
  -1  -4   6 80.3327 3.70102   2
  -1  -4   6 82.9179 4.83599   4
   0   4  -6 14.6361 2.98559   3
   0   4  -6 10.5187 2.50326   4
   0   4  -6 15.4410 2.20741   4
   0  -4   6 16.8841 2.75298   4
   0  -4   6 15.2620 2.46261   3
   0  -4   6 10.0228 2.53954   4
   0  -4   6 11.6923 1.37146   2
   0  -4   6 12.0488 1.26905   2
  -1   4  -6 9.10288 3.07555   3
  -1   4  -6 6.55945 2.94617   4
  -1   4  -6 2.09314 1.39715   4
   1  -4   6 4.62835 2.12237   4
   1  -4   6 7.47704 2.28421   4
  -2   4  -6 32.0512 4.68169   3
  -2   4  -6 26.0589 3.51807   4
  -2   4  -6 23.9438 4.27260   4
   2  -4   6 29.5393 4.29752   4
   2  -4   6 23.5400 3.45992   4
   2  -4   6 26.4834 3.85106   3
  -3   4  -6 752.287 25.1888   4
  -3   4  -6 688.762 26.6270   3
   6   3  -6 96.5268 7.72248   4
   6   3  -6 101.274 8.95357   4
  -6  -3   6 99.8175 5.60885   3
  -6  -3   6 100.861 6.21535   4
  -6  -3   6 102.091 6.85574   3
  -6  -3   6 103.009 7.21896   4
  -6  -3   6 87.6674 6.19646   2
   5   3  -6 9.62253 2.99539   4
   5   3  -6 9.99665 3.01552   2
  -5  -3   6 12.4011 2.57067   3
  -5  -3   6 14.1805 3.12669   4
  -5  -3   6 14.4914 2.11437   3
  -5  -3   6 11.2946 1.92223   4
   4   3  -6 385.619 14.7780   2
   4   3  -6 404.771 15.6585   4
   4   3  -6 398.839 14.9944   4
  -4  -3   6 409.028 14.3694   2
  -4  -3   6 399.388 14.2495   3
  -4  -3   6 383.281 14.1653   4
  -4  -3   6 408.542 15.1438   4
   3   3  -6 477.526 16.0897   4
   3   3  -6 425.937 16.5802   4
   3   3  -6 424.392 15.7248   2
  -3  -3   6 435.044 15.4301   3
  -3  -3   6 456.346 16.3864   4
  -3  -3   6 461.029 15.4600   2
   2   3  -6 53.3323 3.38764   2
   2   3  -6 51.6473 3.29875   4
   2   3  -6 50.8290 3.54529   3
   2   3  -6 56.3800 4.34811   4
  -2  -3   6 46.1949 3.21942   3
  -2  -3   6 48.9135 3.85282   4
  -2  -3   6 51.1423 2.94577   2
   1   3  -6 46.7318 3.92957   4
   1   3  -6 51.0065 3.04632   4
   1   3  -6 43.4530 3.52982   3
   1   3  -6 48.6683 2.73890   2
  -1  -3   6 43.6498 2.37198   2
  -1  -3   6 48.4867 3.20851   4
  -1  -3   6 41.8961 3.51364   4
  -1  -3   6 39.6135 3.08551   3
   0   3  -6 892.061 27.8697   4
   0   3  -6 865.025 28.8553   4
   0   3  -6 819.701 28.4698   3
   0  -3   6 810.802 26.5612   2
   0  -3   6 888.471 28.2921   4
   0  -3   6 880.340 28.1392   3
   0  -3   6 835.909 28.6316   4
  -1   3  -6 881.361 30.4650   3
  -1   3  -6 901.641 30.7046   4
  -1   3  -6 919.537 29.5675   4
   1  -3   6 891.417 30.2831   4
   1  -3   6 910.442 29.9703   3
   1  -3   6 943.257 30.1982   4
  -2   3  -6 247.580 10.9466   3
  -2   3  -6 241.626 10.8082   4
   2  -3   6 243.747 10.3059   4
  -3   3  -6 102.852 7.13948   4
  -3   3  -6 124.264 7.80518   3
  -3   3  -6 113.867 6.03289   4
   3  -3   6 108.594 7.52295   4
   3  -3   6 111.784 6.64253   3
   3  -3   6 106.948 6.61692   4
  -4   3  -6 94.5766 6.18480   4
  -4   3  -6 87.1447 7.77978   3
   6   2  -6 511.064 20.5599   4
   6   2  -6 538.231 20.8900   4
  -6  -2   6 543.027 18.4878   3
  -6  -2   6 537.610 19.1946   4
  -6  -2   6 559.146 20.4325   4
  -6  -2   6 539.080 19.1332   3
  -6  -2   6 528.414 19.3714   2
   5   2  -6 369.188 14.8308   4
   5   2  -6 330.138 13.9362   2
   5   2  -6 373.666 14.7398   4
  -5  -2   6 371.663 14.2929   4
  -5  -2   6 363.261 12.6922   3
  -5  -2   6 377.494 13.3065   3
  -5  -2   6 367.629 13.6486   2
  -5  -2   6 348.864 13.3153   4
   4   2  -6 212.906 9.92733   4
   4   2  -6 241.149 9.84279   4
   4   2  -6 215.598 9.38464   2
  -4  -2   6 225.285 9.14680   4
  -4  -2   6 213.272 8.58316   3
  -4  -2   6 223.469 9.08554   2
  -4  -2   6 222.226 9.48158   4
  -4  -2   6 251.244 8.29454   3
   3   2  -6 99.3490 5.74670   4
   3   2  -6 98.7787 5.17366   4
   3   2  -6 102.710 5.10783   2
  -3  -2   6 98.7981 4.67918   2
  -3  -2   6 97.9116 4.44057   3
  -3  -2   6 102.934 4.73352   4
  -3  -2   6 107.369 5.41283   4
   2   2  -6 483.833 16.2517   3
   2   2  -6 510.774 17.6364   4
   2   2  -6 509.161 16.8806   4
   2   2  -6 479.458 16.6068   2
  -2  -2   6 491.019 16.5431   4
  -2  -2   6 485.515 16.2258   3
  -2  -2   6 484.289 17.2392   4
  -2  -2   6 506.840 16.3741   2
   1   2  -6 11.8980 1.72832   3
   1   2  -6 10.4164 1.51644   4
   1   2  -6 7.11432 1.68096   4
   1   2  -6 8.60915 1.22702   2
  -1  -2   6 10.8308 1.55128   3
  -1  -2   6 12.8405 1.69506   4
  -1  -2   6 9.01079 1.15889   2
  -1  -2   6 9.76706 1.79202   4
   0   2  -6 779.117 26.6656   3
   0   2  -6 837.884 27.1632   4
   0   2  -6 820.001 25.4920   2
   0   2  -6 836.973 26.3328   4
   0  -2   6 803.521 25.3279   2
   0  -2   6 798.568 27.9870   4
   0  -2   6 839.453 26.6423   4
   0  -2   6 820.201 26.3830   3
  -1   2  -6 15.9633 1.81331   4
  -1   2  -6 13.5269 2.14589   3
  -1   2  -6 18.3149 2.49133   4
   1  -2   6 13.5385 1.98669   4
   1  -2   6 17.2031 2.40079   4
   1  -2   6 15.0038 2.25581   3
  -2   2  -6 5.45577 1.39125   4
  -2   2  -6 6.33055 1.73623   4
  -2   2  -6 6.19238 2.14338   3
   2  -2   6 3.86693 1.60286   3
  -3   2  -6 101.746 6.35712   4
  -3   2  -6 113.889 6.74457   3
  -3   2  -6 105.364 5.39711   4
   3  -2   6 107.924 5.68678   4
  -4   2  -6 538.885 19.0057   4
  -4   2  -6 515.061 20.1197   3
  -4   2  -6 507.674 20.0277   4
   4  -2   6 521.796 19.1566   4
   4  -2   6 564.962 21.2309   4
   4  -2   6 559.935 20.8055   3
  -5   2  -6 186.353 10.9887   3
  -5   2  -6 196.707 9.22598   4
   6   1  -6 191.419 10.4953   4
   6   1  -6 230.520 11.3039   4
  -6  -1   6 207.402 9.53491   4
  -6  -1   6 219.331 8.94854   3
  -6  -1   6 218.312 9.34596   3
  -6  -1   6 214.696 10.3707   4
  -6  -1   6 210.972 9.60784   2
   5   1  -6 111.584 6.80766   4
   5   1  -6 121.880 7.09413   4
   5   1  -6 108.832 6.43353   2
  -5  -1   6 103.538 5.70204   4
  -5  -1   6 106.845 5.41772   3
  -5  -1   6 108.029 6.36357   4
  -5  -1   6 110.175 4.98420   3
  -5  -1   6 109.308 5.94329   2
   4   1  -6 305.817 11.5608   2
   4   1  -6 311.025 12.0568   4
   4   1  -6 290.301 11.9410   4
  -4  -1   6 293.230 10.1378   3
  -4  -1   6 249.545 12.5702   2
  -4  -1   6 310.170 11.0809   4
  -4  -1   6 294.515 10.4521   3
  -4  -1   6 313.796 11.7547   4
   3   1  -6 134.455 6.63881   4
   3   1  -6 135.060 6.37785   4
   3   1  -6 144.056 6.20934   2
  -3  -1   6 143.067 6.39467   4
  -3  -1   6 144.694 5.06867   3
  -3  -1   6 140.510 5.29718   3
  -3  -1   6 139.900 5.92367   2
  -3  -1   6 142.626 5.85436   4
   2   1  -6 437.729 15.4243   4
   2   1  -6 462.582 15.2916   2
   2   1  -6 447.855 15.9843   4
  -2  -1   6 446.564 15.0227   2
  -2  -1   6 455.712 15.0530   4
  -2  -1   6 452.421 15.6141   4
  -2  -1   6 454.043 14.4061   3
   1   1  -6 114.716 4.73614   4
   1   1  -6 110.217 5.26972   4
   1   1  -6 109.625 4.36618   3
   1   1  -6 110.626 4.53856   2
  -1  -1   6 116.206 4.41368   2
  -1  -1   6 118.059 5.19816   4
  -1  -1   6 112.170 4.21399   3
  -1  -1   6 116.997 4.64608   4
   0   1  -6 1273.01 41.1331   2
   0   1  -6 1345.77 42.3745   4
   0   1  -6 1381.54 41.8596   3
   0   1  -6 1338.97 41.6813   4
   0  -1   6 1319.59 41.0601   2
   0  -1   6 1337.14 41.8048   4
   0  -1   6 1336.28 41.5650   3
  -1   1  -6 364.976 12.9372   3
  -1   1  -6 377.927 12.4828   4
  -1   1  -6 359.488 13.0643   4
   1  -1   6 383.362 12.7789   4
   1  -1   6 363.171 12.9278   4
   1  -1   6 365.588 12.6172   3
  -2   1  -6 989.768 30.9027   4
  -2   1  -6 1014.20 31.7117   3
  -2   1  -6 974.364 31.6275   4
   2  -1   6 945.292 31.1537   4
   2  -1   6 904.910 31.9269   3
  -3   1  -6 30.9376 2.73184   4
  -3   1  -6 29.5252 3.50137   3
  -3   1  -6 27.6632 3.28511   4
   3  -1   6 33.6827 2.78961   4
   3  -1   6 29.4713 2.70986   4
   3  -1   6 28.6259 2.97199   3
  -4   1  -6 6.76762 2.64936   3
  -4   1  -6 3.99865 2.06210   4
  -4   1  -6 3.41644 1.45315   4
   4  -1   6 3.54769 1.64366   4
   4  -1   6 4.14889 2.10139   3
   4  -1   6 4.32323 1.76724   4
  -5   1  -6 686.603 24.9711   3
  -5   1  -6 662.204 24.6137   4
  -5   1  -6 686.020 23.5861   4
   5  -1   6 686.872 23.5242   4
   6   0  -6 47.0851 5.75250   4
   6   0  -6 52.7552 8.12681   4
  -6   0   6 61.0298 6.00219   4
  -6   0   6 67.6543 5.19791   2
  -6   0   6 59.7687 4.67383   3
  -6   0   6 57.8446 5.23420   4
   5   0  -6 240.316 10.8717   4
   5   0  -6 256.438 11.6050   4
  -5   0   6 275.904 10.5988   4
  -5   0   6 257.064 9.61745   3
  -5   0   6 258.236 10.4933   2
  -5   0   6 250.961 10.8967   4
   4   0  -6 147.858 7.54612   4
   4   0  -6 152.258 7.22427   4
   4   0  -6 131.290 6.81791   2
  -4   0   6 150.433 6.69541   2
  -4   0   6 148.467 5.88603   3
  -4   0   6 168.442 7.34197   4
  -4   0   6 157.010 5.87633   3
  -4   0   6 159.279 6.80741   4
   3   0  -6 369.995 13.7280   4
   3   0  -6 377.378 13.8717   4
   3   0  -6 391.458 13.4236   2
  -3   0   6 392.842 13.6779   4
  -3   0   6 377.853 12.1311   3
  -3   0   6 370.139 12.2116   3
  -3   0   6 379.084 13.2442   2
  -3   0   6 353.872 13.5297   4
   2   0  -6 12.7070 1.87758   4
   2   0  -6 8.21019 1.44262   4
   2   0  -6 14.1499 1.77481   2
  -2   0   6 13.0028 1.41918   4
  -2   0   6 12.0924 1.85913   4
  -2   0   6 15.4116 1.63435   2
   1   0  -6 54.1945 3.30302   4
   1   0  -6 60.8475 2.91912   2
   1   0  -6 67.4377 3.12741   4
  -1   0   6 62.4869 2.80691   4
  -1   0   6 63.3826 2.89204   2
   0   0  -6 2529.40 79.0829   2
   0   0  -6 2562.97 79.8909   4
   0   0  -6 2631.04 79.1622   3
   0   0  -6 2546.53 79.3287   4
   0   0   6 2614.94 79.6690   4
   0   0   6 2596.29 79.3122   4
  -1   0  -6 47.0464 2.27822   4
  -1   0  -6 49.0030 2.66419   3
  -1   0  -6 47.6674 1.81777   2
   1   0   6 43.9724 2.42112   3
   1   0   6 47.4678 2.58155   4
   1   0   6 47.9596 2.42570   4
  -2   0  -6 1243.04 40.1434   4
  -2   0  -6 1293.30 40.8280   3
  -2   0  -6 1303.32 40.7512   4
   2   0   6 1297.03 40.3796   4
   2   0   6 1266.28 40.2477   4
   2   0   6 1305.16 40.6341   3
  -3   0  -6 169.930 7.32697   3
  -3   0  -6 164.270 7.17252   4
  -3   0  -6 162.453 6.46581   4
   3   0   6 162.763 6.49726   4
   3   0   6 169.930 6.48650   4
   3   0   6 162.869 6.96987   3
  -4   0  -6 2262.85 68.3516   2
  -4   0  -6 2194.68 69.8990   4
  -4   0  -6 2266.05 70.7109   4
  -4   0  -6 2239.62 70.9495   3
   4   0   6 2206.74 70.5398   3
   4   0   6 2250.26 69.8330   4
  -5   0  -6 175.364 6.14658   2
  -5   0  -6 161.622 10.4130   4
  -5   0  -6 182.106 7.85210   4
  -5   0  -6 175.477 8.90390   3
   5   0   6 174.305 8.50750   3
   5   0   6 177.122 7.58954   4
   5   0   6 174.818 7.45257   4
  -6   0  -6 238.882 10.5748   4
  -6   0  -6 257.901 12.4588   3
   6  -1  -6 79.6099 7.86875   4
   6  -1  -6 64.6202 7.36438   4
  -6   1   6 68.4886 5.65010   2
  -6   1   6 76.1841 6.30381   4
   5  -1  -6 1.39122 2.65690   4
   5  -1  -6 4.58516 2.26217   2
   5  -1  -6 3.56917 2.19377   4
  -5   1   6 3.83139 2.06335   4
  -5   1   6 2.78851 1.69767   3
  -5   1   6 3.27651 2.33488   4
  -5   1   6 3.69287 2.00771   2
   4  -1  -6 100.080 6.01851   4
   4  -1  -6 98.1030 5.73275   4
  -4   1   6 99.7158 4.46660   3
  -4   1   6 90.9087 5.39858   4
  -4   1   6 98.8314 5.13707   2
  -4   1   6 98.0621 5.28751   4
   3  -1  -6 412.968 15.0478   4
   3  -1  -6 426.832 14.4459   2
   3  -1  -6 402.304 14.5633   4
  -3   1   6 407.953 14.3230   2
  -3   1   6 398.041 13.2711   3
  -3   1   6 417.440 14.6403   4
  -3   1   6 389.480 14.1560   4
   2  -1  -6 511.752 17.5141   4
   2  -1  -6 519.323 17.7549   4
   2  -1  -6 505.985 17.3730   2
  -2   1   6 521.548 17.4947   4
  -2   1   6 512.767 17.2880   2
  -2   1   6 536.823 17.1684   4
   1  -1  -6 191.006 6.85229   2
   1  -1  -6 185.904 6.98539   4
   1  -1  -6 172.686 6.96530   4
  -1   1   6 190.564 6.91340   4
  -1   1   6 182.666 6.83527   2
  -1   1   6 189.386 6.55567   4
   0  -1  -6 9.55341 0.79165   3
   0  -1  -6 10.1141 1.36088   4
   0  -1  -6 11.2696 0.86477   3
   0  -1  -6 10.0508 1.02719   4
   0  -1  -6 10.3487 1.12031   2
   0   1   6 9.80139 0.87850   4
   0   1   6 8.40137 1.10509   2
  -1  -1  -6 186.835 6.37171   4
  -1  -1  -6 186.163 6.66653   3
  -1  -1  -6 185.686 6.73395   4
  -1  -1  -6 192.238 6.43523   2
   1   1   6 193.634 6.52204   2
   1   1   6 189.348 6.38261   4
   1   1   6 190.113 6.42502   4
  -2  -1  -6 807.924 26.2927   2
  -2  -1  -6 846.862 26.1931   2
  -2  -1  -6 855.039 27.0679   3
  -2  -1  -6 852.125 26.7720   4
  -2  -1  -6 832.341 26.3818   4
   2   1   6 851.531 26.3560   4
   2   1   6 831.711 26.2734   4
   2   1   6 868.339 27.0367   3
  -3  -1  -6 12.9947 1.21351   2
  -3  -1  -6 10.7386 1.08699   2
  -3  -1  -6 10.9409 1.32486   4
  -3  -1  -6 9.59332 1.45497   4
  -3  -1  -6 9.83542 1.80195   3
   3   1   6 11.9279 1.20064   4
   3   1   6 11.2677 1.83020   3
   3   1   6 11.0344 1.31434   4
  -4  -1  -6 55.2718 3.62061   4
  -4  -1  -6 53.1007 2.66313   2
  -4  -1  -6 59.7284 4.06974   3
  -4  -1  -6 58.3689 3.85395   4
   4   1   6 52.0608 2.94853   4
   4   1   6 58.7832 2.92255   4
   4   1   6 59.5983 3.96361   3
  -5  -1  -6 258.050 8.74263   2
  -5  -1  -6 243.079 10.6528   3
  -5  -1  -6 249.417 9.64388   4
  -5  -1  -6 248.774 10.2858   4
   5   1   6 235.136 10.2978   3
   5   1   6 250.209 9.27341   4
  -6  -1  -6 409.955 14.0061   2
  -6  -1  -6 422.374 15.2938   4
  -6  -1  -6 405.540 15.8846   4
  -6  -1  -6 415.531 16.7961   3
   6   1   6 408.598 14.7351   4
   6  -2  -6 -0.5872 4.63813   4
  -6   2   6 -0.2928 3.70229   4
  -6   2   6 0.66457 3.06366   3
  -6   2   6 -5.5338 2.73465   2
  -6   2   6 -0.6174 3.57005   4
   5  -2  -6 1146.22 38.2116   4
   5  -2  -6 1055.88 36.8582   4
   5  -2  -6 1101.45 35.4926   3
  -5   2   6 1111.27 36.0650   3
  -5   2   6 1109.68 37.2869   4
  -5   2   6 1119.84 36.6201   2
  -5   2   6 1084.83 36.8373   4
   4  -2  -6 45.2990 4.56605   4
   4  -2  -6 45.6212 4.06738   4
   4  -2  -6 43.0398 3.01472   3
  -4   2   6 41.2378 3.56125   2
  -4   2   6 45.3105 3.31850   3
  -4   2   6 46.2983 3.99920   4
  -4   2   6 43.6116 4.12442   4
   3  -2  -6 212.375 8.68899   4
   3  -2  -6 206.674 9.17649   4
   3  -2  -6 223.015 8.60087   2
   3  -2  -6 216.993 7.56658   3
  -3   2   6 210.565 7.80599   3
  -3   2   6 216.549 8.80794   4
  -3   2   6 213.663 8.55362   2
  -3   2   6 208.436 8.50606   4
   2  -2  -6 31.9500 2.48197   2
   2  -2  -6 29.8700 1.58600   3
   2  -2  -6 30.6994 2.77196   4
   2  -2  -6 29.9820 2.42262   4
  -2   2   6 28.0162 1.76509   3
  -2   2   6 26.1639 2.34856   2
  -2   2   6 25.5856 2.18957   4
   1  -2  -6 2162.05 66.1804   4
   1  -2  -6 2078.76 64.8939   3
   1  -2  -6 2089.34 65.8975   2
   1  -2  -6 2144.99 65.8849   4
  -1   2   6 2084.25 65.5361   4
  -1   2   6 2178.00 64.9699   3
  -1   2   6 2126.97 66.0217   2
  -1   2   6 2126.02 65.8371   4
   0  -2  -6 91.0237 3.89130   2
   0  -2  -6 89.3738 3.70506   4
   0  -2  -6 91.8407 3.76388   4
   0  -2  -6 88.1103 3.47558   3
   0  -2  -6 91.2578 3.30116   3
   0   2   6 94.6483 4.00336   2
   0   2   6 93.9656 3.57297   4
   0   2   6 93.2048 3.32008   4
  -1  -2  -6 20.2356 1.43693   3
  -1  -2  -6 19.5451 1.61119   3
  -1  -2  -6 17.9988 1.46561   2
  -1  -2  -6 17.9818 1.26556   4
  -1  -2  -6 19.4433 1.07821   4
   1   2   6 16.9501 1.50260   2
  -2  -2  -6 233.506 8.10413   2
  -2  -2  -6 231.782 8.31146   2
  -2  -2  -6 234.524 7.55333   4
  -2  -2  -6 240.914 8.47933   3
  -2  -2  -6 237.455 7.78748   4
  -3  -2  -6 20.0765 2.23440   3
  -3  -2  -6 21.7432 1.40921   4
  -3  -2  -6 21.8179 1.65493   2
  -3  -2  -6 22.4698 1.89686   2
  -3  -2  -6 20.3972 1.72432   4
  -4  -2  -6 2876.65 91.1291   4
  -4  -2  -6 3116.21 92.4111   3
  -4  -2  -6 2914.44 91.4847   4
  -4  -2  -6 2916.59 91.2172   2
   4   2   6 2951.31 90.4855   4
   4   2   6 2989.79 90.5258   4
  -5  -2  -6 191.467 7.49965   2
  -5  -2  -6 192.063 8.09986   4
  -5  -2  -6 201.337 8.96192   3
   5   2   6 204.400 7.23637   4
  -6  -2  -6 13.2601 2.55827   4
  -6  -2  -6 27.4872 4.06023   3
  -6  -2  -6 16.8496 2.28543   2
   6   2   6 17.6172 2.60524   4
  -7  -2  -6 119.389 6.18231   2
   5  -3  -6 107.687 7.25857   4
   5  -3  -6 109.521 6.03608   3
   5  -3  -6 113.172 8.43289   4
  -5   3   6 99.2963 7.23734   4
  -5   3   6 109.525 6.72437   3
  -5   3   6 109.026 6.59708   2
  -5   3   6 100.481 7.04829   4
   4  -3  -6 80.8328 6.27214   4
   4  -3  -6 90.2470 5.72601   4
   4  -3  -6 88.9923 4.63618   3
  -4   3   6 87.4048 5.12225   3
  -4   3   6 84.3301 5.34280   2
  -4   3   6 83.0168 5.70233   4
  -4   3   6 93.2212 5.85969   4
   3  -3  -6 727.290 23.4017   3
   3  -3  -6 704.429 24.3680   4
   3  -3  -6 748.699 25.2713   4
  -3   3   6 690.454 24.3942   4
  -3   3   6 718.549 24.3818   4
  -3   3   6 749.193 24.4469   2
  -3   3   6 711.975 23.7584   3
   2  -3  -6 33.8477 3.16589   4
   2  -3  -6 39.0363 2.40541   3
   2  -3  -6 43.6566 3.02783   2
   2  -3  -6 37.0299 2.88481   4
  -2   3   6 41.1846 2.93701   2
  -2   3   6 38.2492 2.58571   3
  -2   3   6 38.6342 2.88599   4
   1  -3  -6 12.4127 1.87406   4
   1  -3  -6 13.4141 1.44805   3
   1  -3  -6 12.8175 1.69879   4
   1  -3  -6 14.7655 1.87358   2
  -1   3   6 13.4115 1.49739   4
  -1   3   6 15.2263 1.56253   3
  -1   3   6 11.7779 1.54789   4
  -1   3   6 12.7626 1.88563   2
   0  -3  -6 152.652 5.86285   4
   0  -3  -6 149.037 5.74083   3
   0  -3  -6 155.600 6.02600   2
   0  -3  -6 149.976 5.59395   4
   0   3   6 145.617 6.05379   2
   0   3   6 152.330 5.58415   3
   0   3   6 153.501 5.27113   4
  -1  -3  -6 3903.91 119.239   3
  -1  -3  -6 3853.78 119.126   2
  -2  -3  -6 2086.71 65.6578   2
  -2  -3  -6 2181.51 66.1505   3
  -2  -3  -6 2089.12 65.7290   3
  -3  -3  -6 265.476 8.46990   4
  -3  -3  -6 267.801 9.62270   2
  -3  -3  -6 258.213 9.73704   3
  -3  -3  -6 254.861 9.33871   2
  -3  -3  -6 269.027 8.39889   4
  -4  -3  -6 8.51314 1.58139   2
  -4  -3  -6 6.85583 1.13409   4
  -4  -3  -6 6.37567 1.72001   3
  -4  -3  -6 6.42196 0.99743   4
  -5  -3  -6 34.2080 3.90559   3
  -5  -3  -6 44.9505 3.41175   2
  -5  -3  -6 45.1298 2.79435   4
  -5  -3  -6 43.9957 2.95698   4
  -6  -3  -6 514.951 18.9611   3
  -6  -3  -6 507.101 17.4728   2
  -6  -3  -6 507.517 17.3984   4
  -6  -3  -6 500.775 17.4792   4
   6   3   6 478.740 16.2374   4
   6   3   6 521.204 16.2448   4
  -7  -3  -6 223.683 11.4340   3
  -7  -3  -6 246.763 9.97637   2
   5  -4  -6 682.114 25.5711   4
   5  -4  -6 601.273 22.5160   3
  -5   4   6 642.937 23.4292   2
  -5   4   6 670.847 23.6460   3
   4  -4  -6 17.6702 2.80355   3
   4  -4  -6 13.1647 3.17507   4
   4  -4  -6 12.6372 3.04322   4
  -4   4   6 15.6117 3.17975   4
  -4   4   6 14.9758 2.89443   4
  -4   4   6 12.5608 3.22775   3
  -4   4   6 18.6775 3.26543   2
   3  -4  -6 162.910 7.77219   2
   3  -4  -6 158.665 6.92422   3
   3  -4  -6 161.376 7.57665   4
  -3   4   6 155.191 7.33264   3
  -3   4   6 166.578 7.81393   4
  -3   4   6 155.681 7.61790   4
  -3   4   6 170.198 7.70021   2
   2  -4  -6 17.2438 2.67975   4
   2  -4  -6 14.4384 1.95781   3
  -2   4   6 16.5797 2.39566   4
  -2   4   6 9.80560 2.88871   2
  -2   4   6 16.4539 2.22158   3
   1  -4  -6 928.266 30.4660   4
   1  -4  -6 952.366 30.3707   3
   1  -4  -6 982.042 30.6953   2
   1  -4  -6 939.977 30.9607   4
  -1   4   6 980.577 30.4489   4
  -1   4   6 912.625 30.7150   2
  -1   4   6 917.137 30.4255   3
   0  -4  -6 377.460 12.7965   4
   0  -4  -6 364.798 13.1197   3
   0  -4  -6 375.499 13.1083   4
   0  -4  -6 367.944 13.1776   2
   0   4   6 373.752 13.3536   2
   0   4   6 388.949 12.5521   4
   0   4   6 381.677 13.1040   3
   0   4   6 397.723 12.5805   4
  -1  -4  -6 22.6867 1.71954   4
  -1  -4  -6 23.6349 2.42363   3
  -1  -4  -6 23.7430 1.52172   4
   1   4   6 25.2808 2.13896   3
  -2  -4  -6 213.699 8.20789   2
  -2  -4  -6 211.535 6.87821   4
  -2  -4  -6 219.071 8.59788   3
  -2  -4  -6 209.611 6.83329   4
  -3  -4  -6 28.6472 2.69107   2
  -3  -4  -6 30.0090 2.58362   3
  -3  -4  -6 27.1226 3.08489   2
  -4  -4  -6 642.552 22.2507   3
  -4  -4  -6 661.482 20.6518   4
  -4  -4  -6 667.894 22.1271   2
  -4  -4  -6 655.864 20.5192   4
  -4  -4  -6 657.652 22.7777   3
  -5  -4  -6 0.61385 2.35597   3
  -5  -4  -6 1.61024 0.95551   4
  -5  -4  -6 1.45547 0.88390   4
  -5  -4  -6 0.58161 1.48590   2
  -5  -4  -6 3.18041 2.02062   3
  -6  -4  -6 116.848 6.90873   3
  -6  -4  -6 99.1534 4.98949   4
  -6  -4  -6 97.4324 4.77998   4
  -6  -4  -6 101.887 5.84557   2
  -7  -4  -6 71.5671 5.63405   2
  -7  -4  -6 62.8114 6.84134   3
  -7  -4  -6 70.6534 4.89742   4
   4  -5  -6 144.489 9.41796   4
   4  -5  -6 135.085 7.74652   3
  -4   5   6 133.313 7.84560   2
  -4   5   6 136.878 8.51611   3
   3  -5  -6 658.956 23.0952   4
   3  -5  -6 561.982 21.6681   4
   3  -5  -6 643.610 21.3903   3
   3  -5  -6 612.673 21.6595   2
  -3   5   6 594.120 21.9999   4
  -3   5   6 614.843 21.8758   4
  -3   5   6 629.349 21.8673   2
   2  -5  -6 202.240 9.33144   4
   2  -5  -6 204.621 8.50914   3
   2  -5  -6 197.106 8.61989   4
  -2   5   6 201.068 8.79536   2
  -2   5   6 195.549 8.74987   3
  -2   5   6 201.349 8.72206   4
   1  -5  -6 66.1185 3.94314   4
   1  -5  -6 67.9167 4.83433   3
   1  -5  -6 61.1352 4.91767   4
  -1   5   6 63.0332 3.84631   4
  -1   5   6 70.1432 4.36588   3
  -1   5   6 64.7126 3.68804   4
  -1   5   6 57.6117 4.10458   2
   0  -5  -6 12.8802 1.82897   4
   0  -5  -6 9.03686 1.45746   4
   0  -5  -6 13.7119 2.17905   3
   0  -5  -6 10.9344 1.85659   2
   0   5   6 11.8776 1.48248   4
   0   5   6 13.2554 1.72605   4
   0   5   6 16.1140 2.24817   3
   0   5   6 10.3407 1.80204   2
  -1  -5  -6 1556.73 48.4040   3
  -1  -5  -6 1533.04 47.1838   4
  -1  -5  -6 1499.48 47.3888   4
  -1  -5  -6 1487.49 47.9077   2
   1   5   6 1536.41 48.0852   3
   1   5   6 1475.09 46.4408   4
   1   5   6 1499.65 46.6364   4
  -2  -5  -6 151.065 5.54005   4
  -2  -5  -6 155.338 6.55772   2
  -2  -5  -6 149.603 7.10543   3
  -2  -5  -6 153.603 5.47140   4
  -3  -5  -6 480.044 16.7621   3
  -3  -5  -6 446.358 15.8019   2
  -3  -5  -6 447.210 14.2978   4
  -3  -5  -6 449.136 14.4093   4
  -3  -5  -6 443.337 16.1070   2
  -4  -5  -6 51.0965 4.09976   2
  -4  -5  -6 57.1348 2.71250   4
  -4  -5  -6 54.0903 4.82649   3
  -4  -5  -6 59.5350 2.32636   4
  -5  -5  -6 0.15565 0.68233   4
  -5  -5  -6 -0.0395 1.79368   2
  -5  -5  -6 1.69694 2.52600   3
  -5  -5  -6 -0.9102 1.98647   3
  -6  -5  -6 690.115 24.4409   3
  -6  -5  -6 699.702 22.6021   4
  -6  -5  -6 689.573 22.2278   4
  -6  -5  -6 682.880 23.9135   2
  -7  -5  -6 0.24423 3.36694   3
  -7  -5  -6 1.14167 1.91601   4
  -7  -5  -6 -4.1693 2.63218   2
  -7  -5  -6 2.53171 2.57573   4
   3  -6  -6 77.1714 7.08404   4
  -3   6   6 67.5445 5.92600   2
  -3   6   6 74.7558 6.80404   3
   2  -6  -6 257.290 11.0989   3
   2  -6  -6 278.955 11.2339   4
   2  -6  -6 276.670 11.9356   4
   2  -6  -6 275.183 11.4458   2
  -2   6   6 248.019 11.0281   4
  -2   6   6 254.711 11.4551   3
   1  -6  -6 453.410 16.8187   3
   1  -6  -6 444.900 16.9892   4
   1  -6  -6 456.510 16.5603   2
   1  -6  -6 462.950 16.6036   4
  -1   6   6 479.399 17.0988   3
  -1   6   6 455.018 16.7920   2
  -1   6   6 473.616 16.1291   4
  -1   6   6 453.969 16.4877   4
   0  -6  -6 2.29179 1.30658   4
   0  -6  -6 4.20565 2.13992   3
   0  -6  -6 3.27814 1.69457   4
   0   6   6 3.40750 1.84790   3
   0   6   6 2.63322 1.09347   4
  -1  -6  -6 1695.98 53.7119   4
  -1  -6  -6 1691.37 53.4521   4
  -1  -6  -6 1800.31 54.9030   3
   1   6   6 1644.05 52.6020   4
   1   6   6 1671.07 53.0300   4
   1   6   6 1731.02 54.5238   3
  -2  -6  -6 736.610 25.1064   2
  -2  -6  -6 765.936 24.1179   4
  -2  -6  -6 750.481 24.2609   4
  -2  -6  -6 746.964 25.9004   3
   2   6   6 751.807 25.3821   3
  -3  -6  -6 811.673 27.5769   2
  -3  -6  -6 839.486 28.2421   3
  -3  -6  -6 813.303 25.9561   4
  -3  -6  -6 803.234 25.7450   4
  -3  -6  -6 808.130 27.1858   2
  -4  -6  -6 181.019 9.12904   3
  -4  -6  -6 175.433 6.19772   4
  -4  -6  -6 171.477 6.32924   4
  -4  -6  -6 176.830 7.99475   2
  -4  -6  -6 173.871 8.22103   2
  -5  -6  -6 446.562 18.1047   3
  -5  -6  -6 466.859 17.0896   2
  -5  -6  -6 462.051 17.0808   3
  -5  -6  -6 450.972 15.0034   4
  -5  -6  -6 454.804 14.7527   4
  -6  -6  -6 88.4334 3.85940   4
  -6  -6  -6 82.1002 4.16874   4
  -6  -6  -6 73.7099 5.97099   2
  -6  -6  -6 85.0704 6.36607   3
  -7  -6  -6 27.7719 3.99173   2
   2  -7  -6 210.270 11.9838   3
   2  -7  -6 198.919 10.5008   4
  -2   7   6 197.076 9.82134   2
  -2   7   6 212.028 10.8904   3
   1  -7  -6 63.1708 5.64543   4
   1  -7  -6 62.8331 5.77094   3
   1  -7  -6 61.8398 5.02528   4
  -1   7   6 58.8230 5.98905   3
  -1   7   6 63.1542 4.40763   4
   0  -7  -6 67.0907 4.96525   4
   0  -7  -6 45.5921 6.87008   4
   0  -7  -6 69.1675 5.04300   2
   0  -7  -6 60.3762 5.60805   3
   0   7   6 66.2834 4.44558   4
   0   7   6 72.1480 3.89743   4
   0   7   6 67.1163 5.60693   3
  -1  -7  -6 157.791 7.15183   4
  -1  -7  -6 165.595 7.32343   4
  -1  -7  -6 156.666 8.44356   3
   1   7   6 162.799 8.18016   3
   1   7   6 158.918 6.10034   4
   1   7   6 175.501 7.32208   4
  -2  -7  -6 70.0397 3.99296   4
  -2  -7  -6 68.7510 5.61729   3
  -2  -7  -6 71.1889 4.01786   4
   2   7   6 69.8875 5.28678   3
   2   7   6 67.2457 2.80125   4
  -3  -7  -6 268.738 11.3897   2
  -3  -7  -6 265.187 10.9776   2
  -3  -7  -6 270.810 9.79346   4
  -3  -7  -6 279.185 10.0861   4
  -3  -7  -6 280.948 12.3175   3
  -4  -7  -6 12.1173 1.85165   4
  -4  -7  -6 4.08541 2.28099   2
  -4  -7  -6 10.6500 3.07172   2
  -4  -7  -6 12.0852 1.80609   4
  -4  -7  -6 5.16085 3.58470   3
  -5  -7  -6 75.2331 5.84477   2
  -5  -7  -6 65.8426 3.40747   4
  -5  -7  -6 71.1857 3.71178   4
  -6  -7  -6 703.529 25.4896   3
  -6  -7  -6 737.360 25.5706   2
  -6  -7  -6 727.916 22.9872   4
  -6  -7  -6 684.873 23.2125   4
   1  -8  -6 122.751 7.99695   4
  -1   8   6 104.712 8.62230   3
   0  -8  -6 221.859 10.1897   4
   0   8   6 208.483 10.9487   3
   0   8   6 218.594 10.9669   4
  -1  -8  -6 41.6996 6.13712   3
  -1  -8  -6 45.2516 4.54612   4
  -1  -8  -6 50.0943 4.41860   4
   1   8   6 45.7068 5.79334   3
   1   8   6 55.9453 3.18650   4
  -2  -8  -6 25.2626 3.40287   4
  -2  -8  -6 25.0128 3.26060   4
  -2  -8  -6 26.2271 3.99224   2
  -2  -8  -6 23.3470 4.20802   3
   2   8   6 24.8287 4.08110   3
   2   8   6 25.5471 1.96907   4
  -3  -8  -6 34.7753 4.42867   2
  -3  -8  -6 41.5143 3.61175   4
   3   8   6 39.3357 4.87167   3
  -4  -8  -6 1.99974 2.83440   2
  -4  -8  -6 0.53012 1.59363   4
  -4  -8  -6 3.39081 1.86184   4
  -5  -8  -6 590.676 22.4639   2
  -5  -8  -6 623.571 20.4764   4
  -5  -8  -6 620.092 20.2838   4
  -1  -9  -6 109.741 8.16262   4
   1   9   6 110.700 8.66158   3
  -2  -9  -6 230.972 10.2875   4
  -2  -9  -6 241.227 11.8197   2
   2   9   6 228.319 11.6785   3
  -3  -9  -6 934.307 31.7965   4
  -3  -9  -6 931.994 33.1875   2
   3   9   6 987.190 33.4986   3
  -4  -9  -6 71.8700 6.62576   4
   3   6  -7 21.8221 5.46509   4
   3   6  -7 12.3613 3.78111   3
  -3  -6   7 16.9713 4.05970   4
  -3  -6   7 16.5030 2.88004   2
  -3  -6   7 21.1804 4.43330   3
   2   6  -7 193.074 11.7240   4
   2   6  -7 203.200 10.7998   3
   2   6  -7 178.384 12.2054   4
  -2  -6   7 200.145 10.1965   4
  -2  -6   7 212.574 11.2191   3
  -2  -6   7 218.093 11.1613   4
  -2  -6   7 194.863 9.08109   2
   1   6  -7 133.656 7.34635   4
   1   6  -7 133.700 9.24907   3
  -1  -6   7 117.499 8.66267   4
  -1  -6   7 121.651 8.72828   4
   5   5  -7 0.49883 4.99294   4
   5   5  -7 -1.3856 3.37569   4
  -5  -5   7 3.71169 2.58996   2
  -5  -5   7 -5.7919 3.49622   4
   4   5  -7 638.607 22.5656   4
   4   5  -7 606.367 23.4852   4
   4   5  -7 613.116 22.3302   2
  -4  -5   7 556.876 21.8190   3
  -4  -5   7 613.725 21.9593   4
  -4  -5   7 671.873 23.3161   4
  -4  -5   7 650.042 21.6278   2
   3   5  -7 127.286 6.77059   4
   3   5  -7 103.376 6.57293   2
   3   5  -7 111.935 8.24861   4
   3   5  -7 107.145 6.79516   3
  -3  -5   7 112.392 6.88587   3
  -3  -5   7 111.658 5.72583   2
  -3  -5   7 114.267 7.49214   4
  -3  -5   7 120.737 6.77618   4
   2   5  -7 693.668 25.1001   3
   2   5  -7 706.953 25.9455   4
   2   5  -7 752.473 24.6930   4
  -2  -5   7 744.957 26.0026   4
  -2  -5   7 697.873 24.8793   4
  -2  -5   7 715.097 23.5839   2
   1   5  -7 237.302 11.5955   4
   1   5  -7 231.078 11.8406   4
   1   5  -7 253.153 11.3315   3
  -1  -5   7 254.138 8.67936   2
  -1  -5   7 231.545 10.6635   4
  -1  -5   7 228.726 11.1623   4
   0   5  -7 318.677 14.5547   4
   0   5  -7 327.668 14.3521   3
   0   5  -7 341.727 12.7429   4
   0  -5   7 321.719 13.5228   3
   0  -5   7 297.550 13.4184   4
   0  -5   7 339.839 10.7487   2
   0  -5   7 325.241 10.6338   2
   0  -5   7 345.797 14.2844   4
  -1   5  -7 29.1572 5.02929   3
  -1   5  -7 37.9849 4.31771   4
   1  -5   7 30.2405 5.17759   4
   5   4  -7 292.782 14.1733   4
   5   4  -7 310.002 13.5927   4
  -5  -4   7 313.951 12.5043   3
  -5  -4   7 310.071 13.3936   4
  -5  -4   7 315.130 12.3908   4
  -5  -4   7 311.964 11.6520   3
  -5  -4   7 317.861 12.5189   2
   4   4  -7 365.640 14.0849   4
   4   4  -7 335.661 14.6961   4
   4   4  -7 334.941 13.7754   2
  -4  -4   7 348.757 13.2460   4
  -4  -4   7 350.592 13.0756   2
  -4  -4   7 361.472 13.2858   3
  -4  -4   7 345.657 14.2085   4
   3   4  -7 -0.5022 2.52733   4
   3   4  -7 6.26316 2.14110   4
   3   4  -7 6.65039 2.20891   2
   3   4  -7 4.65022 1.90853   3
  -3  -4   7 2.40335 1.91601   3
  -3  -4   7 3.18846 1.56191   2
  -3  -4   7 1.56810 1.72932   4
  -3  -4   7 4.24977 1.85234   4
   2   4  -7 97.3920 5.72339   3
   2   4  -7 96.1490 5.21193   4
   2   4  -7 95.8318 5.12700   2
   2   4  -7 99.3432 6.70388   4
  -2  -4   7 106.999 6.37674   4
  -2  -4   7 90.4228 5.28588   4
  -2  -4   7 93.3481 4.52557   2
  -2  -4   7 101.255 5.44835   3
   1   4  -7 151.992 7.77367   3
   1   4  -7 149.664 8.11173   4
   1   4  -7 147.131 6.74439   4
  -1  -4   7 156.914 5.82270   2
  -1  -4   7 156.522 7.32705   4
  -1  -4   7 153.453 7.80636   4
  -1  -4   7 148.886 7.13487   3
   0   4  -7 899.046 30.9417   3
   0   4  -7 848.824 30.5113   4
   0   4  -7 888.621 29.5269   4
   0  -4   7 897.307 30.3453   4
   0  -4   7 898.826 29.5855   3
   0  -4   7 884.091 29.8265   4
   0  -4   7 840.919 27.3641   2
   0  -4   7 904.870 27.4981   2
  -1   4  -7 -2.2491 2.70664   4
  -1   4  -7 10.4856 3.50498   3
  -1   4  -7 0.72038 1.39874   4
   1  -4   7 0.97260 2.52887   4
   1  -4   7 0.96898 2.37785   3
   1  -4   7 2.84015 2.49098   4
  -2   4  -7 107.185 5.92793   4
  -2   4  -7 82.2008 7.72402   3
  -2   4  -7 99.7701 8.25493   4
   2  -4   7 96.9364 6.81962   4
  -3   4  -7 129.955 7.51522   4
  -3   4  -7 134.967 9.93798   3
   6   3  -7 2.23165 3.74876   4
   6   3  -7 0.37271 5.00265   4
  -6  -3   7 3.55492 2.31168   4
  -6  -3   7 2.02882 2.48837   2
  -6  -3   7 1.96427 2.83756   4
  -6  -3   7 1.96342 2.15787   3
   5   3  -7 89.4836 6.79838   4
   5   3  -7 78.8042 7.12847   4
  -5  -3   7 91.7328 4.63780   3
  -5  -3   7 84.8210 6.27747   4
  -5  -3   7 87.1827 5.41079   4
  -5  -3   7 84.3820 5.46129   2
  -5  -3   7 73.5902 5.29397   3
   4   3  -7 57.8468 5.43665   4
   4   3  -7 52.2345 4.79540   2
   4   3  -7 63.7372 4.99866   4
  -4  -3   7 56.7091 4.05696   4
  -4  -3   7 58.8619 4.94503   4
  -4  -3   7 58.6895 4.06336   2
  -4  -3   7 63.6614 4.10334   3
   3   3  -7 50.0015 4.02382   2
   3   3  -7 52.7033 3.93338   4
   3   3  -7 44.0631 4.66369   4
  -3  -3   7 51.2939 3.34235   2
  -3  -3   7 50.8884 3.45152   3
  -3  -3   7 49.0126 3.61729   4
  -3  -3   7 54.1308 4.26542   4
   2   3  -7 560.165 19.3320   4
   2   3  -7 558.395 19.1089   3
   2   3  -7 564.570 20.3583   4
  -2  -3   7 589.056 18.9832   3
  -2  -3   7 554.191 20.0047   4
  -2  -3   7 540.117 18.5818   2
  -2  -3   7 586.926 19.3212   4
   1   3  -7 318.463 12.4592   4
   1   3  -7 293.336 11.6658   3
   1   3  -7 302.257 11.2661   4
   1   3  -7 305.314 10.7356   2
  -1  -3   7 308.217 10.3977   2
  -1  -3   7 316.355 11.3051   3
  -1  -3   7 312.041 12.1978   4
  -1  -3   7 310.074 11.5247   4
   0   3  -7 79.9842 5.33596   4
   0   3  -7 87.1216 5.33031   3
   0   3  -7 80.4559 4.27485   4
   0  -3   7 79.5304 4.57302   3
   0  -3   7 85.4854 3.10027   2
   0  -3   7 81.0107 4.83032   4
   0  -3   7 82.2239 5.12590   4
  -1   3  -7 50.3762 4.82949   3
  -1   3  -7 60.5561 4.93651   4
   1  -3   7 51.3065 4.10085   3
   1  -3   7 55.0327 4.73116   4
   1  -3   7 49.4044 4.15567   4
  -2   3  -7 804.775 25.8339   4
  -2   3  -7 707.423 26.9102   4
  -2   3  -7 793.849 27.1910   3
  -3   3  -7 221.643 11.2892   4
  -3   3  -7 233.496 9.74470   4
  -3   3  -7 229.561 11.4051   3
  -4   3  -7 -2.7733 2.04424   4
  -4   3  -7 -2.7108 4.22017   3
   6   2  -7 9.39708 4.06308   4
   6   2  -7 15.2522 4.66358   4
  -6  -2   7 9.94626 2.64262   4
  -6  -2   7 4.97830 2.15171   3
  -6  -2   7 4.32578 3.41136   3
  -6  -2   7 7.01415 2.74834   2
  -6  -2   7 9.20678 3.40013   4
   5   2  -7 497.941 18.3553   2
   5   2  -7 495.303 18.8424   4
   5   2  -7 472.969 18.5150   4
  -5  -2   7 490.100 16.1241   3
  -5  -2   7 475.376 17.3098   2
  -5  -2   7 474.402 16.6639   3
  -5  -2   7 479.479 18.0923   4
  -5  -2   7 457.111 16.9869   4
   4   2  -7 0.80435 2.05012   2
   4   2  -7 3.37884 2.24974   4
   4   2  -7 0.95522 2.21725   4
  -4  -2   7 0.77241 1.39926   2
  -4  -2   7 2.51903 1.84162   4
  -4  -2   7 1.40230 1.32131   3
  -4  -2   7 0.86675 0.91302   3
  -4  -2   7 1.83424 1.38730   4
   3   2  -7 148.425 7.69967   4
   3   2  -7 166.155 7.13634   2
   3   2  -7 155.319 7.19049   4
  -3  -2   7 169.089 6.72127   4
  -3  -2   7 158.517 7.31930   4
  -3  -2   7 161.026 6.62211   2
  -3  -2   7 145.175 6.00396   3
   2   2  -7 351.958 14.0044   4
   2   2  -7 396.598 13.2334   2
   2   2  -7 391.310 13.4658   4
   2   2  -7 355.904 12.5618   3
  -2  -2   7 369.046 13.7348   4
  -2  -2   7 388.307 13.1254   4
  -2  -2   7 371.916 12.7604   2
  -2  -2   7 360.602 12.4869   3
   1   2  -7 502.424 17.1229   2
   1   2  -7 519.118 18.4503   4
   1   2  -7 514.679 17.5806   4
   1   2  -7 538.110 17.5911   3
  -1  -2   7 523.948 17.2114   3
  -1  -2   7 518.793 16.8793   2
  -1  -2   7 514.089 17.5961   4
  -1  -2   7 550.450 18.4380   4
   0   2  -7 2104.51 64.4338   4
   0   2  -7 2039.60 63.8356   3
   0   2  -7 1937.62 62.3879   2
   0   2  -7 2098.25 63.4423   4
   0  -2   7 2031.78 63.3635   3
   0  -2   7 2098.00 63.7373   4
   0  -2   7 1910.30 62.2595   2
   0  -2   7 2046.28 64.2978   4
  -1   2  -7 24.0592 3.23194   3
  -1   2  -7 21.2987 2.10920   4
   1  -2   7 24.1688 2.54916   3
   1  -2   7 20.8255 2.44630   4
  -2   2  -7 233.982 9.02939   4
  -2   2  -7 228.657 10.0577   4
  -2   2  -7 227.947 10.0464   3
   2  -2   7 237.806 10.0107   4
   2  -2   7 240.095 9.45122   3
  -3   2  -7 26.1254 3.72595   3
  -3   2  -7 22.3146 2.90765   4
  -3   2  -7 27.7381 4.22832   4
   3  -2   7 24.3286 3.39210   4
   3  -2   7 26.4920 3.90063   3
   3  -2   7 31.5715 3.63147   4
  -4   2  -7 607.182 20.9547   4
   4  -2   7 584.741 21.1472   4
   6   1  -7 75.5594 7.48619   4
   6   1  -7 66.6119 7.02224   4
  -6  -1   7 64.9494 5.31649   2
  -6  -1   7 61.3218 5.53632   4
  -6  -1   7 62.7655 4.60885   3
  -6  -1   7 72.9104 6.64690   4
  -6  -1   7 74.4163 5.79424   3
   5   1  -7 110.775 7.17562   4
   5   1  -7 124.895 7.22178   2
  -5  -1   7 126.704 5.30205   3
  -5  -1   7 120.456 5.63772   3
  -5  -1   7 121.786 6.21856   4
  -5  -1   7 117.097 6.99503   4
  -5  -1   7 118.900 6.37179   2
   4   1  -7 68.6005 5.04177   4
   4   1  -7 73.7023 4.83479   2
   4   1  -7 64.9652 5.22860   4
  -4  -1   7 61.8810 4.45349   4
  -4  -1   7 78.3319 4.23327   4
  -4  -1   7 65.2150 3.42708   3
  -4  -1   7 67.7426 4.21859   2
  -4  -1   7 68.5571 3.09987   3
   3   1  -7 1213.30 38.3546   2
   3   1  -7 1198.48 39.1118   4
   3   1  -7 1203.45 38.7590   4
  -3  -1   7 1155.65 36.6930   3
  -3  -1   7 1147.14 36.8611   3
  -3  -1   7 1206.11 37.8987   4
  -3  -1   7 1190.04 38.0079   2
  -3  -1   7 1204.91 38.6407   4
   2   1  -7 594.778 21.4533   4
   2   1  -7 631.684 21.0088   4
   2   1  -7 667.191 20.7966   2
  -2  -1   7 646.768 21.1983   4
  -2  -1   7 623.605 19.5274   3
  -2  -1   7 601.484 20.3955   2
  -2  -1   7 608.428 20.4432   4
   1   1  -7 232.189 8.54224   4
   1   1  -7 224.426 7.95877   3
   1   1  -7 234.884 8.26704   2
   1   1  -7 238.228 9.28726   4
  -1  -1   7 230.489 8.35972   4
  -1  -1   7 233.553 7.77452   3
  -1  -1   7 218.932 8.00240   2
  -1  -1   7 229.368 8.91279   4
   0   1  -7 79.9215 3.85164   3
   0   1  -7 74.3938 3.10580   2
   0   1  -7 74.0728 4.22546   4
   0   1  -7 74.2000 3.53694   4
   0  -1   7 71.9513 4.40653   4
   0  -1   7 79.0602 3.74563   4
   0  -1   7 82.9554 3.05247   2
   0  -1   7 75.3421 3.41065   3
  -1   1  -7 112.475 4.75209   4
  -1   1  -7 118.598 5.54521   4
  -1   1  -7 114.604 5.41882   3
   1  -1   7 107.696 5.20158   4
   1  -1   7 115.564 5.03162   4
   1  -1   7 109.851 4.89403   3
  -2   1  -7 1579.29 52.4436   3
  -2   1  -7 1685.74 52.6610   4
  -2   1  -7 1659.00 51.7022   4
   2  -1   7 1676.07 52.1797   4
   2  -1   7 1643.97 52.0710   3
  -3   1  -7 47.8370 6.67702   3
  -3   1  -7 54.1465 3.39855   4
  -3   1  -7 52.2402 4.31503   4
   3  -1   7 46.4355 3.47714   4
   3  -1   7 48.5592 3.77830   3
  -4   1  -7 205.926 8.43059   4
  -4   1  -7 205.758 9.84072   3
  -4   1  -7 180.970 9.30036   4
   4  -1   7 191.522 8.31627   4
   4  -1   7 204.687 9.16237   3
   4  -1   7 193.878 8.44304   4
  -5   1  -7 33.9509 4.05705   4
  -5   1  -7 31.4551 4.56741   3
   6   0  -7 25.3803 4.42214   4
  -6   0   7 37.0649 4.02714   3
  -6   0   7 24.5448 4.27748   4
  -6   0   7 33.9665 5.12029   4
  -6   0   7 26.6753 3.88100   2
   5   0  -7 426.963 17.2024   4
   5   0  -7 474.435 18.0719   4
  -5   0   7 457.766 17.2690   4
  -5   0   7 459.759 15.3588   3
  -5   0   7 461.894 15.4671   3
  -5   0   7 434.553 16.3724   4
  -5   0   7 452.107 16.6205   2
   4   0  -7 10.8835 2.22652   2
   4   0  -7 10.3887 1.97346   4
   4   0  -7 17.0731 3.06945   4
  -4   0   7 12.1778 1.92459   4
  -4   0   7 18.3805 2.69520   2
  -4   0   7 18.7046 1.89466   3
  -4   0   7 16.0672 2.67166   4
  -4   0   7 15.2485 1.57863   3
   3   0  -7 28.1828 2.87085   2
   3   0  -7 23.6883 2.96220   4
   3   0  -7 24.1455 3.12227   4
  -3   0   7 28.1728 1.34317   3
  -3   0   7 29.7197 2.53895   2
  -3   0   7 32.7370 3.03108   4
  -3   0   7 26.7168 2.38340   4
   2   0  -7 25.2200 2.40860   4
   2   0  -7 21.6270 2.56565   4
  -2   0   7 23.4421 2.55671   4
  -2   0   7 19.5009 1.79438   4
  -2   0   7 25.3683 2.10748   2
   1   0  -7 405.179 12.9331   2
   1   0  -7 397.414 13.1727   4
   1   0  -7 377.588 13.5982   4
  -1   0   7 378.323 12.7852   4
  -1   0   7 367.557 13.8385   4
  -1   0   7 366.618 12.7511   2
   0   0  -7 1463.68 46.1345   4
   0   0  -7 1447.19 45.8137   2
   0   0  -7 1509.73 46.8124   4
   0   0  -7 1454.33 45.8599   3
   0   0   7 1502.64 46.1109   4
   0   0   7 1472.53 45.6714   3
   0   0   7 1496.29 45.8516   2
   0   0   7 1499.19 46.4493   4
  -1   0  -7 7.19302 1.47880   4
  -1   0  -7 9.50137 1.15166   4
  -1   0  -7 7.07746 0.79014   2
  -1   0  -7 8.04815 1.33717   3
   1   0   7 10.3189 1.32689   3
   1   0   7 8.81804 1.20297   4
   1   0   7 7.01276 1.19293   4
  -2   0  -7 41.1943 3.13923   3
  -2   0  -7 42.4568 2.36942   4
  -2   0  -7 41.0729 3.11068   4
   2   0   7 38.6028 2.53656   4
   2   0   7 37.6593 2.71476   3
   2   0   7 40.7633 2.47691   4
  -3   0  -7 3.64851 1.32919   4
  -3   0  -7 5.63104 1.92528   3
  -3   0  -7 5.78554 1.77358   4
   3   0   7 8.07620 1.74102   3
   3   0   7 7.04274 1.46247   4
  -4   0  -7 648.338 22.4855   3
  -4   0  -7 637.386 21.1960   4
  -4   0  -7 609.197 22.0241   4
   4   0   7 635.455 21.1233   4
  -5   0  -7 37.1664 3.59840   4
  -5   0  -7 43.5163 5.20035   4
  -5   0  -7 36.2694 4.81878   3
   5   0   7 42.0745 3.76743   4
  -6   0  -7 23.1749 5.06918   3
  -6   0  -7 23.9339 3.35998   4
   6  -1  -7 30.3679 6.07637   4
   6  -1  -7 51.2283 7.15839   4
  -6   1   7 52.2110 4.76855   3
  -6   1   7 47.5880 6.86629   4
  -6   1   7 46.9646 5.27618   2
  -6   1   7 46.3931 5.94766   4
   5  -1  -7 316.613 13.7217   4
   5  -1  -7 295.269 12.8042   4
  -5   1   7 305.911 12.8504   4
  -5   1   7 287.047 12.0489   4
  -5   1   7 311.236 12.2266   2
  -5   1   7 291.121 10.9505   3
   4  -1  -7 28.8255 3.65852   4
   4  -1  -7 27.8078 4.03304   4
  -4   1   7 27.6199 2.99745   4
  -4   1   7 25.5826 2.17151   3
  -4   1   7 27.9117 3.18424   2
  -4   1   7 26.9403 3.39759   4
   3  -1  -7 3896.88 118.111   4
   3  -1  -7 3853.43 117.314   2
   3  -1  -7 3882.98 117.679   4
  -3   1   7 3699.75 115.625   3
  -3   1   7 3719.51 115.594   3
  -3   1   7 3743.86 116.983   4
  -3   1   7 3827.40 117.570   4
  -3   1   7 3697.88 117.175   2
   2  -1  -7 177.494 7.36223   4
   2  -1  -7 160.968 7.06858   4
  -2   1   7 174.710 6.90283   2
  -2   1   7 173.309 6.57139   4
   1  -1  -7 1461.29 46.0963   4
   1  -1  -7 1421.20 45.6494   2
   1  -1  -7 1482.62 45.9585   4
  -1   1   7 1506.23 45.7684   2
  -1   1   7 1390.10 45.3239   4
  -1   1   7 1496.17 45.8249   4
   0  -1  -7 15.3583 1.96380   4
   0  -1  -7 16.6593 1.44071   2
   0  -1  -7 15.3757 1.03329   3
   0  -1  -7 15.0093 1.13880   3
   0  -1  -7 15.6909 1.37732   4
   0   1   7 14.2122 1.43517   2
   0   1   7 14.9746 1.74622   4
   0   1   7 14.6661 1.41846   4
  -1  -1  -7 255.248 8.96875   4
  -1  -1  -7 251.874 8.44574   2
  -1  -1  -7 251.883 8.48023   4
  -1  -1  -7 255.109 8.77623   3
   1   1   7 251.620 8.51637   4
   1   1   7 252.765 8.54289   2
  -2  -1  -7 515.577 17.5425   3
  -2  -1  -7 524.734 16.6913   2
  -2  -1  -7 528.781 16.8239   4
  -2  -1  -7 504.145 16.5034   2
  -2  -1  -7 532.985 17.3344   4
   2   1   7 535.820 17.4600   3
   2   1   7 533.655 16.7963   4
   2   1   7 525.937 16.7360   4
  -3  -1  -7 140.514 5.46481   4
  -3  -1  -7 135.035 5.97446   4
  -3  -1  -7 135.628 6.38321   3
  -3  -1  -7 145.034 4.90305   2
  -3  -1  -7 146.175 4.99251   2
   3   1   7 145.462 5.25145   4
   3   1   7 143.133 5.35587   4
   3   1   7 145.379 6.26825   3
  -4  -1  -7 320.654 10.4224   2
  -4  -1  -7 332.501 10.4533   2
  -4  -1  -7 319.518 11.3137   4
  -4  -1  -7 309.662 11.9260   4
  -4  -1  -7 305.979 13.1292   3
   4   1   7 317.903 11.0113   4
   4   1   7 330.958 12.2748   3
  -5  -1  -7 23.4776 3.69685   3
  -5  -1  -7 16.7049 2.78474   4
  -5  -1  -7 21.0642 1.90935   2
  -5  -1  -7 20.1436 2.49538   4
   5   1   7 15.3999 3.19244   3
   5   1   7 24.1517 2.63062   4
   5   1   7 26.4786 2.51599   4
  -6  -1  -7 309.635 12.4447   4
  -6  -1  -7 339.870 12.6530   2
  -6  -1  -7 322.570 14.2669   3
   6   1   7 321.783 11.9047   4
   5  -2  -7 82.3137 7.05856   4
   5  -2  -7 69.6387 6.37491   4
  -5   2   7 76.1503 6.46766   4
  -5   2   7 82.7735 5.73134   2
  -5   2   7 63.8542 5.65341   4
  -5   2   7 73.9204 4.85136   3
   4  -2  -7 382.566 15.8330   4
   4  -2  -7 400.026 15.3009   4
  -4   2   7 396.705 14.8827   4
  -4   2   7 420.543 15.4747   4
  -4   2   7 408.051 15.0170   2
  -4   2   7 415.859 13.9617   3
   3  -2  -7 650.823 23.5343   4
   3  -2  -7 669.296 21.3033   3
   3  -2  -7 653.390 22.9208   4
  -3   2   7 716.525 23.2229   4
  -3   2   7 678.445 21.5988   3
  -3   2   7 686.491 22.8798   2
  -3   2   7 676.194 22.6349   4
   2  -2  -7 13.7620 1.89952   2
   2  -2  -7 8.78078 1.52370   4
   2  -2  -7 12.6235 2.01158   4
  -2   2   7 11.6586 1.13055   3
  -2   2   7 10.6784 1.69863   2
  -2   2   7 11.0795 1.60388   4
   1  -2  -7 363.762 12.5806   2
   1  -2  -7 350.133 12.4342   4
   1  -2  -7 367.679 12.7047   4
  -1   2   7 349.873 11.9121   4
  -1   2   7 352.335 12.5019   2
  -1   2   7 371.298 12.3715   4
   0  -2  -7 891.462 27.8572   3
   0  -2  -7 912.305 28.6528   4
   0  -2  -7 906.097 28.6114   4
   0  -2  -7 904.262 28.0411   3
   0  -2  -7 880.197 28.6630   2
   0   2   7 916.212 28.8252   2
   0   2   7 907.002 28.3373   4
  -1  -2  -7 1733.85 54.2393   3
  -1  -2  -7 1770.99 54.3040   4
  -1  -2  -7 1724.31 54.0205   4
  -1  -2  -7 1754.80 54.4144   2
  -1  -2  -7 1795.88 54.4667   3
   1   2   7 1755.12 54.5277   2
  -2  -2  -7 97.9177 3.39688   4
  -2  -2  -7 91.8416 3.80506   2
  -2  -2  -7 92.2707 4.21646   3
  -2  -2  -7 92.8294 3.69497   4
  -3  -2  -7 1262.26 40.1888   3
  -3  -2  -7 1263.54 39.0309   4
  -3  -2  -7 1240.65 39.2619   2
  -3  -2  -7 1276.31 39.4440   4
  -3  -2  -7 1254.44 39.4430   2
  -4  -2  -7 363.950 12.5418   4
  -4  -2  -7 349.091 13.2317   3
  -4  -2  -7 355.569 12.0911   2
  -4  -2  -7 356.173 11.9823   2
  -4  -2  -7 355.690 12.0325   4
  -5  -2  -7 112.262 6.51765   3
  -5  -2  -7 106.060 4.80195   2
  -5  -2  -7 106.575 5.06989   4
  -5  -2  -7 101.089 5.46897   4
   5   2   7 110.706 4.26294   4
   5   2   7 111.857 4.26388   4
  -6  -2  -7 40.2058 5.85914   3
  -6  -2  -7 47.9120 4.56160   4
  -6  -2  -7 48.2166 3.48665   2
  -6  -2  -7 45.0883 3.82849   4
   6   2   7 44.8164 3.12210   4
   5  -3  -7 79.6083 8.06941   4
   5  -3  -7 65.4572 4.99978   3
  -5   3   7 80.2463 6.54797   4
  -5   3   7 79.8764 6.08779   2
  -5   3   7 74.8872 5.80334   3
   4  -3  -7 84.7852 4.57214   3
   4  -3  -7 74.9732 6.38223   4
   4  -3  -7 82.0120 5.61054   4
   4  -3  -7 78.5050 5.77092   2
  -4   3   7 83.2689 4.89960   3
  -4   3   7 86.0604 5.64029   2
  -4   3   7 89.5443 5.88389   4
  -4   3   7 80.7226 5.52870   4
   3  -3  -7 947.351 29.7649   3
   3  -3  -7 908.736 31.0833   4
   3  -3  -7 984.336 32.2340   4
  -3   3   7 917.035 31.0604   2
  -3   3   7 952.089 30.1671   3
  -3   3   7 922.540 31.7307   4
  -3   3   7 939.801 30.9221   4
   2  -3  -7 16.7539 2.55243   4
   2  -3  -7 20.1767 2.45042   2
   2  -3  -7 15.5025 1.55949   3
   2  -3  -7 19.6842 2.41225   4
  -2   3   7 15.7103 2.25850   4
  -2   3   7 16.5248 2.31885   2
  -2   3   7 17.9055 1.85640   3
  -2   3   7 17.8494 2.14590   4
   1  -3  -7 328.282 10.8783   3
   1  -3  -7 317.330 11.9662   4
   1  -3  -7 284.932 11.8735   4
   1  -3  -7 349.095 11.8806   2
  -1   3   7 347.309 11.5852   4
  -1   3   7 337.756 10.9626   3
  -1   3   7 341.482 11.9793   2
  -1   3   7 334.088 11.2583   4
   0  -3  -7 67.4528 3.13453   4
   0  -3  -7 64.9932 3.06376   3
   0  -3  -7 64.6117 3.24483   4
   0  -3  -7 66.2710 3.48486   2
   0   3   7 63.8526 2.81715   4
   0   3   7 61.2728 2.55138   4
   0   3   7 66.9663 3.57600   2
  -1  -3  -7 555.638 17.4969   4
  -1  -3  -7 554.154 18.1061   3
  -1  -3  -7 526.187 18.0208   2
  -1  -3  -7 550.501 17.3942   4
  -1  -3  -7 546.738 17.7188   3
   1   3   7 557.231 18.2263   2
  -2  -3  -7 716.548 22.7079   4
  -2  -3  -7 724.725 24.1233   3
  -2  -3  -7 770.320 23.7917   2
  -2  -3  -7 734.285 23.8043   3
  -3  -3  -7 222.509 8.03743   2
  -3  -3  -7 220.737 6.96913   4
  -3  -3  -7 219.156 8.51202   3
  -3  -3  -7 208.670 8.22076   2
  -3  -3  -7 219.525 7.18575   4
  -4  -3  -7 14.5441 2.11741   2
  -4  -3  -7 16.8607 2.10911   2
  -4  -3  -7 14.0814 1.65504   4
  -4  -3  -7 13.5536 2.26408   3
  -5  -3  -7 5.90470 2.31060   3
  -5  -3  -7 5.79978 1.67628   2
  -5  -3  -7 5.60176 1.51067   4
  -5  -3  -7 5.84416 1.29880   4
  -6  -3  -7 440.881 16.3432   3
  -6  -3  -7 404.344 14.6245   4
  -6  -3  -7 391.226 14.2641   4
  -6  -3  -7 405.210 14.4814   2
   4  -4  -7 511.349 19.5743   4
   4  -4  -7 507.086 18.2140   3
   4  -4  -7 512.453 20.5815   4
  -4   4   7 528.659 19.7586   4
  -4   4   7 523.160 18.9389   3
  -4   4   7 615.245 21.5301   4
  -4   4   7 525.877 19.4814   2
   3  -4  -7 258.531 10.6675   4
   3  -4  -7 263.578 11.5304   4
   3  -4  -7 236.425 11.2897   3
  -3   4   7 250.615 10.4693   4
  -3   4   7 269.942 10.8341   2
  -3   4   7 263.822 10.1249   3
   2  -4  -7 499.848 17.5552   4
   2  -4  -7 499.082 16.7933   3
  -2   4   7 517.404 17.5634   4
  -2   4   7 499.260 17.3735   4
  -2   4   7 482.074 17.6678   2
  -2   4   7 510.947 17.1258   3
   1  -4  -7 704.622 23.2604   3
   1  -4  -7 748.282 23.9458   2
   1  -4  -7 730.021 24.2008   4
   1  -4  -7 666.476 24.3028   4
  -1   4   7 727.746 23.3597   4
  -1   4   7 724.446 24.0676   2
  -1   4   7 724.896 23.3939   3
   0  -4  -7 25.5136 2.48201   2
   0  -4  -7 26.8346 2.36081   4
   0  -4  -7 29.5008 2.16008   4
   0  -4  -7 28.3345 2.44549   3
   0   4   7 28.4448 1.83291   4
   0   4   7 25.4720 2.56103   2
   0   4   7 29.5495 2.23864   3
   0   4   7 28.4962 1.67304   4
  -1  -4  -7 1237.21 37.7999   4
  -1  -4  -7 1180.85 38.7797   3
  -1  -4  -7 1242.19 38.7372   2
  -1  -4  -7 1206.58 38.0217   4
  -2  -4  -7 19.4476 2.17756   2
  -2  -4  -7 20.2411 2.71158   3
  -3  -4  -7 17.6807 2.24739   2
  -3  -4  -7 19.7749 2.55099   2
  -3  -4  -7 20.6490 2.44709   3
  -3  -4  -7 21.0644 2.86537   3
  -4  -4  -7 14.2550 2.34960   3
  -4  -4  -7 13.5662 0.96349   4
  -4  -4  -7 19.4561 2.74537   2
  -4  -4  -7 17.3642 2.96200   3
  -4  -4  -7 11.4354 1.80217   2
  -5  -4  -7 99.4736 5.95732   3
  -5  -4  -7 107.109 5.57343   2
  -5  -4  -7 106.083 4.26267   4
  -5  -4  -7 109.135 6.75497   3
  -6  -4  -7 12.2513 2.61093   2
  -6  -4  -7 17.4351 3.47374   3
  -6  -4  -7 17.7635 2.16200   4
  -7  -4  -7 23.3765 3.32338   2
   4  -5  -7 35.8907 4.17118   3
   4  -5  -7 48.4675 7.31327   4
  -4   5   7 32.2448 4.56103   3
  -4   5   7 34.6817 5.06955   2
   3  -5  -7 53.2644 5.92482   4
   3  -5  -7 47.4220 4.58682   4
   3  -5  -7 49.4550 4.31255   3
  -3   5   7 49.4575 4.80614   4
  -3   5   7 46.1761 4.69542   3
  -3   5   7 40.7654 4.74581   2
   2  -5  -7 123.043 6.09546   3
   2  -5  -7 122.205 6.40646   4
   2  -5  -7 121.183 7.05342   4
  -2   5   7 123.521 6.30696   4
  -2   5   7 132.259 6.33229   4
  -2   5   7 134.160 6.85967   2
  -2   5   7 134.604 6.47176   3
   1  -5  -7 368.063 12.9448   4
   1  -5  -7 352.173 12.8545   3
   1  -5  -7 351.981 13.4009   4
  -1   5   7 351.699 13.3028   2
  -1   5   7 349.716 12.5580   4
  -1   5   7 345.546 12.8905   3
   0  -5  -7 99.6728 4.63296   4
   0  -5  -7 98.2790 5.05861   2
   0  -5  -7 105.364 5.28666   3
   0   5   7 102.841 4.18579   4
   0   5   7 99.0837 4.21676   4
   0   5   7 98.5087 4.94250   3
   0   5   7 89.3980 5.68171   2
  -1  -5  -7 2.38336 0.90786   4
  -1  -5  -7 2.56703 1.58783   3
  -1  -5  -7 2.61374 1.10389   4
  -1  -5  -7 6.20073 1.54728   2
   1   5   7 1.76702 1.20951   3
  -2  -5  -7 45.2299 3.28208   2
  -2  -5  -7 39.1423 3.74959   3
  -2  -5  -7 43.9685 2.14004   4
  -2  -5  -7 41.9573 2.03876   4
  -3  -5  -7 1375.63 43.3577   2
  -3  -5  -7 1323.86 43.6677   2
  -3  -5  -7 1371.07 44.2053   3
  -4  -5  -7 49.5612 4.10388   2
  -4  -5  -7 53.4256 4.02085   3
  -4  -5  -7 61.2176 5.16558   3
  -4  -5  -7 48.6176 3.72514   2
  -5  -5  -7 126.266 4.46322   4
  -5  -5  -7 125.724 4.71176   4
  -5  -5  -7 128.283 7.90403   3
  -5  -5  -7 123.868 6.75978   3
  -5  -5  -7 126.149 6.58293   2
  -6  -5  -7 22.4675 3.34859   2
  -6  -5  -7 23.3001 3.61598   3
  -6  -5  -7 20.8242 2.02286   4
  -6  -5  -7 24.9080 2.46043   4
  -7  -5  -7 741.129 25.7440   2
   3  -6  -7 106.941 8.11805   4
   3  -6  -7 90.5523 6.84041   3
  -3   6   7 114.404 7.74524   3
  -3   6   7 108.384 7.06812   2
   2  -6  -7 1.65266 1.93240   4
   2  -6  -7 1.96864 2.49377   4
   2  -6  -7 2.35749 2.45234   3
  -2   6   7 1.80492 2.17897   2
  -2   6   7 1.91454 1.70138   4
  -2   6   7 1.23664 2.51116   3
   1  -6  -7 53.8900 4.69812   4
   1  -6  -7 58.7988 4.75830   3
   1  -6  -7 61.9119 4.32496   4
  -1   6   7 65.5434 4.79871   3
  -1   6   7 62.0185 4.84197   2
  -1   6   7 63.2380 3.87757   4
  -1   6   7 56.3258 4.16714   4
   0  -6  -7 785.164 26.6218   3
   0  -6  -7 795.178 25.9488   4
   0  -6  -7 781.977 26.3478   4
   0   6   7 767.490 26.4613   3
   0   6   7 795.242 25.2424   4
  -1  -6  -7 501.712 18.3052   3
  -1  -6  -7 527.804 17.0844   4
  -1  -6  -7 511.373 17.3251   4
   1   6   7 504.662 16.2501   4
   1   6   7 485.208 16.3381   4
   1   6   7 519.554 18.0318   3
  -2  -6  -7 106.157 5.51646   2
  -2  -6  -7 99.3150 6.11923   3
  -2  -6  -7 101.544 4.31454   4
  -2  -6  -7 103.583 4.40835   4
  -3  -6  -7 2.74314 0.85121   4
  -3  -6  -7 1.51639 1.71801   2
  -3  -6  -7 3.81979 2.32595   3
  -3  -6  -7 1.67469 1.57300   2
  -3  -6  -7 2.78004 0.77403   4
  -4  -6  -7 13.5373 3.51571   3
  -4  -6  -7 8.49682 2.08347   2
  -4  -6  -7 13.2619 1.26855   4
  -4  -6  -7 7.75831 2.34997   2
  -4  -6  -7 15.8560 1.28900   4
  -5  -6  -7 900.209 30.0574   2
  -5  -6  -7 863.771 29.9890   3
  -5  -6  -7 869.970 29.6584   2
  -5  -6  -7 896.139 27.6409   4
  -5  -6  -7 896.569 27.4756   4
  -5  -6  -7 869.089 31.1744   3
  -6  -6  -7 70.2943 6.29658   3
  -6  -6  -7 87.9637 6.28199   2
  -6  -6  -7 85.2985 3.98293   4
   2  -7  -7 602.363 22.4872   3
   2  -7  -7 599.361 23.1706   4
  -2   7   7 641.170 23.0891   3
  -2   7   7 643.184 22.8469   2
   1  -7  -7 1.58822 1.85292   4
   1  -7  -7 0.58319 2.88614   3
   1  -7  -7 0.42456 2.32498   4
  -1   7   7 0.93298 1.76458   4
  -1   7   7 7.50701 3.13376   3
   0  -7  -7 424.395 15.1929   4
   0  -7  -7 419.569 15.5887   4
   0  -7  -7 382.277 15.8551   3
   0   7   7 433.633 14.2799   4
   0   7   7 408.091 15.8732   3
  -1  -7  -7 22.6905 4.50967   2
  -1  -7  -7 24.1054 3.01208   4
  -1  -7  -7 21.0483 2.89324   4
  -1  -7  -7 24.8533 3.65190   3
   1   7   7 21.0410 3.29424   3
   1   7   7 19.6461 2.22271   4
  -2  -7  -7 7.94743 3.07240   3
  -2  -7  -7 8.11208 1.69472   4
  -2  -7  -7 7.23102 1.66577   4
  -2  -7  -7 5.41236 2.16662   2
   2   7   7 6.66519 2.24787   3
  -3  -7  -7 179.948 6.93939   4
  -3  -7  -7 175.386 9.29919   3
  -3  -7  -7 183.615 8.84477   2
  -3  -7  -7 169.211 8.32319   2
  -3  -7  -7 180.756 6.76039   4
  -4  -7  -7 29.2028 4.77297   3
  -4  -7  -7 26.3520 2.09048   4
  -4  -7  -7 23.9081 2.20193   4
  -4  -7  -7 16.3446 2.82764   2
  -4  -7  -7 23.1833 3.44341   2
  -5  -7  -7 2.22583 1.09133   4
  -5  -7  -7 0.79166 2.51556   3
  -5  -7  -7 8.92673 2.95896   2
  -6  -7  -7 40.7833 2.89160   4
  -6  -7  -7 36.3225 2.54734   4
  -6  -7  -7 42.6787 5.65518   2
  -6  -7  -7 42.3532 5.80636   3
   1  -8  -7 57.6902 6.48824   4
  -1   8   7 61.4515 7.52844   3
   0  -8  -7 305.904 12.5669   4
   0   8   7 282.494 13.0791   3
  -1  -8  -7 319.363 14.1289   3
  -1  -8  -7 309.884 12.4921   4
  -1  -8  -7 317.723 12.4045   4
   1   8   7 322.221 13.6671   3
   1   8   7 326.452 10.9597   4
  -2  -8  -7 147.975 9.35934   3
  -2  -8  -7 151.714 7.03701   4
  -2  -8  -7 155.069 7.12683   4
   2   8   7 167.433 8.65480   3
  -3  -8  -7 8.79675 2.04047   4
  -3  -8  -7 9.41805 3.15136   2
  -3  -8  -7 8.03259 1.85819   4
  -4  -8  -7 524.611 17.5261   4
  -4  -8  -7 509.796 19.6398   2
  -5  -8  -7 388.983 15.6158   2
  -5  -8  -7 354.827 12.7355   4
  -5  -8  -7 364.196 12.6188   4
  -2  -9  -7 751.094 31.8335   2
   2   9   7 677.170 25.7845   3
  -3  -9  -7 206.519 13.8240   2
  -3  -9  -7 221.331 10.8532   4
   4   5  -8 0.68832 5.11816   4
   4   5  -8 0.65735 2.91158   4
  -4  -5   8 2.63037 2.45429   2
  -4  -5   8 4.70072 3.57103   4
  -4  -5   8 -0.4050 3.01860   4
   3   5  -8 91.4030 6.73660   2
   3   5  -8 108.036 6.72370   3
   3   5  -8 109.448 9.04152   4
   3   5  -8 114.371 6.98147   4
  -3  -5   8 102.395 7.74689   4
  -3  -5   8 95.8658 6.69001   4
  -3  -5   8 104.179 5.62478   2
   2   5  -8 502.162 20.5721   4
   2   5  -8 514.683 19.4088   3
   2   5  -8 536.027 19.0602   4
  -2  -5   8 533.833 20.4225   4
  -2  -5   8 540.097 19.7144   4
  -2  -5   8 518.104 17.6332   2
   1   5  -8 17.2474 4.32075   3
   1   5  -8 20.8703 3.04566   4
   1   5  -8 25.7728 5.34331   4
  -1  -5   8 14.2240 3.26953   3
  -1  -5   8 19.2601 2.20557   2
  -1  -5   8 18.8303 4.14667   4
  -1  -5   8 24.2518 3.96596   4
   0   5  -8 8.38240 4.22360   3
   0   5  -8 15.3719 3.18789   4
   5   4  -8 488.680 20.3013   4
   5   4  -8 495.856 20.9974   4
  -5  -4   8 484.309 18.2454   4
  -5  -4   8 491.499 18.1046   2
  -5  -4   8 498.007 17.0805   3
  -5  -4   8 507.413 19.5047   4
   4   4  -8 79.9284 7.58171   4
   4   4  -8 62.5836 6.26864   2
   4   4  -8 76.1808 6.08118   4
  -4  -4   8 77.4731 4.97789   2
  -4  -4   8 68.6740 5.10467   3
  -4  -4   8 68.8035 5.31134   4
  -4  -4   8 61.2820 6.32497   4
   3   4  -8 291.071 11.2227   3
   3   4  -8 286.397 13.1339   4
   3   4  -8 293.266 11.6756   2
   3   4  -8 289.471 11.9201   4
  -3  -4   8 299.643 11.2579   3
  -3  -4   8 293.143 10.9068   2
  -3  -4   8 298.035 12.6563   4
  -3  -4   8 273.885 11.5281   4
   2   4  -8 218.823 13.3197   4
   2   4  -8 232.906 10.0925   3
   2   4  -8 235.266 9.42068   2
  -2  -4   8 237.936 10.0797   4
  -2  -4   8 245.681 8.90956   2
  -2  -4   8 240.774 9.72147   3
  -2  -4   8 252.174 11.0409   4
   1   4  -8 2.35909 2.46308   3
   1   4  -8 0.86161 1.71731   4
   1   4  -8 1.87790 2.65316   4
  -1  -4   8 0.12727 0.98844   2
  -1  -4   8 3.72763 2.36602   4
  -1  -4   8 -0.4400 2.11551   3
  -1  -4   8 0.47668 1.81727   4
   0   4  -8 768.934 26.5562   3
   0   4  -8 792.345 25.4806   4
   0   4  -8 699.188 26.8151   4
   0  -4   8 756.392 26.6321   4
   0  -4   8 743.298 26.1258   4
  -1   4  -8 5.84395 4.22163   4
  -1   4  -8 16.6279 4.10193   3
  -1   4  -8 6.74522 2.02562   4
   1  -4   8 6.75846 3.18675   4
   1  -4   8 10.0340 3.19319   3
  -2   4  -8 9.23590 4.56693   3
  -2   4  -8 8.17861 2.61990   4
   5   3  -8 599.697 22.9470   4
   5   3  -8 607.100 22.4502   4
  -5  -3   8 607.427 20.8683   3
  -5  -3   8 580.410 19.5075   3
  -5  -3   8 565.986 20.7186   4
  -5  -3   8 571.315 20.8154   2
  -5  -3   8 605.704 22.0871   4
   4   3  -8 264.666 12.4186   4
   4   3  -8 257.387 11.4070   2
   4   3  -8 275.854 11.8501   4
  -4  -3   8 273.328 10.8360   4
  -4  -3   8 270.972 10.1861   3
  -4  -3   8 274.992 9.74801   3
  -4  -3   8 283.286 11.8443   4
  -4  -3   8 275.451 10.7803   2
   3   3  -8 313.415 12.2404   4
   3   3  -8 299.611 13.0257   4
   3   3  -8 311.178 11.9277   2
  -3  -3   8 324.579 11.8138   4
  -3  -3   8 270.978 12.1462   2
  -3  -3   8 321.616 11.1390   3
  -3  -3   8 313.553 12.5912   4
   2   3  -8 46.5324 4.86915   4
   2   3  -8 44.3226 3.54036   4
   2   3  -8 40.5553 3.47497   3
   2   3  -8 36.8602 3.42583   2
  -2  -3   8 42.1772 3.58760   4
  -2  -3   8 37.0056 3.10142   3
  -2  -3   8 37.8988 3.91856   4
  -2  -3   8 44.7294 2.81338   2
   1   3  -8 30.8697 2.95535   4
   1   3  -8 35.5818 4.36956   4
   1   3  -8 37.2415 2.68563   2
   1   3  -8 37.1415 3.71964   3
  -1  -3   8 35.1814 3.87608   4
  -1  -3   8 27.7552 3.16690   4
  -1  -3   8 28.7457 2.05734   2
   0   3  -8 3.34308 2.45397   4
   0   3  -8 0.50412 1.07552   4
   0   3  -8 -1.1080 2.17236   3
   0  -3   8 2.09326 1.99252   4
   0  -3   8 0.87403 1.62889   3
   0  -3   8 -0.2409 1.54942   4
   0  -3   8 1.11486 0.52340   2
  -1   3  -8 178.464 8.96977   3
  -1   3  -8 188.061 7.75776   4
  -1   3  -8 180.904 9.08082   4
   1  -3   8 171.272 8.24545   4
   1  -3   8 176.063 8.04916   3
  -2   3  -8 480.565 16.7031   4
  -2   3  -8 446.352 18.1338   4
  -2   3  -8 466.251 18.1617   3
   2  -3   8 468.075 17.0815   3
  -3   3  -8 5.56234 3.87618   3
  -3   3  -8 7.51618 2.52199   4
   6   2  -8 43.8275 6.28173   4
  -6  -2   8 19.6521 3.45317   4
  -6  -2   8 35.1209 4.92546   4
  -6  -2   8 28.7152 4.40096   2
   5   2  -8 417.993 16.8877   4
   5   2  -8 415.700 17.0919   4
  -5  -2   8 418.630 15.3997   2
  -5  -2   8 411.038 14.1597   3
  -5  -2   8 403.949 16.1518   4
  -5  -2   8 384.994 14.9193   4
  -5  -2   8 408.064 13.6945   3
   4   2  -8 1.75871 2.21474   4
   4   2  -8 -0.3181 2.30319   2
   4   2  -8 4.50804 3.35636   4
  -4  -2   8 1.07061 1.62692   4
  -4  -2   8 1.12973 0.93193   3
  -4  -2   8 2.08716 2.19726   4
  -4  -2   8 1.17009 1.24555   3
  -4  -2   8 -0.6864 1.60795   2
   3   2  -8 474.107 16.8249   4
   3   2  -8 461.919 16.3413   2
   3   2  -8 444.585 17.3030   4
  -3  -2   8 453.240 15.8193   2
  -3  -2   8 461.934 14.9768   3
  -3  -2   8 453.092 15.9554   4
  -3  -2   8 454.615 16.7140   4
   2   2  -8 496.789 16.6091   2
   2   2  -8 476.865 17.7266   4
   2   2  -8 500.220 17.0013   4
   2   2  -8 470.073 15.7942   3
  -2  -2   8 478.355 17.2375   4
  -2  -2   8 471.548 15.7084   3
  -2  -2   8 477.931 16.5224   4
  -2  -2   8 478.049 16.1327   2
   1   2  -8 1078.33 33.5365   4
   1   2  -8 1022.96 34.3854   4
   1   2  -8 1024.61 33.1802   3
   1   2  -8 1022.61 32.8442   2
  -1  -2   8 1031.97 32.8084   3
  -1  -2   8 1026.58 32.5595   2
  -1  -2   8 1045.99 34.1628   4
  -1  -2   8 1037.28 33.4656   4
   0   2  -8 641.984 20.2366   2
   0   2  -8 635.680 22.3756   4
   0   2  -8 662.677 21.8214   3
   0   2  -8 663.191 21.4103   4
   0  -2   8 638.767 21.6631   4
   0  -2   8 603.427 20.0967   2
   0  -2   8 661.705 21.2574   3
  -1   2  -8 719.208 23.9264   3
  -1   2  -8 693.601 24.1672   4
  -1   2  -8 709.934 23.0393   4
   1  -2   8 717.650 23.1789   3
   1  -2   8 655.670 26.5486   4
   1  -2   8 669.325 23.3971   4
  -2   2  -8 2.05909 2.27484   3
  -2   2  -8 5.06671 2.32636   4
  -2   2  -8 4.34389 1.44418   4
   2  -2   8 5.15872 2.16259   4
   2  -2   8 7.62388 2.02486   3
  -3   2  -8 176.085 7.47084   4
  -3   2  -8 148.474 8.55367   4
  -3   2  -8 176.491 9.23127   3
   3  -2   8 156.560 8.04567   3
   3  -2   8 152.293 7.79382   4
  -4   2  -8 854.898 31.0672   3
  -4   2  -8 884.603 29.3174   4
   6   1  -8 421.532 18.1162   4
  -6  -1   8 388.359 15.7876   4
  -6  -1   8 414.925 17.0790   4
  -6  -1   8 417.402 16.6275   2
   5   1  -8 354.150 17.5246   4
   5   1  -8 341.639 14.9358   4
  -5  -1   8 315.728 13.0290   4
  -5  -1   8 360.274 11.7711   3
  -5  -1   8 339.222 12.0021   3
  -5  -1   8 366.316 14.4468   4
  -5  -1   8 353.668 13.5396   2
   4   1  -8 21.5881 3.17374   4
   4   1  -8 29.6366 3.98479   2
   4   1  -8 29.7499 4.04080   4
  -4  -1   8 34.3632 3.12525   4
  -4  -1   8 31.3829 3.36820   2
  -4  -1   8 30.2846 1.76939   3
  -4  -1   8 32.0383 3.74361   4
  -4  -1   8 33.1094 2.07212   3
   3   1  -8 420.070 15.5054   4
   3   1  -8 402.626 15.8205   4
   3   1  -8 397.283 14.9022   2
  -3  -1   8 441.030 15.4490   4
  -3  -1   8 412.621 14.6386   2
  -3  -1   8 428.436 14.5900   4
   2   1  -8 35.1065 3.01378   2
   2   1  -8 33.3162 3.61080   4
   2   1  -8 39.8509 3.23400   4
  -2  -1   8 42.1939 2.78051   4
  -2  -1   8 38.5821 1.55127   3
  -2  -1   8 39.1044 3.46299   4
  -2  -1   8 35.7226 2.59738   2
   1   1  -8 266.180 9.26709   2
   1   1  -8 245.296 10.2351   4
   1   1  -8 265.955 9.65643   4
   1   1  -8 252.989 8.82004   3
  -1  -1   8 258.693 9.02465   2
  -1  -1   8 259.358 9.40820   4
  -1  -1   8 257.880 8.58296   3
   0   1  -8 122.462 6.07563   4
   0   1  -8 122.778 4.70616   2
   0   1  -8 137.484 5.41660   4
   0   1  -8 129.631 5.48036   3
   0  -1   8 131.219 5.49200   4
   0  -1   8 130.578 4.62345   2
   0  -1   8 117.803 5.71389   4
   0  -1   8 115.196 4.93396   3
  -1   1  -8 96.1872 5.14932   4
  -1   1  -8 88.6966 4.22560   4
  -1   1  -8 84.4086 4.84176   3
   1  -1   8 92.8798 4.54837   4
   1  -1   8 95.0795 4.43175   3
   1  -1   8 94.1168 4.80441   4
  -2   1  -8 249.366 10.1850   3
  -2   1  -8 241.619 10.1753   4
  -2   1  -8 248.099 9.17378   4
   2  -1   8 251.304 9.60620   3
   2  -1   8 244.607 9.64511   4
  -3   1  -8 19.3771 2.55296   4
  -3   1  -8 26.9252 3.88727   4
  -3   1  -8 19.5951 3.22159   3
   3  -1   8 22.2562 2.99355   4
   3  -1   8 18.8828 2.82374   4
  -4   1  -8 8.65231 2.05340   4
  -4   1  -8 7.95661 3.21373   3
  -4   1  -8 9.67502 3.30530   4
   4  -1   8 2.50844 2.10905   4
   4  -1   8 9.17616 3.13528   3
  -5   1  -8 24.2846 5.10321   3
  -5   1  -8 13.1119 2.58757   4
   6   0  -8 13.4354 3.99011   4
   5   0  -8 398.690 16.0054   4
   5   0  -8 378.658 16.1259   4
  -5   0   8 387.139 13.2021   3
  -5   0   8 372.328 14.5359   4
  -5   0   8 383.811 13.0569   3
  -5   0   8 396.049 14.9133   2
  -5   0   8 412.257 15.7778   4
   4   0  -8 29.5659 3.85822   2
   4   0  -8 33.1295 4.31982   4
  -4   0   8 28.8491 1.81008   3
  -4   0   8 24.3051 3.48497   4
  -4   0   8 32.2415 3.09676   4
  -4   0   8 27.7338 3.36613   2
  -4   0   8 29.4693 1.69793   3
   3   0  -8 1506.20 48.4151   4
   3   0  -8 1479.15 48.2876   4
   3   0  -8 1483.72 47.6298   2
  -3   0   8 1514.73 47.9757   4
  -3   0   8 1463.44 48.4031   2
  -3   0   8 1512.34 47.2274   4
   2   0  -8 176.004 7.03856   2
   2   0  -8 180.883 7.48278   4
   2   0  -8 168.162 7.70077   4
  -2   0   8 167.546 7.24630   4
  -2   0   8 171.411 6.88061   2
  -2   0   8 170.911 6.68654   4
   1   0  -8 1187.73 37.3872   4
   1   0  -8 1190.96 37.0172   2
   1   0  -8 1159.70 37.9068   4
  -1   0   8 1168.68 36.9021   2
  -1   0   8 1147.33 37.3625   4
  -1   0   8 1176.91 36.9115   4
   0   0  -8 10.2035 1.50841   3
   0   0  -8 8.80828 1.82325   4
   0   0  -8 11.7189 1.45772   4
   0   0  -8 8.69303 1.13321   2
   0   0   8 8.80588 1.08370   3
   0   0   8 6.14363 1.14466   4
   0   0   8 9.33078 1.24251   2
   0   0   8 9.63824 1.32613   4
  -1   0  -8 222.845 7.97725   3
  -1   0  -8 206.806 6.81282   2
  -1   0  -8 208.021 8.27895   4
  -1   0  -8 199.742 7.44641   4
   1   0   8 195.401 7.50493   3
   1   0   8 205.637 7.63891   4
   1   0   8 209.262 7.82720   4
  -2   0  -8 21.9070 2.87271   3
  -2   0  -8 21.2735 2.54268   4
   2   0   8 21.1076 2.15947   4
  -3   0  -8 142.513 7.03902   3
  -3   0  -8 140.330 5.83289   4
  -3   0  -8 128.402 6.61553   4
   3   0   8 147.844 6.61233   3
   3   0   8 139.042 6.00077   4
  -4   0  -8 470.493 17.3847   3
  -4   0  -8 465.451 15.8990   4
  -4   0  -8 456.367 17.0242   4
   4   0   8 454.639 16.8364   3
   4   0   8 466.411 15.9102   4
   4   0   8 429.597 15.6171   4
  -5   0  -8 11.3348 3.79379   3
  -5   0  -8 13.6887 2.49234   4
   5   0   8 8.92407 2.28687   4
   5  -1  -8 110.635 8.26062   4
   5  -1  -8 110.953 7.49538   4
  -5   1   8 123.459 6.88603   2
  -5   1   8 109.993 6.67954   4
  -5   1   8 117.885 5.27519   3
  -5   1   8 118.985 7.52279   4
  -5   1   8 117.590 5.24919   3
   4  -1  -8 65.0192 5.01057   2
   4  -1  -8 69.6691 5.21080   4
  -4   1   8 68.3740 3.00644   3
  -4   1   8 76.3914 5.12504   4
  -4   1   8 63.0418 4.42799   4
  -4   1   8 70.7981 3.00289   3
  -4   1   8 69.9245 4.65482   2
   3  -1  -8 9.39040 2.35971   4
   3  -1  -8 8.58645 1.95689   2
   3  -1  -8 9.00283 2.22318   4
  -3   1   8 7.01296 1.38374   4
  -3   1   8 6.19801 1.59388   2
  -3   1   8 12.9595 2.45280   4
   2  -1  -8 277.252 10.6152   4
   2  -1  -8 260.454 10.4464   4
   2  -1  -8 279.230 10.1177   2
  -2   1   8 273.628 10.0558   2
  -2   1   8 262.516 9.61315   4
   1  -1  -8 1190.85 38.5053   4
   1  -1  -8 1187.82 38.2415   4
   1  -1  -8 1248.32 37.9953   2
  -1   1   8 1193.20 37.9761   2
  -1   1   8 1182.36 38.0415   4
  -1   1   8 1197.04 37.5709   4
   0  -1  -8 44.8546 1.92676   3
   0  -1  -8 46.2002 2.02922   3
   0  -1  -8 43.9082 2.47393   2
   0  -1  -8 44.7996 3.11055   4
   0  -1  -8 44.0514 2.52458   4
   0   1   8 44.5879 2.52104   4
   0   1   8 46.1092 2.28509   4
   0   1   8 45.1375 2.54216   2
  -1  -1  -8 38.0789 2.45026   3
  -1  -1  -8 43.2217 2.77570   4
  -1  -1  -8 43.8110 2.12744   2
   1   1   8 40.0108 2.15683   2
   1   1   8 38.8869 2.17795   4
   1   1   8 39.4247 2.13745   4
  -2  -1  -8 196.809 7.63579   4
  -2  -1  -8 202.210 7.05965   4
  -2  -1  -8 188.999 7.76678   3
  -2  -1  -8 194.448 6.82956   2
  -2  -1  -8 206.049 6.67535   2
   2   1   8 200.664 6.97418   4
   2   1   8 204.001 7.64011   3
   2   1   8 204.283 6.99916   4
  -3  -1  -8 3227.07 96.9853   4
  -3  -1  -8 3123.12 95.3768   2
  -3  -1  -8 3077.44 96.1670   4
  -3  -1  -8 3129.94 95.3212   2
  -3  -1  -8 3147.03 97.3287   3
   3   1   8 3028.07 95.8752   4
   3   1   8 3098.44 95.9793   4
   3   1   8 3184.20 97.1111   3
  -4  -1  -8 3.28562 1.16773   4
  -4  -1  -8 5.05882 1.17950   2
  -4  -1  -8 6.21883 2.32406   3
  -4  -1  -8 5.29981 1.96798   4
   4   1   8 -0.7634 2.84082   3
   4   1   8 4.03291 1.04433   4
  -5  -1  -8 7.81300 2.94945   3
  -5  -1  -8 -1.8362 2.15075   4
  -5  -1  -8 0.28525 0.71409   2
  -5  -1  -8 1.17089 1.36963   4
  -5  -1  -8 0.05684 0.69233   2
   5   1   8 0.57546 1.46593   4
  -6  -1  -8 17.3561 4.60241   3
  -6  -1  -8 12.9743 4.19691   4
   5  -2  -8 75.7282 7.34130   4
   5  -2  -8 71.8033 8.68127   4
  -5   2   8 80.2511 5.77132   2
  -5   2   8 60.0560 6.42265   4
  -5   2   8 66.1143 4.55312   3
   4  -2  -8 220.605 10.0131   4
   4  -2  -8 223.552 9.81398   2
   4  -2  -8 239.138 10.8812   4
  -4   2   8 228.225 8.10938   3
  -4   2   8 226.886 9.72138   2
  -4   2   8 229.234 10.1219   4
  -4   2   8 196.560 9.15904   4
   3  -2  -8 319.502 16.9652   4
   3  -2  -8 394.230 14.3065   4
   3  -2  -8 406.317 14.0965   2
  -3   2   8 383.119 13.9874   2
  -3   2   8 377.303 12.2049   3
  -3   2   8 377.731 13.5859   4
  -3   2   8 392.634 14.9534   4
   2  -2  -8 3.06786 1.36417   2
   2  -2  -8 3.64698 1.41197   4
   2  -2  -8 5.40865 1.65861   4
  -2   2   8 3.77261 1.36478   2
  -2   2   8 3.67041 1.41343   4
  -2   2   8 3.12153 0.98121   4
   1  -2  -8 84.0647 4.14334   2
   1  -2  -8 85.4515 4.40520   4
   1  -2  -8 73.2601 4.64627   4
  -1   2   8 87.9960 4.00511   4
  -1   2   8 80.8400 4.14119   2
  -1   2   8 86.6810 3.58291   4
   0  -2  -8 1.17937 1.00244   4
   0  -2  -8 1.19881 0.54269   3
   0  -2  -8 1.70382 0.91538   2
   0  -2  -8 2.27043 0.59998   3
   0  -2  -8 3.30999 0.96749   4
   0   2   8 2.09588 0.73630   4
   0   2   8 3.69281 0.67298   4
   0   2   8 1.41568 0.92462   2
  -1  -2  -8 200.136 7.33905   2
  -1  -2  -8 200.446 7.40675   4
  -1  -2  -8 199.662 7.17400   3
  -1  -2  -8 201.972 7.09445   4
  -1  -2  -8 206.449 7.39047   3
   1   2   8 202.343 6.66186   4
   1   2   8 216.159 7.55213   2
   1   2   8 207.525 6.69330   4
  -2  -2  -8 1.96984 0.86909   4
  -2  -2  -8 2.18240 0.55453   4
  -2  -2  -8 1.62431 1.10299   3
  -2  -2  -8 1.06232 0.71112   2
  -3  -2  -8 97.0608 4.10554   2
  -3  -2  -8 100.075 4.96279   3
  -3  -2  -8 94.4162 4.23549   4
  -3  -2  -8 92.4042 3.83632   2
  -3  -2  -8 84.4714 3.85665   4
  -4  -2  -8 287.328 10.5072   4
  -4  -2  -8 282.183 9.83461   2
  -4  -2  -8 296.041 9.76063   2
  -4  -2  -8 277.785 12.1543   3
  -4  -2  -8 281.910 9.85229   4
  -5  -2  -8 578.421 18.5695   2
  -5  -2  -8 554.802 20.6492   3
  -5  -2  -8 573.905 19.0011   4
  -5  -2  -8 566.790 18.5261   2
  -5  -2  -8 577.707 19.6940   4
  -6  -2  -8 167.758 10.4630   4
  -6  -2  -8 157.585 7.22259   2
  -6  -2  -8 154.376 7.03623   4
  -6  -2  -8 157.623 9.36241   3
   6   2   8 156.993 5.94522   4
   5  -3  -8 16.6071 4.83132   4
  -5   3   8 7.14358 3.10931   2
  -5   3   8 3.13584 2.70563   3
   4  -3  -8 133.442 7.67301   4
   4  -3  -8 163.879 9.13994   4
   4  -3  -8 143.506 5.91739   3
  -4   3   8 144.331 7.63365   2
  -4   3   8 157.977 8.08149   4
  -4   3   8 145.054 6.46128   3
  -4   3   8 138.698 7.34096   4
   3  -3  -8 141.224 5.26156   3
   3  -3  -8 144.325 7.69675   4
   3  -3  -8 132.210 6.84377   4
  -3   3   8 141.968 6.85736   2
  -3   3   8 140.774 5.63162   3
  -3   3   8 138.078 6.47201   4
   2  -3  -8 163.255 5.62643   3
   2  -3  -8 161.020 7.05808   2
   2  -3  -8 165.619 7.19315   4
  -2   3   8 157.034 6.62991   4
  -2   3   8 166.528 7.30153   2
  -2   3   8 164.415 7.05201   4
  -2   3   8 173.528 5.89712   3
   1  -3  -8 281.909 10.9564   4
   1  -3  -8 291.160 10.7276   2
   1  -3  -8 303.906 9.43470   3
   1  -3  -8 287.403 10.6416   4
  -1   3   8 288.658 10.4135   4
  -1   3   8 297.645 10.9393   2
  -1   3   8 291.364 10.0221   4
   0  -3  -8 30.5475 2.20190   4
   0  -3  -8 31.7998 2.51727   2
   0  -3  -8 26.8022 1.64066   3
   0  -3  -8 29.0297 1.89961   3
   0  -3  -8 26.6770 2.23979   4
   0   3   8 29.5042 2.51420   2
   0   3   8 28.1429 1.48405   4
   0   3   8 26.6207 1.76495   4
  -1  -3  -8 13.4308 1.49010   4
  -1  -3  -8 15.4125 1.82048   2
  -1  -3  -8 13.1680 1.56562   3
  -1  -3  -8 14.2077 1.74831   3
  -1  -3  -8 12.4558 1.42013   4
   1   3   8 11.7689 1.61377   2
  -2  -3  -8 175.123 5.85545   4
  -2  -3  -8 168.019 7.06068   3
  -2  -3  -8 174.931 5.74105   4
  -2  -3  -8 169.593 6.57931   2
  -2  -3  -8 168.785 6.67835   3
  -3  -3  -8 1516.26 46.8048   2
  -3  -3  -8 1534.18 47.4107   3
  -3  -3  -8 1463.22 46.0452   4
  -3  -3  -8 1481.61 47.0788   2
  -3  -3  -8 1477.58 45.7590   4
  -4  -3  -8 15.3300 2.25959   2
  -4  -3  -8 18.6885 1.41082   4
  -4  -3  -8 18.5030 1.84067   4
  -5  -3  -8 153.166 6.33096   4
  -5  -3  -8 152.665 6.38254   2
  -5  -3  -8 154.556 5.88286   4
  -5  -3  -8 148.467 7.65503   3
  -5  -3  -8 139.798 6.42062   2
  -6  -3  -8 92.8315 5.16055   2
  -6  -3  -8 95.0257 5.27525   4
  -6  -3  -8 87.9473 4.68612   4
  -6  -3  -8 97.5205 7.13251   3
   4  -4  -8 334.245 14.8555   4
   4  -4  -8 319.135 11.8471   3
  -4   4   8 311.989 13.3178   2
  -4   4   8 331.752 12.5609   3
   3  -4  -8 78.3145 6.11037   4
   3  -4  -8 89.7628 7.10109   2
   3  -4  -8 78.2641 5.36261   4
   3  -4  -8 77.1673 4.17736   3
  -3   4   8 90.5061 4.74485   3
  -3   4   8 87.0864 5.58989   2
  -3   4   8 75.1614 5.10994   4
   2  -4  -8 166.893 7.55921   4
   2  -4  -8 173.242 6.58759   3
   2  -4  -8 177.205 8.33598   4
  -2   4   8 174.159 7.84042   2
  -2   4   8 179.656 7.53797   4
  -2   4   8 165.367 7.12111   4
  -2   4   8 171.987 6.84214   3
   1  -4  -8 10.2529 1.93835   2
   1  -4  -8 10.0998 1.90586   4
   1  -4  -8 7.32966 1.37402   3
   1  -4  -8 7.83028 1.78147   4
  -1   4   8 8.88736 1.34504   3
  -1   4   8 9.26969 2.36464   2
  -1   4   8 10.2663 1.65639   4
   0  -4  -8 511.345 17.2473   3
   0  -4  -8 511.848 17.1775   4
   0  -4  -8 540.117 17.8252   2
   0  -4  -8 515.298 17.6019   4
   0   4   8 519.846 17.9300   2
   0   4   8 520.750 16.4937   4
   0   4   8 520.527 16.7580   4
  -1  -4  -8 343.283 12.0907   2
  -1  -4  -8 330.088 12.0613   3
  -1  -4  -8 347.922 11.4662   4
  -1  -4  -8 329.375 11.1524   4
  -2  -4  -8 1350.60 42.8632   3
  -2  -4  -8 1291.32 42.3260   2
  -2  -4  -8 1370.14 42.2911   3
  -3  -4  -8 132.649 5.95969   3
  -3  -4  -8 125.118 6.40836   3
  -3  -4  -8 119.506 5.93136   2
  -3  -4  -8 132.489 5.70195   2
  -4  -4  -8 8.21572 2.65912   3
  -4  -4  -8 9.16350 1.97218   2
  -4  -4  -8 7.68235 1.80694   2
  -5  -4  -8 564.736 20.2522   2
  -5  -4  -8 592.727 21.0674   3
  -5  -4  -8 603.254 18.9133   4
  -5  -4  -8 618.656 21.8285   3
  -5  -4  -8 603.240 18.9545   4
  -5  -4  -8 584.020 20.0632   2
  -6  -4  -8 129.537 5.52221   4
  -6  -4  -8 129.472 5.42655   4
  -6  -4  -8 130.203 6.75152   2
  -6  -4  -8 124.344 7.99619   3
   4  -5  -8 117.349 9.77376   4
  -4   5   8 131.494 7.81822   3
   3  -5  -8 16.5463 3.88331   4
   3  -5  -8 12.2496 2.37156   3
   3  -5  -8 14.2674 2.89592   4
  -3   5   8 10.9217 2.89681   3
  -3   5   8 10.2541 2.92674   2
   2  -5  -8 355.614 14.3628   2
   2  -5  -8 399.971 15.4013   4
   2  -5  -8 370.901 14.4098   4
  -2   5   8 395.108 14.3329   4
  -2   5   8 384.419 14.1610   4
  -2   5   8 410.606 14.2033   3
  -2   5   8 406.499 14.9609   2
   1  -5  -8 117.428 6.24505   4
   1  -5  -8 114.909 5.51635   3
   1  -5  -8 124.376 5.90184   4
  -1   5   8 112.698 5.51912   3
  -1   5   8 114.932 6.17559   2
  -1   5   8 114.876 5.30194   4
   0  -5  -8 135.100 6.18528   4
   0  -5  -8 141.086 5.76676   4
   0  -5  -8 132.233 6.14484   3
   0  -5  -8 144.943 6.41763   2
   0   5   8 116.423 4.95882   4
   0   5   8 140.402 5.96783   3
   0   5   8 137.917 6.55340   2
   0   5   8 136.295 5.18870   4
  -1  -5  -8 0.38777 1.38465   2
  -1  -5  -8 0.99400 0.85399   4
  -1  -5  -8 -0.2475 0.89655   4
  -1  -5  -8 0.50556 1.53000   3
  -2  -5  -8 912.841 28.8189   4
  -2  -5  -8 927.850 30.7956   3
  -2  -5  -8 946.532 28.7213   4
  -2  -5  -8 919.696 30.2635   2
  -3  -5  -8 1137.14 37.2956   3
  -3  -5  -8 1146.56 36.9201   2
  -3  -5  -8 1097.92 36.4091   3
  -3  -5  -8 1129.02 36.3890   2
  -4  -5  -8 0.10629 1.72560   3
  -4  -5  -8 4.79854 2.56411   3
  -4  -5  -8 -2.7516 1.49371   2
  -5  -5  -8 8.45837 2.18855   2
  -5  -5  -8 6.47554 2.30816   2
  -5  -5  -8 10.9132 2.77917   3
  -5  -5  -8 7.81124 3.63251   3
  -6  -5  -8 2.57334 2.86398   3
  -6  -5  -8 0.84971 0.93122   4
  -6  -5  -8 2.46375 2.50889   2
   3  -6  -8 5.30066 3.57589   4
  -3   6   8 0.52611 3.13709   2
  -3   6   8 3.85913 3.35752   3
   2  -6  -8 520.158 19.6151   4
   2  -6  -8 511.919 20.2842   4
   2  -6  -8 495.200 18.0776   3
  -2   6   8 516.260 18.7859   3
  -2   6   8 496.880 18.2092   4
  -2   6   8 520.404 19.0405   2
   1  -6  -8 10.1224 3.04106   2
   1  -6  -8 10.6916 2.37107   3
   1  -6  -8 10.9323 2.65347   4
   1  -6  -8 12.5255 2.57432   4
  -1   6   8 11.9955 2.52556   2
  -1   6   8 10.1521 2.48596   3
  -1   6   8 11.7749 1.96909   4
  -1   6   8 16.2076 2.33336   4
   0  -6  -8 948.727 32.0288   4
   0  -6  -8 977.564 32.1722   3
   0  -6  -8 954.475 31.5086   4
   0   6   8 963.094 30.8490   4
   0   6   8 963.449 32.4688   2
   0   6   8 997.815 32.0450   3
   0   6   8 1000.24 30.8107   4
  -1  -6  -8 12.4506 1.94998   4
  -1  -6  -8 10.3675 1.99505   2
  -1  -6  -8 9.53647 2.48987   3
  -1  -6  -8 10.7802 1.58413   4
   1   6   8 7.60775 2.00904   3
  -2  -6  -8 212.024 7.47940   4
  -2  -6  -8 212.694 7.33395   4
  -2  -6  -8 196.141 8.70627   2
  -2  -6  -8 206.935 9.42216   3
  -3  -6  -8 101.070 6.07558   2
  -3  -6  -8 91.5256 5.30834   2
  -3  -6  -8 96.3272 6.52892   3
  -4  -6  -8 118.799 6.59834   3
  -4  -6  -8 125.494 7.80531   3
  -4  -6  -8 125.486 6.38891   2
  -4  -6  -8 110.977 6.71251   2
  -5  -6  -8 775.996 26.2708   3
  -5  -6  -8 755.422 26.1529   2
  -5  -6  -8 727.925 25.6585   2
  -6  -6  -8 0.50057 2.81142   2
  -6  -6  -8 0.06610 3.05465   3
  -6  -6  -8 2.24427 0.82718   4
   2  -7  -8 30.8180 4.82945   4
   2  -7  -8 20.2618 4.18416   3
  -2   7   8 23.2175 4.48821   3
  -2   7   8 25.5998 4.92504   2
   1  -7  -8 5.07674 2.41405   4
   1  -7  -8 -3.6482 2.77677   3
  -1   7   8 2.29104 2.67608   2
  -1   7   8 5.54372 2.97551   3
  -1   7   8 2.86974 1.90864   4
   0  -7  -8 828.921 29.1726   3
   0  -7  -8 864.603 28.4349   4
   0  -7  -8 854.032 28.9016   4
   0   7   8 878.045 27.4369   4
   0   7   8 840.257 29.0433   3
  -1  -7  -8 313.388 14.9233   2
  -1  -7  -8 273.495 10.4765   4
  -1  -7  -8 288.924 10.8844   4
  -1  -7  -8 281.509 12.0542   3
   1   7   8 276.334 11.5118   3
   1   7   8 281.285 9.16263   4
   1   7   8 264.983 9.30467   4
  -2  -7  -8 183.964 8.63234   2
  -2  -7  -8 192.300 7.39170   4
  -2  -7  -8 188.339 9.52027   3
  -2  -7  -8 186.684 7.22760   4
  -3  -7  -8 642.527 23.0812   3
  -3  -7  -8 618.175 22.4287   2
  -3  -7  -8 625.122 20.1008   4
  -3  -7  -8 618.361 19.9175   4
  -3  -7  -8 610.037 21.8478   2
  -4  -7  -8 424.476 17.8768   3
  -4  -7  -8 467.546 17.3560   2
  -4  -7  -8 452.407 14.2015   4
  -5  -7  -8 4.47568 3.01309   3
  -5  -7  -8 6.57003 3.06380   2
  -6  -7  -8 37.8879 5.67338   2
  -6  -7  -8 32.0948 4.86245   3
   0  -8  -8 248.758 11.0846   4
   0  -8  -8 249.667 13.2569   3
   0   8   8 245.920 11.6954   3
  -1  -8  -8 0.74266 1.93122   4
  -1  -8  -8 1.38609 2.05311   4
  -1  -8  -8 2.59765 3.80552   3
   1   8   8 4.23939 3.01062   3
   1   8   8 2.93076 1.06905   4
  -2  -8  -8 578.151 22.8022   3
  -2  -8  -8 607.687 20.5387   4
  -2  -8  -8 618.955 20.7574   4
   2   8   8 633.705 22.2680   3
  -3  -8  -8 141.619 6.04929   4
  -3  -8  -8 138.175 8.39698   2
  -3  -8  -8 148.520 6.28411   4
  -4  -8  -8 135.258 5.39981   4
  -4  -8  -8 129.205 5.47504   4
  -4  -8  -8 132.590 8.30528   2
  -5  -8  -8 638.700 20.3678   4
  -5  -8  -8 646.814 23.8763   2
   2   5  -9 99.1407 6.61700   4
   2   5  -9 91.5064 7.19671   3
   4   4  -9 8.63519 3.17911   4
  -4  -4   9 12.1382 2.66589   2
  -4  -4   9 5.32576 3.64282   4
  -4  -4   9 12.0591 4.28508   4
   3   4  -9 953.822 30.9343   4
   3   4  -9 902.982 30.1020   2
   3   4  -9 897.071 31.9638   4
  -3  -4   9 862.716 31.0372   4
  -3  -4   9 899.540 29.3390   2
  -3  -4   9 903.418 29.4045   3
  -3  -4   9 851.991 30.2154   4
   2   4  -9 402.794 14.9302   4
   2   4  -9 383.915 14.1291   2
   2   4  -9 388.162 17.3512   4
   2   4  -9 386.615 14.6168   3
  -2  -4   9 399.908 15.9148   4
  -2  -4   9 390.178 14.2826   3
  -2  -4   9 370.403 14.9194   4
  -2  -4   9 395.555 13.5110   2
   1   4  -9 317.112 12.3669   4
   1   4  -9 299.992 14.0637   4
  -1  -4   9 305.751 13.3828   4
  -1  -4   9 309.381 12.1439   3
  -1  -4   9 319.550 10.5553   2
   0   4  -9 157.520 7.40039   4
   0   4  -9 132.060 8.74400   3
   0  -4   9 137.166 8.43322   3
  -1   4  -9 132.756 8.97953   3
  -1   4  -9 111.049 6.54783   4
   5   3  -9 218.178 12.0639   4
  -5  -3   9 249.022 13.7415   4
  -5  -3   9 213.797 9.99880   2
   4   3  -9 1.62164 2.64679   4
   4   3  -9 -2.5628 3.61024   4
   4   3  -9 0.13691 2.87490   2
  -4  -3   9 1.20166 1.33379   3
  -4  -3   9 0.98346 1.94702   3
  -4  -3   9 3.68239 2.80501   4
  -4  -3   9 -1.7476 1.98013   4
  -4  -3   9 3.83373 2.13877   2
   3   3  -9 205.559 9.03496   2
   3   3  -9 187.600 10.2170   4
   3   3  -9 199.205 9.36548   4
  -3  -3   9 199.264 8.75159   4
  -3  -3   9 195.423 8.16850   2
  -3  -3   9 205.016 7.71807   3
  -3  -3   9 205.653 9.68812   4
   2   3  -9 4.36172 2.01017   4
   2   3  -9 4.03192 1.91974   3
   2   3  -9 3.09704 2.57211   4
   2   3  -9 4.86251 1.83577   2
  -2  -3   9 6.48369 2.17098   4
  -2  -3   9 4.91938 2.28421   4
  -2  -3   9 2.56491 1.39826   2
  -2  -3   9 1.50454 1.57784   3
   1   3  -9 714.083 23.9192   2
   1   3  -9 746.993 25.0704   3
   1   3  -9 803.384 25.2121   4
   1   3  -9 745.408 26.3112   4
  -1  -3   9 750.563 25.9474   4
  -1  -3   9 709.946 25.1397   4
  -1  -3   9 716.551 23.6103   2
  -1  -3   9 753.753 24.5068   3
   0   3  -9 63.9514 5.28999   3
   0   3  -9 60.2640 4.17222   4
   0   3  -9 63.1398 5.47789   4
   0  -3   9 59.5571 5.42347   4
   0  -3   9 54.9215 4.83820   4
   0  -3   9 53.2527 4.29691   3
  -1   3  -9 25.7271 4.04539   4
  -1   3  -9 21.7637 3.79183   3
  -1   3  -9 23.6086 3.23923   4
  -2   3  -9 628.900 23.1914   3
  -2   3  -9 651.975 21.7238   4
   2  -3   9 590.725 22.0586   3
   5   2  -9 90.4178 7.82861   4
   5   2  -9 78.7559 11.7267   4
  -5  -2   9 77.8018 6.70444   4
  -5  -2   9 73.0821 5.70984   4
  -5  -2   9 74.3422 5.70438   2
   4   2  -9 39.3425 5.00658   2
   4   2  -9 26.4390 3.90985   4
   4   2  -9 39.4920 6.20759   4
  -4  -2   9 33.3536 2.15521   3
  -4  -2   9 32.7617 1.89000   3
  -4  -2   9 30.5135 3.84408   4
  -4  -2   9 34.1783 3.76740   2
  -4  -2   9 31.9097 4.70433   4
   3   2  -9 637.956 23.8491   4
   3   2  -9 647.053 22.6564   2
  -3  -2   9 664.124 20.7640   3
  -3  -2   9 681.047 23.2821   4
  -3  -2   9 656.200 22.3719   4
  -3  -2   9 679.114 22.2314   2
  -3  -2   9 667.144 20.8528   3
   2   2  -9 3.93963 1.51810   4
   2   2  -9 5.67856 1.88581   2
   2   2  -9 8.75596 2.84796   4
  -2  -2   9 9.07785 1.92460   4
  -2  -2   9 9.25957 2.23930   4
  -2  -2   9 5.64817 1.30220   2
  -2  -2   9 6.59323 1.17851   3
   1   2  -9 220.509 9.93445   4
   1   2  -9 220.594 8.27364   2
   1   2  -9 227.134 8.64280   3
   1   2  -9 224.654 8.94248   4
  -1  -2   9 225.666 8.14445   3
  -1  -2   9 218.081 7.93707   2
  -1  -2   9 224.970 8.93482   4
   0   2  -9 4.98565 2.03787   4
   0   2  -9 3.17433 2.05226   3
   0   2  -9 5.69918 1.51405   4
   0  -2   9 5.31548 1.76796   4
   0  -2   9 5.73864 0.80386   2
   0  -2   9 5.40616 1.52533   3
  -1   2  -9 988.564 29.9233   4
  -1   2  -9 912.491 30.5442   3
  -1   2  -9 870.452 30.9482   4
   1  -2   9 921.746 29.8509   3
   1  -2   9 856.063 30.1327   4
   1  -2   9 919.827 30.6064   4
  -2   2  -9 66.1112 5.95895   3
  -2   2  -9 61.2476 5.38664   4
  -2   2  -9 76.4574 4.43060   4
   2  -2   9 67.7509 5.06740   4
  -3   2  -9 8.11237 3.91329   3
  -3   2  -9 10.2957 2.22009   4
   5   1  -9 124.031 9.18269   4
   5   1  -9 123.831 8.72361   4
  -5  -1   9 123.590 6.97637   2
  -5  -1   9 108.405 6.52385   4
  -5  -1   9 121.240 7.84943   4
   4   1  -9 19.5826 3.61576   2
   4   1  -9 24.4927 3.88153   4
   4   1  -9 17.5018 4.01334   4
  -4  -1   9 19.3089 2.72731   2
  -4  -1   9 25.3492 3.03605   4
  -4  -1   9 13.2497 2.53753   4
   3   1  -9 320.415 13.2663   4
   3   1  -9 304.750 13.0484   4
   3   1  -9 309.352 12.0573   2
  -3  -1   9 325.589 12.4632   4
  -3  -1   9 304.933 11.5340   4
  -3  -1   9 321.762 11.7125   2
   2   1  -9 10.7219 1.97272   2
  -2  -1   9 10.8402 1.68266   2
  -2  -1   9 7.76432 1.47660   4
   1   1  -9 1265.76 39.3653   2
   1   1  -9 1222.50 38.6940   3
   1   1  -9 1278.92 40.7937   4
  -1  -1   9 1235.70 38.5092   3
  -1  -1   9 1254.25 39.6363   4
  -1  -1   9 1214.59 39.0712   2
   0   1  -9 318.240 11.3901   3
   0   1  -9 326.117 12.4473   4
   0   1  -9 317.414 10.6546   2
   0   1  -9 319.978 11.4673   4
   0  -1   9 307.754 11.4910   4
   0  -1   9 311.475 10.5246   2
   0  -1   9 332.303 11.9978   4
   0  -1   9 323.625 10.9454   3
  -1   1  -9 26.2094 2.32325   4
  -1   1  -9 21.3681 3.20958   4
  -1   1  -9 19.2952 2.66930   3
   1  -1   9 26.1237 2.96063   3
   1  -1   9 26.7746 2.85373   4
  -2   1  -9 365.886 14.2398   4
  -2   1  -9 357.363 14.0573   3
  -2   1  -9 369.321 13.0579   4
   2  -1   9 375.647 13.6475   4
   2  -1   9 380.083 13.5280   3
  -3   1  -9 34.9262 3.16862   4
  -3   1  -9 35.3082 4.99095   3
   3  -1   9 36.6770 5.60094   3
   3  -1   9 31.3771 3.73394   4
  -4   1  -9 82.3634 5.06426   4
  -4   1  -9 82.3990 7.47527   3
   5   0  -9 41.9679 5.58136   4
   5   0  -9 34.9753 5.64100   4
  -5   0   9 39.8530 6.04853   4
  -5   0   9 31.8239 4.56577   2
  -5   0   9 27.7960 3.82250   4
   4   0  -9 443.309 17.7501   4
   4   0  -9 468.358 18.0600   4
   4   0  -9 461.119 17.2283   2
  -4   0   9 464.254 17.3446   4
  -4   0   9 478.012 16.8909   2
  -4   0   9 467.722 16.4504   4
   3   0  -9 13.3427 2.39304   2
   3   0  -9 16.7447 3.11225   4
   3   0  -9 11.1076 2.50162   4
  -3   0   9 11.0188 2.21311   4
  -3   0   9 17.3603 2.42162   2
  -3   0   9 15.9443 2.25491   4
   2   0  -9 210.372 9.38787   4
   2   0  -9 230.218 8.64672   2
   2   0  -9 196.358 9.50654   4
  -2   0   9 216.371 8.17372   4
  -2   0   9 221.248 8.37765   2
   1   0  -9 7.60664 2.04949   4
   1   0  -9 7.22644 1.49078   2
   1   0  -9 7.74554 1.65227   4
  -1   0   9 5.81851 1.18864   2
  -1   0   9 7.38825 1.23578   4
  -1   0   9 7.42156 1.39623   4
   0   0  -9 0.95835 1.00726   3
   0   0  -9 1.27594 0.91546   2
   0   0  -9 1.15114 0.90714   4
   0   0  -9 1.74200 1.42150   4
   0   0   9 0.73531 0.85488   4
   0   0   9 2.00389 0.83548   2
   0   0   9 0.74979 0.98371   4
   0   0   9 2.05873 0.72697   3
  -1   0  -9 1533.44 48.4267   3
  -1   0  -9 1557.94 48.1401   4
  -1   0  -9 1552.85 48.9889   4
  -1   0  -9 1500.45 47.2457   2
   1   0   9 1521.07 48.0526   3
   1   0   9 1559.99 48.4240   4
  -2   0  -9 0.47943 1.52887   4
  -2   0  -9 1.86646 0.94615   4
  -2   0  -9 2.44178 1.84028   3
   2   0   9 0.80181 1.33625   3
   2   0   9 0.28466 1.10100   4
  -3   0  -9 231.983 9.87333   4
  -3   0  -9 211.542 10.9316   3
  -3   0  -9 241.332 8.75472   4
   3   0   9 233.076 9.50939   3
   3   0   9 233.412 8.90907   4
   3   0   9 226.891 8.73861   4
  -4   0  -9 -0.1209 2.25859   4
  -4   0  -9 -6.6158 2.78114   3
  -4   0  -9 -0.9563 1.38033   4
   4   0   9 -0.5836 1.87286   4
   4   0   9 0.47651 2.63053   3
  -5   0  -9 1005.75 32.8781   4
  -5   0  -9 992.779 34.8473   3
   5  -1  -9 2.37702 6.04359   4
  -5   1   9 4.55994 2.65155   2
   4  -1  -9 1.45495 4.24322   2
   4  -1  -9 -0.3995 2.00986   4
   4  -1  -9 2.90153 2.02155   4
  -4   1   9 0.07249 1.72787   4
  -4   1   9 5.06440 2.45189   4
  -4   1   9 2.76149 2.09242   2
   3  -1  -9 69.7607 4.61884   2
   3  -1  -9 74.9074 5.30912   4
   3  -1  -9 65.1406 5.01518   4
  -3   1   9 68.0393 4.36452   2
  -3   1   9 71.6931 3.97533   4
  -3   1   9 63.8024 4.78519   4
   2  -1  -9 426.959 16.1921   4
   2  -1  -9 439.967 15.6402   2
  -2   1   9 464.915 15.2126   4
  -2   1   9 455.925 15.8549   4
  -2   1   9 455.463 15.6541   2
   1  -1  -9 291.968 11.2206   4
   1  -1  -9 273.007 10.4029   2
   1  -1  -9 303.301 10.9030   4
  -1   1   9 299.724 10.6349   4
  -1   1   9 290.582 10.5087   2
   0  -1  -9 364.078 12.5443   2
   0  -1  -9 362.765 13.3112   4
   0  -1  -9 359.155 11.7355   3
   0  -1  -9 372.821 12.8237   4
   0   1   9 403.443 13.0727   4
   0   1   9 375.959 12.6859   2
   0   1   9 367.801 12.6892   4
  -1  -1  -9 120.567 5.45293   4
  -1  -1  -9 107.199 5.08882   4
  -1  -1  -9 114.337 4.53996   2
  -1  -1  -9 116.708 4.98085   3
   1   1   9 135.379 4.84051   4
   1   1   9 121.043 4.72382   4
  -2  -1  -9 29.9469 1.64284   2
  -2  -1  -9 29.6931 1.84640   2
  -2  -1  -9 30.9480 2.99342   3
  -2  -1  -9 28.4215 2.70316   4
  -2  -1  -9 31.0834 2.00943   4
   2   1   9 30.1215 2.00917   4
   2   1   9 32.6396 1.95784   4
  -3  -1  -9 785.461 25.9211   3
  -3  -1  -9 771.468 24.6285   4
  -3  -1  -9 755.294 25.5012   4
   3   1   9 761.247 25.5321   3
  -4  -1  -9 4.59709 1.40309   4
  -4  -1  -9 4.72097 2.47972   3
  -4  -1  -9 2.03020 2.06050   4
   4   1   9 4.81413 1.13384   4
   4   1   9 4.83379 1.33660   4
  -5  -1  -9 189.710 9.86885   3
  -5  -1  -9 184.313 7.61475   4
  -5  -1  -9 184.604 9.06556   4
   5   1   9 179.107 7.13463   4
   5  -2  -9 28.9373 5.34319   4
  -5   2   9 15.2698 3.35234   2
   4  -2  -9 590.046 21.9660   4
   4  -2  -9 641.518 23.0795   4
  -4   2   9 595.463 21.1048   4
  -4   2   9 589.020 21.5257   2
  -4   2   9 630.500 22.0281   4
   3  -2  -9 20.7756 2.88063   2
   3  -2  -9 16.0175 2.75660   4
   3  -2  -9 24.9572 3.43149   4
  -3   2   9 16.2583 2.25885   4
  -3   2   9 21.8323 3.06585   2
   2  -2  -9 994.744 32.1139   4
   2  -2  -9 953.958 31.6771   4
   2  -2  -9 1000.60 31.4153   2
  -2   2   9 937.243 30.6775   4
  -2   2   9 984.197 31.4546   4
  -2   2   9 887.301 32.6714   2
   1  -2  -9 237.268 9.81443   4
   1  -2  -9 261.542 9.42889   2
   1  -2  -9 230.262 10.5329   4
  -1   2   9 252.437 9.48575   2
  -1   2   9 259.366 9.26329   4
   0  -2  -9 347.463 12.3422   4
   0  -2  -9 321.925 12.2249   2
   0  -2  -9 349.212 12.1055   4
   0   2   9 351.937 11.3905   4
   0   2   9 346.096 11.6868   4
   0   2   9 360.696 12.1995   2
  -1  -2  -9 486.730 16.2787   3
  -1  -2  -9 504.684 16.2191   4
  -1  -2  -9 497.216 16.5737   4
  -1  -2  -9 479.395 16.2920   2
  -1  -2  -9 490.506 16.1537   3
   1   2   9 491.182 15.6866   4
   1   2   9 502.755 15.6759   4
   1   2   9 520.017 16.5660   2
  -2  -2  -9 137.918 5.89834   3
  -2  -2  -9 136.734 5.26342   2
  -2  -2  -9 140.810 5.55947   4
  -3  -2  -9 522.240 16.4175   4
  -3  -2  -9 495.583 17.0213   4
  -3  -2  -9 533.386 17.8444   3
  -3  -2  -9 500.684 16.6440   2
  -3  -2  -9 500.241 16.4093   2
  -4  -2  -9 31.9253 3.24361   4
  -4  -2  -9 36.2569 4.13952   3
  -4  -2  -9 32.4275 2.30692   2
  -4  -2  -9 33.2121 2.31375   4
  -4  -2  -9 29.3163 2.05480   2
  -5  -2  -9 409.428 16.3508   3
  -5  -2  -9 403.644 14.2514   4
  -5  -2  -9 421.243 15.2438   4
  -5  -2  -9 431.169 13.6890   2
  -5  -2  -9 424.236 13.6964   2
  -6  -2  -9 152.276 9.88336   3
   4  -3  -9 104.043 7.65740   4
  -4   3   9 90.4359 6.19095   2
  -4   3   9 87.3696 6.64166   4
  -4   3   9 86.5198 4.41062   3
   3  -3  -9 143.101 7.94763   4
   3  -3  -9 141.860 7.21768   4
  -3   3   9 146.730 5.03856   3
  -3   3   9 140.059 7.24615   2
  -3   3   9 143.877 6.67528   4
   2  -3  -9 194.466 8.41742   4
   2  -3  -9 196.540 8.94039   4
   2  -3  -9 202.880 8.47285   2
  -2   3   9 199.313 7.71850   4
  -2   3   9 206.675 8.60870   2
  -2   3   9 196.712 8.28699   4
   1  -3  -9 241.887 9.37960   2
   1  -3  -9 236.760 9.59744   4
   1  -3  -9 237.989 9.31940   4
  -1   3   9 247.012 9.00120   4
  -1   3   9 241.020 9.50811   2
   0  -3  -9 1798.68 54.6817   2
   0  -3  -9 1775.63 54.4505   4
   0  -3  -9 1729.01 56.4074   4
   0  -3  -9 1713.77 53.3302   3
   0  -3  -9 1699.20 53.4931   3
   0   3   9 1697.13 53.7886   4
   0   3   9 1692.54 53.4721   4
   0   3   9 1807.26 54.8815   2
  -1  -3  -9 70.4077 3.29889   4
  -1  -3  -9 63.1369 4.01915   2
  -1  -3  -9 69.1522 3.61394   3
  -1  -3  -9 71.1300 3.43107   4
  -1  -3  -9 72.7555 3.25435   3
   1   3   9 67.7518 3.73116   2
  -2  -3  -9 97.6994 4.41701   2
  -2  -3  -9 94.8980 4.51457   3
  -2  -3  -9 94.7467 3.65251   4
  -2  -3  -9 95.1619 3.84082   4
  -2  -3  -9 100.580 4.96430   3
  -3  -3  -9 374.303 12.5510   4
  -3  -3  -9 386.220 13.7921   3
  -3  -3  -9 388.686 12.1909   4
  -3  -3  -9 389.614 13.1026   2
  -3  -3  -9 384.057 13.4357   2
  -4  -3  -9 335.125 10.6774   4
  -4  -3  -9 332.301 11.2092   4
  -4  -3  -9 319.094 11.3851   2
  -4  -3  -9 329.811 12.5943   3
  -4  -3  -9 319.948 11.6252   2
  -5  -3  -9 122.936 5.72821   4
  -5  -3  -9 124.363 5.75958   2
  -5  -3  -9 133.778 5.13454   4
  -5  -3  -9 132.607 7.45490   3
  -6  -3  -9 157.176 9.15589   3
  -6  -3  -9 144.374 6.85282   4
  -6  -3  -9 141.121 6.10977   4
   4  -4  -9 110.428 8.61461   4
  -4   4   9 94.7545 6.93066   2
   3  -4  -9 326.804 13.1461   4
   3  -4  -9 329.552 14.1567   4
   3  -4  -9 316.308 11.1731   3
  -3   4   9 333.910 13.1390   4
  -3   4   9 339.103 13.3559   2
  -3   4   9 338.261 11.7050   3
   2  -4  -9 658.620 20.5826   3
   2  -4  -9 656.012 23.0828   4
   2  -4  -9 625.200 22.2206   2
   2  -4  -9 648.834 22.2414   4
  -2   4   9 607.710 21.4694   4
  -2   4   9 647.089 22.0503   4
  -2   4   9 673.306 20.8446   3
  -2   4   9 660.731 22.6100   2
   1  -4  -9 78.9048 4.63130   2
   1  -4  -9 77.1824 4.82092   4
   1  -4  -9 76.2249 4.31540   4
   1  -4  -9 72.8082 3.33542   3
  -1   4   9 81.1021 4.05609   4
  -1   4   9 70.2614 4.58213   2
   0  -4  -9 534.503 17.4858   3
   0  -4  -9 535.770 17.7539   4
   0  -4  -9 513.230 18.0958   4
   0  -4  -9 553.790 18.3488   2
   0   4   9 542.951 17.1439   4
   0   4   9 513.693 18.4098   2
   0   4   9 537.280 16.8266   4
  -1  -4  -9 132.318 5.70439   3
  -1  -4  -9 134.186 5.01803   4
  -1  -4  -9 120.180 5.68042   2
  -1  -4  -9 128.000 5.17637   3
  -1  -4  -9 115.359 5.85712   4
  -2  -4  -9 893.487 28.9091   3
  -2  -4  -9 890.397 27.7810   4
  -2  -4  -9 915.827 29.5494   3
  -2  -4  -9 902.394 29.0951   2
  -2  -4  -9 883.919 27.8262   4
  -3  -4  -9 186.697 7.98821   2
  -3  -4  -9 189.553 8.52676   3
  -3  -4  -9 190.960 7.62417   2
  -3  -4  -9 191.819 7.92290   3
  -4  -4  -9 18.0338 2.98762   3
  -4  -4  -9 18.5580 2.75399   2
  -4  -4  -9 16.1511 2.40339   2
  -4  -4  -9 12.9316 2.44911   3
  -5  -4  -9 584.428 19.4106   4
  -5  -4  -9 620.584 19.0722   4
  -5  -4  -9 588.489 22.3170   3
  -5  -4  -9 622.473 21.7458   3
  -5  -4  -9 604.171 20.6958   2
  -5  -4  -9 624.218 20.5146   2
  -6  -4  -9 6.28258 3.30638   3
  -6  -4  -9 2.46072 2.36132   2
  -6  -4  -9 5.09247 1.57408   4
  -6  -4  -9 3.48609 1.27511   4
   3  -5  -9 103.109 7.82409   4
  -3   5   9 102.446 5.89247   3
  -3   5   9 85.2998 6.54237   2
   2  -5  -9 409.378 14.4447   3
   2  -5  -9 414.951 15.5705   4
   2  -5  -9 439.422 16.6261   4
  -2   5   9 426.965 14.7888   3
  -2   5   9 417.920 16.0220   2
   1  -5  -9 3.41347 1.87626   4
   1  -5  -9 5.99133 2.20387   2
   1  -5  -9 4.38951 1.64200   4
   1  -5  -9 2.91397 1.51912   3
  -1   5   9 5.35622 1.60083   3
  -1   5   9 2.62322 1.44282   4
  -1   5   9 6.60754 2.30108   2
   0  -5  -9 1364.16 43.5746   4
   0  -5  -9 1352.03 43.1597   3
   0  -5  -9 1356.80 43.7424   2
   0  -5  -9 1366.77 43.0314   4
   0   5   9 1398.14 44.0922   2
   0   5   9 1324.74 42.9173   4
  -1  -5  -9 24.6392 2.44838   4
  -1  -5  -9 25.3252 3.27219   3
  -1  -5  -9 20.5124 2.89272   2
  -1  -5  -9 25.4732 2.03778   4
  -2  -5  -9 210.653 7.09823   4
  -2  -5  -9 209.863 8.57254   2
  -2  -5  -9 211.718 7.02069   4
  -2  -5  -9 213.737 9.13222   3
  -3  -5  -9 129.891 6.14885   2
  -3  -5  -9 132.752 7.13717   3
  -3  -5  -9 123.779 8.95703   2
  -3  -5  -9 125.792 6.18241   3
  -4  -5  -9 19.7399 3.61114   3
  -4  -5  -9 19.5054 2.55318   2
  -4  -5  -9 19.1135 2.86557   3
  -4  -5  -9 22.0282 3.09410   2
  -5  -5  -9 240.407 10.5519   3
  -5  -5  -9 245.878 9.92445   2
  -5  -5  -9 237.593 10.1407   2
  -5  -5  -9 235.135 11.7411   3
  -6  -5  -9 252.027 7.87107   4
  -6  -5  -9 245.429 11.4184   3
  -6  -5  -9 236.687 10.4840   2
  -6  -5  -9 227.206 10.2676   2
  -6  -5  -9 235.071 7.91633   4
   2  -6  -9 272.566 12.3080   4
   2  -6  -9 261.650 10.6786   3
  -2   6   9 268.400 11.0362   3
  -2   6   9 267.822 11.8307   2
   1  -6  -9 7.11797 2.51122   4
   1  -6  -9 2.60615 1.82928   4
   1  -6  -9 1.78273 2.10667   3
  -1   6   9 10.8664 2.89984   2
  -1   6   9 8.54746 2.38320   3
  -1   6   9 3.86693 1.65761   4
   0  -6  -9 6.04063 1.64592   4
   0  -6  -9 -1.0369 1.98335   3
   0  -6  -9 4.45547 1.90251   4
   0  -6  -9 7.07053 2.19997   2
   0   6   9 5.74634 1.22550   4
   0   6   9 6.20119 1.95982   3
   0   6   9 4.54463 2.24818   2
   0   6   9 2.59280 1.01763   4
  -1  -6  -9 479.553 17.5552   2
  -1  -6  -9 494.080 17.7642   3
  -1  -6  -9 498.381 16.4460   4
  -1  -6  -9 497.860 16.8435   4
  -2  -6  -9 1027.10 32.0197   4
  -2  -6  -9 981.769 33.4713   2
  -2  -6  -9 1049.05 34.1989   3
  -2  -6  -9 1024.28 31.8531   4
  -3  -6  -9 1.92393 2.23153   2
  -3  -6  -9 -3.9832 2.61529   3
  -3  -6  -9 -2.9487 1.79140   2
  -4  -6  -9 5.99820 3.51715   3
  -4  -6  -9 5.53207 2.68625   2
  -4  -6  -9 7.23626 2.56423   3
  -4  -6  -9 6.96798 2.43377   2
  -5  -6  -9 58.3443 5.59989   2
  -5  -6  -9 60.2250 5.58749   3
  -5  -6  -9 46.8124 5.24648   2
  -6  -6  -9 294.056 12.4801   2
  -6  -6  -9 281.888 12.8155   3
   1  -7  -9 544.308 20.0113   3
   1  -7  -9 562.844 20.6984   4
  -1   7   9 528.791 20.6000   2
  -1   7   9 590.817 20.3089   3
   0  -7  -9 283.199 11.6427   4
   0  -7  -9 279.973 11.9941   3
   0  -7  -9 283.556 11.1409   4
   0   7   9 283.703 11.7331   3
   0   7   9 297.999 10.0125   4
  -1  -7  -9 42.6059 3.66348   4
  -1  -7  -9 45.1471 3.43970   4
  -1  -7  -9 50.8467 5.49248   3
   1   7   9 47.2733 4.59898   3
  -2  -7  -9 5.73553 1.36991   4
  -2  -7  -9 6.78061 1.58286   4
  -2  -7  -9 4.21563 3.28994   3
  -3  -7  -9 2.56876 3.50774   3
  -3  -7  -9 0.61802 2.55156   2
  -3  -7  -9 3.35488 1.02831   4
  -3  -7  -9 2.29748 0.84308   4
  -4  -7  -9 397.617 15.7584   2
  -4  -7  -9 393.877 15.2321   3
  -4  -7  -9 389.682 17.2332   3
  -5  -7  -9 199.107 10.2443   2
  -5  -7  -9 208.966 10.1567   3
   0  -8  -9 95.0177 8.20474   3
   0   8   9 106.763 7.63442   3
  -1  -8  -9 33.1453 5.23180   3
  -1  -8  -9 41.2151 4.22713   4
   1   8   9 34.6060 4.45600   3
  -2  -8  -9 269.776 10.2931   4
  -2  -8  -9 268.181 12.9914   3
  -2  -8  -9 278.501 10.2085   4
  -3  -8  -9 62.5434 3.71495   4
  -3  -8  -9 68.1258 3.57888   4
  -3  -8  -9 72.1749 6.47412   2
  -4  -8  -9 7.94463 3.60263   2
   2   4 -10 29.3917 4.48636   3
  -2  -4  10 27.4713 3.04170   2
   1   4 -10 10.2927 3.39032   3
   1   4 -10 5.11536 2.47786   4
   4   3 -10 109.408 8.26800   4
  -4  -3  10 106.589 6.35326   2
   3   3 -10 31.9434 4.38090   4
   3   3 -10 48.1784 5.06476   2
  -3  -3  10 43.2298 5.41038   4
  -3  -3  10 32.3647 3.73733   2
   2   3 -10 39.1137 4.46695   4
   2   3 -10 33.6694 4.04820   2
   2   3 -10 34.9936 3.56209   3
   2   3 -10 24.2545 4.84110   4
  -2  -3  10 29.5473 2.97987   2
  -2  -3  10 34.4501 3.15693   3
  -2  -3  10 29.8633 4.42216   4
   1   3 -10 509.631 17.8614   4
   1   3 -10 493.546 17.6068   3
   1   3 -10 464.512 20.5390   4
  -1  -3  10 496.540 16.1313   2
  -1  -3  10 492.578 16.9383   3
  -1  -3  10 505.714 18.7024   4
   0   3 -10 -1.7366 1.59523   4
   0   3 -10 0.77304 2.94656   3
   0  -3  10 -1.9505 3.02591   4
   0  -3  10 -0.2224 2.02939   3
  -1   3 -10 32.3995 4.82242   3
   1  -3  10 31.7221 4.63262   3
   4   2 -10 139.063 8.78302   4
  -4  -2  10 125.537 6.71046   2
  -4  -2  10 132.353 8.62664   4
   3   2 -10 692.489 25.1915   4
   3   2 -10 708.286 24.4595   4
   3   2 -10 694.347 23.6875   2
  -3  -2  10 670.429 23.0414   2
  -3  -2  10 662.245 23.3167   4
  -3  -2  10 693.465 24.2081   4
   2   2 -10 64.6660 5.81857   4
   2   2 -10 60.7185 4.45592   2
   2   2 -10 65.6967 4.79449   4
  -2  -2  10 60.1782 5.12047   4
  -2  -2  10 64.1728 3.76716   2
  -2  -2  10 55.7880 4.29157   4
  -2  -2  10 63.2389 2.83326   3
   1   2 -10 24.6596 2.75565   2
   1   2 -10 32.1848 4.57379   4
   1   2 -10 23.0222 3.03984   3
  -1  -2  10 21.4722 3.16561   4
  -1  -2  10 22.9047 2.14739   2
  -1  -2  10 21.9163 2.35424   3
   0   2 -10 100.715 5.38052   4
   0   2 -10 110.073 6.67509   4
   0   2 -10 102.800 5.91059   3
   0  -2  10 100.821 5.99830   4
   0  -2  10 101.065 5.50365   3
   0  -2  10 108.939 3.71203   2
   0  -2  10 105.844 6.25779   4
  -1   2 -10 140.704 6.49282   4
  -1   2 -10 131.895 7.85523   4
  -1   2 -10 140.341 7.54893   3
   1  -2  10 135.709 6.56027   3
   1  -2  10 135.660 7.24455   4
  -2   2 -10 6.72497 1.80354   4
  -2   2 -10 5.48313 3.64251   3
   2  -2  10 7.77603 2.74140   3
  -3   2 -10 150.519 9.52075   3
  -3   2 -10 130.488 6.87017   4
   5   1 -10 75.9072 8.46082   4
  -5  -1  10 86.8101 6.32512   2
   4   1 -10 457.046 19.1643   4
   4   1 -10 476.454 18.5580   4
  -4  -1  10 446.019 17.5662   4
  -4  -1  10 478.160 16.9833   2
   3   1 -10 5.67290 2.92351   4
   3   1 -10 3.97156 2.56040   4
   3   1 -10 7.29285 2.44765   2
  -3  -1  10 3.74947 1.89307   4
  -3  -1  10 3.65144 1.76530   4
  -3  -1  10 1.92295 1.68300   2
   2   1 -10 50.7435 4.91643   4
   2   1 -10 50.1688 4.35549   4
   2   1 -10 54.5296 4.11206   2
  -2  -1  10 52.5674 3.42742   2
  -2  -1  10 61.8374 4.40488   4
  -2  -1  10 51.6611 3.60256   4
   1   1 -10 46.9516 4.49804   4
   1   1 -10 46.3981 3.61662   4
   1   1 -10 40.3121 2.26332   3
   1   1 -10 42.8974 3.21097   2
  -1  -1  10 43.8875 2.73929   2
  -1  -1  10 42.0030 2.05472   3
  -1  -1  10 37.5941 3.61082   4
  -1  -1  10 44.8721 3.30498   4
   0   1 -10 715.354 23.3272   4
   0   1 -10 694.797 24.2677   4
   0   1 -10 701.109 22.2326   2
   0   1 -10 719.995 23.0115   3
   0  -1  10 698.253 23.6533   4
   0  -1  10 672.225 23.2597   4
   0  -1  10 692.376 22.1284   2
   0  -1  10 702.147 22.5073   3
  -1   1 -10 146.040 7.55007   4
  -1   1 -10 153.046 6.44377   4
  -1   1 -10 152.492 7.19275   3
   1  -1  10 137.806 6.59829   4
   1  -1  10 156.120 6.50740   3
   1  -1  10 150.445 6.95920   4
  -2   1 -10 4.10957 1.40694   4
   2  -1  10 8.21697 2.07426   4
   2  -1  10 1.45493 1.95473   3
  -3   1 -10 636.352 23.4731   3
  -3   1 -10 667.482 21.9682   4
   3  -1  10 638.363 22.9226   4
   3  -1  10 654.213 22.7258   3
   5   0 -10 140.209 10.1814   4
  -5   0  10 132.976 7.76952   2
   4   0 -10 249.023 11.9751   4
   4   0 -10 242.216 11.8663   4
  -4   0  10 258.325 11.2921   4
  -4   0  10 257.450 10.6653   2
   3   0 -10 21.7477 3.00137   2
   3   0 -10 14.3606 3.19414   4
   3   0 -10 15.7090 2.90919   4
  -3   0  10 20.3083 3.03639   2
  -3   0  10 32.9058 5.77111   4
  -3   0  10 17.6582 2.31599   4
   2   0 -10 366.842 13.0044   2
   2   0 -10 346.582 13.9052   4
   2   0 -10 355.803 13.5198   4
  -2   0  10 346.743 13.7936   4
  -2   0  10 356.391 12.6954   2
  -2   0  10 343.607 12.4652   4
   1   0 -10 181.790 7.57219   4
   1   0 -10 168.237 8.09587   4
   1   0 -10 178.892 7.20923   2
  -1   0  10 167.316 7.33797   4
  -1   0  10 172.737 6.91761   4
  -1   0  10 182.806 6.97249   2
   0   0 -10 113.825 5.10807   4
   0   0 -10 107.893 4.64337   2
   0   0 -10 110.427 6.17358   4
   0   0 -10 110.010 4.50579   3
   0   0  10 103.854 5.10593   4
   0   0  10 111.775 4.56294   2
  -1   0 -10 145.163 6.31579   3
  -1   0 -10 141.234 4.88006   2
  -1   0 -10 149.905 5.91739   4
  -1   0 -10 128.050 6.62248   4
   1   0  10 137.727 5.71905   3
   1   0  10 134.842 5.94464   4
  -2   0 -10 173.227 8.22366   4
  -2   0 -10 182.180 8.13283   3
  -2   0 -10 176.479 7.08500   4
   2   0  10 180.035 7.28679   4
   2   0  10 188.888 7.61469   3
  -3   0 -10 225.469 9.99990   4
  -3   0 -10 225.310 10.1968   3
  -3   0 -10 238.276 8.82978   4
   3   0  10 228.606 9.20538   4
  -4   0 -10 46.4114 6.24594   3
  -4   0 -10 49.9009 3.72754   4
   4   0  10 54.0915 4.13488   4
   5  -1 -10 -1.3635 3.59908   4
   4  -1 -10 2088.34 69.5071   4
  -4   1  10 2094.35 66.6654   4
  -4   1  10 2051.00 66.1320   2
   3  -1 -10 5.04857 2.20321   4
   3  -1 -10 7.23412 2.71606   4
   3  -1 -10 3.76525 2.29914   2
  -3   1  10 3.75539 2.19256   4
  -3   1  10 6.91579 2.10262   2
  -3   1  10 5.34273 1.72133   4
   2  -1 -10 209.232 9.07037   4
   2  -1 -10 202.585 8.42777   2
   2  -1 -10 192.625 9.03638   4
  -2   1  10 199.591 8.42765   4
  -2   1  10 207.147 7.84324   4
  -2   1  10 205.986 8.78754   2
   1  -1 -10 29.9323 2.96763   4
   1  -1 -10 26.4088 2.72497   2
   1  -1 -10 23.5701 3.38563   4
  -1   1  10 27.5866 2.62382   2
  -1   1  10 26.7085 2.60489   4
   0  -1 -10 753.088 23.6576   2
   0  -1 -10 712.196 24.4989   4
   0  -1 -10 728.526 24.0092   4
   0   1  10 732.645 23.7039   2
   0   1  10 731.286 23.7798   4
  -1  -1 -10 74.4530 3.78404   3
  -1  -1 -10 75.1479 3.62318   4
  -1  -1 -10 79.3215 3.35554   2
  -1  -1 -10 67.6860 4.24018   4
   1   1  10 71.4318 3.44159   4
  -2  -1 -10 1037.45 32.0759   2
  -2  -1 -10 1018.47 33.4452   3
  -2  -1 -10 1015.45 33.5320   4
  -2  -1 -10 1067.02 31.9613   2
  -2  -1 -10 1031.51 32.7043   4
  -3  -1 -10 112.443 5.96246   4
  -3  -1 -10 119.555 5.00149   4
  -3  -1 -10 127.768 6.50800   3
   3   1  10 114.416 4.54298   4
   3   1  10 115.071 4.55595   4
  -4  -1 -10 12.6081 1.82474   4
  -4  -1 -10 17.2682 3.00565   4
  -4  -1 -10 16.9273 3.51931   3
   4   1  10 12.3159 1.77121   4
  -5  -1 -10 314.832 13.8288   3
   5   1  10 295.886 10.2965   4
   4  -2 -10 4.79861 2.95315   4
  -4   2  10 3.64379 2.57491   2
   3  -2 -10 121.426 7.44618   4
   3  -2 -10 120.263 6.87898   4
   3  -2 -10 125.256 6.81782   2
  -3   2  10 127.341 6.00027   4
  -3   2  10 137.439 6.77792   2
  -3   2  10 124.997 7.39186   4
   2  -2 -10 415.849 15.6460   4
   2  -2 -10 417.950 14.9546   2
   2  -2 -10 407.177 15.3876   4
  -2   2  10 426.821 14.9772   4
  -2   2  10 401.607 14.1012   4
  -2   2  10 412.839 14.9803   2
   1  -2 -10 3.86006 1.58284   2
   1  -2 -10 1.89546 1.91230   4
   1  -2 -10 0.39096 1.48346   4
  -1   2  10 1.32819 1.13103   4
  -1   2  10 3.33936 1.37988   2
   0  -2 -10 41.9800 3.34003   4
   0  -2 -10 35.8623 2.83617   2
   0  -2 -10 38.4405 2.87905   4
   0   2  10 39.1945 2.88693   2
   0   2  10 44.0633 2.54466   4
  -1  -2 -10 504.132 16.4618   3
  -1  -2 -10 495.512 16.5752   3
  -1  -2 -10 510.069 17.0929   4
  -1  -2 -10 512.713 16.7081   4
  -1  -2 -10 494.821 16.6651   2
   1   2  10 511.620 16.0269   4
  -2  -2 -10 1310.64 40.8923   4
  -2  -2 -10 1302.05 40.3379   4
  -2  -2 -10 1242.61 40.3198   2
  -2  -2 -10 1318.75 41.0774   3
  -3  -2 -10 3.31068 0.96339   2
  -3  -2 -10 2.17682 0.86888   4
  -3  -2 -10 1.02914 1.39972   4
  -3  -2 -10 3.62330 2.01288   3
  -3  -2 -10 1.48763 1.12698   2
  -4  -2 -10 2.77747 2.68300   3
  -4  -2 -10 -0.2769 1.83302   4
  -4  -2 -10 2.80177 0.99053   2
  -4  -2 -10 3.36735 0.89827   2
  -4  -2 -10 4.73405 1.07715   4
  -5  -2 -10 255.065 9.39082   4
  -5  -2 -10 264.554 12.0056   3
  -5  -2 -10 250.043 10.5067   4
   4  -3 -10 219.878 11.7021   4
  -4   3  10 209.406 10.0775   2
   3  -3 -10 11.1995 2.73958   4
   3  -3 -10 12.8692 3.44623   4
  -3   3  10 9.99644 2.56987   2
  -3   3  10 13.6213 2.74989   4
   2  -3 -10 73.4150 5.31030   4
   2  -3 -10 77.4587 4.94696   2
   2  -3 -10 79.3143 5.02783   4
  -2   3  10 72.5419 3.91440   4
  -2   3  10 73.4887 4.69232   4
  -2   3  10 77.6189 5.03727   2
   1  -3 -10 25.7720 2.88547   4
   1  -3 -10 24.5612 3.14193   4
   1  -3 -10 19.6361 2.90369   2
  -1   3  10 17.2364 2.29888   4
  -1   3  10 15.7435 2.29756   2
   0  -3 -10 975.663 31.3892   4
   0  -3 -10 958.582 31.2779   4
   0  -3 -10 980.831 31.3392   2
   0   3  10 955.079 31.4851   2
   0   3  10 968.601 30.4534   4
  -1  -3 -10 99.1490 4.21749   3
  -1  -3 -10 105.256 4.83063   2
  -1  -3 -10 105.479 4.55086   4
  -1  -3 -10 100.296 4.65120   4
  -1  -3 -10 104.015 4.64037   3
  -2  -3 -10 112.493 4.64501   4
  -2  -3 -10 116.751 5.69347   3
  -2  -3 -10 112.524 4.44022   4
  -2  -3 -10 120.534 5.22091   3
  -3  -3 -10 70.6089 4.02633   2
  -3  -3 -10 71.3868 2.83438   4
  -3  -3 -10 65.4738 3.31737   4
  -3  -3 -10 73.2494 4.53442   3
  -3  -3 -10 66.3853 3.61046   2
  -3  -3 -10 67.8987 4.84297   3
  -4  -3 -10 676.982 20.9075   4
  -4  -3 -10 675.767 21.5433   2
  -4  -3 -10 660.478 22.9599   3
  -4  -3 -10 652.600 21.7547   2
  -4  -3 -10 651.445 21.4825   4
  -5  -3 -10 221.564 8.48338   2
  -5  -3 -10 221.546 10.6093   3
  -5  -3 -10 227.467 7.93872   4
  -5  -3 -10 229.224 9.28906   4
   3  -4 -10 145.774 8.61022   4
  -3   4  10 140.718 5.68081   3
  -3   4  10 131.363 7.67707   2
   2  -4 -10 916.091 31.4064   4
   2  -4 -10 965.424 32.4322   2
   2  -4 -10 949.811 32.3518   4
  -2   4  10 947.388 31.1783   4
  -2   4  10 949.525 31.8031   2
   1  -4 -10 3.52494 1.77536   2
   1  -4 -10 6.15080 1.92336   4
   1  -4 -10 2.83811 1.94375   4
   1  -4 -10 5.82726 0.69648   3
  -1   4  10 7.45231 1.61044   4
  -1   4  10 5.16009 1.79632   2
   0  -4 -10 6.67952 1.90273   2
   0  -4 -10 9.99184 1.39903   3
   0  -4 -10 7.92940 1.26696   3
   0  -4 -10 6.58141 1.77389   4
   0  -4 -10 6.47621 1.62127   4
   0   4  10 10.3001 2.07484   2
  -1  -4 -10 335.360 11.9294   3
  -1  -4 -10 336.371 11.6935   4
  -1  -4 -10 339.180 11.4432   3
  -1  -4 -10 341.869 12.2708   2
  -1  -4 -10 327.495 11.5302   4
  -2  -4 -10 697.328 23.0057   3
  -2  -4 -10 695.222 23.5990   3
  -2  -4 -10 713.697 22.0850   4
  -2  -4 -10 715.747 23.2762   2
  -2  -4 -10 690.612 22.1292   4
  -3  -4 -10 2.40544 1.71672   2
  -3  -4 -10 2.22357 1.60528   3
  -3  -4 -10 -0.0229 2.18671   3
  -4  -4 -10 1.18286 2.78638   3
  -4  -4 -10 -0.9252 2.02200   3
  -4  -4 -10 0.77053 1.88157   2
  -4  -4 -10 -0.2633 1.54679   2
  -5  -4 -10 252.744 10.9143   3
  -5  -4 -10 235.266 9.54590   2
  -5  -4 -10 224.952 9.29549   2
   3  -5 -10 23.3249 4.48196   4
  -3   5  10 10.3888 3.65906   2
   2  -5 -10 78.0445 6.55040   4
   2  -5 -10 91.4387 7.36215   4
   2  -5 -10 83.3497 4.16965   3
  -2   5  10 83.8573 6.13113   2
  -2   5  10 89.8702 4.43110   3
   1  -5 -10 27.5318 3.99175   4
   1  -5 -10 22.4071 2.45694   3
   1  -5 -10 21.2344 3.24223   2
   1  -5 -10 17.7874 2.61582   4
  -1   5  10 19.0696 3.06957   2
  -1   5  10 20.6466 2.75658   4
   0  -5 -10 135.188 6.86386   2
   0  -5 -10 139.034 6.18337   4
   0  -5 -10 145.345 6.78331   4
   0  -5 -10 143.640 6.15237   3
   0   5  10 140.475 4.97225   4
   0   5  10 151.764 5.23986   4
   0   5  10 151.488 7.29335   2
  -1  -5 -10 3.21298 1.19120   4
  -1  -5 -10 3.57794 1.81391   2
  -1  -5 -10 4.75850 1.47144   4
  -1  -5 -10 2.85127 1.88867   3
  -2  -5 -10 0.33297 0.78867   4
  -2  -5 -10 1.18647 1.61828   2
  -2  -5 -10 1.19604 0.80748   4
  -2  -5 -10 1.51062 1.47776   3
  -2  -5 -10 -0.9083 2.09827   3
  -3  -5 -10 346.565 12.5597   3
  -3  -5 -10 333.586 13.0008   2
  -3  -5 -10 336.847 13.4204   3
  -3  -5 -10 318.617 12.2812   2
  -4  -5 -10 484.962 16.7565   2
  -4  -5 -10 476.696 17.1686   2
  -4  -5 -10 464.003 18.1780   3
  -4  -5 -10 464.109 17.1213   3
  -5  -5 -10 36.6357 4.44762   2
  -5  -5 -10 41.7796 5.19043   3
  -5  -5 -10 34.9404 4.53153   2
   2  -6 -10 81.6402 7.07874   4
  -2   6  10 76.5583 6.65004   2
  -2   6  10 81.8095 5.42196   3
   1  -6 -10 228.203 9.27875   3
   1  -6 -10 223.964 9.61292   4
   1  -6 -10 228.469 10.3888   4
  -1   6  10 225.173 9.12869   3
  -1   6  10 229.118 10.5621   2
   0  -6 -10 4.38354 1.96236   4
   0  -6 -10 5.19384 1.80972   4
   0  -6 -10 3.20788 2.25712   3
   0   6  10 4.49189 1.00960   4
   0   6  10 0.97401 2.39912   2
   0   6  10 4.16530 1.23036   4
  -1  -6 -10 235.837 10.0845   3
  -1  -6 -10 232.467 10.0971   2
  -1  -6 -10 247.021 9.32540   4
  -1  -6 -10 251.587 8.91338   4
  -2  -6 -10 375.969 14.2460   2
  -2  -6 -10 376.951 12.3338   4
  -2  -6 -10 382.777 12.4800   4
  -2  -6 -10 382.574 14.6639   3
  -3  -6 -10 118.251 7.51782   3
  -3  -6 -10 131.901 6.41550   3
  -3  -6 -10 118.658 7.13092   2
  -3  -6 -10 102.961 6.23750   2
  -4  -6 -10 153.088 7.82726   3
  -4  -6 -10 144.270 7.65762   2
  -4  -6 -10 156.404 8.28014   2
  -4  -6 -10 153.438 9.35820   3
  -5  -6 -10 6.05733 2.89043   2
  -5  -6 -10 5.35475 3.01058   3
  -5  -6 -10 2.70170 2.97490   2
   1  -7 -10 155.694 9.37879   4
  -1   7  10 165.270 8.34826   3
  -1   7  10 169.524 12.9563   2
   0  -7 -10 83.3454 5.69677   4
   0  -7 -10 95.9100 5.92192   4
   0  -7 -10 90.0630 6.51392   3
  -1  -7 -10 181.662 7.29004   4
  -1  -7 -10 174.819 7.62022   4
  -1  -7 -10 169.000 8.95938   3
  -2  -7 -10 2.53224 1.49278   4
  -2  -7 -10 2.61727 3.43557   3
  -3  -7 -10 156.272 9.54532   3
  -3  -7 -10 177.735 9.25992   2
  -4  -7 -10 275.456 12.4842   2
  -4  -7 -10 284.084 11.9462   3
  -5  -7 -10 68.7453 6.47751   3
  -5  -7 -10 77.2233 6.97600   2
  -1  -8 -10 78.9350 8.39894   3
  -2  -8 -10 466.857 18.8260   3
  -2  -8 -10 466.503 16.0381   4
  -3  -8 -10 356.779 11.5838   4
  -3  -8 -10 352.996 15.3868   2
  -3  -8 -10 346.930 11.7487   4
   2   3 -11 132.566 7.48581   4
  -2  -3  11 107.823 5.52418   2
   1   3 -11 263.036 11.1303   4
   0   3 -11 221.432 10.9717   3
   0   3 -11 244.219 10.2167   4
   3   2 -11 8.15597 3.16879   2
   3   2 -11 7.37817 2.98121   4
  -3  -2  11 12.6055 2.64883   2
   2   2 -11 777.721 26.1235   4
   2   2 -11 738.909 25.0300   2
  -2  -2  11 724.825 24.4708   2
   1   2 -11 118.848 5.53395   3
   1   2 -11 116.119 6.07813   2
   1   2 -11 118.377 6.41719   4
  -1  -2  11 119.153 4.99968   3
  -1  -2  11 119.918 5.05191   2
   0   2 -11 2.05600 2.52867   3
   0   2 -11 2.22234 1.74880   4
   0  -2  11 4.50170 1.77365   3
  -1   2 -11 305.877 14.6002   3
  -1   2 -11 329.705 12.3092   4
   1  -2  11 324.452 12.2672   3
  -2   2 -11 354.662 14.7211   3
  -2   2 -11 344.124 13.0012   4
   2  -2  11 327.140 13.4712   3
   4   1 -11 382.169 16.2507   4
  -4  -1  11 368.538 14.3882   2
   3   1 -11 16.7283 3.56205   2
   3   1 -11 30.5674 4.40554   4
  -3  -1  11 19.1280 2.85955   2
  -3  -1  11 30.8788 5.30159   4
   2   1 -11 10.3444 2.67431   4
   2   1 -11 11.3092 2.53057   2
   2   1 -11 12.9161 2.73829   4
   1   1 -11 122.682 6.47544   4
   1   1 -11 132.938 7.46618   4
  -1  -1  11 128.637 6.64183   4
  -1  -1  11 130.603 5.55728   2
   0   1 -11 922.371 30.2665   3
   0   1 -11 924.379 29.5225   2
   0   1 -11 937.021 31.9651   4
   0   1 -11 975.878 30.9910   4
   0  -1  11 942.616 31.1512   4
   0  -1  11 942.529 29.4807   2
   0  -1  11 946.182 29.8407   3
  -1   1 -11 4.29879 2.22885   4
  -1   1 -11 -1.5527 2.27020   3
  -1   1 -11 0.02296 1.51358   4
   1  -1  11 2.70367 1.97278   4
   1  -1  11 4.20613 1.75669   3
  -2   1 -11 25.0012 3.88083   3
  -2   1 -11 28.1193 3.14449   4
  -3   1 -11 119.851 6.60376   4
  -3   1 -11 109.742 8.39897   3
   4   0 -11 5.31816 3.33323   4
  -4   0  11 5.39925 2.72126   2
   3   0 -11 17.4537 3.56728   4
   3   0 -11 15.7654 4.43053   4
   3   0 -11 9.79570 3.00429   2
  -3   0  11 20.2993 2.90519   2
   2   0 -11 1579.92 49.7653   4
   2   0 -11 1536.75 48.8682   2
   2   0 -11 1551.51 50.1820   4
  -2   0  11 1459.26 49.1051   4
  -2   0  11 1528.94 48.6371   2
   1   0 -11 8.36753 2.03664   4
   1   0 -11 2.04684 2.11524   4
   1   0 -11 3.32369 1.67018   2
  -1   0  11 3.63667 1.40158   4
  -1   0  11 5.71002 1.51273   2
  -1   0  11 5.00040 1.76304   4
   0   0 -11 118.046 5.03025   2
   0   0 -11 129.173 5.80039   4
   0   0 -11 101.801 9.78752   4
   0   0 -11 114.952 4.63868   3
   0   0  11 110.478 5.32431   4
   0   0  11 120.580 4.90591   2
   0   0  11 117.925 5.63787   4
  -1   0 -11 221.777 9.66442   4
  -1   0 -11 233.154 8.71746   4
  -1   0 -11 219.908 8.90926   3
   1   0  11 222.027 8.72183   4
  -2   0 -11 577.852 20.7258   4
  -2   0 -11 578.027 20.3812   3
  -2   0 -11 583.832 19.4773   4
   2   0  11 577.778 19.5869   4
   2   0  11 592.837 19.8319   3
  -3   0 -11 453.902 17.6847   3
  -3   0 -11 470.763 16.1093   4
   3   0  11 472.764 17.5340   3
   3   0  11 466.814 16.0602   4
   4  -1 -11 180.685 10.6335   4
  -4   1  11 177.500 8.80871   2
   3  -1 -11 80.1540 6.41124   4
   3  -1 -11 77.3217 6.66518   4
   3  -1 -11 76.7281 5.89094   2
  -3   1  11 76.7065 6.00117   4
  -3   1  11 84.4771 5.38600   2
   2  -1 -11 -0.5968 1.83332   2
   2  -1 -11 4.34207 2.15515   4
   2  -1 -11 -1.8350 2.19800   4
  -2   1  11 3.96714 1.65698   4
  -2   1  11 1.80290 1.75790   2
   1  -1 -11 1.14033 1.63316   4
   1  -1 -11 1.16166 2.05155   4
   1  -1 -11 2.88643 1.71436   2
  -1   1  11 3.76295 1.44426   4
  -1   1  11 4.18206 1.47728   2
  -1   1  11 2.99612 1.26214   4
   0  -1 -11 904.614 28.9205   4
   0  -1 -11 880.607 29.4322   4
   0   1  11 892.094 28.5244   4
   0   1  11 852.961 28.3463   2
  -1  -1 -11 72.9391 4.65835   4
  -1  -1 -11 74.9802 3.86233   4
  -1  -1 -11 71.8588 3.96923   3
  -1  -1 -11 69.5482 3.42176   2
   1   1  11 70.0759 3.65158   4
   1   1  11 73.0079 3.64080   4
  -2  -1 -11 445.322 15.8424   4
  -2  -1 -11 466.991 14.9325   4
  -2  -1 -11 412.310 14.0829   2
  -2  -1 -11 433.977 15.5957   3
   2   1  11 422.324 14.4302   4
   2   1  11 454.757 14.4345   4
  -3  -1 -11 154.677 6.14031   4
  -3  -1 -11 148.629 7.68197   3
  -3  -1 -11 142.033 7.26837   4
  -4  -1 -11 328.577 13.7117   3
  -4  -1 -11 311.983 11.4146   4
   4  -2 -11 21.7920 4.22492   4
  -4   2  11 29.7533 4.30280   2
   3  -2 -11 172.833 9.49833   4
  -3   2  11 182.817 8.83746   4
  -3   2  11 190.511 8.78518   2
   2  -2 -11 38.2517 4.11740   2
   2  -2 -11 41.6941 4.61089   4
   2  -2 -11 43.8057 4.81131   4
  -2   2  11 48.4667 4.04713   2
  -2   2  11 43.5125 3.92899   4
   1  -2 -11 156.487 7.81147   4
   1  -2 -11 168.755 7.12901   2
   1  -2 -11 164.067 7.59241   4
  -1   2  11 155.820 7.65549   2
  -1   2  11 152.364 6.71695   4
   0  -2 -11 12.1305 1.91141   4
   0  -2 -11 11.5089 2.09320   4
   0  -2 -11 10.4185 1.84731   2
   0   2  11 11.0386 1.83511   2
   0   2  11 14.6615 1.93640   4
   0   2  11 11.1053 1.59117   4
  -1  -2 -11 102.875 4.64614   3
  -1  -2 -11 109.299 5.35472   4
  -1  -2 -11 108.358 4.55875   3
  -1  -2 -11 113.031 4.91730   2
  -1  -2 -11 105.261 4.86249   4
   1   2  11 106.895 4.08625   4
  -2  -2 -11 690.143 23.2496   4
  -2  -2 -11 720.431 23.3472   3
  -2  -2 -11 705.055 22.8940   2
  -2  -2 -11 694.924 22.4964   2
  -2  -2 -11 714.145 22.7012   4
  -3  -2 -11 0.33002 1.08018   2
  -3  -2 -11 3.53891 2.14932   3
  -3  -2 -11 2.93225 0.95101   4
  -3  -2 -11 1.48886 0.91975   2
  -3  -2 -11 0.87313 1.66763   4
  -4  -2 -11 205.509 7.41077   4
  -4  -2 -11 194.603 8.57741   4
  -4  -2 -11 199.537 9.65155   3
   3  -3 -11 203.885 10.4851   4
  -3   3  11 208.730 9.76277   2
   2  -3 -11 46.6810 4.41728   2
   2  -3 -11 37.5048 4.76198   4
   2  -3 -11 44.9908 4.57817   4
  -2   3  11 33.8772 4.11196   2
  -2   3  11 46.3410 4.12728   4
   1  -3 -11 612.674 20.9063   4
   1  -3 -11 592.536 20.6664   4
   1  -3 -11 594.882 20.3539   2
  -1   3  11 567.080 19.1446   4
  -1   3  11 598.044 19.8385   4
  -1   3  11 586.781 20.4935   2
   0  -3 -11 547.810 18.9349   4
   0  -3 -11 561.776 18.9740   4
   0  -3 -11 589.179 18.8959   2
   0   3  11 492.795 19.6549   2
   0   3  11 563.135 17.8406   4
   0   3  11 545.562 17.5288   4
  -1  -3 -11 44.5267 3.32798   4
  -1  -3 -11 47.4316 3.19646   4
  -1  -3 -11 44.3491 3.00488   3
  -1  -3 -11 49.9935 3.40155   2
  -1  -3 -11 47.4077 2.71015   3
  -2  -3 -11 422.682 14.9109   3
  -2  -3 -11 417.270 14.1601   4
  -2  -3 -11 418.006 14.3723   2
  -2  -3 -11 430.505 13.9885   4
  -2  -3 -11 418.253 14.5643   3
  -3  -3 -11 107.070 5.89421   3
  -3  -3 -11 106.206 4.83850   2
  -3  -3 -11 110.256 4.23980   4
  -3  -3 -11 105.730 5.27062   2
  -3  -3 -11 104.765 4.75730   4
  -3  -3 -11 120.126 6.33756   3
  -4  -3 -11 265.959 11.1595   3
  -4  -3 -11 255.232 9.27752   2
  -4  -3 -11 245.381 9.37133   2
  -4  -3 -11 260.041 8.62211   4
  -5  -3 -11 132.772 8.35650   3
  -5  -3 -11 117.681 5.80531   4
  -5  -3 -11 119.102 4.81987   4
   3  -4 -11 239.809 11.9008   4
  -3   4  11 225.747 10.7510   2
   2  -4 -11 140.613 7.90169   4
  -2   4  11 133.126 6.67657   4
   1  -4 -11 437.303 16.4954   2
   1  -4 -11 462.368 16.4007   4
   1  -4 -11 458.203 16.9122   4
  -1   4  11 457.266 16.7828   2
  -1   4  11 462.831 15.6548   4
   0  -4 -11 25.1623 2.98869   4
   0  -4 -11 24.9995 1.43768   3
   0  -4 -11 29.7385 3.21016   4
   0  -4 -11 26.4357 3.31851   2
   0   4  11 26.3693 1.53242   4
   0   4  11 30.7003 3.48539   2
  -1  -4 -11 39.9960 2.62660   3
  -1  -4 -11 40.5248 3.52540   2
  -1  -4 -11 37.9502 2.95181   4
  -1  -4 -11 35.4840 3.01593   4
  -1  -4 -11 38.7896 3.05976   3
  -2  -4 -11 157.811 6.87283   2
  -2  -4 -11 155.293 5.80453   4
  -2  -4 -11 158.833 5.89002   4
  -2  -4 -11 159.427 6.64259   3
  -2  -4 -11 159.120 7.26386   3
  -3  -4 -11 87.9500 5.05323   3
  -3  -4 -11 80.7377 4.57139   2
  -3  -4 -11 86.1375 5.91335   3
  -3  -4 -11 82.7776 5.12635   2
  -4  -4 -11 60.5495 5.30987   3
  -4  -4 -11 69.0785 6.34475   3
  -4  -4 -11 60.7008 4.15518   2
  -4  -4 -11 70.5894 4.75597   2
  -5  -4 -11 15.2780 2.97648   2
  -5  -4 -11 16.8424 3.67872   3
   2  -5 -11 52.4907 5.90392   4
  -2   5  11 39.0411 5.22415   2
   1  -5 -11 88.4634 5.93014   4
   1  -5 -11 79.2606 5.18596   4
   1  -5 -11 74.7508 3.73658   3
  -1   5  11 82.4683 5.94050   2
  -1   5  11 86.3455 4.56438   4
   0  -5 -11 62.1821 4.94917   2
   0  -5 -11 67.2246 4.22083   4
   0  -5 -11 69.7890 4.61437   4
   0  -5 -11 67.3471 3.24744   3
   0  -5 -11 63.0904 3.56245   3
   0   5  11 56.8731 2.99982   4
   0   5  11 61.4778 4.98106   2
  -1  -5 -11 637.218 21.0807   3
  -1  -5 -11 623.803 21.5783   3
  -1  -5 -11 648.810 21.1667   4
  -1  -5 -11 669.234 22.2591   2
  -1  -5 -11 658.906 21.4578   4
  -2  -5 -11 55.1616 4.32391   2
  -2  -5 -11 57.0555 2.70630   4
  -2  -5 -11 56.3386 4.82263   3
  -2  -5 -11 54.6876 3.83708   3
  -3  -5 -11 13.0662 2.75190   2
  -3  -5 -11 19.1674 3.62632   3
  -3  -5 -11 16.8861 2.58200   2
  -3  -5 -11 15.9004 2.53791   3
  -4  -5 -11 351.495 13.5275   2
  -4  -5 -11 359.789 13.5525   3
  -4  -5 -11 341.432 12.8909   2
  -4  -5 -11 329.632 14.6362   3
  -5  -5 -11 -1.9454 2.57616   2
  -5  -5 -11 5.00310 3.20480   3
   1  -6 -11 1233.55 41.3705   4
  -1   6  11 1255.37 40.3301   4
   0  -6 -11 84.7188 5.18366   3
   0  -6 -11 83.3014 5.46828   4
   0  -6 -11 79.2531 4.83696   4
   0   6  11 83.7638 6.19429   2
  -1  -6 -11 71.9141 5.30005   3
  -1  -6 -11 75.2936 4.07111   4
  -1  -6 -11 81.9875 4.44898   4
  -2  -6 -11 4.64181 1.13053   4
  -2  -6 -11 2.08295 1.98803   3
  -2  -6 -11 4.13339 2.72253   3
  -2  -6 -11 3.98563 1.12801   4
  -2  -6 -11 0.41513 2.30956   2
  -3  -6 -11 542.665 19.2689   3
  -3  -6 -11 581.273 20.6139   3
  -3  -6 -11 554.995 20.2966   2
  -3  -6 -11 523.763 19.4497   2
  -4  -6 -11 550.897 20.3468   2
  -4  -6 -11 532.207 19.6091   2
  -4  -6 -11 548.151 21.3908   3
  -4  -6 -11 585.034 20.1035   3
   0  -7 -11 66.8263 6.86816   4
  -1  -7 -11 564.909 21.4710   3
  -1  -7 -11 559.890 19.3988   4
  -1  -7 -11 573.637 19.0278   4
  -2  -7 -11 136.058 8.63153   3
  -2  -7 -11 143.969 5.51254   4
  -2  -7 -11 142.291 5.63760   4
  -3  -7 -11 0.37603 2.63533   3
  -3  -7 -11 -2.9943 3.81621   3
  -3  -7 -11 -1.1214 3.25307   2
  -4  -7 -11 221.254 10.3867   3
  -4  -7 -11 220.563 11.0020   2
   1   2 -12 -2.9759 2.07432   4
   0   2 -12 165.809 8.04007   4
   3   1 -12 104.413 7.93285   4
   3   1 -12 109.938 11.8861   2
  -3  -1  12 111.482 6.43746   2
   2   1 -12 230.460 9.96585   2
   2   1 -12 231.905 10.7925   4
  -2  -1  12 234.814 9.33772   2
   1   1 -12 28.3540 4.07818   4
  -1  -1  12 27.2459 3.04394   2
   0   1 -12 209.841 8.95635   4
  -1   1 -12 11.9146 3.00279   3
  -1   1 -12 13.7571 2.47154   4
   3   0 -12 24.7444 4.12055   4
   2   0 -12 293.763 12.2512   4
   2   0 -12 274.126 11.3139   2
  -2   0  12 276.143 10.9376   2
   1   0 -12 22.3881 2.72570   2
   1   0 -12 26.8586 3.81211   4
   1   0 -12 39.2963 6.12796   4
  -1   0  12 25.6403 3.47143   4
  -1   0  12 24.4614 3.06031   2
   0   0 -12 92.7875 4.59590   2
   0   0 -12 98.4600 6.86452   4
   0   0 -12 97.8838 5.40864   4
   0   0  12 94.2022 4.37248   2
   0   0  12 93.2593 5.24414   4
  -1   0 -12 9.11028 3.17131   4
  -1   0 -12 14.7751 2.55487   3
  -1   0 -12 10.2222 1.92081   4
   1   0  12 12.5324 2.21321   4
  -2   0 -12 357.158 13.2246   4
  -2   0 -12 392.187 14.3929   3
   2   0  12 361.030 13.2987   4
   3  -1 -12 188.113 10.1138   4
  -3   1  12 189.524 8.92463   2
   2  -1 -12 -3.9461 2.37969   2
   2  -1 -12 -1.5142 2.55673   4
  -2   1  12 0.46571 2.01301   4
  -2   1  12 2.58508 2.10067   2
   1  -1 -12 1.75579 2.05531   2
   1  -1 -12 0.12920 2.73703   4
   1  -1 -12 -0.4768 2.13514   4
  -1   1  12 0.30713 1.67953   4
   0  -1 -12 86.4611 5.03984   4
   0  -1 -12 90.9043 4.73317   2
   0  -1 -12 89.3452 6.00587   4
   0   1  12 90.9235 4.70973   4
   0   1  12 98.4919 4.68752   2
  -1  -1 -12 65.7055 3.93674   3
  -1  -1 -12 66.9146 3.48174   2
  -1  -1 -12 69.5283 4.93333   4
  -1  -1 -12 65.0014 4.04475   4
   1   1  12 69.2412 3.71281   4
  -2  -1 -12 255.754 10.3872   3
  -2  -1 -12 263.799 9.58862   4
  -2  -1 -12 248.162 10.6113   4
   2   1  12 259.610 8.91770   4
  -3  -1 -12 27.3519 2.73607   4
  -3  -1 -12 30.9476 4.08523   3
   3  -2 -12 30.1304 4.54737   4
  -3   2  12 21.2090 3.39685   2
   2  -2 -12 31.2764 4.19459   4
   2  -2 -12 24.0335 3.25876   2
  -2   2  12 30.4539 4.16573   2
  -2   2  12 30.1650 3.89975   4
   1  -2 -12 817.236 28.0702   4
   1  -2 -12 824.118 27.9251   4
   1  -2 -12 824.845 27.2416   2
  -1   2  12 813.038 26.9832   4
  -1   2  12 823.533 27.3395   2
   0  -2 -12 -0.2414 1.92596   4
   0  -2 -12 1.84607 1.64394   4
   0  -2 -12 0.90320 1.57265   2
   0   2  12 0.07039 1.24710   4
   0   2  12 0.80902 1.48556   2
  -1  -2 -12 368.134 12.6249   3
  -1  -2 -12 383.329 13.4515   4
  -1  -2 -12 377.527 13.1654   2
  -1  -2 -12 378.204 13.8599   4
  -1  -2 -12 384.089 12.5953   3
   1   2  12 389.100 12.3370   4
  -2  -2 -12 4.59014 1.36255   4
  -2  -2 -12 4.51423 1.31760   2
  -2  -2 -12 4.68683 1.63605   2
  -2  -2 -12 6.28844 1.99918   4
  -2  -2 -12 0.44617 1.96648   3
  -3  -2 -12 228.471 8.16427   4
  -3  -2 -12 217.693 9.15925   4
  -4  -2 -12 300.751 12.9648   3
   3  -3 -12 205.833 11.0731   4
  -3   3  12 218.016 10.2496   2
   2  -3 -12 1.82021 2.54681   4
  -2   3  12 6.48969 2.67849   2
   1  -3 -12 10.5283 2.67759   4
   1  -3 -12 9.70120 2.28916   4
   1  -3 -12 8.40920 2.45703   2
  -1   3  12 9.11229 2.48194   4
  -1   3  12 10.0647 2.27794   2
   0  -3 -12 124.426 6.33834   4
   0  -3 -12 124.523 6.20034   2
   0  -3 -12 128.289 6.49255   4
   0   3  12 131.086 5.02627   4
   0   3  12 124.932 6.29520   2
   0   3  12 121.012 6.13638   4
  -1  -3 -12 533.656 17.5975   3
  -1  -3 -12 555.056 18.5518   4
  -1  -3 -12 548.249 18.6278   4
  -1  -3 -12 536.748 18.4872   2
  -1  -3 -12 562.552 17.5064   3
  -2  -3 -12 245.620 9.29060   3
  -2  -3 -12 244.499 9.72854   3
  -2  -3 -12 240.998 8.82091   4
  -2  -3 -12 237.962 9.07163   4
  -2  -3 -12 247.302 9.13008   2
  -3  -3 -12 0.93356 2.37554   3
  -3  -3 -12 -0.8620 1.53066   2
  -3  -3 -12 0.94638 1.12122   4
  -3  -3 -12 1.74379 1.72781   2
  -3  -3 -12 -0.0232 2.75942   3
  -4  -3 -12 222.103 10.3986   3
  -4  -3 -12 213.988 7.45893   4
  -4  -3 -12 205.318 8.31093   4
   2  -4 -12 13.3063 3.44140   4
  -2   4  12 10.6371 3.12973   2
   1  -4 -12 825.160 28.0764   4
   1  -4 -12 818.934 28.4683   4
  -1   4  12 843.461 26.9929   4
  -1   4  12 832.684 28.3555   2
   0  -4 -12 22.2307 2.90323   4
   0  -4 -12 17.9548 2.80298   4
   0  -4 -12 19.0694 2.91976   2
   0   4  12 14.6996 2.63555   2
  -1  -4 -12 43.6880 3.02123   3
  -1  -4 -12 32.6579 3.72150   2
  -1  -4 -12 37.8554 2.61664   3
  -1  -4 -12 41.9891 3.36757   4
  -1  -4 -12 46.4175 3.42936   4
  -2  -4 -12 1.02005 1.92790   2
  -2  -4 -12 3.99679 1.36175   4
  -2  -4 -12 7.39080 2.46060   3
  -2  -4 -12 2.59619 1.78327   3
  -3  -4 -12 273.496 10.2727   2
  -3  -4 -12 271.518 10.8114   2
  -3  -4 -12 268.585 10.6985   3
  -3  -4 -12 269.012 11.5682   3
  -4  -4 -12 139.246 9.19831   3
  -4  -4 -12 147.688 7.01633   2
  -4  -4 -12 147.327 8.17940   3
   1  -5 -12 176.190 8.95513   4
  -1   5  12 184.586 9.03229   2
  -1   5  12 176.502 7.27793   4
   0  -5 -12 64.7059 4.63204   4
   0  -5 -12 73.1026 5.05110   4
   0   5  12 79.0519 5.74430   2
  -1  -5 -12 616.464 19.7593   4
  -1  -5 -12 571.356 19.4816   3
  -1  -5 -12 556.817 20.3936   2
  -1  -5 -12 587.324 19.4934   4
  -1  -5 -12 590.495 19.0327   3
  -2  -5 -12 29.2744 2.13476   4
  -2  -5 -12 29.9390 3.33513   3
  -2  -5 -12 23.2336 3.02401   2
  -2  -5 -12 30.2896 2.26800   4
  -2  -5 -12 26.6694 3.51574   3
  -3  -5 -12 8.13466 3.38937   3
  -3  -5 -12 5.25971 2.31850   2
  -3  -5 -12 5.92868 2.70800   2
  -4  -5 -12 40.3138 5.01893   2
  -4  -5 -12 26.3669 4.09574   3
  -4  -5 -12 27.7607 4.52211   2
  -4  -5 -12 24.5843 5.24882   3
   0  -6 -12 117.373 6.72668   4
  -1  -6 -12 69.7053 4.25806   4
  -1  -6 -12 74.0236 4.38212   3
  -1  -6 -12 78.6599 4.49265   4
  -2  -6 -12 3.12939 2.13580   3
  -2  -6 -12 -1.2736 4.39305   3
  -3  -6 -12 776.885 25.7490   3
  -3  -6 -12 761.822 26.8189   2
  -3  -6 -12 742.213 26.8949   3
  -2  -7 -12 -3.2968 2.49523   3
  -2  -7 -12 0.61256 1.28899   4
   1   0 -13 184.527 9.01696   4
  -1   0  13 182.933 7.89375   2
   0   0 -13 28.2568 4.03329   4
   2  -1 -13 39.6224 5.59314   4
   2  -1 -13 33.5389 4.23721   2
  -2   1  13 32.0086 4.63084   2
   1  -1 -13 22.7412 3.26864   4
   1  -1 -13 24.1601 3.26124   2
  -1   1  13 29.8840 3.72523   2
   0  -1 -13 5.55333 2.20673   4
   0   1  13 6.58825 1.93431   2
   0   1  13 3.95768 2.08926   4
  -1  -1 -13 1633.66 52.3075   4
   1   1  13 1663.06 51.5316   4
   2   1  13 76.3222 3.52278   4
   2  -2 -13 46.0694 6.19694   4
  -2   2  13 59.2398 5.35911   2
   1  -2 -13 273.999 11.1182   2
   1  -2 -13 267.829 11.6632   4
  -1   2  13 282.577 11.0459   2
   0  -2 -13 38.1085 4.06917   2
   0  -2 -13 43.4439 4.11895   4
   0  -2 -13 42.5859 5.45741   4
   0   2  13 43.7346 3.26117   4
   0   2  13 34.8569 4.19008   2
  -1  -2 -13 285.714 11.4019   4
  -1  -2 -13 288.361 10.9393   4
  -2  -2 -13 26.4355 3.84820   4
  -2  -2 -13 21.3365 2.83577   4
   2  -3 -13 -2.6631 3.97220   4
  -2   3  13 -0.2597 2.78969   2
   1  -3 -13 0.80220 2.39660   4
  -1   3  13 2.39820 2.42185   4
  -1   3  13 1.43871 2.42898   2
   0  -3 -13 2.39488 2.21176   4
   0  -3 -13 4.49757 2.39699   4
   0  -3 -13 1.48336 2.25348   2
   0   3  13 0.27571 2.07356   2
  -1  -3 -13 1075.51 34.3869   4
  -1  -3 -13 1049.21 34.2594   4
  -1  -3 -13 1049.20 34.1232   2
  -2  -3 -13 109.030 5.30700   4
  -2  -3 -13 118.785 5.73172   4
  -2  -3 -13 127.654 6.96784   3
  -3  -3 -13 95.9031 5.17285   4
  -3  -3 -13 99.8858 4.48171   4
   1  -4 -13 192.681 9.97498   4
  -1   4  13 231.528 10.1509   2
   0  -4 -13 454.132 16.3235   4
   0  -4 -13 449.728 16.3922   4
   0  -4 -13 435.743 16.5938   2
   0   4  13 439.505 16.5169   2
  -1  -4 -13 255.239 9.77093   4
  -1  -4 -13 248.337 9.73227   4
  -1  -4 -13 245.740 10.2131   2
  -2  -4 -13 -0.4456 1.46612   4
  -2  -4 -13 1.03221 2.13461   2
  -2  -4 -13 -0.4402 1.43475   4
  -3  -4 -13 145.035 8.89566   3
  -3  -4 -13 156.274 8.66767   2
   0  -5 -13 30.6989 4.65507   4
   0   5  13 35.2702 5.07466   2
  -1  -5 -13 161.091 7.14579   4
  -2  -5 -13 4.55310 1.35964   4
  -2  -5 -13 2.95765 2.77048   2
  -2  -5 -13 3.70368 1.42126   4
  -3  -5 -13 69.5330 5.96355   3
  -3  -5 -13 67.8122 5.95397   2
   0   0   0    0.00    0.00   0

 _exptl_absorpt_process_details 'SADABS 2014/5'
 _exptl_absorpt_correction_type   multi-scan
 _exptl_absorpt_correction_T_max  0.2616
 _exptl_absorpt_correction_T_min  0.2259
 _exptl_special_details
)
 The following wavelength and cell were deduced by SADABS from the
 direction cosines etc. They are given here for emergency use only:
 CELL 0.71090    6.057    7.240   10.758   72.555   86.208   69.456
)
;
_shelx_hkl_checksum              64898
_olex2_submission_special_instructions 'No special instructions were received'
loop_
_space_group_symop_operation_xyz
'x, y, z'
'-x, -y, -z'
loop_
_atom_site_label
_atom_site_type_symbol
_atom_site_fract_x
_atom_site_fract_y
_atom_site_fract_z
_atom_site_U_iso_or_equiv
_atom_site_adp_type
_atom_site_occupancy
_atom_site_site_symmetry_order
_atom_site_calc_flag
_atom_site_refinement_flags_posn
S1 S 0.66394(5) 0.22256(4) 0.47954(3) 0.00965(10) Uani 1 1 d .
S2 S 0.89499(5) 0.69756(5) 0.34136(3) 0.01071(10) Uani 1 1 d .
O1 O 0.24654(16) 0.76635(14) 0.07132(9) 0.0127(2) Uani 1 1 d .
O2 O 0.42919(16) 0.42827(14) 0.17493(9) 0.0140(2) Uani 1 1 d .
C1 C 0.0883(2) 0.7116(2) 0.00601(13) 0.0144(3) Uani 1 1 d .
H1A H 0.177644 0.624078 -0.045145 0.022 Uiso 1 1 calc GR
H1B H -0.022655 0.834765 -0.050083 0.022 Uiso 1 1 calc GR
H1C H 0.004691 0.639561 0.069889 0.022 Uiso 1 1 calc GR
C2 C 0.4103(2) 0.60728(19) 0.15459(12) 0.0102(2) Uani 1 1 d .
C3 C 0.5628(2) 0.68239(18) 0.21357(12) 0.0095(2) Uani 1 1 d .
C4 C 0.7520(2) 0.55487(18) 0.30017(12) 0.0090(2) Uani 1 1 d .
C5 C 0.8397(2) 0.33209(18) 0.36752(11) 0.0090(2) Uani 1 1 d .
C6 C 1.0687(2) 0.20010(18) 0.37170(12) 0.0094(2) Uani 1 1 d .
H6 H 1.186809 0.233228 0.319825 0.011 Uiso 1 1 calc R
C7 C 1.1005(2) 0.00568(18) 0.46625(12) 0.0089(2) Uani 1 1 d .
C8 C 0.7059(2) 0.92605(19) 0.24423(12) 0.0125(2) Uani 1 1 d .
H8 H 0.716274 1.054762 0.235010 0.015 Uiso 1 1 calc R
C9 C 0.5387(2) 0.89561(19) 0.18227(12) 0.0115(2) Uani 1 1 d .
H9 H 0.421030 1.002102 0.125528 0.014 Uiso 1 1 calc R
loop_
_atom_site_aniso_label
_atom_site_aniso_U_11
_atom_site_aniso_U_22
_atom_site_aniso_U_33
_atom_site_aniso_U_23
_atom_site_aniso_U_13
_atom_site_aniso_U_12
S1 0.00784(15) 0.00753(15) 0.01102(16) -0.00062(11) 0.00093(10) -0.00147(11)
S2 0.01257(16) 0.00886(16) 0.01112(16) -0.00214(11) -0.00182(11) -0.00447(12)
O1 0.0111(4) 0.0107(4) 0.0147(4) -0.0015(3) -0.0046(3) -0.0028(3)
O2 0.0146(4) 0.0093(4) 0.0178(5) -0.0026(4) -0.0015(4) -0.0043(4)
C1 0.0111(6) 0.0170(6) 0.0160(6) -0.0053(5) -0.0028(5) -0.0050(5)
C2 0.0087(5) 0.0109(6) 0.0098(6) -0.0024(5) 0.0020(4) -0.0026(4)
C3 0.0102(6) 0.0082(5) 0.0093(5) -0.0024(4) 0.0018(4) -0.0029(4)
C4 0.0101(5) 0.0086(5) 0.0092(5) -0.0034(4) 0.0019(4) -0.0040(4)
C5 0.0112(6) 0.0084(6) 0.0074(5) -0.0012(4) 0.0000(4) -0.0044(5)
C6 0.0107(6) 0.0085(5) 0.0091(5) -0.0020(4) 0.0002(4) -0.0039(5)
C7 0.0088(5) 0.0078(5) 0.0095(5) -0.0025(4) -0.0003(4) -0.0021(4)
C8 0.0162(6) 0.0073(5) 0.0131(6) -0.0021(5) 0.0007(5) -0.0038(5)
C9 0.0124(6) 0.0080(6) 0.0116(6) -0.0011(4) 0.0004(4) -0.0020(5)
loop_
_atom_type_symbol
_atom_type_description
_atom_type_scat_dispersion_real
_atom_type_scat_dispersion_imag
_atom_type_scat_source
C C 0.0033 0.0016 'International Tables Vol C Tables 4.2.6.8 and 6.1.1.4'
H H 0.0000 0.0000 'International Tables Vol C Tables 4.2.6.8 and 6.1.1.4'
O O 0.0106 0.0060 'International Tables Vol C Tables 4.2.6.8 and 6.1.1.4'
S S 0.1246 0.1234 'International Tables Vol C Tables 4.2.6.8 and 6.1.1.4'
loop_
_geom_angle_atom_site_label_1
_geom_angle_atom_site_label_2
_geom_angle_atom_site_label_3
_geom_angle
_geom_angle_site_symmetry_1
_geom_angle_site_symmetry_3
C7 S1 C5 91.04(7) 2_756 .
C8 S2 C4 92.75(8) . .
C2 O1 C1 115.65(11) . .
O1 C1 H1A 109.5 . .
O1 C1 H1B 109.5 . .
O1 C1 H1C 109.5 . .
H1A C1 H1B 109.5 . .
H1A C1 H1C 109.5 . .
H1B C1 H1C 109.5 . .
O1 C2 C3 110.57(11) . .
O2 C2 O1 123.62(12) . .
O2 C2 C3 125.80(12) . .
C4 C3 C2 124.13(12) . .
C4 C3 C9 112.21(11) . .
C9 C3 C2 123.59(11) . .
C3 C4 S2 110.62(10) . .
C3 C4 C5 133.15(11) . .
C5 C4 S2 116.08(10) . .
C4 C5 S1 119.81(9) . .
C6 C5 S1 112.95(10) . .
C6 C5 C4 126.04(11) . .
C5 C6 H6 124.6 . .
C5 C6 C7 110.80(11) . .
C7 C6 H6 124.6 . .
C6 C7 S1 134.79(10) . 2_756
C7 C7 S1 111.10(12) 2_756 2_756
C7 C7 C6 114.10(14) 2_756 .
S2 C8 H8 124.3 . .
C9 C8 S2 111.50(10) . .
C9 C8 H8 124.3 . .
C3 C9 H9 123.5 . .
C8 C9 C3 112.92(11) . .
C8 C9 H9 123.5 . .
loop_
_geom_bond_atom_site_label_1
_geom_bond_atom_site_label_2
_geom_bond_distance
_geom_bond_site_symmetry_2
S1 C5 1.7474(14) .
S1 C7 1.7269(15) 2_756
S2 C4 1.7206(14) .
S2 C8 1.7126(15) .
O1 C1 1.4453(16) .
O1 C2 1.3455(16) .
O2 C2 1.2111(17) .
C1 H1A 0.9600 .
C1 H1B 0.9600 .
C1 H1C 0.9600 .
C2 C3 1.4779(18) .
C3 C4 1.3846(18) .
C3 C9 1.4319(19) .
C4 C5 1.4683(18) .
C5 C6 1.3739(18) .
C6 H6 0.9300 .
C6 C7 1.4240(18) .
C7 C7 1.388(2) 2_756
C8 H8 0.9300 .
C8 C9 1.3604(19) .
C9 H9 0.9300 .
loop_
_geom_torsion_atom_site_label_1
_geom_torsion_atom_site_label_2
_geom_torsion_atom_site_label_3
_geom_torsion_atom_site_label_4
_geom_torsion
_geom_torsion_site_symmetry_1
_geom_torsion_site_symmetry_4
S1 C5 C6 C7 0.88(13) . .
S2 C4 C5 S1 111.78(10) . .
S2 C4 C5 C6 -54.80(16) . .
S2 C8 C9 C3 -0.01(14) . .
O1 C2 C3 C4 -177.97(11) . .
O1 C2 C3 C9 -1.29(16) . .
O2 C2 C3 C4 0.8(2) . .
O2 C2 C3 C9 177.45(12) . .
C1 O1 C2 O2 0.44(17) . .
C1 O1 C2 C3 179.22(10) . .
C2 C3 C4 S2 177.11(9) . .
C2 C3 C4 C5 -7.7(2) . .
C2 C3 C9 C8 -177.09(11) . .
C3 C4 C5 S1 -63.19(18) . .
C3 C4 C5 C6 130.23(15) . .
C4 S2 C8 C9 0.06(10) . .
C4 C3 C9 C8 -0.06(16) . .
C4 C5 C6 C7 168.25(11) . .
C5 C6 C7 S1 -179.76(10) . 2_756
C5 C6 C7 C7 -1.35(18) . 2_756
C7 S1 C5 C4 -168.43(10) 2_756 .
C7 S1 C5 C6 -0.19(10) 2_756 .
C8 S2 C4 C3 -0.10(10) . .
C8 S2 C4 C5 -176.18(10) . .
C9 C3 C4 S2 0.10(13) . .
C9 C3 C4 C5 175.28(12) . .
