#------------------------------------------------------------------------------
#$Date: 2019-11-04 17:31:25 +0200 (Mon, 04 Nov 2019) $
#$Revision: 223165 $
#$URL: file:///home/coder/svn-repositories/cod/cif/1/55/27/1552735.cif $
#------------------------------------------------------------------------------
#
# This file is available in the Crystallography Open Database (COD),
# http://www.crystallography.net/
#
# All data on this site have been placed in the public domain by the
# contributors.
#
data_1552735
loop_
_publ_author_name
'Durka, Krzysztof'
'G\'orski, Bartosz'
'B\/locki, Krzysztof'
'Urban, Mateusz'
'Wo\'zniak, Krzysztof'
'Barbasiewicz, Micha\/l'
'Luli\'nski, Sergiusz'
_publ_section_title
;
 Experimental and Theoretical Insights into Molecular and Solid-State
 Properties of Isomeric Bis(salicylaldehydes).
;
_journal_issue                   40
_journal_name_full               'The journal of physical chemistry. A'
_journal_page_first              8674
_journal_page_last               8689
_journal_paper_doi               10.1021/acs.jpca.9b07360
_journal_volume                  123
_journal_year                    2019
_chemical_formula_moiety         'C8 H6 O4'
_chemical_formula_sum            'C8 H6 O4'
_chemical_formula_weight         166.13
_chemical_melting_point          154
_chemical_name_common            3,6-dihydroxyphthalaldehyde
_chemical_name_systematic
;
  3,6-dihydroxybenzene-1,2-dicarbaldehyde
;
_space_group_crystal_system      monoclinic
_space_group_IT_number           4
_space_group_name_Hall           'P 2yb'
_space_group_name_H-M_alt        'P 1 21 1'
_atom_sites_solution_hydrogens   mixed
_audit_creation_method           SHELXL-2013
_cell_angle_alpha                90
_cell_angle_beta                 95.445(3)
_cell_angle_gamma                90
_cell_formula_units_Z            2
_cell_length_a                   3.80700(10)
_cell_length_b                   7.3986(2)
_cell_length_c                   12.5470(4)
_cell_measurement_reflns_used    1804
_cell_measurement_temperature    250(2)
_cell_measurement_theta_max      76.3140
_cell_measurement_theta_min      3.5330
_cell_volume                     351.810(17)
_computing_cell_refinement
;
CrysAlisPro, Agilent Technologies,
Version 1.171.37.33 (release 27-03-2014 CrysAlis171 .NET)
(compiled Mar 27 2014,17:12:48)
;
_computing_data_collection
;
CrysAlisPro, Agilent Technologies,
Version 1.171.37.33 (release 27-03-2014 CrysAlis171 .NET)
(compiled Mar 27 2014,17:12:48)
;
_computing_data_reduction
;
CrysAlisPro, Agilent Technologies,
Version 1.171.37.33 (release 27-03-2014 CrysAlis171 .NET)
(compiled Mar 27 2014,17:12:48)
;
_diffrn_ambient_environment      air
_diffrn_ambient_temperature      250(2)
_diffrn_detector                 'CCD plate'
_diffrn_detector_area_resol_mean 5.2195
_diffrn_detector_type            Atlas
_diffrn_measured_fraction_theta_full 1.000
_diffrn_measured_fraction_theta_max 0.991
_diffrn_measurement_device       'four-circle diffractometer'
_diffrn_measurement_device_type  'SuperNova, Dual, Cu at zero, Atlas'
_diffrn_radiation_monochromator  mirror
_diffrn_radiation_probe          x-ray
_diffrn_radiation_type           'Cu K\a'
_diffrn_radiation_wavelength     1.54184
_diffrn_reflns_av_R_equivalents  0.0178
_diffrn_reflns_av_unetI/netI     0.0214
_diffrn_reflns_Laue_measured_fraction_full 1.000
_diffrn_reflns_Laue_measured_fraction_max 0.991
_diffrn_reflns_limit_h_max       4
_diffrn_reflns_limit_h_min       -4
_diffrn_reflns_limit_k_max       9
_diffrn_reflns_limit_k_min       -9
_diffrn_reflns_limit_l_max       15
_diffrn_reflns_limit_l_min       -15
_diffrn_reflns_number            3284
_diffrn_reflns_point_group_measured_fraction_full 0.987
_diffrn_reflns_point_group_measured_fraction_max 0.962
_diffrn_reflns_theta_full        67.679
_diffrn_reflns_theta_max         76.442
_diffrn_reflns_theta_min         3.538
_diffrn_source                   'sealed X-ray tube'
_diffrn_source_type              'SuperNova (Cu) X-ray Source'
_exptl_absorpt_coefficient_mu    1.102
_exptl_absorpt_correction_T_max  0.990
_exptl_absorpt_correction_T_min  0.974
_exptl_absorpt_correction_type   gaussian
_exptl_absorpt_process_details
;
CrysAlisPro, Agilent Technologies,
Version 1.171.37.33 (release 27-03-2014 CrysAlis171 .NET)
(compiled Mar 27 2014,17:12:48)
Numerical absorption correction based on gaussian integration over
			a multifaceted crystal model
Empirical absorption correction using spherical harmonics,
 implemented in SCALE3 ABSPACK scaling algorithm.
;
_exptl_crystal_colour            yellow
_exptl_crystal_density_diffrn    1.568
_exptl_crystal_description       block
_exptl_crystal_F_000             172
_exptl_crystal_size_max          0.1917
_exptl_crystal_size_mid          0.0875
_exptl_crystal_size_min          0.0511
_refine_diff_density_max         0.136
_refine_diff_density_min         -0.144
_refine_diff_density_rms         0.037
_refine_ls_abs_structure_details
;
 Flack x determined using 549 quotients [(I+)-(I-)]/[(I+)+(I-)]
 (Parsons and Flack (2004), Acta Cryst. A60, s61).
;
_refine_ls_abs_structure_Flack   0.27(14)
_refine_ls_extinction_method     none
_refine_ls_goodness_of_fit_ref   1.059
_refine_ls_hydrogen_treatment    mixed
_refine_ls_matrix_type           full
_refine_ls_number_parameters     115
_refine_ls_number_reflns         1433
_refine_ls_number_restraints     3
_refine_ls_restrained_S_all      1.058
_refine_ls_R_factor_all          0.0372
_refine_ls_R_factor_gt           0.0339
_refine_ls_shift/su_max          0.000
_refine_ls_shift/su_mean         0.000
_refine_ls_structure_factor_coef Fsqd
_refine_ls_weighting_details
'w=1/[\s^2^(Fo^2^)+(0.0597P)^2^+0.0222P] where P=(Fo^2^+2Fc^2^)/3'
_refine_ls_weighting_scheme      calc
_refine_ls_wR_factor_gt          0.0940
_refine_ls_wR_factor_ref         0.0976
_reflns_Friedel_coverage         0.800
_reflns_Friedel_fraction_full    0.973
_reflns_Friedel_fraction_max     0.927
_reflns_number_gt                1313
_reflns_number_total             1433
_reflns_threshold_expression     'I > 2\s(I)'
_cod_data_source_file            jp9b07360_si_002.cif
_cod_data_source_block           4
_cod_original_sg_symbol_H-M      'P 21'
_cod_database_code               1552735
_shelx_space_group_comment
;
The symmetry employed for this shelxl refinement is uniquely defined
by the following loop, which should always be used as a source of
symmetry information in preference to the above space-group names.
They are only intended as comments.
;
_shelxl_version_number           2013-4
_shelx_res_file
;
TITL 3 in P2(1)
CELL  1.54178   3.8070   7.3986  12.5470   90.000   95.445   90.000
ZERR     2.00   0.0001   0.0002   0.0004    0.000    0.003    0.000
LATT  -1
SYMM  - X, 1/2 + Y, - Z
SFAC  C    H    O
UNIT  16 12 8
MERG   2
DFIX 0.84 0.01 O1 H1
DFIX 0.84 0.01 O4 H4
FMAP   2
PLAN   20
ACTA
BOND   $H
L.S.  14
TEMP   -23.00
WGHT    0.059700    0.022200
FVAR       0.58445
MOLE    1
O4    3    0.542157    1.041786    0.636244    11.00000    0.07225    0.03762 =
         0.03516    0.00432    0.00925   -0.01336
O1    3   -0.029666    0.383458    0.723861    11.00000    0.06417    0.03263 =
         0.04615   -0.00279    0.00865   -0.01094
O3    3    0.579140    1.118637    0.839665    11.00000    0.07373    0.03778 =
         0.04360   -0.00417    0.00742   -0.01807
O2    3   -0.000298    0.472578    0.924002    11.00000    0.07541    0.04289 =
         0.04220    0.00709    0.01491   -0.01468
C3    1    0.344081    0.841629    0.770645    11.00000    0.03304    0.02835 =
         0.02801   -0.00032    0.00370    0.00083
C2    1    0.196127    0.669531    0.793503    11.00000    0.03158    0.02808 =
         0.03078    0.00169    0.00544    0.00135
C4    1    0.403214    0.883832    0.665251    11.00000    0.03714    0.03071 =
         0.03312    0.00378    0.00623   -0.00093
C8    1    0.435987    0.974381    0.854162    11.00000    0.05335    0.03570 =
         0.03368   -0.00225    0.00751   -0.00785
AFIX  43
H8    2    0.381479    0.947222    0.923904    11.00000   -1.20000
AFIX   0
C1    1    0.112272    0.547212    0.710136    11.00000    0.03544    0.02842 =
         0.03742   -0.00033    0.00522   -0.00058
C7    1    0.132316    0.616465    0.901851    11.00000    0.05465    0.03441 =
         0.03336    0.00359    0.00905   -0.00266
AFIX  43
H7    2    0.196945    0.697657    0.957929    11.00000   -1.20000
AFIX   0
C5    1    0.322000    0.757039    0.583588    11.00000    0.04348    0.04006 =
         0.02762    0.00079    0.00616    0.00089
AFIX  43
H5    2    0.366453    0.785032    0.513034    11.00000   -1.20000
AFIX   0
C6    1    0.179608    0.593946    0.605215    11.00000    0.04585    0.03731 =
         0.03262   -0.00601    0.00402   -0.00001
AFIX  43
H6    2    0.125342    0.511178    0.549228    11.00000   -1.20000
AFIX   0
H4    2    0.604026    1.102634    0.690920    11.00000   -1.50000
H1    2   -0.048150    0.370016    0.790115    11.00000   -1.50000
HKLF    4

REM  3 in P2(1)
REM R1 =  0.0339 for    1313 Fo > 4sig(Fo)  and  0.0372 for all    1433 data
REM    115 parameters refined using      3 restraints

END

WGHT      0.0594      0.0218

REM Highest difference peak  0.136,  deepest hole -0.144,  1-sigma level  0.037
Q1    1   0.1795  0.6487  0.8420  11.00000  0.05    0.14
Q2    1   0.3792  0.8596  0.7220  11.00000  0.05    0.12
Q3    1   0.2964  0.7593  0.7842  11.00000  0.05    0.12
Q4    1   0.4590  1.2527  0.8784  11.00000  0.05    0.12
Q5    1   0.2260  1.1217  0.6029  11.00000  0.05    0.11
Q6    1   0.3378  0.8984  0.8051  11.00000  0.05    0.11
Q7    1   0.3268  0.8241  0.6195  11.00000  0.05    0.11
Q8    1   0.8927  1.0154  0.5975  11.00000  0.05    0.11
Q9    1   0.1204  0.5827  0.6547  11.00000  0.05    0.10
Q10   1   0.2107  0.6025  0.7602  11.00000  0.05    0.10
Q11   1   0.2248  0.3085  0.6372  11.00000  0.05    0.10
Q12   1  -0.0089  0.7419  0.9472  11.00000  0.05    0.09
Q13   1   0.1133  0.6591  0.4344  11.00000  0.05    0.09
Q14   1   0.2645  0.3115  0.5602  11.00000  0.05    0.09
Q15   1   0.0019  0.7819  0.4594  11.00000  0.05    0.09
Q16   1   0.2086  1.0039  0.9240  11.00000  0.05    0.09
Q17   1  -0.0601  0.9019  0.8523  11.00000  0.05    0.08
Q18   1   0.3592  1.2001  0.9362  11.00000  0.05    0.08
Q19   1  -0.2749  0.7450  0.9790  11.00000  0.05    0.08
Q20   1  -0.2682  0.4045  0.8807  11.00000  0.05    0.08
;
_shelx_res_checksum              98128
_shelx_hkl_file
;
   0   0  -1    2.04    0.08
   0   0   1    1.97    0.13
   0   0  -2  389.27    2.07
   0   0   2  389.66    2.72
   0   0  -3    3.75    0.18
   0   0   3    3.65    0.29
   0   0  -4  202.68    1.94
   0   0   4  195.86    1.88
   0   0   4  198.71    2.48
   0   0  -4  198.22    1.60
   0   0   5    1.36    0.18
   0   0  -5    1.06    0.12
   0   0  -5    1.06    0.17
   0   0   5    0.86    0.21
   0   0   5    0.90    0.17
   0   0  -6   30.50    0.91
   0   0   6   29.01    0.88
   0   0   6   31.47    0.85
   0   0  -7    3.16    0.35
   0   0   7    2.74    0.32
   0   0  -8    0.10    0.15
   0   0   8    0.04    0.13
   0   0   9   17.64    0.88
   0   0  -9   17.15    0.89
   0   0  10    0.81    0.25
   0   0 -10    0.29    0.21
   0   0 -11    0.70    0.23
   0   0  11    0.34    0.18
   0   0 -12    1.71    0.23
   0   0  12    1.41    0.26
   0   0 -13    2.01    0.24
   0   0  13    2.39    0.32
   0   0  14   13.75    0.61
   0   0 -14   13.46    0.51
   0   0  15   -0.06    0.09
   0   0 -15    0.00    0.07
   0  -1   0    0.01    0.04
   0   1   0   -0.04    0.06
   0   1   0   -0.01    0.04
   0  -1   1   95.26    0.73
   0  -1  -1   93.31    1.14
   0   1  -1   95.26    0.71
   0  -1   1   94.58    1.00
   0   1   1   95.26    1.10
   0  -1   2   34.26    0.54
   0  -1  -2   36.34    0.86
   0   1   2   36.42    0.82
   0  -1  -2   37.27    0.71
   0  -1  -3   34.67    0.75
   0  -1  -3   32.47    0.95
   0  -1   3   31.83    0.68
   0  -1   3   33.00    0.76
   0   1   3   33.90    0.93
   0  -1  -4  174.56    1.81
   0   1  -4  173.41    1.86
   0  -1   4  170.80    2.10
   0   1   4  170.30    2.44
   0  -1   4  171.84    1.78
   0   1   4  171.87    1.79
   0  -1  -4  168.63    1.92
   0  -1  -5  465.52    3.60
   0  -1  -5  461.92    3.66
   0  -1   5  467.91    4.23
   0   1  -5  471.99    3.71
   0  -1   5  459.56    3.55
   0   1   5  468.22    3.56
   0  -1   6   64.68    1.32
   0   1  -6   62.59    1.34
   0   1   6   61.46    1.29
   0  -1  -6   61.30    1.31
   0  -1   7   47.35    1.27
   0   1  -7   48.85    1.32
   0   1   7   52.36    1.30
   0  -1  -7   49.39    1.32
   0   1  -8   24.54    1.02
   0  -1  -8   24.81    1.02
   0  -1   8   25.17    0.99
   0   1   8   24.45    1.00
   0   1  -9  117.39    2.35
   0   1   9  118.42    2.38
   0  -1  -9  121.05    2.40
   0  -1   9  119.37    2.32
   0   1 -10   49.39    1.64
   0  -1  10   51.98    1.62
   0  -1 -10   48.01    1.64
   0  -1  11   26.06    1.19
   0   1  11   27.62    1.25
   0   1 -11   27.45    1.25
   0  -1 -11   25.65    1.22
   0  -1 -12    4.55    0.36
   0  -1  12    4.42    0.41
   0   1 -12    4.58    0.36
   0   1 -12    3.98    0.35
   0   1  12    4.55    0.43
   0   1 -13    1.24    0.20
   0  -1  13    1.47    0.27
   0   1 -13    1.39    0.21
   0  -1 -13    1.57    0.21
   0   1  13    1.47    0.26
   0   1 -14    2.18    0.22
   0  -1 -14    2.24    0.21
   0   1  14    2.07    0.25
   0   1 -14    2.44    0.23
   0  -1  14    2.16    0.28
   0  -1 -15    0.97    0.11
   0   1 -15    0.96    0.11
   0  -1  15    0.90    0.15
   0   1 -15    1.11    0.14
   0   1  15    0.82    0.14
   0   2   0  307.68    2.60
   0  -2   0  310.19    2.32
   0   2   0  309.28    2.26
   0   2  -1   36.48    0.77
   0  -2  -1   35.49    0.85
   0  -2   1   36.82    0.58
   0   2  -1   36.94    0.56
   0   2   1   35.55    0.80
   0  -2  -1   37.79    0.85
   0  -2   2   25.83    0.45
   0  -2  -2   26.83    0.68
   0  -2  -2   26.17    0.57
   0  -2   2   25.49    0.70
   0  -2  -2   24.12    0.81
   0   2   2   27.11    0.64
   0   2  -2   25.88    0.62
   0  -2  -2   25.65    0.76
   0   2   2   25.48    0.78
   0  -2  -3  114.39    2.06
   0  -2   3  117.64    1.75
   0  -2   3  118.57    1.19
   0   2   3  118.28    1.51
   0   2  -3  117.40    1.48
   0   2   3  119.01    1.97
   0  -2  -3  118.97    1.34
   0  -2   3  116.29    1.01
   0  -2  -3  117.05    1.63
   0  -2  -3  119.69    1.80
   0  -2   3  117.23    1.46
   0  -2   4  287.48    2.63
   0  -2  -4  284.80    2.33
   0   2   4  283.84    2.70
   0   2  -4  284.59    2.68
   0  -2   5  143.99    1.95
   0  -2  -5  146.62    1.99
   0   2   5  144.51    2.02
   0  -2  -5  148.62    1.68
   0   2  -5  145.11    2.02
   0  -2   6   16.09    0.71
   0   2   6   16.41    0.74
   0   2  -6   15.98    0.72
   0  -2  -6   17.37    0.75
   0   2   7    2.27    0.32
   0   2  -7    1.99    0.30
   0  -2   7    1.91    0.30
   0  -2  -7    2.08    0.30
   0  -2   8    2.22    0.31
   0  -2  -8    1.88    0.31
   0   2  -8    2.18    0.33
   0   2   8    2.15    0.33
   0  -2  -8    2.49    0.31
   0   2  -9   24.64    1.10
   0   2   9   24.17    1.13
   0  -2  -9   27.24    1.02
   0   2   9   27.22    1.16
   0  -2   9   25.57    1.09
   0   2 -10   15.49    0.93
   0  -2  10   15.02    0.90
   0   2  10   16.36    0.96
   0   2 -11   14.71    0.91
   0  -2  11   17.02    0.79
   0   2  11   16.46    0.97
   0  -2 -11   15.73    0.78
   0   2  11   16.83    0.81
   0   2 -11   15.31    0.67
   0  -2  11   14.80    0.89
   0   2  12    3.53    0.38
   0   2 -12    3.15    0.32
   0   2 -12    3.70    0.32
   0  -2  12    3.50    0.37
   0   2 -13    6.60    0.42
   0  -2  13    7.45    0.49
   0   2 -13    7.31    0.40
   0   2  13    7.36    0.48
   0   2 -14    3.04    0.25
   0   2  14    2.72    0.26
   0  -2  14    3.07    0.29
   0   2 -14    3.25    0.24
   0  -2  15    1.33    0.11
   0   2  15    1.43    0.15
   0   2 -15    1.78    0.15
   0  -2  15    1.59    0.17
   0   3   0    0.08    0.09
   0   3   0   -0.02    0.08
   0  -3   0    0.06    0.11
   0   3   0    0.00    0.06
   0  -3   0    0.13    0.08
   0   3   0    0.07    0.10
   0  -3   0    0.01    0.08
   0  -3   0   -0.07    0.09
   0   3  -1   18.30    0.55
   0  -3  -1   17.96    0.74
   0  -3   1   18.39    0.62
   0   3   1   17.87    0.59
   0   3   1   18.52    0.68
   0   3  -1   18.01    0.60
   0   3  -1   18.99    0.68
   0  -3   1   19.15    0.68
   0   3   1   18.69    0.77
   0  -3  -1   18.24    0.64
   0  -3   1   17.96    0.53
   0   3   2    4.92    0.34
   0   3   2    5.05    0.40
   0  -3   2    5.11    0.34
   0   3  -2    4.65    0.28
   0  -3  -2    4.89    0.36
   0  -3  -2    5.30    0.45
   0  -3  -2    5.40    0.32
   0  -3   2    5.30    0.28
   0   3   3    0.20    0.13
   0  -3   3    0.31    0.13
   0   3  -3    0.00    0.11
   0  -3  -3    0.18    0.10
   0  -3   3    0.14    0.07
   0  -3  -3    0.02    0.12
   0  -3  -4   18.58    0.80
   0  -3  -4   19.14    0.65
   0  -3   4   19.50    0.73
   0   3   4   19.47    0.76
   0   3  -4   19.27    0.74
   0   3  -5   17.53    0.77
   0  -3   5   19.12    0.78
   0  -3  -5   18.33    0.66
   0   3   5   17.89    0.79
   0   3  -6    3.05    0.37
   0   3   6    3.45    0.38
   0  -3   6    2.94    0.35
   0  -3  -6    3.32    0.31
   0   3  -7    6.90    0.55
   0   3   7    7.23    0.59
   0  -3   7    6.22    0.50
   0  -3   8    9.74    0.69
   0   3  -8    9.19    0.68
   0  -3  -8    9.47    0.64
   0   3   8    9.07    0.71
   0   3  -9    3.78    0.49
   0  -3   9    4.23    0.50
   0  -3  -9    5.04    0.49
   0   3   9    4.83    0.56
   0  -3  10    6.23    0.60
   0  -3 -10    7.20    0.58
   0   3 -10    6.87    0.63
   0   3  10    7.10    0.65
   0  -3  11   17.68    0.80
   0  -3 -11   16.64    0.78
   0   3  11   18.55    0.83
   0  -3 -11   17.34    0.59
   0   3 -11   18.21    0.66
   0   3 -11   16.04    0.69
   0   3 -12    7.06    0.44
   0   3 -12    8.77    0.44
   0   3  12    8.46    0.53
   0  -3  12    7.74    0.52
   0   3 -13    4.61    0.29
   0  -3  13    4.16    0.29
   0  -3  13    4.81    0.37
   0   3 -13    4.35    0.33
   0   3  13    4.57    0.36
   0  -3  14    1.64    0.20
   0  -3  14    1.12    0.13
   0   3  14    1.19    0.16
   0   3 -14    1.63    0.15
   0   3 -14    1.43    0.17
   0  -4   0   73.53    1.52
   0  -4   0   73.48    1.31
   0   4   0   74.60    1.50
   0   4   0   77.76    1.44
   0   4   1   73.66    1.49
   0  -4   1   74.34    1.52
   0  -4   1   74.00    1.28
   0  -4  -1   74.60    1.56
   0  -4  -1   80.57    1.33
   0   4  -1   74.71    1.50
   0   4   1   72.52    1.45
   0  -4  -1   74.71    1.35
   0   4  -1   75.50    1.38
   0  -4  -2  123.15    1.80
   0  -4  -2  120.28    2.10
   0   4   2  123.98    2.00
   0   4  -2  129.07    1.78
   0   4   2  122.28    1.98
   0  -4   2  124.87    2.02
   0   4  -2  121.93    1.99
   0  -4   2  124.01    1.67
   0  -4   3   29.10    0.99
   0   4  -3   29.14    0.99
   0  -4  -3   29.48    0.89
   0  -4  -3   27.34    1.04
   0  -4   3   29.92    0.79
   0   4   3   28.30    0.98
   0   4   3   28.72    0.99
   0   4   4   10.79    0.66
   0  -4  -4   10.86    0.55
   0  -4  -4    9.19    0.67
   0   4  -4   10.02    0.63
   0  -4   4   11.02    0.64
   0   4   5    4.39    0.45
   0   4  -5    4.77    0.46
   0  -4  -5    4.30    0.37
   0  -4   5    4.48    0.43
   0   4  -6    3.05    0.39
   0  -4  -6    3.70    0.35
   0  -4   6    3.70    0.41
   0  -4  -6    3.30    0.39
   0   4   6    3.47    0.42
   0  -4  -7    0.38    0.19
   0   4  -7    0.36    0.20
   0   4   7    0.38    0.22
   0  -4   7    0.63    0.24
   0  -4  -8   15.60    0.88
   0   4   8   15.31    0.98
   0   4  -8   14.19    0.90
   0  -4   8   14.57    0.90
   0   4  -9    2.21    0.38
   0  -4   9    1.85    0.28
   0   4  -9    2.07    0.26
   0  -4  -9    2.02    0.22
   0   4   9    2.02    0.39
   0  -4  -9    2.20    0.36
   0   4 -10    0.65    0.17
   0   4 -10    0.68    0.17
   0  -4 -10    0.71    0.15
   0  -4  10    0.81    0.20
   0  -4 -10    0.86    0.23
   0  -4 -11    0.34    0.11
   0   4  11    0.51    0.18
   0  -4 -11    0.30    0.16
   0  -4 -11    0.49    0.14
   0  -4  11    0.42    0.18
   0   4 -11    0.49    0.17
   0  -4 -12    1.35    0.15
   0   4  12    1.54    0.23
   0  -4 -12    1.16    0.15
   0   4 -12    1.09    0.19
   0  -4  12    1.38    0.23
   0  -4  13    0.55    0.14
   0   4  13    0.38    0.10
   0  -4 -13    0.47    0.08
   0   4 -13    0.54    0.14
   0   4 -14    6.22    0.26
   0  -4  14    4.88    0.24
   0  -5   0   -0.03    0.14
   0   5   0   -0.12    0.15
   0  -5   0    0.05    0.13
   0   5   0   -0.02    0.11
   0  -5  -1    2.11    0.33
   0  -5  -1    2.45    0.29
   0  -5   1    2.05    0.32
   0   5  -1    2.14    0.29
   0   5   1    2.18    0.31
   0   5   1    2.36    0.33
   0   5  -1    1.89    0.30
   0  -5   1    2.42    0.28
   0  -5  -2   13.25    0.66
   0  -5   2   10.92    0.67
   0   5   2   12.58    0.73
   0   5   2   11.98    0.71
   0   5  -2   11.54    0.70
   0  -5  -2   12.05    0.75
   0  -5   2   12.43    0.59
   0  -5  -3    2.44    0.31
   0  -5  -3    2.79    0.39
   0   5   3    2.37    0.34
   0   5   3    2.30    0.34
   0   5  -3    2.19    0.34
   0  -5   3    2.63    0.27
   0  -5   3    2.97    0.37
   0  -5  -3    2.43    0.31
   0   5  -4    5.20    0.51
   0  -5   4    6.27    0.54
   0  -5  -4    4.64    0.52
   0  -5  -4    6.30    0.48
   0   5   4    5.59    0.54
   0   5   4    5.59    0.51
   0  -5  -4    5.90    0.49
   0   5   5    2.84    0.42
   0   5  -5    2.84    0.41
   0  -5   5    3.05    0.43
   0  -5  -5    2.81    0.35
   0   5   5    2.64    0.39
   0  -5  -5    2.97    0.40
   0   5   6   49.32    1.65
   0   5   6   50.06    1.73
   0  -5  -6   54.12    1.48
   0  -5  -6   52.96    1.62
   0   5  -6   52.19    1.70
   0   5  -7   36.85    1.46
   0   5   7   37.88    1.47
   0  -5  -7   39.80    1.44
   0   5   7   36.52    1.50
   0  -5  -8   81.93    1.73
   0   5  -8   89.06    2.31
   0   5   8   86.58    2.24
   0  -5  -8   89.81    1.46
   0  -5  -8   88.70    2.18
   0  -5   8   89.99    1.83
   0   5   8   86.33    2.36
   0   5  -8   89.09    1.84
   0  -5   9    1.19    0.24
   0   5  -9    1.22    0.25
   0  -5  -9    1.21    0.19
   0  -5  -9    1.05    0.23
   0  -5 -10    0.76    0.16
   0  -5 -10    0.61    0.21
   0  -5  10    0.77    0.20
   0  -5 -10    0.78    0.15
   0   5 -10    0.79    0.19
   0   5 -10    0.95    0.17
   0   5 -11    5.21    0.36
   0   5 -11    5.13    0.32
   0  -5 -11    4.40    0.37
   0  -5 -11    5.31    0.31
   0   5  11    4.71    0.34
   0  -5 -11    5.19    0.30
   0  -5  11    5.48    0.38
   0  -5 -12    0.29    0.08
   0   5  12    0.26    0.10
   0  -5 -12    0.29    0.09
   0  -5  12    0.33    0.12
   0   5 -12    0.17    0.09
   0  -5  13   -0.04    0.07
   0  -5 -13    0.08    0.04
   0   5 -13    0.11    0.06
   0  -6   0    0.27    0.18
   0   6   0    0.58    0.20
   0  -6   0    0.31    0.16
   0   6   1   55.92    1.66
   0  -6   1   53.34    1.40
   0  -6   1   58.54    1.78
   0   6   1   56.57    1.70
   0  -6  -1   55.98    1.78
   0   6  -1   55.40    1.69
   0  -6  -1   53.79    1.45
   0   6   2   31.98    1.30
   0  -6  -2   32.66    1.15
   0  -6   2   32.66    1.07
   0   6   2   32.11    1.28
   0   6  -2   33.42    1.32
   0  -6  -2   32.55    1.37
   0  -6   2   35.46    1.38
   0   6   3   67.49    1.90
   0   6   3   64.73    1.90
   0  -6  -3   66.36    2.02
   0  -6  -3   70.17    1.72
   0   6  -3   70.45    1.96
   0   6  -4   26.29    1.22
   0   6   4   25.35    1.22
   0  -6  -4   26.38    1.06
   0  -6  -4   25.72    1.27
   0   6   4   26.62    1.20
   0  -6  -5    1.50    0.27
   0   6  -5    1.54    0.32
   0  -6   5    1.17    0.23
   0  -6  -5    1.18    0.26
   0   6   5    1.01    0.26
   0   6   5    1.12    0.33
   0  -6  -5    1.13    0.16
   0   6   5    1.37    0.25
   0   6  -5    1.28    0.27
   0  -6  -6    1.70    0.20
   0   6   6    1.50    0.36
   0   6   6    1.78    0.27
   0   6  -6    1.71    0.28
   0  -6   6    1.56    0.25
   0   6   6    1.93    0.35
   0  -6  -6    1.51    0.29
   0   6  -6    2.07    0.37
   0  -6   6    1.44    0.24
   0   6  -7   12.30    0.68
   0  -6  -7   12.98    0.53
   0  -6   7   12.17    0.65
   0  -6   7   12.03    0.60
   0   6   7   13.25    0.66
   0   6   8    1.07    0.20
   0  -6   8    0.94    0.21
   0  -6  -8    0.92    0.21
   0  -6  -8    0.99    0.15
   0   6  -8    0.64    0.19
   0  -6   8    0.96    0.18
   0  -6  -9    2.22    0.26
   0   6  -9    2.90    0.33
   0  -6  -9    2.74    0.24
   0  -6   9    2.75    0.29
   0  -6  -9    2.53    0.25
   0  -6  10    1.52    0.21
   0  -6 -10    1.32    0.17
   0  -6 -10    1.44    0.19
   0  -6 -10    1.21    0.16
   0   6 -10    1.42    0.22
   0  -6 -11    1.39    0.14
   0   6 -11    1.54    0.17
   0  -6 -11    1.32    0.13
   0  -6  11    0.98    0.14
   0  -6 -12    6.94    0.21
   0  -7   0   -0.17    0.15
   0  -7   0    0.03    0.11
   0  -7   1    6.01    0.45
   0  -7  -1    6.61    0.44
   0  -7   2   16.25    0.73
   0   7  -2   16.17    0.74
   0   7   2   15.66    0.73
   0  -7   3   57.46    1.39
   0   7  -3   57.33    1.42
   0   7   3   56.76    1.39
   0  -7   4    7.83    0.50
   0   7  -4    7.40    0.53
   0   7   4    7.31    0.50
   0   7  -5    2.59    0.33
   0  -7   5    2.50    0.29
   0   7   5    3.12    0.34
   0   7  -6    6.29    0.48
   0  -7   6    6.45    0.43
   0  -7  -6    6.79    0.33
   0   7   6    6.93    0.46
   0  -7  -6    6.61    0.36
   0  -7   7    3.98    0.31
   0  -7  -7    3.64    0.24
   0  -7  -7    3.61    0.26
   0   7   7    4.11    0.34
   0   7  -7    3.52    0.36
   0  -7   8    9.27    0.40
   0  -7  -8    9.22    0.38
   0  -7  -8    9.26    0.36
   0   7   8   10.02    0.46
   0   7  -8    9.63    0.52
   0  -7  -9    2.49    0.19
   0   7  -9    2.32    0.24
   0  -7  -9    1.99    0.16
   0  -7 -10    0.42    0.08
   0   7 -10    0.31    0.09
   0  -7 -10    0.35    0.07
   0   8   0    9.08    0.51
   0  -8   0    8.86    0.47
   0  -8   1    6.10    0.40
   0   8  -1    6.43    0.43
   0   8   1    6.26    0.44
   0  -8  -1    6.69    0.39
   0   8  -2    1.74    0.24
   0  -8   2    1.78    0.24
   0   8   2    1.83    0.26
   0  -8   3    5.33    0.38
   0   8  -3    5.23    0.37
   0   8   3    5.19    0.39
   0  -8   4    3.18    0.29
   0   8  -4    3.15    0.30
   0   8   4    2.92    0.29
   0   8   5    1.07    0.20
   0   8  -5    0.87    0.18
   0  -8   5    0.99    0.18
   0  -8   6    2.54    0.22
   0   8   6    2.58    0.24
   0   8  -6    2.86    0.25
   0   8  -7    3.08    0.23
   0  -8   7    2.34    0.18
   0   8   7    2.84    0.21
   0   8  -8    1.06    0.13
   0   9   0    0.00    0.08
   0   9   1    0.08    0.09
   0  -9   1    0.22    0.08
   0   9  -1   -0.01    0.09
   0  -9   2    0.30    0.08
   0   9   2    0.06    0.09
   0   9  -2    0.22    0.08
   0   9   3    0.71    0.12
   0   9  -3    0.86    0.11
   0  -9   3    0.64    0.10
   0   9   4    0.75    0.10
   0  -9   4    0.97    0.10
  -1   0  15    0.01    0.09
   1   0 -15    0.09    0.08
  -1   0  14    0.27    0.14
   1   0 -14    0.36    0.13
  -1   0  13    1.59    0.27
   1   0 -13    1.64    0.22
   1   0 -12   -0.06    0.11
  -1   0  12    0.33    0.18
   1   0 -11    2.69    0.39
  -1   0  11    2.72    0.40
   1   0 -10   13.53    0.81
   1   0 -10   13.80    0.80
  -1   0  10   13.58    0.87
   1   0  -9    2.60    0.37
  -1   0   9    2.78    0.39
   1   0  -9    2.54    0.35
  -1   0   8    5.08    0.48
   1   0  -8    4.91    0.46
   1   0  -8    4.23    0.42
   1   0  -7   23.06    0.87
  -1   0   7   21.88    0.89
   1   0  -7   22.21    0.83
   1   0  -6  373.71    3.46
   1   0  -6  376.87    3.33
  -1   0   6  376.52    3.52
  -1   0   5  323.33    2.95
   1   0  -5  320.27    2.68
   1   0  -5  325.25    2.80
   1   0  -5  324.99    2.95
   1   0  -5  321.05    2.73
   1   0  -4  288.99    2.41
  -1   0   4  295.26    2.89
   1   0  -4  288.09    2.41
   1   0  -4  288.98    2.52
  -1   0   4  296.31    2.52
  -1   0   3    1.99    0.25
  -1   0   3    2.25    0.24
   1   0  -3    2.28    0.19
   1   0  -3    2.01    0.19
  -1   0   3    1.69    0.24
  -1   0   2   36.01    0.87
   1   0  -2   35.45    0.93
  -1   0   2   35.36    0.93
  -1   0   2   34.86    0.91
  -1   0   1   92.86    1.44
  -1   0   1   91.88    1.43
   1   0  -1   94.25    1.44
   1   0  -1   91.60    1.44
   1   0   0    3.46    0.30
  -1   0   0    3.69    0.28
   1   0   0    3.36    0.27
   1   0   1  584.47    4.05
   1   0   1  582.29    4.48
  -1   0  -1  579.96    4.07
   1   0   2    1.81    0.23
  -1   0  -2    2.03    0.20
   1   0   2    1.97    0.22
   1   0   2    1.86    0.17
  -1   0  -2    1.49    0.21
  -1   0  -3   83.39    1.54
   1   0   3   81.56    1.53
  -1   0  -3   81.99    1.27
   1   0   3   83.03    1.12
   1   0   4   83.41    1.54
  -1   0  -4   79.12    1.33
  -1   0  -4   84.37    1.30
   1   0   4   81.29    1.67
  -1   0  -4   81.49    1.72
  -1   0  -5   32.62    0.90
   1   0   5   31.80    0.80
  -1   0  -5   31.26    0.87
   1   0   5   32.11    1.02
  -1   0  -6  119.16    1.93
   1   0   6  117.68    2.14
  -1   0  -6  118.66    1.81
   1   0   7    7.54    0.58
  -1   0  -7    7.72    0.55
  -1   0  -8   22.84    1.02
   1   0   8   29.03    1.19
   1   0   9   43.53    1.52
  -1   0  -9   36.86    1.38
  -1   0 -10   88.31    2.16
   1   0  11   29.43    1.00
  -1   0 -11   28.03    1.22
  -1   0 -11   30.65    0.90
  -1   0 -12   11.64    0.53
   1   0  12   10.08    0.56
   1   0  13   -0.18    0.13
  -1   0 -13    0.03    0.08
  -1   0 -13    0.08    0.09
  -1   0 -14    1.00    0.14
   1   0  14    0.92    0.14
  -1  -1  15    4.96    0.27
  -1   1  15    5.68    0.31
  -1  -1  15    5.33    0.28
   1  -1 -15    4.96    0.24
   1   1 -15    5.54    0.27
   1   1 -14    4.97    0.31
  -1  -1  14    5.75    0.36
  -1   1  14    6.28    0.41
   1  -1 -14    5.27    0.32
   1   1 -14    5.33    0.33
   1   1 -13    1.89    0.24
  -1  -1  13    1.61    0.26
  -1   1  13    1.80    0.27
   1  -1 -13    1.71    0.22
   1   1 -13    1.68    0.23
  -1   1  12    3.08    0.38
  -1  -1  12    3.23    0.36
   1   1 -12    2.97    0.29
   1   1 -12    3.06    0.31
   1  -1 -12    3.04    0.30
   1   1 -11    0.69    0.19
   1   1 -11    0.51    0.21
  -1   1  11    0.86    0.28
   1  -1 -11    0.71    0.16
  -1  -1  11    0.97    0.28
  -1  -1  11    0.79    0.19
   1   1 -11    0.74    0.17
  -1   1  11    0.51    0.21
   1   1 -10    3.33    0.43
  -1  -1  10    3.95    0.50
  -1   1  10    3.96    0.47
   1   1 -10    2.86    0.38
   1  -1 -10    3.45    0.42
   1  -1  -9    4.57    0.46
  -1  -1   9    4.75    0.51
  -1   1   9    4.55    0.49
   1   1  -9    3.85    0.42
   1   1  -9    4.79    0.48
  -1   1   8    0.53    0.20
   1   1  -8    0.64    0.21
   1   1  -8    0.33    0.15
   1  -1  -8    0.38    0.15
   1  -1  -8    0.12    0.11
  -1  -1   8    0.50    0.22
   1   1  -7    0.61    0.20
   1  -1  -7    0.83    0.19
   1   1  -7    1.06    0.21
  -1   1   7    0.70    0.19
   1  -1  -7    0.83    0.19
  -1  -1   7    0.97    0.22
   1  -1  -7    0.92    0.20
   1   1  -6    7.58    0.49
   1   1  -6    7.96    0.45
  -1  -1   6    8.13    0.51
   1  -1  -6    7.31    0.43
  -1   1   6    7.85    0.50
   1  -1  -6    7.83    0.45
   1  -1  -6    7.39    0.44
   1  -1  -5    4.58    0.30
   1  -1  -5    4.37    0.30
  -1   1   5    4.23    0.33
   1  -1  -5    4.00    0.32
   1   1  -5    4.84    0.32
   1  -1  -5    4.08    0.32
   1   1  -5    4.41    0.36
  -1  -1   5    4.42    0.36
   1   1  -4   41.64    0.94
  -1  -1   4   43.18    1.00
   1  -1  -4   39.96    0.89
  -1   1   4   43.36    0.89
   1  -1  -4   40.26    0.77
   1  -1  -4   41.22    0.88
   1  -1  -4   39.67    0.82
  -1  -1   4   41.39    0.93
   1   1  -3   55.28    0.99
  -1  -1   3   54.49    0.98
  -1  -1   3   53.12    1.28
  -1   1   3   56.79    1.33
   1   1  -3   58.47    1.33
   1  -1  -3   54.90    0.95
  -1  -1   3   56.40    0.99
  -1   1   3   58.64    1.27
   1  -1  -3   58.29    1.01
   1  -1  -3   55.49    1.23
  -1  -1   3   54.50    1.11
  -1   1   3   58.46    1.50
   1  -1  -3   53.32    0.89
   1   1  -2    8.85    0.36
  -1   1   2    8.03    0.44
   1   1  -2    8.83    0.49
  -1  -1   2    8.88    0.49
   1  -1  -2    8.94    0.35
  -1   1   2    9.28    0.47
   1  -1  -2    8.69    0.46
  -1  -1   2    8.21    0.32
   1  -1  -2    8.72    0.37
  -1   1   2    8.36    0.53
   1   1  -1  888.31    5.70
  -1   1   1  858.45    5.20
  -1   1   1  873.82    5.38
  -1  -1   1  863.65    5.69
  -1   1   1  898.38    6.14
   1  -1  -1  900.33    5.36
  -1  -1   0  635.05    4.59
  -1   1   0  627.53    3.91
   1  -1   0  615.49    3.92
  -1   1   0  608.92    4.09
   1  -1   0  637.67    4.96
   1   1   0  635.23    4.56
  -1   1   0  631.66    4.91
  -1  -1  -1  994.73    6.24
   1  -1   1  992.89    6.76
   1  -1   1  955.59    5.20
  -1   1  -1 1000.00    5.28
  -1  -1  -1  990.67    5.21
   1  -1   1  969.21    5.54
   1  -1   1  982.89    5.14
   1   1   1  986.82    6.23
  -1   1  -2  120.49    1.45
  -1  -1  -2  118.17    1.48
   1   1   2  119.90    1.94
   1  -1   2  118.72    1.43
   1   1   2  120.08    1.63
   1  -1   2  120.45    1.66
   1  -1   2  122.85    2.23
  -1   1  -2  115.38    1.39
   1  -1   2  121.95    1.47
  -1  -1  -2  120.97    1.96
   1  -1   2  121.55    1.34
  -1   1  -3   85.88    1.33
  -1  -1  -3   81.72    1.29
  -1   1  -3   84.55    1.10
  -1  -1  -3   83.24    1.28
  -1   1  -3   86.42    1.23
   1   1   3   82.02    1.46
  -1  -1  -3   82.94    1.19
   1  -1   3   83.06    1.17
   1  -1   3   85.52    1.31
   1  -1   3   83.86    1.48
   1   1   3   84.15    1.07
   1   1   4  127.22    1.99
   1  -1   4  129.89    1.98
  -1  -1  -4  129.25    1.75
  -1  -1  -4  132.05    1.68
  -1   1  -4  132.26    1.74
   1  -1   5  133.87    2.14
   1   1   5  130.67    2.18
  -1   1  -5  129.40    1.84
  -1  -1  -5  130.61    1.87
  -1  -1  -5  131.26    1.89
  -1   1  -5  134.72    1.92
  -1   1  -6   17.58    0.74
  -1  -1  -6   18.32    0.76
   1  -1   6   18.72    0.85
   1   1   6   18.96    0.89
  -1  -1  -6   17.98    0.72
  -1   1  -6   19.35    0.72
  -1   1  -7    5.71    0.48
   1   1   7    5.02    0.50
  -1  -1  -7    5.69    0.48
  -1  -1  -7    5.74    0.43
   1  -1   7    5.89    0.53
   1   1   8    1.58    0.27
  -1   1  -8    1.34    0.29
   1  -1   8    1.56    0.29
   1   1   8    0.99    0.29
  -1  -1  -8    1.29    0.30
   1   1   9    8.07    0.71
  -1  -1  -9    7.34    0.64
  -1   1  -9    6.83    0.61
   1   1  10   50.56    1.73
  -1  -1 -10   48.26    1.60
  -1   1 -10   50.09    1.63
  -1   1 -11   17.34    0.70
   1  -1  11   17.46    0.78
  -1  -1 -11   17.01    0.78
  -1   1 -12    0.94    0.20
   1   1  12    0.80    0.17
   1  -1  12    0.66    0.20
  -1   1 -13    2.13    0.23
   1   1  13    1.83    0.22
  -1  -1 -13    2.12    0.20
   1  -1  13    1.60    0.22
  -1   1 -14    1.99    0.18
  -1  -1 -14    1.77    0.15
  -1   1 -14    1.95    0.18
  -1   1 -15    6.22    0.21
  -1  -2  15    1.67    0.15
   1   2 -15    1.67    0.14
   1   2 -15    1.70    0.13
  -1   2  15    1.68    0.16
  -1  -2  14    1.08    0.17
  -1   2  14    1.09    0.20
  -1  -2  14    0.90    0.17
   1  -2 -14    0.95    0.12
   1   2 -14    0.97    0.14
   1   2 -14    1.10    0.17
   1   2 -13    0.38    0.12
   1   2 -13    0.32    0.15
   1  -2 -13    0.08    0.09
  -1  -2  13    0.03    0.12
   1   2 -12    4.57    0.38
  -1  -2  12    5.48    0.43
   1   2 -12    4.79    0.37
  -1   2  12    6.08    0.50
   1  -2 -12    5.06    0.37
   1   2 -11   61.27    1.79
   1   2 -11   56.21    1.32
  -1  -2  11   56.38    1.84
  -1   2  11   57.65    1.78
  -1  -2  11   57.47    1.40
   1  -2 -11   55.44    1.23
   1   2 -11   57.26    1.23
   1   2 -10   46.91    1.56
   1   2 -10   42.81    1.43
  -1  -2  10   45.80    1.63
  -1   2  10   44.65    1.55
  -1   2   9   88.71    2.11
   1   2  -9   88.88    2.09
  -1  -2   9   88.43    2.19
   1  -2  -9   94.24    1.97
   1   2  -9   86.76    1.99
   1   2  -8   36.22    1.27
   1  -2  -8   38.08    1.21
  -1   2   8   37.33    1.27
   1   2  -8   34.44    1.19
  -1  -2   8   35.46    1.31
   1  -2  -7    0.25    0.15
  -1   2   7    0.20    0.13
   1   2  -7    0.12    0.15
  -1  -2   7    0.13    0.16
   1   2  -7    0.22    0.14
   1   2  -6   19.39    0.81
   1   2  -6   20.68    0.80
   1  -2  -6   18.93    0.77
  -1  -2   6   18.91    0.84
  -1   2   6   20.95    0.77
   1   2  -5   16.22    0.63
   1   2  -5   13.70    0.63
   1  -2  -5   13.80    0.63
  -1  -2   5   13.70    0.66
  -1   2   5   14.32    0.60
   1  -2  -5   13.59    0.59
   1   2  -4    2.49    0.26
   1   2  -4    3.02    0.26
   1  -2  -4    2.39    0.24
   1  -2  -4    2.26    0.25
  -1  -2   4    2.29    0.27
  -1   2   4    2.71    0.25
   1   2  -3    5.01    0.32
   1   2  -3    4.99    0.29
   1  -2  -3    4.97    0.32
   1  -2  -3    5.14    0.34
  -1  -2   3    5.38    0.36
  -1   2   3    4.96    0.31
   1  -2  -3    4.89    0.26
  -1  -2   2   15.89    0.72
   1   2  -2   17.03    0.72
   1   2  -2   16.69    0.52
  -1   2   2   16.94    0.67
  -1  -2   2   17.04    0.59
   1  -2  -2   16.50    0.53
  -1   2   2   16.54    0.48
   1  -2  -2   16.52    0.47
   1  -2  -2   16.67    0.55
   1  -2  -1   29.55    0.64
   1  -2  -1   31.51    0.91
  -1  -2   1   29.76    0.97
   1   2  -1   30.62    0.97
  -1   2   1   29.81    0.76
  -1   2   1   30.27    0.91
  -1  -2   1   28.29    0.74
   1  -2  -1   29.50    0.70
   1  -2  -1   29.44    0.71
  -1  -2   1   29.53    0.62
  -1  -2   0   14.53    0.68
   1   2   0   14.33    0.67
  -1   2   0   14.19    0.44
   1   2   0   11.87    0.37
   1  -2   0   14.14    0.58
  -1   2   0   14.10    0.58
   1  -2   0   14.59    0.78
  -1  -2   0   14.42    0.52
   1  -2   0   14.51    0.48
   1  -2   0   14.88    0.50
   1  -2   0   13.87    0.44
  -1  -2   0   14.22    0.47
  -1   2  -1    0.68    0.14
   1  -2   1    0.72    0.13
   1  -2   1    0.73    0.11
  -1   2  -1    0.74    0.11
  -1  -2  -1    0.60    0.13
   1  -2   1    0.81    0.13
  -1  -2  -1    0.89    0.17
   1   2   1    0.81    0.16
   1  -2   1    0.76    0.14
  -1   2  -2   26.42    0.67
  -1   2  -2   26.74    0.68
  -1  -2  -2   26.37    0.79
   1  -2   2   26.09    0.71
   1  -2   2   26.92    0.64
   1   2   2   26.78    0.81
  -1  -2  -3   12.12    0.58
  -1   2  -3   12.16    0.51
   1  -2   3   12.18    0.59
   1  -2   3   11.58    0.51
   1   2   3   12.11    0.60
  -1  -2  -3   11.62    0.52
  -1   2  -4   93.77    1.57
  -1  -2  -4   96.52    1.73
   1  -2   4   95.83    1.78
   1   2   4   93.09    1.79
  -1  -2  -4   91.58    1.55
   1  -2   5   47.60    1.32
   1   2   5   45.81    1.34
  -1   2  -5   47.26    1.20
  -1  -2  -5   45.62    1.16
  -1   2  -6  119.21    1.92
  -1   2  -6  118.01    2.12
   1  -2   6  123.64    2.27
   1   2   6  118.73    2.33
  -1  -2  -6  119.45    1.98
  -1   2  -7   36.03    1.25
   1  -2   7   39.00    1.31
   1   2   7   38.61    1.41
  -1  -2  -7   38.49    1.14
  -1   2  -8    5.53    0.54
   1   2   8    6.08    0.62
   1   2   9    2.94    0.47
   1   2   9    2.87    0.41
  -1   2  -9    2.55    0.38
   1  -2  10    1.74    0.28
  -1   2 -10    2.23    0.26
  -1  -2 -10    2.25    0.31
   1   2  10    1.98    0.33
   1   2  10    2.20    0.29
   1   2  10    1.55    0.33
  -1   2 -10    1.88    0.34
  -1   2 -11    1.45    0.24
  -1  -2 -11    1.04    0.24
   1  -2  11    0.82    0.21
   1   2  11    0.77    0.18
  -1   2 -12    1.68    0.24
   1  -2  12    1.61    0.25
  -1   2 -13    0.00    0.12
   1  -2  13   -0.05    0.11
  -1   2 -13    0.27    0.12
  -1   2 -14    3.28    0.22
   1  -2  14    2.83    0.22
  -1   2 -14    3.51    0.21
   1   3 -14    0.99    0.11
   1   3 -14    0.81    0.14
  -1  -3  14    0.84    0.14
  -1   3  14    1.03    0.16
   1   3 -13    5.41    0.30
  -1   3  13    6.03    0.43
   1   3 -13    5.16    0.36
  -1  -3  13    5.78    0.37
   1   3 -12    0.28    0.15
  -1   3  12    0.44    0.21
  -1  -3  12    0.33    0.15
   1   3 -12    0.22    0.12
   1   3 -11    5.86    0.43
   1  -3 -11    6.97    0.39
  -1  -3  10   14.68    0.94
   1   3 -10   15.23    0.90
   1  -3 -10   15.34    0.60
  -1   3  10   14.93    0.89
   1  -3 -10   14.65    0.85
   1   3 -10   15.03    0.69
   1   3  -9    2.08    0.35
  -1   3   9    1.81    0.32
  -1  -3   9    1.90    0.36
   1   3  -9    1.76    0.31
   1  -3  -9    1.94    0.31
   1   3  -8    7.95    0.61
   1   3  -8    7.25    0.57
  -1   3   8    8.22    0.62
   1  -3  -8    8.11    0.62
  -1  -3   8    7.79    0.66
   1  -3  -7    1.15    0.25
  -1  -3   7    1.06    0.26
   1   3  -7    1.19    0.26
   1   3  -7    1.34    0.27
  -1   3   7    1.11    0.23
   1   3  -6   13.40    0.71
   1   3  -6   14.23    0.73
   1  -3  -6   13.68    0.73
  -1  -3   6   12.35    0.75
  -1   3   6   15.30    0.75
  -1  -3   5   62.35    1.56
   1   3  -5   63.32    1.41
   1   3  -5   60.77    1.38
  -1   3   5   62.55    1.42
   1  -3  -5   62.71    1.33
   1  -3  -5   59.67    1.47
   1  -3  -4  117.63    1.59
   1   3  -4  114.30    1.76
   1   3  -4  117.47    1.80
   1  -3  -4  115.45    1.74
  -1  -3   4  114.49    2.01
   1  -3  -4  115.12    1.92
  -1   3   4  114.27    1.85
   1   3  -3  223.58    2.41
   1   3  -3  225.73    2.31
  -1  -3   3  222.86    2.72
  -1   3   3  221.15    2.54
   1  -3  -3  219.14    2.56
  -1   3   3  228.10    2.42
   1  -3  -3  221.14    2.35
   1  -3  -3  222.74    2.25
  -1   3   2   70.08    1.24
   1  -3  -2   68.07    1.19
   1  -3  -2   65.14    1.26
   1   3  -2   69.11    1.22
  -1   3   2   68.32    1.32
  -1  -3   2   70.93    1.07
  -1  -3   2   69.04    1.42
   1  -3  -2   67.18    1.17
   1  -3  -1   74.69    1.22
  -1  -3   1   74.03    1.43
   1  -3  -1   73.05    1.26
   1  -3  -1   73.92    1.22
  -1  -3   1   72.94    1.16
  -1   3   1   75.97    1.27
   1   3  -1   74.95    1.25
  -1   3   0   81.78    1.32
  -1  -3   0   82.44    1.51
   1   3   0   80.78    1.36
   1  -3   0   83.57    1.31
  -1  -3   0   81.79    1.29
   1  -3   0   81.43    1.28
   1   3   0   79.74    1.31
   1  -3   0   82.23    1.28
   1  -3   1    5.29    0.33
  -1  -3  -1    5.00    0.39
   1  -3   1    5.30    0.34
  -1  -3  -1    5.42    0.35
   1   3   1    4.98    0.35
   1   3   1    5.18    0.38
  -1   3  -1    5.69    0.35
   1  -3   2    5.50    0.34
  -1   3  -2    5.13    0.36
   1  -3   2    5.59    0.36
  -1  -3  -2    5.23    0.42
   1   3   2    5.16    0.37
   1   3   2    5.41    0.43
  -1  -3  -2    5.16    0.37
  -1   3  -3   15.17    0.64
  -1  -3  -3   14.66    0.72
  -1  -3  -3   15.10    0.66
   1  -3   3   15.31    0.63
   1   3   3   14.09    0.72
  -1   3  -4    3.95    0.36
  -1  -3  -4    3.83    0.41
   1  -3   4    4.03    0.36
   1   3   4    3.29    0.41
  -1  -3  -4    3.82    0.37
  -1   3  -5    3.21    0.36
  -1  -3  -5    3.04    0.40
   1   3   5    2.58    0.38
   1  -3   5    2.95    0.33
  -1  -3  -5    3.17    0.35
  -1  -3  -6    1.89    0.30
   1  -3   6    2.15    0.30
   1   3   6    2.01    0.37
  -1   3  -6    1.57    0.29
  -1  -3  -7    0.83    0.21
   1  -3   7    1.09    0.25
   1   3   7    0.57    0.25
  -1   3  -7    0.31    0.17
  -1   3  -8    1.27    0.29
   1  -3   8    1.05    0.24
   1   3   8    1.16    0.35
   1  -3   9    1.31    0.30
  -1   3  -9    1.60    0.31
   1   3   9    1.48    0.37
   1   3  10    0.87    0.21
  -1  -3 -10    1.58    0.28
  -1   3 -10    1.43    0.24
   1  -3  10    1.03    0.24
   1   3  11    0.24    0.15
  -1   3 -11    0.00    0.14
  -1  -3 -11    0.08    0.18
  -1  -3 -11    0.02    0.07
   1  -3  11    0.28    0.16
   1  -3  12    1.32    0.23
  -1   3 -12    1.02    0.19
  -1  -3 -12    1.09    0.14
  -1  -3 -12    1.13    0.22
   1  -3  13    5.41    0.34
  -1   3 -13    5.89    0.33
  -1  -3 -13    5.23    0.22
  -1   3 -13    6.33    0.30
  -1   3 -14    4.50    0.22
  -1   3 -14    4.42    0.18
  -1   4  14    3.23    0.20
  -1  -4  14    2.97    0.17
   1   4 -13    5.94    0.33
   1   4 -13    5.92    0.27
  -1   4  13    6.85    0.38
  -1  -4  13    5.34    0.31
   1  -4 -13    6.38    0.25
   1   4 -12    4.15    0.33
  -1  -4  12    4.03    0.32
  -1   4  12    4.58    0.39
   1  -4 -12    3.97    0.26
   1  -4 -12    4.33    0.25
   1   4 -11    4.25    0.35
  -1  -4  11    3.99    0.35
   1  -4 -11    4.57    0.29
   1  -4 -11    4.22    0.30
   1   4 -10    2.50    0.30
  -1  -4  10    1.93    0.27
   1  -4 -10    2.25    0.24
   1  -4 -10    2.16    0.23
   1   4  -9    0.88    0.22
   1   4  -9    1.08    0.21
  -1   4   9    1.35    0.29
   1  -4  -9    1.39    0.31
  -1  -4   9    0.96    0.21
  -1  -4   9    1.08    0.29
   1  -4  -9    1.16    0.17
   1  -4  -9    1.03    0.16
   1   4  -8   80.27    2.01
  -1  -4   8   82.76    2.22
  -1   4   8   83.85    2.04
   1  -4  -8   83.20    2.08
   1   4  -8   83.99    1.97
  -1   4   8   87.29    2.16
   1   4  -7   80.15    1.85
   1   4  -7   80.12    1.94
   1  -4  -7   81.25    2.02
  -1   4   7   83.38    2.06
  -1  -4   7   79.00    2.11
  -1   4   6   51.99    1.51
   1  -4  -6   49.87    1.53
   1   4  -6   52.37    1.50
  -1   4   6   54.64    1.60
  -1  -4   6   52.85    1.66
   1   4  -5   14.77    0.76
   1  -4  -5   14.74    0.80
  -1   4   5   15.03    0.75
  -1   4   5   15.06    0.81
  -1  -4   5   14.21    0.83
   1  -4  -5   15.28    0.65
  -1  -4   4    4.77    0.48
   1   4  -4    5.00    0.43
   1  -4  -4    4.28    0.41
  -1   4   4    4.51    0.41
  -1   4   4    4.64    0.42
   1  -4  -4    5.19    0.39
  -1   4   3    2.65    0.33
   1   4  -3    2.65    0.30
   1  -4  -3    2.48    0.30
  -1   4   3    2.64    0.30
  -1  -4   3    2.31    0.36
   1  -4  -3    2.38    0.26
  -1  -4   2   10.58    0.65
   1  -4  -2   10.34    0.56
  -1   4   2   10.43    0.59
  -1   4   2   11.13    0.57
  -1  -4   2   11.14    0.49
   1   4  -2   10.50    0.57
   1  -4  -2   10.96    0.54
   1  -4  -1   28.98    0.88
  -1  -4   1   28.68    1.04
  -1  -4   1   28.82    0.82
  -1   4   1   28.50    0.96
   1  -4  -1   28.61    0.89
  -1   4   1   30.22    0.93
   1   4  -1   27.41    0.92
   1   4   0   16.21    0.70
  -1   4   0   17.18    0.70
  -1  -4   0   15.77    0.78
   1  -4   0   16.11    0.66
  -1   4   0   16.41    0.73
  -1  -4   0   16.57    0.66
  -1  -4  -1    4.48    0.36
  -1  -4  -1    4.43    0.43
   1  -4   1    4.33    0.35
   1   4   1    4.23    0.38
   1   4   1    3.90    0.39
  -1   4  -1    4.70    0.38
   1  -4   2   15.63    0.64
  -1   4  -2   15.59    0.71
  -1  -4  -2   14.49    0.79
   1   4   2   14.08    0.70
   1   4   2   14.65    0.76
  -1  -4  -2   14.75    0.67
  -1   4  -3    3.45    0.37
   1   4   3    3.13    0.36
  -1  -4  -3    3.10    0.34
   1   4   3    3.32    0.40
  -1  -4  -3    2.85    0.40
  -1   4  -4    7.99    0.58
   1   4   4    7.11    0.56
  -1  -4  -4    8.14    0.65
   1   4   4    7.46    0.63
  -1  -4  -4    7.84    0.55
  -1  -4  -5    0.39    0.19
  -1   4  -5    0.13    0.14
  -1  -4  -5    0.02    0.16
   1   4   5    0.12    0.20
  -1  -4  -6    0.15    0.13
  -1   4  -6    0.06    0.14
   1   4   6   -0.28    0.23
  -1   4  -7    3.42    0.45
   1   4   7    3.38    0.52
  -1  -4  -7    3.56    0.42
  -1   4  -8    1.90    0.34
   1   4   8    1.87    0.40
  -1   4  -9    1.67    0.23
   1  -4   9    1.12    0.22
  -1  -4  -9    1.39    0.27
   1   4   9    1.21    0.24
  -1  -4 -10    3.99    0.41
  -1   4 -10    4.52    0.35
   1  -4  10    4.66    0.43
  -1   4 -10    4.43    0.43
  -1  -4 -10    4.26    0.31
   1   4  10    4.31    0.40
  -1   4 -11    5.36    0.36
  -1  -4 -11    5.28    0.42
  -1   4 -11    6.13    0.44
   1  -4  11    4.79    0.38
  -1  -4 -11    5.29    0.32
   1   4  11    5.39    0.39
  -1   4 -12    3.83    0.27
  -1  -4 -12    3.66    0.31
  -1   4 -12    3.65    0.28
   1  -4  12    3.28    0.29
   1   4  12    3.39    0.26
  -1  -4 -12    3.58    0.22
  -1   4 -13    0.84    0.11
   1  -4  13    0.52    0.12
  -1  -4 -13    0.64    0.07
   1   5 -13   13.75    0.32
  -1   5  13   13.29    0.39
   1  -5 -12    7.48    0.30
   1   5 -12    7.59    0.35
  -1  -5  12    6.44    0.32
   1  -5 -12    7.25    0.28
  -1   5  12    7.86    0.40
   1   5 -11    2.98    0.27
   1  -5 -11    2.96    0.24
   1  -5 -11    2.63    0.21
  -1  -5  11    2.55    0.24
   1   5 -10    0.09    0.12
  -1  -5  10    0.09    0.11
   1  -5 -10    0.17    0.11
   1  -5 -10    0.23    0.09
   1   5  -9    2.04    0.28
   1   5  -9    1.78    0.24
   1  -5  -9    2.23    0.25
   1  -5  -9    2.05    0.22
  -1  -5   9    1.92    0.27
  -1  -5   8    6.68    0.47
   1   5  -8    7.08    0.51
   1  -5  -8    7.14    0.44
   1  -5  -8    7.09    0.42
   1   5  -7   10.47    0.74
  -1  -5   7   11.27    0.84
  -1   5   7   10.09    0.73
   1  -5  -7   10.95    0.50
   1  -5  -7   11.04    0.77
  -1   5   7   11.78    0.83
   1   5  -6   15.90    0.90
  -1  -5   6   16.26    0.99
   1  -5  -6   15.15    0.89
  -1   5   6   14.82    0.87
  -1   5   6   14.69    0.91
   1  -5  -5    1.87    0.27
  -1   5   5    1.63    0.30
  -1  -5   5    1.82    0.35
   1   5  -5    1.24    0.28
   1  -5  -5    1.77    0.32
  -1   5   5    1.56    0.31
   1   5  -4    5.57    0.51
  -1  -5   4    4.89    0.53
   1  -5  -4    4.59    0.45
  -1   5   4    5.00    0.47
  -1   5   4    5.36    0.52
   1  -5  -4    5.49    0.44
   1  -5  -3   25.18    0.94
   1   5  -3   25.36    1.04
  -1  -5   3   26.23    1.18
   1  -5  -3   25.48    1.00
  -1   5   3   25.47    1.03
  -1   5   3   24.98    1.07
   1  -5  -2   34.04    1.08
   1   5  -2   33.29    1.16
  -1  -5   2   32.33    1.29
  -1   5   2   33.61    1.16
  -1   5   2   32.66    1.20
   1  -5  -1   20.69    0.84
  -1   5   1   20.80    0.94
  -1  -5   1   20.00    1.02
  -1   5   1   21.37    0.91
   1   5  -1   20.52    0.92
  -1  -5   1   19.78    0.78
   1  -5   0    5.20    0.42
   1   5   0    4.85    0.46
  -1  -5   0    5.27    0.54
  -1   5   0    5.13    0.47
  -1   5   0    4.82    0.44
  -1  -5   0    4.78    0.41
  -1   5  -1   32.36    1.15
   1  -5   1   31.94    1.04
  -1  -5  -1   31.19    1.05
  -1  -5  -1   31.84    1.29
  -1   5  -1   31.14    1.14
   1   5   1   32.45    1.16
   1  -5   2  110.89    1.98
  -1   5  -2  111.38    2.21
  -1  -5  -2  110.54    2.48
   1   5   2  114.39    2.35
   1   5   2  110.21    2.22
  -1   5  -2  107.57    2.17
  -1  -5  -2  108.32    2.06
  -1   5  -3   49.93    1.51
  -1  -5  -3   50.26    1.69
  -1  -5  -3   48.67    1.41
   1   5   3   48.35    1.49
   1   5   3   47.80    1.60
  -1   5  -3   51.14    1.47
  -1   5  -4   33.53    1.29
  -1  -5  -4   34.04    1.43
   1   5   4   32.77    1.27
   1   5   4   31.23    1.37
  -1   5  -4   34.82    1.22
  -1  -5  -4   35.24    1.24
   1   5   5    2.35    0.37
  -1   5  -5    3.54    0.45
  -1  -5  -5    3.24    0.48
   1   5   5    3.26    0.50
  -1  -5  -5    3.19    0.40
  -1  -5  -6    1.32    0.26
   1   5   6    1.24    0.27
  -1   5  -6    1.62    0.32
   1   5   6    1.39    0.34
  -1   5  -7   17.71    1.00
  -1   5  -7   19.31    0.87
  -1  -5  -7   18.08    0.82
   1   5   7   14.56    0.92
   1   5   7   15.68    1.06
   1  -5   7   18.95    0.86
   1   5   7   18.77    0.84
  -1  -5  -7   16.95    0.88
  -1   5  -8    0.28    0.17
   1   5   8    0.39    0.22
  -1  -5  -8    0.25    0.15
   1  -5   8    0.55    0.20
  -1  -5  -8    0.33    0.11
  -1   5  -9   18.34    0.81
   1  -5   9   17.78    0.79
  -1  -5  -9   17.24    0.77
  -1  -5  -9   18.59    0.63
   1   5   9   17.61    0.77
   1   5  10    0.86    0.19
   1   5  10    1.11    0.19
  -1   5 -10    0.91    0.21
  -1  -5 -10    0.53    0.19
   1  -5  10    0.52    0.17
  -1  -5 -10    0.74    0.14
  -1   5 -11    1.35    0.21
   1   5  11    1.31    0.18
  -1   5 -11    1.39    0.15
   1  -5  11    1.38    0.20
  -1  -5 -11    1.29    0.21
  -1  -5 -11    1.34    0.15
  -1   5 -12    0.75    0.09
  -1   5 -12    0.87    0.12
  -1  -5 -12    0.68    0.09
   1  -5  12    0.74    0.13
  -1  -5 -12    0.89    0.10
  -1  -6  11    0.09    0.07
   1  -6 -11    0.10    0.07
   1  -6 -11    0.14    0.07
   1  -6 -10    0.75    0.15
   1   6 -10    0.74    0.15
  -1  -6  10    0.59    0.13
   1  -6 -10    0.81    0.13
  -1  -6  10    0.32    0.10
   1   6  -9   11.66    0.56
  -1  -6   9   11.27    0.51
  -1  -6   9   10.86    0.50
   1  -6  -9   11.20    0.47
   1  -6  -9   11.27    0.45
   1   6  -8    0.23    0.14
   1  -6  -8    0.08    0.09
  -1  -6   8    0.18    0.13
   1  -6  -8    0.20    0.11
   1   6  -7   24.22    0.95
  -1  -6   7   23.98    0.85
   1  -6  -7   24.83    0.76
   1  -6  -7   24.56    0.72
   1   6  -6    3.06    0.38
   1  -6  -6    3.24    0.29
   1  -6  -6    3.04    0.26
  -1  -6   6    2.67    0.31
   1  -6  -5    0.49    0.18
  -1   6   5   -0.08    0.16
   1   6  -5    0.19    0.16
  -1  -6   5    0.12    0.13
  -1   6   5    0.53    0.24
   1  -6  -5    0.24    0.18
   1  -6  -5    0.00    0.10
   1  -6  -5    0.21    0.10
  -1  -6   5   -0.18    0.15
   1  -6  -4    9.88    0.64
   1   6  -4   10.42    0.74
  -1  -6   4   10.56    0.82
   1   6  -4    9.05    0.61
  -1   6   4    9.21    0.73
  -1   6   4    9.09    0.68
   1  -6  -3   19.63    0.90
   1   6  -3   20.55    1.02
  -1  -6   3   19.09    1.10
  -1   6   3   18.52    1.01
  -1   6   3   19.60    0.98
   1  -6  -2   14.83    0.78
   1   6  -2   13.44    0.82
  -1  -6   2   14.33    0.96
  -1   6   2   14.09    0.88
  -1   6   2   13.00    0.79
  -1  -6   1    1.24    0.22
   1  -6  -1    1.00    0.23
  -1   6   1    1.10    0.24
   1   6  -1    1.03    0.25
  -1  -6   1    1.51    0.34
  -1   6   1    1.45    0.32
  -1  -6   0    0.09    0.11
   1  -6   0    0.21    0.14
  -1   6   0    0.19    0.16
   1   6   0    0.40    0.19
  -1  -6   0    0.29    0.20
  -1   6   0    0.25    0.14
   1  -6   1    4.77    0.44
  -1   6  -1    5.00    0.50
  -1   6  -1    4.77    0.50
  -1  -6  -1    5.38    0.61
   1   6   1    4.99    0.52
  -1  -6  -1    5.17    0.47
  -1   6  -2   39.86    1.42
  -1  -6  -2   38.17    1.57
  -1   6  -2   37.37    1.35
   1   6   2   38.33    1.40
  -1  -6  -2   38.99    1.29
  -1   6  -3   48.64    1.60
   1   6   3   46.88    1.57
  -1  -6  -3   48.71    1.79
  -1  -6  -3   50.28    1.49
   1  -6   4   15.49    0.78
  -1   6  -4   13.83    0.87
  -1   6  -4   14.89    0.72
   1  -6   4   15.68    0.71
  -1  -6  -4   13.51    0.68
  -1  -6  -4   13.42    0.95
   1   6   4   12.98    0.91
   1   6   4   12.95    0.83
   1   6   4   13.88    0.72
  -1  -6  -4   14.70    0.82
   1   6   5    0.88    0.21
  -1  -6  -5    1.09    0.23
  -1   6  -5    0.79    0.21
   1  -6   5    0.90    0.22
   1  -6   5    0.98    0.20
   1   6   6    1.63    0.29
  -1   6  -6    1.88    0.30
   1  -6   6    1.93    0.24
  -1  -6  -6    2.21    0.21
   1  -6   6    2.22    0.33
  -1  -6  -6    2.09    0.30
  -1  -6  -7   62.55    1.43
   1  -6   7   64.72    1.52
  -1   6  -7   63.58    1.50
  -1  -6  -7   63.19    1.12
   1   6   7   62.80    1.48
   1  -6   8   11.11    0.60
  -1   6  -8   10.44    0.60
  -1  -6  -8   10.75    0.57
  -1  -6  -8   11.19    0.45
   1   6   8   10.86    0.59
  -1   6  -9    9.28    0.51
  -1  -6  -9    9.12    0.49
   1  -6   9    9.24    0.50
  -1  -6  -9    9.61    0.39
   1   6   9   10.23    0.52
   1   6  10    0.13    0.10
  -1  -6 -10    0.26    0.12
   1  -6  10    0.01    0.12
   1   6  10    0.17    0.10
  -1   6 -10    0.09    0.12
  -1  -6 -10    0.09    0.08
  -1  -6 -10    0.15    0.08
   1  -6  11    0.55    0.11
  -1   6 -11    0.63    0.11
  -1  -6 -11    0.71    0.11
  -1  -6 -11    0.59    0.08
  -1  -6 -11    0.70    0.08
   1  -7 -10    0.31    0.06
   1  -7 -10    0.26    0.06
   1   7  -9    0.67    0.13
   1   7  -9    0.63    0.09
  -1  -7   9    0.46    0.10
   1  -7  -9    0.75    0.11
   1  -7  -9    0.71    0.10
   1   7  -8    1.01    0.18
  -1  -7   8    0.88    0.16
  -1  -7   8    0.86    0.13
   1  -7  -8    0.89    0.13
   1  -7  -8    0.95    0.13
  -1  -7   7    0.43    0.15
   1  -7  -7    0.55    0.12
   1   7  -7    0.61    0.19
   1  -7  -7    0.50    0.10
  -1  -7   7    0.81    0.16
  -1  -7   6    0.70    0.18
   1   7  -6    0.79    0.21
   1  -7  -6    0.96    0.15
   1  -7  -6    0.97    0.14
  -1  -7   6    0.98    0.17
  -1   7   5    0.56    0.16
  -1  -7   5    0.54    0.19
  -1  -7   5    0.59    0.17
   1   7  -5    0.49    0.22
   1  -7  -5    0.35    0.09
   1   7  -4   15.43    0.77
  -1  -7   4   16.31    0.68
  -1  -7   4   17.14    0.74
  -1   7   4   18.27    0.73
   1   7  -3   13.14    0.72
  -1  -7   3   14.90    0.69
   1  -7  -3   14.58    0.64
  -1  -7   3   14.39    0.64
  -1   7   3   16.20    0.71
   1  -7  -2   71.80    1.50
  -1  -7   2   73.68    1.50
   1   7  -2   68.96    1.62
  -1  -7   2   70.33    1.45
   1  -7  -1    9.21    0.55
   1   7  -1    8.49    0.57
  -1  -7   1    9.24    0.53
  -1  -7   1    9.36    0.53
   1   7  -1    9.49    0.54
   1   7   0    1.95    0.27
   1  -7   0    1.60    0.24
  -1  -7   0    1.57    0.24
   1  -7   1    2.57    0.31
  -1  -7  -1    2.47    0.31
   1   7   1    2.80    0.33
   1  -7   2   16.17    0.72
  -1  -7  -2   14.62    0.69
   1   7   2   14.91    0.71
   1  -7   3    4.76    0.39
  -1  -7  -3    4.29    0.39
   1   7   3    4.57    0.41
   1   7   4    0.64    0.21
   1  -7   4    0.57    0.17
   1  -7   4    0.56    0.16
  -1  -7  -4    0.56    0.18
  -1   7  -4    0.80    0.19
   1   7   5    0.00    0.16
  -1   7  -5    0.00    0.13
   1  -7   5    0.04    0.15
   1  -7   5    0.10    0.15
  -1  -7  -5    0.21    0.16
   1   7   6    0.59    0.19
   1  -7   6    0.68    0.20
  -1   7  -6    0.55    0.17
   1  -7   6    0.66    0.15
  -1  -7  -6    0.26    0.15
   1  -7   7    4.08    0.33
  -1   7  -7    3.33    0.30
  -1  -7  -7    3.29    0.29
  -1  -7  -7    3.06    0.19
   1   7   7    3.28    0.31
   1   7   8    0.26    0.13
   1   7   8    0.50    0.15
  -1   7  -8    0.29    0.14
  -1  -7  -8    0.16    0.10
   1  -7   8    0.09    0.11
  -1  -7  -8    0.13    0.08
  -1  -7  -8    0.24    0.07
   1   7   9    0.16    0.08
   1   7   9    0.29    0.10
  -1  -7  -9    0.28    0.05
  -1   7  -9    0.44    0.11
  -1  -7  -9    0.26    0.09
  -1  -7  -9    0.38    0.08
  -1  -8   7    0.10    0.07
  -1  -8   6    2.87    0.23
  -1   8   5    0.38    0.11
  -1  -8   5    0.22    0.10
   1   8  -4    4.36    0.29
  -1  -8   4    4.03    0.31
  -1   8   4    4.70    0.31
  -1   8   3    1.95    0.23
   1  -8  -3    1.87    0.20
   1   8  -3    1.83    0.22
  -1  -8   3    1.81    0.23
  -1  -8   3    1.46    0.18
  -1  -8   2    8.19    0.40
   1  -8  -2    7.80    0.41
  -1  -8   2    7.41    0.40
  -1   8   2    8.27    0.45
   1   8  -1    1.13    0.17
  -1   8   1    1.32    0.22
   1  -8  -1    1.32    0.20
  -1  -8   1    1.30    0.18
   1   8   0    0.19    0.14
  -1  -8   0    0.08    0.10
   1   8   1    0.24    0.13
  -1  -8  -1    0.06    0.11
   1  -8   1    0.23    0.14
   1  -8   2    3.38    0.30
  -1  -8  -2    3.43    0.27
   1   8   2    3.46    0.30
   1  -8   3   12.53    0.52
   1   8   3   12.90    0.49
  -1  -8  -3   12.78    0.50
   1   8   3   11.22    0.52
   1   8   4    3.77    0.26
   1  -8   4    4.23    0.29
  -1  -8  -4    4.46    0.29
   1   8   4    3.78    0.30
   1   8   5    1.31    0.19
   1   8   5    1.08    0.15
   1  -8   5    1.06    0.14
  -1  -8  -5    1.00    0.15
   1   8   6    4.11    0.24
   1  -8   6    4.03    0.20
  -1   8  -6    5.01    0.25
  -1  -8  -6    4.36    0.24
   1   8   6    4.43    0.28
   1   8   7   13.35    0.38
   1   9  -2    2.23    0.16
  -1   9   2    2.38    0.16
   1   9  -1    1.74    0.16
  -1   9   1    1.96    0.16
   1  -9   0    1.50    0.13
   1   9   0    1.53    0.15
  -1   9   0    1.61    0.15
  -1   9  -1    0.43    0.09
   1  -9   1    0.55    0.09
   1   9   1    0.41    0.10
  -1   9  -2    0.26    0.07
   1  -9   2    0.10    0.06
  -2   0  14   -0.12    0.07
   2   0 -14   -0.02    0.08
   2   0 -13    2.10    0.23
   2   0 -12    0.95    0.20
   2   0 -11    0.08    0.13
   2   0 -10    0.07    0.13
  -2   0  10    0.28    0.19
   2   0 -10    0.27    0.15
   2   0  -9    3.90    0.47
  -2   0   9    2.59    0.37
   2   0  -8    0.05    0.13
   2   0  -7    0.89    0.24
   2   0  -6    5.35    0.50
   2   0  -6    5.64    0.46
   2   0  -5   28.77    1.04
   2   0  -5   29.77    0.96
   2   0  -4   15.30    0.72
   2   0  -4   16.32    0.71
   2   0  -4   17.28    0.69
   2   0  -3    0.10    0.13
   2   0  -3    0.48    0.17
   2   0  -3    0.31    0.14
   2   0  -2   24.09    0.81
   2   0  -2   25.25    0.88
   2   0  -2   24.80    0.78
   2   0  -1    1.50    0.22
   2   0  -1    1.45    0.26
   2   0  -1    1.77    0.23
  -2   0   1    1.56    0.22
   2   0   0   72.14    1.46
   2   0   0   68.87    1.45
   2   0   0   69.10    1.33
   2   0   0   70.65    1.35
   2   0   1   33.70    0.99
   2   0   1   33.82    0.91
   2   0   1   33.17    1.05
  -2   0  -1   34.60    1.00
   2   0   1   32.67    0.91
  -2   0  -2    0.20    0.18
   2   0   2    0.04    0.12
   2   0   2   -0.06    0.14
   2   0   2   -0.02    0.09
   2   0   2    0.06    0.14
   2   0   3   33.09    0.98
   2   0   3   33.18    1.20
   2   0   3   31.21    0.98
   2   0   3   34.41    0.97
  -2   0  -3   33.13    1.10
   2   0   4    5.38    0.52
   2   0   4    5.72    0.44
   2   0   4    6.10    0.43
  -2   0  -4    4.89    0.44
   2   0   5   75.23    1.69
   2   0   5   73.37    1.97
  -2   0  -5   77.78    1.79
   2   0   6    6.14    0.62
  -2   0  -6    6.25    0.53
   2   0   6    6.84    0.55
  -2   0  -7    0.15    0.14
   2   0   7    0.24    0.18
   2   0   7    0.22    0.20
  -2   0  -8    2.35    0.35
   2   0   8    2.56    0.43
   2   0   8    2.48    0.38
   2   0   9   16.42    0.95
   2   0   9   16.78    1.05
   2   0   9   18.07    0.83
  -2   0 -10   52.47    1.19
   2   0  10   50.25    1.35
  -2   0 -11   33.08    0.86
   2   0  11   33.00    1.01
  -2   0 -12    2.71    0.22
   2   0  12    2.53    0.24
  -2   0 -13   -0.04    0.05
   2   0  13    0.08    0.07
  -2   0 -13    0.03    0.06
  -2  -1  14    0.14    0.07
   2  -1 -14    0.13    0.08
   2   1 -14    0.08    0.09
  -2  -1  13    0.48    0.13
   2   1 -13    0.67    0.15
   2  -1 -13    0.42    0.14
   2   1 -13    0.43    0.13
   2   1 -12    6.29    0.42
   2  -1 -12    6.09    0.41
   2   1 -12    6.06    0.39
   2   1 -11    7.96    0.52
   2   1 -11    8.84    0.44
   2  -1 -11    8.02    0.50
   2   1 -11    8.21    0.50
   2   1 -10   13.57    0.89
   2   1 -10   13.55    0.57
   2   1 -10   12.53    0.65
   2   1 -10   13.34    0.64
  -2  -1  10   12.59    0.84
   2  -1 -10   13.49    0.64
  -2  -1   9    2.01    0.35
   2   1  -9    2.16    0.38
   2   1  -8    1.71    0.33
   2  -1  -8    1.88    0.32
  -2  -1   8    1.91    0.33
   2  -1  -7    3.19    0.39
   2   1  -7    2.85    0.40
   2  -1  -7    2.81    0.38
  -2  -1   7    2.77    0.37
   2  -1  -7    3.13    0.39
   2  -1  -6   41.36    1.26
   2   1  -6   43.61    1.38
   2  -1  -6   41.85    1.28
  -2  -1   6   43.31    1.28
   2  -1  -6   43.53    1.35
   2  -1  -5   61.21    1.47
   2   1  -5   63.40    1.59
   2   1  -5   67.87    1.37
   2  -1  -5   61.54    1.47
  -2  -1   5   65.78    1.45
   2  -1  -5   60.22    1.55
   2  -1  -4   44.29    1.18
   2  -1  -4   41.52    1.15
   2   1  -4   43.02    1.24
   2   1  -4   44.90    1.20
   2  -1  -3    4.20    0.36
   2   1  -3    4.24    0.39
   2   1  -3    4.35    0.40
   2  -1  -3    4.35    0.38
   2   1  -2    3.20    0.32
   2   1  -2    3.06    0.35
   2  -1  -2    3.21    0.32
   2  -1  -2    3.29    0.31
   2   1  -1   35.84    0.98
   2   1  -1   35.93    1.08
   2  -1  -1   35.07    1.00
   2  -1  -1   34.62    0.96
   2   1   0   59.97    1.38
   2  -1   0   57.70    1.27
  -2  -1   0   61.75    1.28
   2  -1   0   55.75    1.20
   2   1   0   57.84    1.23
   2   1   1   92.64    1.72
   2  -1   1   94.42    1.66
   2  -1   1   91.45    1.84
   2   1   1   91.61    1.76
  -2  -1  -1   92.94    1.67
   2  -1   1   92.66    1.56
   2   1   1   95.10    1.55
   2   1   2   19.82    0.78
   2  -1   2   18.17    0.76
   2  -1   2   17.66    0.87
   2   1   2   19.05    0.85
  -2   1  -2   19.18    0.83
   2  -1   2   20.35    0.74
  -2  -1  -2   18.79    0.80
   2   1   2   18.35    0.70
   2   1   3   10.42    0.56
   2   1   3   10.60    0.52
   2  -1   3   10.13    0.59
   2  -1   3   10.36    0.71
   2   1   3   10.45    0.68
   2  -1   3   10.57    0.56
   2   1   3   10.44    0.52
  -2   1  -3    9.36    0.61
  -2  -1  -3    9.23    0.60
   2   1   4   25.72    1.10
   2  -1   4   24.62    0.96
   2   1   4   24.45    0.85
   2  -1   4   24.04    1.10
   2  -1   4   26.89    0.93
   2   1   4   26.36    0.87
  -2   1  -4   24.79    0.99
  -2  -1  -4   23.69    0.98
   2   1   5   75.69    1.61
   2  -1   5   76.28    1.79
   2  -1   5   76.02    2.04
   2   1   5   71.66    1.98
  -2   1  -5   73.00    1.75
  -2  -1  -5   74.57    1.76
  -2   1  -6    0.28    0.18
  -2  -1  -6    0.18    0.17
   2  -1   6    0.30    0.18
   2   1   6    0.39    0.17
   2  -1   6    0.05    0.18
   2   1   6    0.45    0.21
   2  -1   7    3.27    0.45
   2  -1   7    3.28    0.48
   2   1   7    2.59    0.44
  -2   1  -7    2.89    0.38
  -2  -1  -7    2.90    0.40
  -2  -1  -8    1.40    0.27
   2  -1   8    1.71    0.36
   2  -1   8    1.29    0.33
   2   1   8    1.44    0.36
   2  -1   9   17.63    0.99
   2  -1   9   15.50    0.99
   2   1   9   16.01    1.03
   2  -1   9   17.96    0.83
   2   1   9   17.14    0.81
  -2   1 -10   13.05    0.61
   2  -1  10   11.67    0.58
   2  -1  10   12.81    0.68
   2   1  10   11.55    0.65
  -2   1 -11    7.33    0.43
   2  -1  11    6.46    0.40
   2   1  11    6.81    0.48
  -2   1 -12    4.12    0.28
   2  -1  12    3.98    0.26
   2   1  12    4.27    0.33
  -2   1 -13    0.52    0.09
   2   1  13    0.48    0.10
   2  -1  13    0.24    0.06
   2   2 -14    4.18    0.23
  -2  -2  14    4.23    0.22
   2  -2 -14    3.93    0.19
   2   2 -14    4.08    0.20
   2   2 -13    0.20    0.13
   2   2 -13    0.20    0.09
  -2   2  13    0.15    0.10
  -2  -2  13    0.11    0.09
   2  -2 -13    0.19    0.10
   2   2 -13    0.12    0.09
   2   2 -12    0.53    0.17
   2   2 -12    0.69    0.13
  -2   2  12    0.51    0.14
  -2  -2  12    0.66    0.16
   2  -2 -12    0.50    0.13
   2   2 -12    0.90    0.17
   2   2 -11    0.37    0.17
   2   2 -11    0.37    0.13
  -2   2  11    0.21    0.15
  -2  -2  11    0.24    0.14
   2  -2 -11    0.38    0.14
   2   2 -11    0.40    0.14
   2   2 -10    6.37    0.48
   2   2 -10    6.00    0.39
   2  -2 -10    6.51    0.39
  -2  -2  10    6.19    0.44
   2  -2 -10    5.92    0.42
   2   2 -10    6.24    0.41
   2   2  -9    2.59    0.41
  -2  -2   9    2.00    0.35
   2  -2  -9    2.35    0.36
   2   2  -8    4.59    0.53
   2  -2  -8    4.90    0.53
  -2  -2   8    4.56    0.51
   2   2  -7    0.20    0.17
  -2  -2   7    0.02    0.16
   2  -2  -7    0.30    0.16
   2  -2  -7    0.00    0.15
   2  -2  -6   11.52    0.71
   2   2  -6   12.51    0.77
   2  -2  -6   12.22    0.77
  -2  -2   6   12.11    0.75
   2   2  -5   15.08    0.80
   2   2  -5   14.56    0.73
  -2  -2   5   15.31    0.78
   2  -2  -5   14.31    0.82
   2  -2  -5   14.51    0.76
   2   2  -4   13.54    0.72
   2   2  -4   13.57    0.71
   2  -2  -4   13.22    0.70
  -2  -2   4   13.30    0.69
   2  -2  -4   12.38    0.74
   2  -2  -4   13.65    0.63
   2  -2  -3    1.55    0.21
   2   2  -3    1.50    0.25
  -2  -2   3    1.99    0.26
   2   2  -3    1.34    0.27
   2  -2  -3    1.71    0.30
   2  -2  -3    1.76    0.27
  -2   2   3    1.72    0.23
   2   2  -2   35.85    1.04
   2   2  -2   35.86    1.17
   2  -2  -2   36.43    1.08
   2  -2  -2   36.29    0.97
   2   2  -1  191.43    2.38
   2   2  -1  187.42    2.72
   2  -2  -1  189.58    2.51
  -2  -2   1  195.82    2.27
   2  -2  -1  188.83    2.27
   2   2   0  106.92    2.01
   2  -2   0  104.03    1.84
   2  -2   0  104.25    1.65
  -2  -2   0  109.38    1.74
   2   2   0  105.96    1.68
   2   2   1  179.61    2.62
   2  -2   1  173.68    2.47
   2  -2   1  178.37    2.24
  -2  -2  -1  177.19    2.41
   2   2   1  182.82    2.19
   2   2   2   33.69    1.09
   2  -2   2   32.86    1.08
   2  -2   2   35.16    0.99
   2   2   2   35.96    0.93
  -2  -2  -2   34.83    1.09
   2  -2   3    5.93    0.49
   2   2   3    5.31    0.50
   2  -2   3    6.28    0.46
   2   2   3    6.57    0.49
  -2  -2  -3    5.84    0.49
   2  -2   4    7.91    0.59
   2  -2   4    7.58    0.65
   2   2   4    7.55    0.66
  -2  -2  -4    7.84    0.59
  -2  -2  -5    2.23    0.36
   2  -2   5    2.82    0.39
   2  -2   5    2.52    0.39
   2   2   5    2.90    0.43
  -2   2  -5    2.62    0.37
   2  -2   6    7.16    0.61
   2  -2   6    6.00    0.63
   2   2   6    5.50    0.62
  -2   2  -6    6.14    0.56
  -2  -2  -6    5.56    0.56
   2  -2   7    9.45    0.73
   2  -2   7    7.60    0.70
   2   2   7    7.59    0.75
  -2   2  -7    8.52    0.64
  -2  -2  -7    7.12    0.61
   2   2   8   -0.13    0.15
  -2  -2  -8    0.26    0.19
   2  -2   8   -0.03    0.12
   2  -2   8    0.11    0.15
   2   2   8    0.20    0.20
   2   2   9    1.12    0.25
  -2   2  -9    1.14    0.23
   2  -2   9    1.04    0.21
   2   2  10    1.97    0.30
  -2   2 -10    1.77    0.25
   2  -2  10    1.43    0.22
  -2   2 -11    0.26    0.14
   2  -2  11    0.35    0.11
   2   2  11    0.18    0.15
  -2   2 -12    0.02    0.09
  -2  -2 -12    0.17    0.06
   2   2  12    0.19    0.12
  -2   2 -13    1.38    0.13
   2   2  13    1.17    0.12
  -2   2 -13    1.55    0.13
   2   3 -13    1.14    0.17
   2   3 -13    1.09    0.13
  -2   3  13    1.04    0.15
  -2  -3  13    1.19    0.16
   2   3 -12    2.04    0.25
   2  -3 -12    2.61    0.20
   2   3 -12    1.87    0.20
  -2   3  12    2.58    0.27
  -2  -3  12    1.99    0.23
   2   3 -11    0.12    0.13
   2   3 -11    0.09    0.12
  -2  -3  11    0.06    0.11
   2  -3 -11    0.10    0.09
   2   3 -10   57.29    1.38
   2   3 -10   56.47    1.18
   2  -3 -10   57.90    1.16
  -2  -3  10   60.97    1.33
   2   3  -9   60.34    1.81
   2  -3  -9   59.37    1.23
   2   3  -9   57.60    1.42
  -2  -3   9   61.39    1.35
  -2  -3   9   59.60    1.89
   2  -3  -9   63.35    1.88
   2   3  -8    5.57    0.57
  -2  -3   8    5.02    0.57
   2  -3  -8    5.91    0.58
   2   3  -7   77.87    2.02
   2  -3  -7   79.36    1.93
  -2  -3   7   78.22    2.07
   2  -3  -7   79.96    2.13
   2   3  -6   64.08    1.74
   2  -3  -6   63.97    1.68
  -2  -3   6   63.65    1.81
   2  -3  -6   59.93    1.82
   2   3  -5    1.69    0.29
   2  -3  -5    2.20    0.33
   2   3  -5    2.44    0.36
  -2  -3   5    1.62    0.31
   2  -3  -5    1.83    0.36
   2   3  -4    0.73    0.21
   2   3  -4    0.96    0.27
  -2  -3   4    0.84    0.23
   2  -3  -4    0.56    0.21
   2  -3  -4    0.85    0.23
  -2   3   4    0.88    0.19
   2   3  -3    1.69    0.26
   2  -3  -3    2.28    0.31
  -2  -3   3    2.08    0.31
   2   3  -3    2.17    0.35
   2  -3  -3    2.28    0.34
  -2   3   3    2.18    0.28
   2   3  -2   25.38    1.07
   2  -3  -2   25.70    0.96
   2  -3  -2   24.38    1.01
  -2  -3   2   25.39    1.01
  -2   3   2   27.62    0.99
  -2  -3   1   44.72    1.28
   2  -3  -1   41.43    1.22
   2   3  -1   40.91    1.36
  -2  -3   0   10.67    0.66
   2  -3   0   10.73    0.62
   2  -3   0   11.35    0.54
  -2  -3   0   11.13    0.60
   2   3   0   10.41    0.69
   2   3   1    2.78    0.38
   2  -3   1    2.90    0.35
   2  -3   1    3.41    0.31
  -2  -3  -1    3.15    0.35
   2   3   2    8.83    0.62
   2  -3   2    9.30    0.61
   2  -3   2    9.24    0.52
  -2  -3  -2    8.68    0.60
   2   3   3   11.37    0.69
   2  -3   3   11.70    0.72
   2   3   3   10.07    0.73
  -2  -3  -3   10.57    0.69
   2  -3   4    8.95    0.65
   2   3   4    7.42    0.68
  -2  -3  -4    7.58    0.61
   2   3   5    7.60    0.73
  -2  -3  -5    7.84    0.66
   2  -3   6   18.24    0.99
   2   3   6   15.11    1.02
  -2   3  -6   16.06    0.90
  -2  -3  -6   16.73    0.94
   2   3   7   12.58    0.66
   2  -3   7   11.28    0.79
   2   3   7   10.39    0.87
  -2  -3  -7    9.66    0.71
   2   3   8    0.64    0.21
  -2   3  -8    0.72    0.19
   2   3   8    0.49    0.19
  -2  -3  -8    0.45    0.16
   2   3   9    0.60    0.21
  -2   3  -9    0.75    0.18
   2   3   9    0.46    0.15
  -2  -3  -9    0.35    0.14
   2   3  10    1.13    0.23
  -2   3 -10    1.43    0.22
   2  -3  10    1.27    0.21
  -2  -3 -10    0.96    0.19
   2   3  11    0.75    0.17
  -2   3 -11    0.98    0.18
  -2  -3 -11    0.85    0.16
  -2   3 -12    0.08    0.08
  -2  -3 -12    0.14    0.05
  -2   3 -12    0.01    0.08
   2   3  12    0.15    0.10
   2   4 -13   11.43    0.36
   2   4 -13   11.25    0.29
  -2  -4  13   11.29    0.34
   2   4 -12    6.33    0.35
   2   4 -12    6.26    0.29
  -2   4  12    7.58    0.39
   2  -4 -12    7.03    0.29
  -2  -4  12    7.11    0.35
   2   4 -11    0.23    0.13
   2   4 -11    0.36    0.13
   2  -4 -11    0.41    0.12
  -2  -4  11    0.45    0.15
   2  -4 -11    0.44    0.09
   2   4 -10    3.32    0.32
   2  -4 -10    3.50    0.29
   2   4 -10    3.53    0.29
  -2  -4  10    3.62    0.33
   2  -4 -10    3.42    0.24
   2   4  -9    1.28    0.24
   2   4  -9    1.57    0.22
  -2  -4   9    1.64    0.26
   2  -4  -9    1.72    0.21
   2  -4  -9    1.86    0.23
   2   4  -8   13.01    0.66
   2  -4  -8   13.87    0.60
  -2  -4   8   14.20    0.66
   2  -4  -8   13.65    0.56
   2   4  -7   27.64    0.96
   2  -4  -7   28.46    0.87
  -2  -4   7   29.73    0.96
  -2  -4   7   29.85    1.34
   2  -4  -7   29.35    0.82
   2  -4  -7   30.71    1.36
   2  -4  -6   26.36    1.08
  -2  -4   6   26.13    1.23
   2  -4  -6   23.98    1.21
   2  -4  -5   19.78    0.93
  -2  -4   5   18.76    1.02
   2  -4  -5   18.92    1.04
  -2   4   5   19.95    0.96
   2   4  -4   39.27    1.39
   2  -4  -4   39.57    1.30
  -2  -4   4   39.78    1.45
   2  -4  -4   39.02    1.45
  -2   4   4   41.44    1.38
   2  -4  -3   23.52    0.98
   2   4  -3   22.55    1.07
  -2  -4   3   23.86    1.09
   2  -4  -3   21.39    1.04
  -2   4   3   23.90    1.04
   2   4  -2   48.99    1.60
   2  -4  -2   51.34    1.43
  -2  -4   2   52.13    1.59
   2  -4  -2   49.13    1.50
  -2   4   2   52.19    1.53
   2   4  -1   21.45    1.07
  -2  -4   1   20.16    1.00
   2  -4  -1   20.89    0.91
  -2   4   1   21.06    0.98
  -2  -4   0    0.56    0.18
   2   4   0    0.49    0.27
  -2  -4   0    0.78    0.23
   2  -4   0    0.86    0.23
  -2  -4  -1    1.82    0.30
   2  -4   1    2.64    0.35
   2   4   1    2.29    0.42
  -2  -4  -1    1.99    0.35
   2   4   2   16.92    0.93
  -2  -4  -2   17.24    0.94
   2  -4   2   17.71    0.88
  -2  -4  -2   16.03    0.84
   2   4   3   33.21    1.27
  -2  -4  -3   31.59    1.29
   2  -4   3   32.85    1.24
  -2  -4  -3   28.62    1.16
   2  -4   4   12.11    0.78
   2   4   4   10.26    0.82
  -2  -4  -4   11.17    0.75
   2  -4   5    4.48    0.49
   2   4   5    3.44    0.51
  -2  -4  -5    4.04    0.49
  -2   4  -6    0.60    0.19
  -2  -4  -6    0.55    0.22
   2   4   6    0.60    0.19
   2   4   6    0.88    0.22
   2  -4   6    0.69    0.19
  -2  -4  -6    0.51    0.16
   2  -4   6    1.08    0.24
   2   4   6    0.50    0.26
   2   4   7    4.97    0.43
   2  -4   7    4.48    0.43
  -2  -4  -7    4.63    0.42
   2   4   7    4.53    0.45
   2   4   8    8.25    0.52
  -2   4  -8    8.27    0.44
   2  -4   8    7.66    0.51
  -2  -4  -8    8.12    0.51
   2   4   8    7.39    0.55
   2   4   9    4.11    0.35
  -2   4  -9    4.15    0.30
   2  -4   9    4.00    0.35
  -2  -4  -9    4.22    0.36
   2   4   9    3.51    0.36
   2   4  10    2.03    0.27
   2   4  10    2.30    0.22
  -2   4 -10    2.23    0.21
   2  -4  10    1.91    0.22
  -2  -4 -10    1.97    0.23
   2   4  11    1.37    0.18
  -2   4 -11    1.51    0.15
  -2   4 -11    1.40    0.18
  -2  -4 -11    1.27    0.15
   2  -4  11    1.15    0.14
  -2  -4 -11    1.58    0.14
   2  -5 -12    4.41    0.18
  -2   5  12    3.66    0.20
   2   5 -12    4.10    0.18
  -2  -5  12    3.98    0.20
   2   5 -11    2.34    0.20
   2   5 -11    2.55    0.19
   2  -5 -11    2.76    0.19
  -2  -5  11    2.69    0.22
   2  -5 -11    2.78    0.17
   2   5 -10    1.20    0.18
   2   5 -10    1.50    0.18
   2  -5 -10    1.34    0.17
  -2  -5  10    1.15    0.18
   2  -5 -10    1.43    0.16
   2   5  -9    5.52    0.39
   2   5  -9    5.32    0.32
   2  -5  -9    5.32    0.34
  -2  -5   9    5.61    0.39
   2  -5  -9    5.31    0.32
   2   5  -8    2.72    0.30
   2  -5  -8    2.81    0.28
   2   5  -8    2.82    0.26
  -2  -5   8    2.71    0.30
   2  -5  -8    3.05    0.26
   2   5  -7    7.42    0.52
   2   5  -7    7.56    0.42
   2  -5  -7    7.10    0.43
  -2  -5   7    7.81    0.51
   2  -5  -7    7.76    0.43
   2  -5  -6    4.92    0.40
   2   5  -6    4.25    0.42
   2  -5  -6    5.03    0.36
  -2  -5   6    4.95    0.42
   2  -5  -6    4.39    0.33
   2  -5  -5    0.98    0.18
   2   5  -5    1.18    0.25
   2  -5  -5    0.83    0.19
   2  -5  -5    0.99    0.18
  -2  -5   5    0.89    0.19
  -2  -5   5    1.12    0.30
   2  -5  -5    1.13    0.18
   2  -5  -5    1.43    0.31
  -2   5   5    1.33    0.29
   2   5  -4    7.59    0.66
  -2  -5   4    8.31    0.71
   2  -5  -4    7.41    0.64
  -2   5   4    7.86    0.65
   2   5  -3    8.82    0.71
  -2  -5   3    9.64    0.76
   2  -5  -3    9.19    0.70
  -2   5   3    9.75    0.73
  -2  -5   2    3.21    0.45
   2   5  -2    3.56    0.49
  -2   5   2    3.14    0.41
   2   5  -1    1.75    0.39
  -2  -5   1    2.08    0.38
  -2   5   1    1.95    0.35
   2   5   0    0.16    0.23
  -2  -5   0    0.06    0.16
  -2   5   0   -0.07    0.16
   2   5   1    7.26    0.66
  -2  -5  -1    5.85    0.60
  -2   5  -1    6.20    0.58
  -2  -5  -1    6.41    0.53
   2   5   2   36.88    1.46
  -2  -5  -2   35.21    1.46
  -2   5  -2   34.87    1.38
  -2  -5  -2   35.07    1.26
   2   5   3   61.65    1.45
   2  -5   3   60.68    1.52
   2   5   3   64.05    1.86
  -2  -5  -3   62.86    1.44
  -2  -5  -3   61.02    1.92
  -2  -5  -3   62.96    1.71
   2   5   4   21.92    0.88
   2  -5   4   20.81    0.89
  -2  -5  -4   20.48    0.83
   2   5   4   20.88    0.88
  -2  -5  -4   21.12    1.00
   2   5   5    3.95    0.41
   2  -5   5    3.12    0.37
   2   5   5    3.41    0.39
  -2  -5  -5    3.13    0.34
   2   5   6    4.05    0.41
   2  -5   6    3.37    0.36
  -2  -5  -6    3.89    0.37
   2   5   6    3.39    0.37
   2   5   7    4.60    0.39
   2  -5   7    4.78    0.41
  -2  -5  -7    4.36    0.39
   2   5   7    4.20    0.42
   2   5   8    0.53    0.20
   2   5   8    0.76    0.20
   2  -5   8    0.88    0.21
  -2   5  -8    1.02    0.24
  -2  -5  -8    0.78    0.19
   2   5   9    0.53    0.16
   2   5   9    0.61    0.15
  -2   5  -9    0.67    0.18
   2  -5   9    0.73    0.16
  -2  -5  -9    0.73    0.16
  -2  -5  -9    0.67    0.12
   2   5  10    2.14    0.18
  -2   5 -10    1.93    0.21
   2  -5  10    1.46    0.16
  -2  -5 -10    1.67    0.18
  -2  -5 -10    1.94    0.15
   2   5  10    1.79    0.20
   2   6 -10    0.72    0.10
   2  -6 -10    0.82    0.10
  -2  -6  10    0.96    0.13
   2  -6 -10    0.89    0.10
   2   6  -9    0.36    0.09
   2  -6  -9    0.46    0.11
  -2  -6   9    0.35    0.12
   2  -6  -9    0.45    0.10
   2   6  -8    0.12    0.08
   2  -6  -8    0.26    0.11
  -2  -6   8    0.08    0.12
   2  -6  -8    0.17    0.10
   2  -6  -7   -0.05    0.10
  -2  -6   7   -0.19    0.17
   2  -6  -7   -0.18    0.12
   2  -6  -6    1.25    0.20
   2  -6  -6    1.20    0.17
  -2  -6   6    1.01    0.20
   2  -6  -6    1.24    0.18
   2  -6  -5    0.27    0.15
  -2  -6   5    0.21    0.15
   2  -6  -5    0.23    0.09
   2  -6  -4    4.25    0.38
   2   6  -4    3.97    0.36
  -2  -6   4    4.61    0.39
   2  -6  -4    4.10    0.30
   2  -6  -3   13.85    0.68
   2   6  -3   14.46    0.67
   2  -6  -3   14.79    0.60
  -2  -6   3   14.18    0.66
   2  -6  -3   12.36    0.50
   2   6  -2   13.76    0.67
   2  -6  -2   13.31    0.67
  -2  -6   2   13.52    0.65
   2  -6  -2   12.34    0.50
   2   6  -1    4.56    0.41
   2  -6  -1    4.48    0.40
  -2  -6   1    4.60    0.39
   2   6   0    0.90    0.26
   2  -6   0    0.68    0.19
  -2  -6   0    0.50    0.18
   2   6   1   18.74    0.80
   2  -6   1   18.16    0.78
  -2  -6  -1   18.20    0.76
   2   6   2    7.81    0.52
   2  -6   2    7.53    0.49
  -2  -6  -2    7.45    0.50
   2   6   3    4.62    0.40
   2  -6   3    5.42    0.40
   2   6   3    5.08    0.41
  -2  -6  -3    4.83    0.42
   2   6   3    5.27    0.43
   2   6   4    3.62    0.36
   2  -6   4    3.25    0.37
  -2  -6  -4    3.64    0.35
   2   6   4    3.47    0.36
   2   6   5    0.28    0.17
   2   6   5    0.30    0.16
   2  -6   5   -0.02    0.15
  -2   6  -5    0.20    0.13
  -2  -6  -5    0.08    0.13
   2   6   6    0.99    0.21
   2   6   6    1.33    0.24
  -2   6  -6    1.14    0.20
   2  -6   6    0.98    0.20
  -2  -6  -6    1.14    0.20
   2   6   7    4.76    0.34
  -2   6  -7    4.32    0.33
   2  -6   7    4.15    0.33
  -2  -6  -7    4.48    0.34
  -2  -6  -7    4.07    0.22
   2   6   7    4.25    0.35
   2   6   8    4.18    0.28
  -2   6  -8    3.82    0.28
   2  -6   8    3.40    0.26
  -2  -6  -8    3.92    0.28
  -2  -6  -8    3.43    0.19
   2   6   8    3.61    0.29
   2   6   9    4.84    0.24
  -2   6  -9    4.62    0.25
  -2  -6  -9    4.38    0.24
  -2  -6  -9    3.66    0.16
   2   6   9    4.05    0.24
   2  -7  -8    0.60    0.08
  -2  -7   8    0.73    0.11
   2  -7  -8    0.82    0.10
  -2  -7   7    4.09    0.26
   2  -7  -7    4.18    0.22
  -2  -7   6    0.44    0.12
  -2  -7   6    0.74    0.15
   2  -7  -6    0.71    0.11
   2  -7  -5    1.06    0.16
  -2  -7   5    0.57    0.15
  -2  -7   5    0.93    0.18
   2  -7  -5    0.90    0.13
   2  -7  -4    2.57    0.26
   2   7  -4    2.51    0.25
  -2  -7   4    1.79    0.23
  -2  -7   4    2.56    0.26
   2  -7  -4    2.20    0.19
   2   7  -3    0.43    0.17
   2  -7  -3    0.68    0.17
  -2  -7   3    0.23    0.12
  -2  -7   3    0.71    0.18
   2  -7  -3    0.52    0.11
   2   7  -2    4.14    0.36
   2  -7  -2    4.48    0.37
  -2  -7   2    4.76    0.37
   2   7  -1    1.58    0.26
   2  -7  -1    1.43    0.23
  -2  -7   1    1.46    0.23
   2   7   0    0.15    0.18
   2  -7   0    0.35    0.16
  -2  -7   0    0.41    0.15
   2   7   1    0.98    0.22
   2  -7   1    0.88    0.19
  -2  -7  -1    0.87    0.20
   2   7   2    0.17    0.15
   2  -7   2    0.18    0.14
  -2  -7  -2    0.45    0.16
   2   7   3    0.60    0.16
  -2  -7  -3    0.83    0.19
   2   7   3    0.62    0.16
   2  -7   3    0.56    0.14
   2   7   4    1.42    0.19
   2   7   4    1.38    0.19
  -2  -7  -4    1.82    0.23
   2  -7   4    2.02    0.19
   2   7   5    0.19    0.12
   2   7   5    0.48    0.15
  -2  -7  -5    0.47    0.14
   2   7   6   13.25    0.44
   2   7   6   12.47    0.46
   2   7   7    1.89    0.16
  -2  -7  -7    2.06    0.17
   2   7   7    1.79    0.16
  -2  -8   5    0.03    0.05
   2   8  -4    1.66    0.14
  -2  -8   4    2.24    0.17
   2   8  -3    8.47    0.34
   2  -8  -3    9.35    0.35
  -2  -8   3    8.81    0.35
   2   8  -2   10.31    0.40
   2  -8  -2   11.56    0.42
  -2  -8   2   10.63    0.40
   2   8  -1    9.01    0.39
   2  -8  -1    9.43    0.39
  -2  -8   1    8.97    0.38
  -2   8   1   10.29    0.36
   2   8   0    1.15    0.17
   2  -8   0    1.38    0.16
  -2  -8   0    1.17    0.15
  -2   8   0    1.59    0.17
   2   8   1    0.32    0.12
   2  -8   1    0.49    0.11
  -2  -8  -1    0.45    0.11
   2   8   2    0.18    0.09
   2  -8   2    0.14    0.07
  -2  -8  -2    0.26    0.10
   2  -8   3    0.16    0.06
  -2  -8  -3    0.14    0.08
  -2  -8  -4    0.15    0.07
   3   0 -13    0.25    0.07
   3   0 -12    9.01    0.38
   3   0 -11    0.46    0.14
   3   0 -10   10.32    0.44
   3   0 -10    9.61    0.50
   3   0  -9    0.42    0.16
   3   0  -9    0.49    0.17
   3   0  -8    0.11    0.13
   3   0  -8    0.14    0.12
   3   0  -8    0.29    0.15
   3   0  -7    0.10    0.14
   3   0  -7   -0.07    0.16
   3   0  -7    0.01    0.12
   3   0  -7   -0.03    0.11
   3   0  -7    0.20    0.15
   3   0  -6    0.19    0.18
   3   0  -5    1.25    0.25
   3   0  -4    0.03    0.14
   3   0  -4   -0.03    0.11
   3   0  -3   -0.03    0.13
   3   0  -3    0.22    0.13
   3   0  -2    0.00    0.13
   3   0  -2   -0.01    0.11
   3   0  -1   -0.01    0.13
   3   0  -1    0.26    0.16
  -3   0   0   -0.10    0.16
   3   0   0   -0.02    0.14
   3   0   0    0.00    0.11
  -3   0  -1    0.20    0.19
   3   0   1   -0.01    0.13
   3   0   1    0.23    0.14
  -3   0  -2    0.21    0.19
   3   0   2    0.14    0.12
   3   0   2   -0.11    0.15
   3   0   3    0.21    0.13
   3   0   3   -0.04    0.15
   3   0   4   33.99    1.20
  -3   0  -4   29.87    1.25
  -3   0  -5    1.12    0.28
   3   0   5    0.80    0.18
   3   0   5    1.30    0.24
   3   0   5    0.80    0.26
   3   0   6   18.99    0.78
   3   0   6   16.71    0.75
   3   0   6   17.75    0.79
   3   0   7    0.51    0.15
   3   0   7    0.65    0.18
   3   0   7    0.45    0.16
   3   0   8    1.70    0.25
   3   0   8    1.43    0.25
  -3   0  -9    0.34    0.15
   3   0   9    0.20    0.15
  -3   0 -10    0.19    0.09
   3   0  10   -0.05    0.09
  -3   0 -11    1.51    0.12
   3   0  11    1.28    0.12
   3  -1 -13    0.85    0.09
   3   1 -12    0.02    0.06
   3  -1 -12   -0.11    0.10
   3   1 -12   -0.11    0.08
   3   1 -11    1.72    0.22
   3   1 -11    1.71    0.18
   3  -1 -11    2.02    0.22
   3   1 -11    1.85    0.21
   3   1 -10    2.30    0.28
   3   1 -10    2.14    0.23
   3  -1 -10    2.32    0.26
   3   1 -10    2.17    0.25
   3   1  -9    0.41    0.16
   3   1  -9    0.51    0.16
   3  -1  -9    0.49    0.14
   3  -1  -9    0.37    0.16
   3   1  -9    0.42    0.15
   3   1  -8    0.15    0.15
   3  -1  -8    0.32    0.13
   3   1  -8    0.18    0.12
   3  -1  -8    0.22    0.12
   3  -1  -8    0.18    0.13
   3   1  -8    0.37    0.16
   3   1  -7    0.93    0.21
   3  -1  -7    1.01    0.26
   3   1  -7    1.26    0.30
   3  -1  -7    0.99    0.17
   3   1  -7    0.76    0.18
   3  -1  -7    0.84    0.18
   3  -1  -7    0.86    0.19
   3   1  -7    1.11    0.21
   3   1  -6    5.20    0.55
   3  -1  -6    4.73    0.49
   3  -1  -6    4.12    0.47
   3   1  -5    4.99    0.53
   3  -1  -5    4.88    0.49
   3  -1  -5    4.64    0.48
   3   1  -4    7.48    0.65
   3  -1  -4    7.92    0.62
   3  -1  -4    7.72    0.60
   3   1  -4    9.10    0.67
   3  -1  -3    3.96    0.44
   3   1  -3    3.28    0.43
   3  -1  -3    3.68    0.42
   3   1  -3    4.22    0.46
   3   1  -2   11.46    0.81
   3  -1  -2   12.10    0.73
   3  -1  -2   10.82    0.69
   3   1  -2   11.31    0.71
   3  -1  -1    1.15    0.26
   3   1  -1    1.06    0.26
   3   1  -1    1.21    0.32
   3  -1  -1    1.50    0.27
   3   1   0    7.87    0.67
   3  -1   0    7.58    0.58
  -3   1   0    7.87    0.62
   3  -1   0    7.66    0.57
   3   1   0    7.37    0.57
  -3   1  -1    1.24    0.29
  -3  -1  -1    0.98    0.26
   3  -1   1    1.56    0.27
   3   1   1    1.32    0.24
   3   1   1    1.60    0.32
   3  -1   1    1.56    0.29
  -3   1  -2    0.06    0.21
  -3  -1  -2   -0.09    0.15
   3  -1   2    0.24    0.15
   3   1   2    0.32    0.17
   3   1   2    0.32    0.20
   3  -1   2    0.10    0.16
  -3   1  -3   -0.01    0.16
  -3  -1  -3    0.37    0.24
   3  -1   3    0.20    0.14
   3   1   3    0.34    0.16
   3  -1   3    0.29    0.18
   3  -1   4    4.06    0.47
   3   1   4    2.92    0.46
   3   1   4    4.38    0.44
  -3   1  -4    3.93    0.47
  -3  -1  -4    3.75    0.45
   3  -1   5    4.06    0.37
   3   1   5    3.93    0.39
   3   1   5    3.31    0.33
   3  -1   5    3.72    0.36
   3  -1   5    3.29    0.43
   3   1   5    2.73    0.46
  -3   1  -5    4.04    0.49
  -3  -1  -5    3.28    0.42
   3  -1   6    0.72    0.18
   3   1   6    0.45    0.15
   3  -1   6    0.43    0.16
   3   1   6    0.10    0.12
   3   1   6    0.46    0.17
   3   1   7    0.26    0.16
   3   1   7    0.37    0.15
   3  -1   7    0.46    0.19
   3   1   7    0.47    0.20
   3   1   8    0.43    0.16
   3   1   8    0.27    0.13
   3  -1   8    0.13    0.13
   3   1   8    0.19    0.15
   3   1   9    3.26    0.28
  -3   1  -9    3.76    0.30
  -3  -1  -9    4.26    0.28
   3  -1   9    3.54    0.30
   3   1   9    2.96    0.31
  -3  -1 -10    8.08    0.31
  -3   1 -10    8.34    0.36
   3  -1  10    7.33    0.34
   3   1  11    7.24    0.26
   3  -1  11    7.42    0.26
   3   2 -12    0.99    0.11
   3   2 -12    1.04    0.10
   3  -2 -12    0.92    0.12
   3   2 -11    4.21    0.32
   3   2 -11    4.24    0.26
   3  -2 -11    4.60    0.25
   3  -2 -11    4.11    0.27
   3   2 -11    4.19    0.25
   3   2 -10    0.76    0.20
   3   2 -10    1.12    0.18
   3  -2 -10    1.08    0.16
   3  -2 -10    1.06    0.18
   3   2 -10    1.04    0.16
   3   2  -9    1.28    0.25
   3   2  -9    1.30    0.20
   3  -2  -9    1.52    0.20
   3  -2  -9    1.11    0.20
   3   2  -9    1.44    0.20
   3   2  -8    9.54    0.61
   3   2  -8   10.34    0.52
   3  -2  -8    9.51    0.50
   3  -2  -8    9.86    0.53
   3   2  -7   19.95    0.87
   3   2  -7   20.80    0.75
   3  -2  -7   20.25    0.75
   3  -2  -7   19.88    0.77
   3   2  -6   30.90    1.30
   3   2  -6   29.28    1.05
   3  -2  -6   30.27    0.86
   3  -2  -6   30.71    0.82
   3   2  -6   29.14    0.88
   3  -2  -6   28.08    0.88
   3  -2  -6   32.53    1.28
   3  -2  -6   28.12    0.91
   3   2  -5   17.94    0.97
   3  -2  -5   16.94    0.92
   3   2  -4    5.63    0.56
   3  -2  -4    6.42    0.57
   3  -2  -4    6.04    0.51
   3   2  -4    6.09    0.56
   3  -2  -3    0.27    0.14
   3   2  -3    0.08    0.13
   3   2  -3    0.09    0.22
   3  -2  -3    0.11    0.15
   3   2  -2   11.66    0.83
   3  -2  -2   10.97    0.74
   3  -2  -2   10.70    0.65
   3   2  -2   10.24    0.69
   3   2  -1   10.01    0.76
   3  -2  -1    9.44    0.68
   3  -2  -1    9.76    0.62
   3   2  -1    9.63    0.64
   3   2   0   58.59    1.83
   3  -2   0   61.67    1.73
   3  -2   0   57.83    1.51
  -3   2   0   60.36    1.74
   3   2   0   61.84    1.56
   3   2   1   20.80    1.08
   3  -2   1   20.98    1.03
   3  -2   1   21.07    0.92
  -3   2  -1   21.05    1.07
   3   2   1   21.35    0.90
  -3  -2  -1   20.38    0.96
   3   2   2    9.64    0.72
   3  -2   2    9.70    0.71
   3  -2   2   10.37    0.66
  -3   2  -2    9.27    0.72
  -3  -2  -2    8.54    0.66
   3   2   3    3.16    0.44
   3  -2   3    3.72    0.46
  -3   2  -3    3.92    0.49
  -3  -2  -3    3.15    0.41
  -3   2  -4    1.64    0.35
  -3  -2  -4    2.03    0.35
   3  -2   4    1.65    0.27
   3   2   4    2.01    0.31
   3  -2   4    1.73    0.26
   3  -2   4    2.18    0.36
   3   2   5    4.18    0.41
   3  -2   5    4.10    0.38
   3   2   6    0.46    0.16
   3   2   6    1.06    0.26
   3  -2   6    0.71    0.18
   3   2   7    0.52    0.18
   3   2   7    0.70    0.20
   3  -2   7    0.74    0.19
   3   2   7    0.70    0.16
   3   2   8    0.09    0.15
  -3   2  -8    0.10    0.13
   3  -2   8    0.08    0.12
   3   2   8   -0.07    0.10
   3   2   8    0.26    0.15
   3   2   9    0.80    0.14
  -3   2  -9    1.04    0.17
   3  -2   9    0.72    0.14
   3   2   9    0.83    0.14
   3   2   9    0.62    0.16
   3   2  10    3.60    0.21
   3  -2  10    3.93    0.22
   3   2  10    3.76    0.26
   3   3 -12    5.10    0.19
   3   3 -11    0.11    0.11
   3   3 -11    0.01    0.08
   3  -3 -11    0.07    0.07
   3   3 -10    2.71    0.28
   3   3 -10    3.22    0.25
   3  -3 -10    3.09    0.23
   3  -3 -10    2.99    0.22
   3   3  -9    3.92    0.37
   3   3  -9    4.10    0.31
   3  -3  -9    4.63    0.32
   3  -3  -9    4.60    0.31
   3   3  -8   17.29    0.76
   3   3  -8   17.42    0.63
   3  -3  -8   18.18    0.66
   3  -3  -8   18.44    0.65
   3   3  -7   16.91    0.78
   3   3  -7   17.63    0.66
   3  -3  -7   18.18    0.69
   3  -3  -7   18.52    0.61
   3  -3  -7   19.33    0.70
   3   3  -6   16.64    0.78
   3  -3  -6   16.66    0.66
   3   3  -6   16.31    0.64
   3  -3  -6   16.44    0.67
   3  -3  -6   16.59    0.62
   3  -3  -6   16.49    0.65
   3   3  -5   11.10    0.64
   3  -3  -5   11.45    0.56
   3   3  -5   10.92    0.52
   3  -3  -5   11.39    0.56
   3  -3  -5   11.13    0.77
   3  -3  -5   10.65    0.51
   3   3  -4    0.96    0.23
   3  -3  -4    1.50    0.21
   3  -3  -4    1.42    0.19
   3   3  -4    1.47    0.19
   3  -3  -4    1.35    0.21
   3   3  -4    2.07    0.41
   3  -3  -4    1.36    0.20
   3  -3  -4    1.33    0.28
   3   3  -3   16.50    0.99
   3  -3  -3   19.07    0.99
   3  -3  -3   18.01    0.67
   3   3  -2    4.30    0.53
   3  -3  -2    5.54    0.54
   3   3  -1    6.40    0.64
   3  -3  -1    7.83    0.64
  -3   3   1    7.41    0.62
   3   3   0   24.87    1.22
   3  -3   0   25.85    1.15
  -3   3   0   24.44    1.15
   3  -3   1   28.39    1.00
   3   3   1   28.01    0.97
   3   3   1   26.37    1.23
   3  -3   1   27.20    1.18
   3  -3   1   27.61    1.04
  -3   3  -1   26.02    1.21
   3  -3   2   18.75    0.80
   3   3   2   17.29    0.76
   3  -3   2   17.49    0.73
   3   3   2   17.91    0.76
   3  -3   2   19.60    0.66
   3   3   2   16.71    0.97
   3  -3   2   18.69    1.00
  -3   3  -2   16.78    0.98
  -3  -3  -2   14.46    0.83
   3  -3   3   10.01    0.58
   3   3   3    9.57    0.59
   3  -3   3    8.63    0.51
   3  -3   3    9.62    0.73
  -3   3  -3    9.44    0.74
  -3  -3  -3    8.16    0.64
   3   3   4    7.75    0.53
   3  -3   4    6.99    0.46
   3   3   5    0.49    0.22
   3  -3   5   -0.12    0.14
   3   3   6    6.79    0.48
   3  -3   6    7.25    0.44
   3   3   6    6.74    0.46
   3   3   7    0.66    0.18
  -3   3  -7    0.93    0.18
   3   3   7    0.87    0.20
   3  -3   7    0.57    0.14
   3   3   8    6.75    0.39
  -3   3  -8    6.50    0.34
   3  -3   8    6.33    0.33
   3   3   8    5.73    0.38
   3   3   9    3.41    0.23
   3  -3   9    3.00    0.19
   3   3   9    2.89    0.25
  -3   3 -10    0.56    0.08
   3   3  10    0.35    0.09
   3   4 -11    8.16    0.25
   3  -4 -11    8.98    0.26
   3   4 -10    7.59    0.30
   3  -4 -10    8.02    0.32
  -3  -4  10    7.59    0.29
   3   4  -9    7.75    0.42
   3   4  -9    8.10    0.36
   3  -4  -9    8.51    0.38
  -3  -4   9    8.86    0.38
   3  -4  -9    9.34    0.34
   3   4  -8   19.18    0.71
   3   4  -8   19.26    0.59
   3  -4  -8   19.94    0.63
  -3  -4   8   20.80    0.65
   3  -4  -8   20.89    0.58
   3   4  -7    1.27    0.23
   3   4  -7    1.48    0.21
   3  -4  -7    1.49    0.21
  -3  -4   7    1.06    0.19
   3  -4  -7    1.50    0.19
   3   4  -6    1.70    0.26
   3  -4  -6    1.47    0.22
   3   4  -6    1.62    0.21
   3  -4  -6    1.53    0.22
   3  -4  -6    1.53    0.20
   3   4  -5    0.87    0.20
   3  -4  -5    1.18    0.23
   3  -4  -5    0.97    0.19
   3  -4  -5    0.91    0.17
   3   4  -4    2.96    0.34
   3  -4  -4    3.52    0.33
   3  -4  -4    3.35    0.30
   3  -4  -4    3.48    0.31
   3   4  -3    0.61    0.21
   3  -4  -3    0.73    0.18
   3  -4  -3    0.33    0.16
   3  -4  -3    0.45    0.13
   3  -4  -3    0.89    0.19
   3  -4  -2    2.58    0.32
   3  -4  -2    3.07    0.31
   3   4  -2    2.78    0.33
   3  -4  -2    3.12    0.25
   3  -4  -2    2.75    0.27
   3  -4  -1    0.28    0.14
   3   4  -1    0.44    0.22
   3  -4  -1    0.17    0.11
   3  -4  -1    0.05    0.14
   3  -4  -1    0.51    0.14
   3   4   0    0.59    0.20
   3  -4   0    1.09    0.22
   3  -4   0    0.94    0.19
   3  -4   0    0.64    0.19
   3  -4   0    0.70    0.15
   3  -4   1    3.45    0.32
   3   4   1    3.90    0.39
   3  -4   1    3.35    0.29
   3   4   2   24.82    0.89
   3  -4   2   24.53    0.82
   3  -4   3   24.92    0.82
   3   4   3   22.84    0.85
   3   4   3   25.58    0.86
   3   4   4   18.04    0.77
   3  -4   4   19.03    0.69
   3  -4   5    9.84    0.47
   3   4   5   10.37    0.57
   3   4   6    5.47    0.41
   3  -4   6    5.29    0.32
   3   4   6    4.26    0.34
   3   4   7    0.28    0.12
   3   4   7    0.21    0.15
   3  -4   7    0.12    0.08
   3   4   8    2.25    0.22
   3   4   8    1.47    0.17
   3   4   9    0.08    0.07
  -3   4  -9    0.23    0.08
  -3  -4  -9    0.11    0.04
   3   4   9    0.17    0.08
   3   5  -9    1.36    0.12
   3  -5  -9    1.69    0.15
  -3  -5   9    1.47    0.13
   3  -5  -9    1.58    0.12
   3   5  -8    0.26    0.08
   3  -5  -8    0.41    0.11
  -3  -5   8    0.22    0.09
   3  -5  -8    0.36    0.09
   3  -5  -7    1.36    0.17
  -3  -5   7    1.41    0.18
   3  -5  -7    1.57    0.17
   3  -5  -6    1.00    0.16
  -3  -5   6    0.97    0.17
   3  -5  -6    0.74    0.15
   3   5  -5    1.54    0.22
   3  -5  -5    1.32    0.18
  -3  -5   5    1.39    0.21
   3  -5  -5    1.63    0.20
   3  -5  -4    2.33    0.26
   3   5  -4    2.27    0.28
  -3  -5   4    2.17    0.25
   3  -5  -4    2.16    0.23
   3   5  -3   30.42    0.96
   3  -5  -3   29.25    0.98
   3  -5  -3   32.35    0.90
  -3  -5   3   33.82    0.92
   3  -5  -3   29.85    0.80
   3   5  -2    5.47    0.45
   3  -5  -2    5.05    0.41
   3  -5  -2    5.20    0.37
  -3  -5   2    5.69    0.39
   3  -5  -2    4.84    0.33
   3   5  -1    5.61    0.46
   3  -5  -1    5.16    0.41
   3  -5  -1    5.41    0.37
  -3  -5   1    5.40    0.38
   3  -5  -1    4.23    0.31
   3   5   0    0.54    0.22
   3  -5   0    0.15    0.12
   3  -5   0    0.43    0.17
  -3  -5   0    0.18    0.12
   3  -5   0    0.28    0.11
   3   5   1    3.24    0.36
   3  -5   1    3.18    0.30
   3  -5   1    3.74    0.31
  -3  -5  -1    4.01    0.32
   3   5   2    0.53    0.16
   3   5   2    0.38    0.17
   3  -5   2    0.63    0.15
   3   5   3    0.11    0.14
   3   5   3    0.25    0.14
   3  -5   3    0.34    0.12
   3   5   4    0.77    0.18
   3  -5   4    1.02    0.15
   3   5   5    0.18    0.14
   3   5   6    0.11    0.13
   3   5   7   -0.01    0.07
   3   5   7    0.09    0.10
  -3   5  -7    0.19    0.08
  -3  -5  -7    0.26    0.06
   3   5   8   -0.08    0.07
   3  -6  -7    0.57    0.08
  -3  -6   7    0.59    0.09
  -3  -6   6    0.10    0.08
   3  -6  -6    0.18    0.08
   3   6  -5    0.24    0.11
  -3  -6   5    0.31    0.10
   3  -6  -5    0.17    0.09
   3   6  -4    0.14    0.12
  -3  -6   4    0.32    0.12
   3  -6  -4    0.27    0.09
   3  -6  -3    0.66    0.17
   3   6  -3    1.11    0.20
  -3  -6   3    0.68    0.15
   3  -6  -3    0.72    0.13
   3   6  -2    0.07    0.16
   3  -6  -2    0.06    0.11
   3  -6  -2    0.02    0.12
  -3  -6   2   -0.03    0.10
   3  -6  -2    0.09    0.08
   3   6  -1   -0.15    0.17
   3  -6  -1    0.10    0.09
   3  -6  -1    0.07    0.13
  -3  -6   1    0.24    0.13
   3  -6  -1    0.06    0.07
   3   6   0    0.32    0.18
   3  -6   0    0.32    0.11
   3  -6   0    0.64    0.15
  -3  -6   0    0.26    0.11
   3   6   1    1.17    0.22
   3  -6   1    0.79    0.14
  -3  -6  -1    0.74    0.15
   3   6   2    1.83    0.20
  -3  -6  -2    2.05    0.21
   3   6   3    2.89    0.23
  -3  -6  -3    2.73    0.22
   3   6   4    0.36    0.11
  -3  -6  -4    0.29    0.09
   3   6   5    0.31    0.09
   3   7  -3   -0.04    0.08
  -3  -7   3    0.18    0.07
   3   7  -2    0.08    0.09
  -3  -7   2    0.05    0.07
   3   7  -1    0.41    0.11
  -3  -7   1    0.29    0.08
   3   7   0    0.84    0.13
  -3  -7   0    0.67    0.11
   3   7   1    0.28    0.09
  -3  -7  -1    0.32    0.08
   4   0  -9    1.72    0.14
   4   0  -8    0.03    0.08
   4   0  -7    0.07    0.10
   4   0  -6    0.01    0.11
   4   0  -6   -0.06    0.13
   4   0  -5    0.05    0.15
   4   0  -5    0.04    0.12
   4   0  -5    0.04    0.13
   4   0  -4    0.18    0.16
   4   0  -4    0.22    0.12
   4   0  -3   -0.05    0.18
   4   0  -3    0.02    0.13
   4   0  -2    2.61    0.28
   4   0  -2    3.23    0.35
   4   0  -2    3.01    0.25
   4   0  -1    1.15    0.23
   4   0  -1    1.51    0.19
   4   0   0    3.74    0.36
   4   0   0    3.87    0.38
   4   0   0    4.06    0.28
   4   0   1    0.18    0.17
   4   0   1    0.21    0.18
   4   0   1    0.36    0.12
   4   0   2    0.14    0.17
   4   0   2    0.18    0.15
   4   0   3   -0.25    0.19
   4   0   3    0.03    0.09
   4   0   4    0.01    0.16
   4   0   4   -0.06    0.09
   4   0   5    1.25    0.19
   4   0   5    1.07    0.15
   4   0   6    0.12    0.10
   4   0   6    0.17    0.09
  -4   0  -7    0.48    0.09
   4   0   7    0.19    0.06
   4  -1  -9    0.37    0.07
   4   1  -9    0.33    0.08
   4  -1  -8    2.27    0.17
   4   1  -8    2.38    0.19
   4  -1  -8    2.34    0.19
   4  -1  -7    6.64    0.31
   4   1  -7    6.54    0.33
   4  -1  -7    6.50    0.34
   4  -1  -6    6.43    0.34
   4   1  -6    6.19    0.34
   4  -1  -6    6.14    0.36
   4   1  -5    2.72    0.28
   4  -1  -5    2.83    0.24
   4   1  -5    2.96    0.25
   4  -1  -5    2.41    0.25
   4   1  -4    0.24    0.17
   4  -1  -4    0.07    0.12
   4   1  -4    0.27    0.12
   4  -1  -4    0.00    0.13
   4   1  -3    0.27    0.19
   4  -1  -3    0.36    0.15
   4   1  -3    0.22    0.12
   4  -1  -3   -0.10    0.14
   4   1  -2    2.16    0.31
   4  -1  -2    2.12    0.22
   4   1  -2    2.71    0.24
   4  -1  -1    5.85    0.44
   4   1  -1    6.22    0.40
   4  -1  -1    6.20    0.46
   4   1  -1    5.70    0.45
   4  -1  -1    6.60    0.36
   4   1  -1    6.64    0.34
   4  -1   0    2.43    0.32
   4   1   0    2.28    0.29
   4   1   0    2.73    0.33
   4  -1   0    2.41    0.24
   4  -1   0    2.88    0.25
   4  -1   1    1.25    0.26
   4   1   1    1.10    0.23
   4   1   1    0.69    0.21
   4  -1   1    0.91    0.16
   4  -1   1    1.49    0.18
   4  -1   2   -0.15    0.20
   4   1   2    0.12    0.17
   4   1   2    0.02    0.14
   4  -1   2    0.06    0.09
   4  -1   2    0.33    0.16
   4  -1   3    0.14    0.16
   4   1   3    0.22    0.17
   4   1   3    0.08    0.13
   4  -1   3    0.05    0.10
   4  -1   4    2.37    0.26
   4   1   4    1.95    0.25
   4  -1   4    1.98    0.20
   4  -1   5    2.14    0.21
   4   1   5    2.26    0.24
   4  -1   5    1.92    0.19
   4   1   6    2.04    0.19
   4  -1   6    1.68    0.16
  -4   1  -7    0.40    0.08
  -4  -1  -7    0.44    0.08
   4  -1   7    0.23    0.06
   4   2  -9    0.17    0.06
   4  -2  -9    0.13    0.05
   4   2  -8    2.67    0.18
   4  -2  -8    2.72    0.19
   4   2  -7   11.41    0.39
   4  -2  -7   11.87    0.42
   4  -2  -6   11.59    0.40
   4   2  -6   11.03    0.41
   4  -2  -6   10.74    0.44
   4   2  -5    9.39    0.44
   4  -2  -5   10.41    0.40
   4   2  -5   10.69    0.42
   4  -2  -5   10.01    0.45
   4   2  -4    2.81    0.29
   4  -2  -4    3.23    0.23
   4  -2  -4    3.43    0.26
   4   2  -4    3.60    0.25
   4  -2  -4    3.46    0.29
   4   2  -3    1.02    0.22
   4  -2  -3    1.17    0.16
   4  -2  -3    1.12    0.17
   4   2  -3    1.10    0.15
   4  -2  -3    0.89    0.17
   4   2  -2    1.07    0.25
   4  -2  -2    0.86    0.16
   4  -2  -2    1.02    0.17
   4  -2  -2    0.84    0.17
   4   2  -1    0.80    0.23
   4  -2  -1    1.02    0.17
   4  -2  -1    1.14    0.18
   4   2   0    0.18    0.13
   4   2   0    0.21    0.18
   4  -2   0    0.09    0.10
   4  -2   0    0.47    0.16
   4   2   1    0.30    0.15
   4   2   1    0.56    0.19
   4  -2   1    0.46    0.14
   4  -2   1    0.66    0.17
   4   2   2    0.58    0.18
   4   2   2    1.24    0.22
   4  -2   2    1.06    0.18
   4   2   3    1.03    0.20
   4   2   3    1.30    0.18
   4  -2   3    1.53    0.19
   4   2   4    2.66    0.27
   4  -2   4    3.00    0.24
   4   2   5    0.03    0.12
   4  -2   5    0.07    0.08
   4   2   6    0.67    0.12
   4  -2   6    0.61    0.10
   4   3  -8    0.38    0.07
   4  -3  -8    0.34    0.08
   4   3  -7    0.20    0.07
   4  -3  -7    0.00    0.08
   4   3  -6    0.41    0.09
   4  -3  -6    0.30    0.11
   4   3  -5    2.27    0.23
   4   3  -5    2.54    0.18
   4  -3  -5    2.76    0.22
   4   3  -4    1.05    0.19
   4  -3  -4    1.42    0.17
   4  -3  -4    1.67    0.16
   4  -3  -4    1.32    0.16
   4   3  -3   -0.02    0.15
   4  -3  -3   -0.05    0.10
   4  -3  -3    0.01    0.11
   4  -3  -3    0.01    0.10
   4   3  -2    0.37    0.20
   4  -3  -2    0.13    0.10
   4  -3  -2    0.38    0.13
   4   3  -1    0.97    0.23
   4  -3  -1    0.82    0.16
   4  -3  -1    1.04    0.18
   4   3   0    8.01    0.45
   4  -3   0    7.29    0.38
   4   3   1    9.71    0.43
   4   3   1   11.06    0.50
   4  -3   1   10.70    0.45
   4   3   2    7.33    0.37
   4   3   2    8.20    0.40
   4  -3   2    7.31    0.37
   4   3   3   10.16    0.44
   4  -3   3   11.01    0.43
   4   3   4   10.39    0.41
   4  -3   4   11.90    0.41
   4   3   5    2.08    0.18
   4  -3   5    2.20    0.16
   4  -4  -6    0.42    0.08
   4   4  -5    0.26    0.08
   4  -4  -5    0.28    0.08
   4   4  -4    1.26    0.17
   4  -4  -4    1.45    0.13
   4   4  -3    2.29    0.23
   4  -4  -3    3.02    0.22
   4   4  -2    5.59    0.34
   4  -4  -2    6.82    0.32
   4   4  -1    4.41    0.32
   4  -4  -1    5.07    0.29
   4   4   0    2.74    0.25
   4  -4   0    2.82    0.22
   4   4   1    3.02    0.25
   4  -4   1    3.12    0.22
   4   4   2    4.23    0.25
   4  -4   2    4.41    0.25
   4   4   3    0.50    0.10
   4  -4   3    0.86    0.12
   4  -4   4    0.94    0.10
   4   5  -2    0.77    0.12
   4   5  -1    0.08    0.09
   4  -5  -1    0.00    0.06
   4   5   0    0.21    0.09
   4  -5   0    0.25    0.07
   0   0   0    0.00    0.00
;
_shelx_hkl_checksum              12977
loop_
_space_group_symop_operation_xyz
'x, y, z'
'-x, y+1/2, -z'
loop_
_atom_site_label
_atom_site_type_symbol
_atom_site_fract_x
_atom_site_fract_y
_atom_site_fract_z
_atom_site_U_iso_or_equiv
_atom_site_adp_type
_atom_site_occupancy
_atom_site_site_symmetry_order
_atom_site_calc_flag
_atom_site_refinement_flags_posn
_atom_site_refinement_flags_adp
O4 O 0.5422(6) 1.0418(3) 0.63624(14) 0.0481(5) Uani 1 1 d D .
O1 O -0.0297(6) 0.3835(2) 0.72386(16) 0.0474(5) Uani 1 1 d D .
O3 O 0.5791(6) 1.1186(3) 0.83967(17) 0.0516(5) Uani 1 1 d . .
O2 O -0.0003(6) 0.4726(3) 0.92400(15) 0.0529(6) Uani 1 1 d . .
C3 C 0.3441(6) 0.8416(3) 0.77065(17) 0.0297(5) Uani 1 1 d . .
C2 C 0.1961(6) 0.6695(3) 0.79350(18) 0.0300(5) Uani 1 1 d . .
C4 C 0.4032(6) 0.8838(3) 0.66525(18) 0.0335(5) Uani 1 1 d . .
C8 C 0.4360(8) 0.9744(4) 0.85416(19) 0.0407(6) Uani 1 1 d . .
H8 H 0.3815 0.9472 0.9239 0.049 Uiso 1 1 calc R U
C1 C 0.1123(6) 0.5472(3) 0.71014(19) 0.0336(5) Uani 1 1 d . .
C7 C 0.1323(8) 0.6165(4) 0.9019(2) 0.0405(6) Uani 1 1 d . .
H7 H 0.1969 0.6977 0.9579 0.049 Uiso 1 1 calc R U
C5 C 0.3220(7) 0.7570(3) 0.58359(18) 0.0369(5) Uani 1 1 d . .
H5 H 0.3665 0.7850 0.5130 0.044 Uiso 1 1 calc R U
C6 C 0.1796(7) 0.5939(3) 0.60522(19) 0.0386(5) Uani 1 1 d . .
H6 H 0.1253 0.5112 0.5492 0.046 Uiso 1 1 calc R U
H4 H 0.604(9) 1.103(4) 0.6909(19) 0.058 Uiso 1 1 d D U
H1 H -0.048(9) 0.370(5) 0.7901(12) 0.058 Uiso 1 1 d D U
loop_
_atom_site_aniso_label
_atom_site_aniso_U_11
_atom_site_aniso_U_22
_atom_site_aniso_U_33
_atom_site_aniso_U_23
_atom_site_aniso_U_13
_atom_site_aniso_U_12
O4 0.0723(13) 0.0376(9) 0.0352(9) 0.0043(8) 0.0092(8) -0.0134(9)
O1 0.0642(13) 0.0326(9) 0.0461(10) -0.0028(8) 0.0087(9) -0.0109(9)
O3 0.0737(14) 0.0378(10) 0.0436(10) -0.0042(8) 0.0074(9) -0.0181(10)
O2 0.0754(15) 0.0429(11) 0.0422(10) 0.0071(9) 0.0149(9) -0.0147(10)
C3 0.0330(11) 0.0284(11) 0.0280(10) -0.0003(8) 0.0037(7) 0.0008(9)
C2 0.0316(11) 0.0281(10) 0.0308(11) 0.0017(8) 0.0054(8) 0.0013(8)
C4 0.0371(13) 0.0307(11) 0.0331(11) 0.0038(9) 0.0062(9) -0.0009(10)
C8 0.0534(16) 0.0357(12) 0.0337(11) -0.0022(10) 0.0075(10) -0.0078(12)
C1 0.0354(12) 0.0284(11) 0.0374(12) -0.0003(10) 0.0052(9) -0.0006(10)
C7 0.0547(14) 0.0344(12) 0.0334(12) 0.0036(9) 0.0090(10) -0.0027(11)
C5 0.0435(13) 0.0401(12) 0.0276(10) 0.0008(9) 0.0062(9) 0.0009(10)
C6 0.0458(13) 0.0373(12) 0.0326(12) -0.0060(9) 0.0040(9) 0.0000(11)
loop_
_atom_type_symbol
_atom_type_description
_atom_type_scat_dispersion_real
_atom_type_scat_dispersion_imag
_atom_type_scat_source
C C 0.0181 0.0091 'International Tables Vol C Tables 4.2.6.8 and 6.1.1.4'
H H 0.0000 0.0000 'International Tables Vol C Tables 4.2.6.8 and 6.1.1.4'
O O 0.0492 0.0322 'International Tables Vol C Tables 4.2.6.8 and 6.1.1.4'
loop_
_exptl_crystal_face_index_h
_exptl_crystal_face_index_k
_exptl_crystal_face_index_l
_exptl_crystal_face_perp_dist
_exptl_oxdiff_crystal_face_indexfrac_h
_exptl_oxdiff_crystal_face_indexfrac_k
_exptl_oxdiff_crystal_face_indexfrac_l
_exptl_oxdiff_crystal_face_x
_exptl_oxdiff_crystal_face_y
_exptl_oxdiff_crystal_face_z
-1 4 4 0.0400 -1.0037 4.0013 4.0050 0.6444 -0.2911 -0.7524
-2 -1 0 0.0937 -1.9971 -1.0088 -0.0055 -0.4598 0.2607 -0.6513
0 -2 8 0.0232 0.0064 -2.0091 7.9846 0.5400 0.9236 -0.0255
-2 2 1 0.0763 -2.0012 1.9961 1.0017 -0.0353 -0.1458 -0.8991
2 0 -1 0.0954 1.9982 0.0076 -0.9961 0.2550 -0.1754 0.7485
0 -4 -4 0.0433 0.0044 -4.0048 -4.0063 -0.8194 0.3411 0.3891
0 2 -8 0.0279 -0.0064 2.0091 -7.9846 -0.5400 -0.9236 0.0255
0 4 4 0.0366 -0.0044 4.0048 4.0063 0.8194 -0.3411 -0.3891
2 -2 -2 0.0754 2.0008 -1.9954 -2.0005 -0.0597 0.0705 0.9211
loop_
_geom_angle_atom_site_label_1
_geom_angle_atom_site_label_2
_geom_angle_atom_site_label_3
_geom_angle
C4 O4 H4 109(3)
C1 O1 H1 108(3)
C4 C3 C2 119.33(19)
C4 C3 C8 118.8(2)
C2 C3 C8 121.89(19)
C1 C2 C3 119.49(19)
C1 C2 C7 118.5(2)
C3 C2 C7 122.0(2)
O4 C4 C3 123.5(2)
O4 C4 C5 116.62(19)
C3 C4 C5 119.9(2)
O3 C8 C3 124.3(2)
O3 C8 H8 117.8
C3 C8 H8 117.8
O1 C1 C2 123.6(2)
O1 C1 C6 116.9(2)
C2 C1 C6 119.5(2)
O2 C7 C2 123.8(3)
O2 C7 H7 118.1
C2 C7 H7 118.1
C6 C5 C4 120.8(2)
C6 C5 H5 119.6
C4 C5 H5 119.6
C5 C6 C1 121.0(2)
C5 C6 H6 119.5
C1 C6 H6 119.5
loop_
_geom_bond_atom_site_label_1
_geom_bond_atom_site_label_2
_geom_bond_distance
O4 C4 1.347(3)
O4 H4 0.836(14)
O1 C1 1.344(3)
O1 H1 0.847(13)
O3 C8 1.220(3)
O2 C7 1.221(3)
C3 C4 1.398(3)
C3 C2 1.432(3)
C3 C8 1.455(3)
C2 C1 1.397(3)
C2 C7 1.457(3)
C4 C5 1.402(3)
C8 H8 0.9400
C1 C6 1.408(3)
C7 H7 0.9400
C5 C6 1.361(3)
C5 H5 0.9400
C6 H6 0.9400
