#------------------------------------------------------------------------------
#$Date: 2019-11-04 18:11:02 +0200 (Mon, 04 Nov 2019) $
#$Revision: 223214 $
#$URL: file:///home/coder/svn-repositories/cod/cif/1/55/24/1552484.cif $
#------------------------------------------------------------------------------
#
# This file is available in the Crystallography Open Database (COD),
# http://www.crystallography.net/
#
# All data on this site have been placed in the public domain by the
# contributors.
#
data_1552484
loop_
_publ_author_name
'Wang, Guotong'
'Cui, Pengcheng'
'Bai, Hongjin'
'Wei, Sanyue'
'Li, Shengkun'
_publ_section_title
;
 Late-Stage C-H Functionalization of Nicotinamides for the Expedient
 Discovery of Novel Antifungal Leads.
;
_journal_issue                   43
_journal_name_full               'Journal of agricultural and food chemistry'
_journal_page_first              11901
_journal_page_last               11910
_journal_paper_doi               10.1021/acs.jafc.9b05349
_journal_volume                  67
_journal_year                    2019
_chemical_formula_moiety         'C17 H17 N3 O3'
_chemical_formula_sum            'C17 H17 N3 O3'
_chemical_formula_weight         311.33
_space_group_crystal_system      triclinic
_space_group_IT_number           2
_space_group_name_Hall           '-P 1'
_space_group_name_H-M_alt        'P -1'
_symmetry_space_group_name_Hall  '-P 1'
_symmetry_space_group_name_H-M   'P -1'
_atom_sites_solution_hydrogens   geom
_atom_sites_solution_primary     dual
_audit_creation_date             2019-01-18
_audit_creation_method
;
Olex2 1.2
(compiled 2018.05.29 svn.r3508 for OlexSys, GUI svn.r5506)
;
_cell_angle_alpha                88.093(9)
_cell_angle_beta                 83.682(9)
_cell_angle_gamma                89.913(9)
_cell_formula_units_Z            2
_cell_length_a                   7.7965(9)
_cell_length_b                   8.6490(9)
_cell_length_c                   10.9982(11)
_cell_measurement_reflns_used    2882
_cell_measurement_temperature    99.99(10)
_cell_measurement_theta_max      28.9580
_cell_measurement_theta_min      2.6360
_cell_volume                     736.72(14)
_computing_cell_refinement       'CrysAlisPro 1.171.38.43f (Rigaku OD, 2015)'
_computing_data_collection       'CrysAlisPro 1.171.38.43f (Rigaku OD, 2015)'
_computing_data_reduction        'CrysAlisPro 1.171.38.43f (Rigaku OD, 2015)'
_computing_molecular_graphics    'Olex2 (Dolomanov et al., 2009)'
_computing_publication_material  'Olex2 (Dolomanov et al., 2009)'
_computing_structure_refinement  'ShelXL (Sheldrick, 2015)'
_computing_structure_solution    'ShelXT (Sheldrick, 2015)'
_diffrn_ambient_environment      N~2~
_diffrn_ambient_temperature      99.99(10)
_diffrn_detector                 'CCD plate'
_diffrn_detector_area_resol_mean 5.2684
_diffrn_detector_type            AtlasS2
_diffrn_measured_fraction_theta_full 1.000
_diffrn_measured_fraction_theta_max 1.000
_diffrn_measurement_details
;
List of Runs (angles in degrees, time in seconds):

  # Type    Start    End  Width  t~exp~   \w     \q     \k     \f   Frames
--------------------------------------------------------------------------
  1  \w    -60.00  40.00   1.00    1.00    --   11.74 -57.00 -90.00  100
  2  \w    -21.00  88.00   1.00    1.00    --   11.74  77.00-180.00  109
  3  \w    -16.00  85.00   1.00    1.00    --   11.74  57.00  60.00  101
;
_diffrn_measurement_device       'four-circle diffractometer'
_diffrn_measurement_device_type  'SuperNova, Dual, Cu at zero, AtlasS2'
_diffrn_measurement_method       '\w scans'
_diffrn_orient_matrix_type
'CrysAlisPro convention (1999,Acta A55,543-557)'
_diffrn_orient_matrix_UB_11      -0.0448665000
_diffrn_orient_matrix_UB_12      0.0531381000
_diffrn_orient_matrix_UB_13      0.0396587000
_diffrn_orient_matrix_UB_21      0.0198069000
_diffrn_orient_matrix_UB_22      -0.0456254000
_diffrn_orient_matrix_UB_23      0.0513827000
_diffrn_orient_matrix_UB_31      0.0772852000
_diffrn_orient_matrix_UB_32      0.0427513000
_diffrn_orient_matrix_UB_33      0.0013927000
_diffrn_radiation_monochromator  mirror
_diffrn_radiation_probe          x-ray
_diffrn_radiation_type           MoK\a
_diffrn_radiation_wavelength     0.71073
_diffrn_reflns_av_R_equivalents  0.0205
_diffrn_reflns_av_unetI/netI     0.0349
_diffrn_reflns_Laue_measured_fraction_full 1.000
_diffrn_reflns_Laue_measured_fraction_max 1.000
_diffrn_reflns_limit_h_max       7
_diffrn_reflns_limit_h_min       -9
_diffrn_reflns_limit_k_max       10
_diffrn_reflns_limit_k_min       -10
_diffrn_reflns_limit_l_max       11
_diffrn_reflns_limit_l_min       -13
_diffrn_reflns_number            5288
_diffrn_reflns_point_group_measured_fraction_full 1.000
_diffrn_reflns_point_group_measured_fraction_max 1.000
_diffrn_reflns_theta_full        24.996
_diffrn_reflns_theta_max         24.996
_diffrn_reflns_theta_min         2.356
_diffrn_source                   'micro-focus sealed X-ray tube'
_diffrn_source_type              'SuperNova (Mo) X-ray Source'
_exptl_absorpt_coefficient_mu    0.098
_exptl_absorpt_correction_T_max  1.00000
_exptl_absorpt_correction_T_min  0.89627
_exptl_absorpt_correction_type   multi-scan
_exptl_absorpt_process_details
;
CrysAlisPro 1.171.38.43f (Rigaku Oxford Diffraction, 2015)
Empirical absorption correction using spherical harmonics,
 implemented in SCALE3 ABSPACK scaling algorithm.
;
_exptl_crystal_colour            colourless
_exptl_crystal_colour_primary    colourless
_exptl_crystal_density_diffrn    1.403
_exptl_crystal_description       block
_exptl_crystal_F_000             328
_exptl_crystal_size_max          0.13
_exptl_crystal_size_mid          0.12
_exptl_crystal_size_min          0.11
_refine_diff_density_max         0.169
_refine_diff_density_min         -0.259
_refine_diff_density_rms         0.053
_refine_ls_extinction_method     none
_refine_ls_goodness_of_fit_ref   1.027
_refine_ls_hydrogen_treatment    constr
_refine_ls_matrix_type           full
_refine_ls_number_parameters     209
_refine_ls_number_reflns         2589
_refine_ls_number_restraints     0
_refine_ls_restrained_S_all      1.027
_refine_ls_R_factor_all          0.0441
_refine_ls_R_factor_gt           0.0386
_refine_ls_shift/su_max          0.000
_refine_ls_shift/su_mean         0.000
_refine_ls_structure_factor_coef Fsqd
_refine_ls_weighting_details
'w=1/[\s^2^(Fo^2^)+(0.0376P)^2^+0.2875P] where P=(Fo^2^+2Fc^2^)/3'
_refine_ls_weighting_scheme      calc
_refine_ls_wR_factor_gt          0.0863
_refine_ls_wR_factor_ref         0.0906
_reflns_Friedel_coverage         0.000
_reflns_number_gt                2276
_reflns_number_total             2589
_reflns_threshold_expression     'I > 2\s(I)'
_iucr_refine_instructions_details
;
TITL b26-2_a.res in P-1
    b26-2.res
    created by SHELXL-2018/3 at 17:24:14 on 18-Jan-2019
REM Old TITL b26-2 in P-1
REM SHELXT solution in P-1: R1 0.115, Rweak 0.007, Alpha 0.028
REM <I/s> 0.000 for 0 systematic absences, Orientation as input
REM Formula found by SHELXT: C17 N3 O3
CELL 0.71073 7.7965 8.649 10.9982 88.093 83.682 89.913
ZERR 2 0.0009 0.0009 0.0011 0.009 0.009 0.009
LATT 1
SFAC C H N O
UNIT 34 34 6 6

L.S. 20
PLAN  20
BOND $H
list 4
fmap 2
acta
OMIT -3 50
REM <olex2.extras>
REM <HklSrc "%.\\b26-2.hkl">
REM </olex2.extras>

WGHT    0.037600    0.287500
FVAR       0.86614
O2    4    0.769403    0.093374    0.739572    11.00000    0.02496    0.01346 =
         0.01805    0.00064    0.00296    0.00224
O3    4    0.685162    0.707632    0.409919    11.00000    0.02940    0.01376 =
         0.01451    0.00182   -0.00131    0.00630
O1    4    0.432862    0.154489    0.891915    11.00000    0.01506    0.02582 =
         0.01653   -0.00383    0.00067   -0.00510
N2    3    0.761993    0.346029    0.669154    11.00000    0.01922    0.01155 =
         0.01173   -0.00165   -0.00067    0.00159
AFIX  43
H2    2    0.732900    0.437220    0.692508    11.00000   -1.20000
AFIX   0
N1    3    0.767735    0.441809    1.052318    11.00000    0.01900    0.01969 =
         0.01292   -0.00042   -0.00377   -0.00015
N3    3    0.634388    0.630251    0.609604    11.00000    0.01665    0.01254 =
         0.01572   -0.00126   -0.00067    0.00070
C13   1    0.699723    0.599613    0.501259    11.00000    0.01339    0.01251 =
         0.01433    0.00204   -0.00432   -0.00325
C7    1    0.822007    0.333959    0.543734    11.00000    0.01173    0.01544 =
         0.01203   -0.00054   -0.00210   -0.00302
C6    1    0.744467    0.231368    0.757636    11.00000    0.00972    0.01547 =
         0.01444    0.00048   -0.00142   -0.00056
C5    1    0.693833    0.290176    0.883971    11.00000    0.01581    0.01257 =
         0.01250    0.00297   -0.00251    0.00327
C12   1    0.793475    0.458452    0.461676    11.00000    0.01051    0.01396 =
         0.01378   -0.00140   -0.00303   -0.00155
C1    1    0.536229    0.245244    0.950358    11.00000    0.01631    0.01454 =
         0.01399    0.00209   -0.00459    0.00082
C8    1    0.914983    0.205426    0.499209    11.00000    0.01555    0.01452 =
         0.01622    0.00252   -0.00176    0.00048
AFIX  43
H8    2    0.935207    0.123261    0.552438    11.00000   -1.20000
AFIX   0
C9    1    0.977498    0.199417    0.375942    11.00000    0.01521    0.01610 =
         0.01707   -0.00314   -0.00024    0.00179
AFIX  43
H9    2    1.038551    0.112978    0.347525    11.00000   -1.20000
AFIX   0
C2    1    0.498036    0.300552    1.067896    11.00000    0.01505    0.02069 =
         0.01387    0.00252    0.00001    0.00109
AFIX  43
H2A   2    0.395566    0.273131    1.115076    11.00000   -1.20000
AFIX   0
C3    1    0.615969    0.397217    1.112903    11.00000    0.01899    0.02085 =
         0.01199    0.00016   -0.00257    0.00420
AFIX  43
H3    2    0.587883    0.434047    1.191060    11.00000   -1.20000
AFIX   0
C4    1    0.802233    0.386829    0.938917    11.00000    0.01514    0.01425 =
         0.01422    0.00283   -0.00036    0.00153
AFIX  43
H4    2    0.906170    0.415775    0.894318    11.00000   -1.20000
AFIX   0
C11   1    0.859414    0.449383    0.338415    11.00000    0.01471    0.01506 =
         0.01407    0.00317   -0.00347   -0.00258
AFIX  43
H11   2    0.842139    0.531550    0.284433    11.00000   -1.20000
AFIX   0
C10   1    0.949712    0.320902    0.295110    11.00000    0.01585    0.01926 =
         0.01249   -0.00161    0.00054   -0.00110
AFIX  43
H10   2    0.991239    0.316163    0.212749    11.00000   -1.20000
AFIX   0
C15   1    0.600398    0.840194    0.467955    11.00000    0.02025    0.01163 =
         0.02069   -0.00152   -0.00124    0.00324
AFIX  23
H15A  2    0.496019    0.866569    0.431436    11.00000   -1.20000
H15B  2    0.676485    0.929436    0.460674    11.00000   -1.20000
AFIX   0
C14   1    0.558036    0.786836    0.602830    11.00000    0.01911    0.01342 =
         0.01864   -0.00255   -0.00224    0.00128
AFIX  23
H14A  2    0.609100    0.855965    0.656539    11.00000   -1.20000
H14B  2    0.434271    0.783028    0.625487    11.00000   -1.20000
AFIX   0
C16   1    0.259670    0.124024    0.949686    11.00000    0.01514    0.02440 =
         0.02032    0.00116    0.00176   -0.00376
AFIX  23
H16A  2    0.199612    0.220122    0.968271    11.00000   -1.20000
H16B  2    0.262756    0.063091    1.025066    11.00000   -1.20000
AFIX   0
C17   1    0.170958    0.035421    0.858182    11.00000    0.02068    0.03749 =
         0.02503   -0.00185   -0.00111   -0.00843
AFIX 137
H17A  2    0.172503    0.095942    0.783297    11.00000   -1.50000
H17B  2    0.053666    0.014406    0.890737    11.00000   -1.50000
H17C  2    0.230361   -0.060358    0.842394    11.00000   -1.50000
AFIX   0
HKLF 4




REM  b26-2_a.res in P-1
REM wR2 = 0.0906, GooF = S = 1.027, Restrained GooF = 1.027 for all data
REM R1 = 0.0386 for 2276 Fo > 4sig(Fo) and 0.0441 for all 2589 data
REM 209 parameters refined using 0 restraints

END  
     
WGHT      0.0417      0.2201 

REM Highest difference peak  0.169,  deepest hole -0.259,  1-sigma level  0.053
Q1    1   0.7776  0.2746  0.9256  11.00000  0.05    0.17
Q2    1   0.6553  0.5783  0.6692  11.00000  0.05    0.17
Q3    1   0.7150  0.3862  0.8849  11.00000  0.05    0.16
Q4    1   0.7130  0.2762  0.8254  11.00000  0.05    0.15
Q5    1   0.8664  0.4269  0.5060  11.00000  0.05    0.15
Q6    1   0.6533  0.4092  0.6937  11.00000  0.05    0.15
Q7    1   0.7852  0.6278  0.6606  11.00000  0.05    0.14
Q8    1   0.3751  0.8312  0.5006  11.00000  0.05    0.14
Q9    1   1.0257  0.3150  0.1875  11.00000  0.05    0.14
Q10   1   0.9630  0.1362  0.5715  11.00000  0.05    0.14
Q11   1   0.6164  0.3030  0.5101  11.00000  0.05    0.14
Q12   1   0.9411  0.2985  0.5305  11.00000  0.05    0.14
Q13   1   0.7867  0.9355  0.4576  11.00000  0.05    0.13
Q14   1   0.1488  0.1147  0.6389  11.00000  0.05    0.13
Q15   1   0.7545  0.3805  0.4932  11.00000  0.05    0.13
Q16   1   0.7742  0.4180  0.3874  11.00000  0.05    0.13
Q17   1   0.7306  0.9036  0.4044  11.00000  0.05    0.13
Q18   1   0.5895  0.5996  1.1717  11.00000  0.05    0.13
Q19   1   0.6027  0.2910  0.8998  11.00000  0.05    0.13
Q20   1   0.8694  0.4681  0.4160  11.00000  0.05    0.13

  REM The information below was added by Olex2.
  REM
  REM R1 = 0.0386 for 2276 Fo > 4sig(Fo) and 0.0441 for all 6240 data
  REM n/a parameters refined using n/a restraints
  REM Highest difference peak 0.17, deepest hole -0.26
  REM Mean Shift 0, Max Shift 0.000.

  REM +++ Tabular Listing of Refinement Information +++
  REM R1_all = 0.0441
  REM R1_gt = 0.0386
  REM wR_ref = 0.0906
  REM GOOF = 1.027
  REM Shift_max = 0.000
  REM Shift_mean = 0
  REM Reflections_all = 6240
  REM Reflections_gt = 2276
  REM Parameters = n/a
  REM Hole = -0.26
  REM Peak = 0.17
  REM Flack = n/a

  
;
_cod_data_source_file            jf9b05349_si_005.cif
_cod_data_source_block           b26-2
_cod_depositor_comments
'Adding full bibliography for 1552483--1552486.cif.'
_cod_database_code               1552484
_shelx_shelxl_version_number     2018/3
_shelx_space_group_comment
;
The symmetry employed for this shelxl refinement is uniquely defined
by the following loop, which should always be used as a source of
symmetry information in preference to the above space-group names.
They are only intended as comments.
;
_reflns_odcompleteness_completeness 99.83
_reflns_odcompleteness_iscentric 1
_reflns_odcompleteness_theta     26.32
_olex2_refinement_description
;
1. Fixed Uiso
 At 1.2 times of:
  All C(H) groups, All C(H,H) groups, All N(H) groups
 At 1.5 times of:
  All C(H,H,H) groups
2.a Secondary CH2 refined with riding coordinates:
 C15(H15A,H15B), C14(H14A,H14B), C16(H16A,H16B)
2.b Aromatic/amide H refined with riding coordinates:
 N2(H2), C8(H8), C9(H9), C2(H2A), C3(H3), C4(H4), C11(H11), C10(H10)
2.c Idealised Me refined as rotating group:
 C17(H17A,H17B,H17C)
;
_olex2_date_sample_data_collection 2019-01-17
_olex2_submission_special_instructions 'No special instructions were received'
_oxdiff_exptl_absorpt_empirical_details
;
Empirical correction (ABSPACK) includes:
- Absorption correction using spherical harmonics
- Frame scaling
;
_oxdiff_exptl_absorpt_empirical_full_max 1.283
_oxdiff_exptl_absorpt_empirical_full_min 0.776
loop_
_space_group_symop_operation_xyz
'x, y, z'
'-x, -y, -z'
loop_
_atom_site_label
_atom_site_type_symbol
_atom_site_fract_x
_atom_site_fract_y
_atom_site_fract_z
_atom_site_U_iso_or_equiv
_atom_site_adp_type
_atom_site_occupancy
_atom_site_site_symmetry_order
_atom_site_calc_flag
_atom_site_refinement_flags_posn
O2 O 0.76940(13) 0.09337(12) 0.73957(10) 0.0192(3) Uani 1 1 d .
O3 O 0.68516(14) 0.70763(12) 0.40992(9) 0.0194(3) Uani 1 1 d .
O1 O 0.43286(13) 0.15449(12) 0.89191(10) 0.0192(3) Uani 1 1 d .
N2 N 0.76199(15) 0.34603(14) 0.66915(11) 0.0142(3) Uani 1 1 d .
H2 H 0.732900 0.437220 0.692508 0.017 Uiso 1 1 calc R
N1 N 0.76773(16) 0.44181(15) 1.05232(11) 0.0171(3) Uani 1 1 d .
N3 N 0.63439(15) 0.63025(14) 0.60960(11) 0.0150(3) Uani 1 1 d .
C13 C 0.69972(18) 0.59961(16) 0.50126(13) 0.0133(3) Uani 1 1 d .
C7 C 0.82201(18) 0.33396(17) 0.54373(13) 0.0130(3) Uani 1 1 d .
C6 C 0.74447(17) 0.23137(17) 0.75764(13) 0.0132(3) Uani 1 1 d .
C5 C 0.69383(18) 0.29018(17) 0.88397(13) 0.0136(3) Uani 1 1 d .
C12 C 0.79347(17) 0.45845(17) 0.46168(13) 0.0126(3) Uani 1 1 d .
C1 C 0.53623(18) 0.24524(17) 0.95036(14) 0.0148(3) Uani 1 1 d .
C8 C 0.91498(18) 0.20543(18) 0.49921(14) 0.0155(3) Uani 1 1 d .
H8 H 0.935207 0.123261 0.552438 0.019 Uiso 1 1 calc R
C9 C 0.97750(18) 0.19942(18) 0.37594(14) 0.0162(3) Uani 1 1 d .
H9 H 1.038551 0.112978 0.347525 0.019 Uiso 1 1 calc R
C2 C 0.49804(19) 0.30055(18) 1.06790(14) 0.0167(3) Uani 1 1 d .
H2A H 0.395566 0.273131 1.115076 0.020 Uiso 1 1 calc R
C3 C 0.61597(19) 0.39722(18) 1.11290(14) 0.0172(3) Uani 1 1 d .
H3 H 0.587883 0.434047 1.191060 0.021 Uiso 1 1 calc R
C4 C 0.80223(18) 0.38683(17) 0.93892(14) 0.0147(3) Uani 1 1 d .
H4 H 0.906170 0.415775 0.894318 0.018 Uiso 1 1 calc R
C11 C 0.85941(18) 0.44938(17) 0.33841(14) 0.0146(3) Uani 1 1 d .
H11 H 0.842139 0.531550 0.284433 0.017 Uiso 1 1 calc R
C10 C 0.94971(18) 0.32090(18) 0.29511(14) 0.0160(3) Uani 1 1 d .
H10 H 0.991239 0.316163 0.212749 0.019 Uiso 1 1 calc R
C15 C 0.6004(2) 0.84019(17) 0.46796(14) 0.0176(3) Uani 1 1 d .
H15A H 0.496019 0.866569 0.431436 0.021 Uiso 1 1 calc R
H15B H 0.676485 0.929436 0.460674 0.021 Uiso 1 1 calc R
C14 C 0.5580(2) 0.78684(17) 0.60283(14) 0.0170(3) Uani 1 1 d .
H14A H 0.609100 0.855965 0.656539 0.020 Uiso 1 1 calc R
H14B H 0.434271 0.783028 0.625487 0.020 Uiso 1 1 calc R
C16 C 0.25967(19) 0.12402(19) 0.94969(15) 0.0203(4) Uani 1 1 d .
H16A H 0.199612 0.220122 0.968271 0.024 Uiso 1 1 calc R
H16B H 0.262756 0.063091 1.025066 0.024 Uiso 1 1 calc R
C17 C 0.1710(2) 0.0354(2) 0.85818(16) 0.0278(4) Uani 1 1 d .
H17A H 0.172503 0.095942 0.783297 0.042 Uiso 1 1 calc GR
H17B H 0.053666 0.014406 0.890737 0.042 Uiso 1 1 calc GR
H17C H 0.230361 -0.060358 0.842394 0.042 Uiso 1 1 calc GR
loop_
_atom_site_aniso_label
_atom_site_aniso_U_11
_atom_site_aniso_U_22
_atom_site_aniso_U_33
_atom_site_aniso_U_23
_atom_site_aniso_U_13
_atom_site_aniso_U_12
O2 0.0250(6) 0.0135(6) 0.0181(6) 0.0006(5) 0.0030(4) 0.0022(4)
O3 0.0294(6) 0.0138(6) 0.0145(6) 0.0018(5) -0.0013(5) 0.0063(4)
O1 0.0151(6) 0.0258(6) 0.0165(6) -0.0038(5) 0.0007(4) -0.0051(4)
N2 0.0192(7) 0.0116(7) 0.0117(7) -0.0016(5) -0.0007(5) 0.0016(5)
N1 0.0190(7) 0.0197(7) 0.0129(7) -0.0004(6) -0.0038(5) -0.0002(5)
N3 0.0167(7) 0.0125(7) 0.0157(7) -0.0013(5) -0.0007(5) 0.0007(5)
C13 0.0134(8) 0.0125(8) 0.0143(8) 0.0020(6) -0.0043(6) -0.0032(6)
C7 0.0117(7) 0.0154(8) 0.0120(8) -0.0005(6) -0.0021(6) -0.0030(6)
C6 0.0097(7) 0.0155(8) 0.0144(8) 0.0005(6) -0.0014(6) -0.0006(6)
C5 0.0158(8) 0.0126(8) 0.0125(8) 0.0030(6) -0.0025(6) 0.0033(6)
C12 0.0105(7) 0.0140(8) 0.0138(8) -0.0014(6) -0.0030(6) -0.0015(6)
C1 0.0163(8) 0.0145(8) 0.0140(8) 0.0021(6) -0.0046(6) 0.0008(6)
C8 0.0156(8) 0.0145(8) 0.0162(8) 0.0025(6) -0.0018(6) 0.0005(6)
C9 0.0152(8) 0.0161(8) 0.0171(8) -0.0031(7) -0.0002(6) 0.0018(6)
C2 0.0150(8) 0.0207(8) 0.0139(8) 0.0025(7) 0.0000(6) 0.0011(6)
C3 0.0190(8) 0.0209(9) 0.0120(8) 0.0002(6) -0.0026(6) 0.0042(6)
C4 0.0151(8) 0.0142(8) 0.0142(8) 0.0028(6) -0.0004(6) 0.0015(6)
C11 0.0147(8) 0.0151(8) 0.0141(8) 0.0032(6) -0.0035(6) -0.0026(6)
C10 0.0159(8) 0.0193(8) 0.0125(8) -0.0016(6) 0.0005(6) -0.0011(6)
C15 0.0203(8) 0.0116(8) 0.0207(9) -0.0015(6) -0.0012(6) 0.0032(6)
C14 0.0191(8) 0.0134(8) 0.0186(8) -0.0025(6) -0.0022(6) 0.0013(6)
C16 0.0151(8) 0.0244(9) 0.0203(9) 0.0012(7) 0.0018(6) -0.0038(6)
C17 0.0207(9) 0.0375(11) 0.0250(10) -0.0018(8) -0.0011(7) -0.0084(7)
loop_
_atom_type_symbol
_atom_type_description
_atom_type_scat_dispersion_real
_atom_type_scat_dispersion_imag
_atom_type_scat_source
C C 0.0033 0.0016 'International Tables Vol C Tables 4.2.6.8 and 6.1.1.4'
H H 0.0000 0.0000 'International Tables Vol C Tables 4.2.6.8 and 6.1.1.4'
N N 0.0061 0.0033 'International Tables Vol C Tables 4.2.6.8 and 6.1.1.4'
O O 0.0106 0.0060 'International Tables Vol C Tables 4.2.6.8 and 6.1.1.4'
loop_
_geom_angle_atom_site_label_1
_geom_angle_atom_site_label_2
_geom_angle_atom_site_label_3
_geom_angle
C13 O3 C15 106.13(11)
C1 O1 C16 117.91(11)
C7 N2 H2 115.9
C6 N2 H2 115.9
C6 N2 C7 128.16(12)
C3 N1 C4 115.42(13)
C13 N3 C14 106.91(12)
O3 C13 C12 114.48(12)
N3 C13 O3 118.16(13)
N3 C13 C12 127.36(13)
N2 C7 C12 119.00(13)
C8 C7 N2 121.97(13)
C8 C7 C12 118.98(13)
O2 C6 N2 124.82(14)
O2 C6 C5 121.94(13)
N2 C6 C5 113.23(12)
C1 C5 C6 120.50(13)
C4 C5 C6 121.19(13)
C4 C5 C1 118.29(13)
C7 C12 C13 122.56(13)
C11 C12 C13 118.41(13)
C11 C12 C7 119.02(13)
O1 C1 C5 116.18(13)
O1 C1 C2 125.85(13)
C2 C1 C5 117.94(14)
C7 C8 H8 119.7
C9 C8 C7 120.58(14)
C9 C8 H8 119.7
C8 C9 H9 119.7
C10 C9 C8 120.69(14)
C10 C9 H9 119.7
C1 C2 H2A 120.7
C3 C2 C1 118.60(14)
C3 C2 H2A 120.7
N1 C3 C2 125.01(14)
N1 C3 H3 117.5
C2 C3 H3 117.5
N1 C4 C5 124.73(13)
N1 C4 H4 117.6
C5 C4 H4 117.6
C12 C11 H11 119.2
C10 C11 C12 121.50(14)
C10 C11 H11 119.2
C9 C10 H10 120.4
C11 C10 C9 119.22(14)
C11 C10 H10 120.4
O3 C15 H15A 110.9
O3 C15 H15B 110.9
O3 C15 C14 104.27(11)
H15A C15 H15B 108.9
C14 C15 H15A 110.9
C14 C15 H15B 110.9
N3 C14 C15 104.36(11)
N3 C14 H14A 110.9
N3 C14 H14B 110.9
C15 C14 H14A 110.9
C15 C14 H14B 110.9
H14A C14 H14B 108.9
O1 C16 H16A 110.6
O1 C16 H16B 110.6
O1 C16 C17 105.69(12)
H16A C16 H16B 108.7
C17 C16 H16A 110.6
C17 C16 H16B 110.6
C16 C17 H17A 109.5
C16 C17 H17B 109.5
C16 C17 H17C 109.5
H17A C17 H17B 109.5
H17A C17 H17C 109.5
H17B C17 H17C 109.5
loop_
_geom_bond_atom_site_label_1
_geom_bond_atom_site_label_2
_geom_bond_distance
O2 C6 1.2281(18)
O3 C13 1.3628(18)
O3 C15 1.4534(17)
O1 C1 1.3521(18)
O1 C16 1.4483(17)
N2 H2 0.8600
N2 C7 1.4142(18)
N2 C6 1.362(2)
N1 C3 1.3430(19)
N1 C4 1.3488(19)
N3 C13 1.2793(19)
N3 C14 1.4814(19)
C13 C12 1.475(2)
C7 C12 1.415(2)
C7 C8 1.399(2)
C6 C5 1.507(2)
C5 C1 1.407(2)
C5 C4 1.388(2)
C12 C11 1.401(2)
C1 C2 1.394(2)
C8 H8 0.9300
C8 C9 1.392(2)
C9 H9 0.9300
C9 C10 1.386(2)
C2 H2A 0.9300
C2 C3 1.385(2)
C3 H3 0.9300
C4 H4 0.9300
C11 H11 0.9300
C11 C10 1.384(2)
C10 H10 0.9300
C15 H15A 0.9700
C15 H15B 0.9700
C15 C14 1.539(2)
C14 H14A 0.9700
C14 H14B 0.9700
C16 H16A 0.9700
C16 H16B 0.9700
C16 C17 1.511(2)
C17 H17A 0.9600
C17 H17B 0.9600
C17 H17C 0.9600
loop_
_refln_index_h
_refln_index_k
_refln_index_l
_refln_F_squared_meas
_refln_F_squared_sigma
0 0 -2 2278.11 14.37
0 0 2 2279.42 14.86
0 0 3 27.48 2.03
0 0 -3 25.4 1.92
0 0 3 27.88 1.99
0 0 -3 23.65 1.81
0 0 4 232.05 6.63
0 0 -4 224.95 6.6
0 0 4 218.09 6.58
0 0 -4 222.21 6.42
0 0 5 881.81 14.46
0 0 -5 909.09 14.79
0 0 -5 900.94 14.46
0 0 -6 362.17 10.19
0 0 6 356.99 10.15
0 0 7 172.09 7.68
0 0 -7 178.58 7.83
0 0 -7 173.33 7.71
0 0 -8 43.52 4.15
0 0 8 37.77 3.92
0 0 -8 40.26 4.04
0 0 -9 86.04 6.39
0 0 -10 17.92 3.11
0 0 -11 141.19 9.38
0 0 -12 21.25 3.78
0 0 -13 13.27 3.5
0 0 -13 10.51 3.13
0 0 -14 95.15 9.26
0 1 -13 35.14 5.49
0 1 -13 27.21 4.97
0 1 -12 5.17 2.24
0 1 -12 1.78 0.91
0 1 -11 117.27 9.22
0 1 -11 100.86 8.21
0 1 -10 137.4 8.98
0 1 -10 149.71 9.7
0 1 -9 72.19 6.28
0 1 -9 62.73 5.69
0 1 -8 349.13 11.37
0 1 -8 326.49 12
0 -1 7 50.25 4.2
0 1 -7 49.4 3.98
0 1 -7 47.32 4.28
0 -1 6 91.66 5.25
0 1 -6 82.01 4.67
0 1 -6 87.54 5.3
0 1 -5 275.69 7.72
0 1 -5 275.21 8.57
0 -1 5 290.55 8.41
0 -1 4 47.02 3.03
0 1 -4 48.33 2.89
0 1 -4 51.95 3.34
0 1 -3 496.87 7.82
0 1 -3 499.01 9.51
0 -1 3 507.88 8.91
0 1 -3 504.85 9.37
0 1 -2 1861.68 11.9
0 1 -2 1841.38 15.94
0 1 -1 0.54 0.27
0 1 0 814.21 8.57
0 -1 -1 1041.62 9.63
0 1 1 1027.58 8.41
0 -1 -1 1020.78 8.33
0 -1 -2 18.83 1.47
0 1 2 22.08 1.61
0 1 2 19.79 1.56
0 1 3 69.4 3.43
0 1 3 77.93 3.52
0 -1 -3 71.9 3.26
0 1 4 14.96 1.75
0 1 4 10.31 1.5
0 -1 -4 10.41 1.4
0 -1 -5 1090.05 16.17
0 1 5 1126.22 16.84
0 -1 -6 437.92 11.27
0 1 6 435.62 11.36
0 -1 -7 202.91 8.64
0 -1 -7 195.4 8.22
0 1 7 208.82 8.6
0 1 8 41.74 4.12
0 -1 -8 32.22 3.54
0 -1 -9 30.62 3.78
0 -1 -10 59.7 5.57
0 -1 -11 14.32 3
0 -1 -12 10.79 2.73
0 -1 -13 21.73 4.12
0 -1 -14 51.2 6.8
0 2 -13 2.66 1.52
0 2 -12 2 1.56
0 2 -11 -0.56 0.88
0 2 -10 29.57 4.57
0 2 -9 2.32 1.3
0 2 -9 1.84 0.8
0 2 -8 15.04 2.84
0 2 -8 20.72 3.27
0 2 -8 13.04 2.1
0 2 -7 95.68 6.64
0 -2 7 93.16 5.82
0 2 -6 490.81 10.93
0 -2 6 494.03 12.63
0 2 -6 523.97 14.46
0 2 -5 551.88 10.35
0 -2 5 570.58 12.61
0 2 -5 555.26 13.71
0 2 -4 1.04 0.45
0 -2 4 0.76 0.55
0 2 -4 0.99 0.66
0 2 -3 119.67 3.47
0 2 -3 116.85 5.42
0 2 -2 1361.5 8.43
0 2 -2 1371.97 17.24
0 2 -1 142.02 5.22
0 2 0 1483.49 7.8
0 2 0 1461.46 16.37
0 -2 0 1477.84 7.39
0 -2 -1 1819 12.6
0 2 1 1797.09 18.1
0 2 1 1823.11 12.87
0 2 2 179.77 4.99
0 -2 -2 166.01 5.85
0 -2 -2 169.17 5.47
0 -2 -2 169.44 4.75
0 2 2 172.52 5.76
0 -2 -3 1.38 0.49
0 2 3 1.96 0.67
0 2 3 1.7 0.63
0 -2 -4 302.01 8.37
0 2 4 301.39 8.57
0 2 4 301.26 8.71
0 2 5 144.51 6.57
0 2 5 134.03 6.3
0 -2 -5 127.61 5.75
0 -2 -6 49.66 3.87
0 2 6 42.7 3.9
0 -2 -7 14.77 2.4
0 2 7 15.94 2.55
0 -2 -7 13.96 2.21
0 -2 -8 16.96 2.65
0 -2 -9 97.32 6.76
0 -2 -10 176.03 9.61
0 -2 -11 88.65 7.21
0 -2 -12 3.01 1.74
0 -2 -13 2.42 1.12
0 3 -13 33.66 5.86
0 3 -12 5.68 2.58
0 3 -11 -0.39 0.86
0 3 -10 165.21 11.25
0 3 -9 5.62 2.06
0 3 -9 6.06 1.6
0 3 -8 119.73 6.18
0 3 -8 118.53 8.44
0 3 -7 141.77 8.68
0 -3 6 1.8 0.98
0 3 -6 2.84 0.85
0 3 -5 0.65 0.43
0 -3 5 0 0.29
0 3 -4 289.22 5.93
0 3 -4 311.01 10.83
0 3 -3 338.04 4.93
0 3 -3 337.14 10.62
0 3 -2 111.37 5.79
0 3 -1 18.01 2.29
0 3 0 14.64 2.06
0 -3 0 10.35 0.8
0 3 1 24.46 1.65
0 3 1 22.31 2.44
0 -3 -1 20.81 2.43
0 3 2 98.23 3.99
0 -3 -2 102.72 5.51
0 -3 -2 102.09 5.12
0 -3 -2 101.32 3.93
0 3 2 112.55 5.58
0 -3 -3 62.72 4.49
0 -3 -3 59.28 3.98
0 -3 -3 65.01 3.62
0 3 3 65.8 3.76
0 3 3 64.85 4.34
0 3 4 69.06 4.27
0 -3 -4 69.27 4.18
0 3 4 59.45 4.43
0 -3 -4 68.3 4.36
0 -3 -4 67.14 4.93
0 -3 -5 1.41 0.68
0 -3 -5 1.86 0.81
0 3 5 0.77 0.6
0 3 6 21.03 2.96
0 -3 -6 21.37 2.7
0 -3 -6 19.67 2.66
0 -3 -7 61.26 4.83
0 -3 -7 65.49 5.16
0 3 7 63.79 5.49
0 -3 -8 18.85 2.89
0 -3 -9 1.15 1.03
0 -3 -10 28.71 4.05
0 -3 -11 47.42 5.4
0 -3 -12 0.47 0.76
0 -3 -13 -0.38 0.81
0 4 -12 -0.12 0.72
0 4 -11 7.5 2.85
0 4 -10 42.83 6.06
0 4 -9 60.94 6.83
0 4 -9 61.65 4.57
0 4 -8 1.53 1.28
0 4 -7 29.19 4.36
0 4 -7 25.4 2.47
0 4 -6 1.2 1.05
0 4 -6 1.32 0.55
0 -4 5 291.24 10.72
0 -4 5 287.75 11.01
0 4 -5 270.45 6.07
0 4 -5 272.41 11.81
0 4 -4 73.84 2.5
0 4 -4 68.99 5.71
0 4 -3 388.73 12.93
0 4 -2 291.81 10.9
0 4 -1 281.74 10.49
0 -4 0 291.09 4.79
0 4 0 314.69 10.81
0 -4 -1 542.26 14.4
0 -4 -1 542.79 8
0 4 1 551.23 14.17
0 -4 -2 582.4 9.9
0 -4 -2 562.08 15
0 -4 -2 590.93 14.23
0 -4 -3 247.68 9.24
0 -4 -3 250.3 7.43
0 -4 -4 104 6.8
0 -4 -4 108.24 5.43
0 -4 -4 99.83 5.95
0 4 5 74.95 5.82
0 -4 -5 67.86 5.67
0 -4 -5 68.61 5.06
0 -4 -5 73 4.86
0 -4 -6 4.84 1.49
0 4 6 4.07 1.32
0 -4 -6 3.88 1.29
0 -4 -6 3.79 1.36
0 -4 -7 4.63 1.37
0 -4 -8 1.83 0.92
0 -4 -9 36.05 4.38
0 -4 -10 1.16 0.56
0 -4 -11 28.13 4.29
0 -4 -12 2.43 1.45
0 -4 -13 26.95 4.53
0 5 -11 46.62 6.94
0 5 -10 25.34 4.96
0 5 -9 14.33 3.73
0 5 -8 12.26 3.17
0 5 -8 8.4 1.44
0 5 -7 5.36 1.02
0 5 -7 6.72 2.41
0 5 -6 19.45 1.7
0 5 -6 22.57 3.9
0 5 -5 12.41 2.8
0 5 -5 11.78 1.08
0 5 -4 1 0.8
0 -5 4 -0.15 0.63
0 5 -3 80.95 6.61
0 -5 3 84.12 6.24
0 5 -2 81.76 6.48
0 -5 2 79.94 5.99
0 5 -1 10.23 2.23
0 -5 1 8.81 2.05
0 -5 0 6.61 0.81
0 5 0 5.61 1.68
0 -5 0 3.42 1.32
0 -5 -1 62.81 5.55
0 5 1 70.82 5.74
0 -5 -1 68.36 3.09
0 5 2 247.62 10.61
0 -5 -2 238.04 10.94
0 -5 -2 241.68 6.67
0 -5 -2 244.17 10.27
0 -5 -3 564.93 11.56
0 -5 -3 548.68 17.03
0 -5 -3 574.21 15.79
0 -5 -4 89.36 5.08
0 -5 -4 91.44 6.3
0 -5 -4 85.38 6.85
0 -5 -5 11.7 2
0 -5 -5 16.09 3.09
0 -5 -5 14.42 2.51
0 -5 -6 227.79 9.57
0 -5 -6 221.52 10.14
0 -5 -7 818.81 20.02
0 -5 -8 719.71 19.37
0 -5 -9 77.67 6.61
0 -5 -10 34.27 4.61
0 -5 -11 17.31 3.47
0 -5 -12 1.44 1.3
0 6 -11 442.26 22.89
0 6 -10 27.84 5.53
0 6 -9 33.61 5.79
0 6 -8 16.63 3.82
0 6 -7 208.66 5.7
0 6 -7 213.63 13.47
0 6 -6 47.23 1.92
0 6 -6 60.56 6.95
0 6 -5 64.61 6.91
0 6 -4 448.59 17.75
0 6 -3 87.37 7.64
0 6 -2 64.53 6.43
0 -6 2 52.57 5.38
0 6 -1 61.37 6.1
0 -6 1 61.21 5.86
0 6 0 12.74 2.82
0 -6 0 9.78 2.45
0 -6 0 5.74 0.85
0 -6 -1 230.39 6.19
0 -6 -1 222.04 11.55
0 6 1 232.25 11.51
0 -6 -2 128.03 8.86
0 -6 -2 142.31 5.47
0 -6 -2 126.22 8.14
0 6 2 140.17 8.85
0 6 3 189.27 10.45
0 -6 -3 180.46 10.64
0 -6 -3 175.56 6.68
0 -6 -3 179.98 9.77
0 -6 -4 10.22 2.4
0 -6 -4 8.11 1.58
0 -6 -5 2.32 0.88
0 -6 -5 2.11 1.11
0 -6 -6 16.91 2.97
0 -6 -7 637.32 18.96
0 -6 -8 161.96 9.76
0 -6 -9 112.54 8.36
0 -6 -10 9.37 2.39
0 -6 -11 50.3 6.06
0 -6 -12 76.93 7.79
0 7 -10 40.89 7.15
0 7 -9 33.78 6.21
0 7 -8 9.14 3.31
0 7 -7 50.39 7.05
0 7 -6 78.95 8.55
0 7 -5 36.81 5.54
0 7 -4 61.33 7.16
0 7 -3 103.8 9.06
0 7 -2 91.68 8.31
0 7 -1 395.08 16.86
0 7 0 11.4 2.99
0 -7 0 6.97 0.93
0 -7 -1 42.54 2.86
0 7 1 45.71 5.62
0 -7 -2 86.35 4.55
0 -7 -2 90.23 7.54
0 7 2 91.04 7.76
0 -7 -3 0.2 0.5
0 7 3 0.45 1.05
0 -7 -3 0.41 1.09
0 -7 -4 323.09 14.19
0 -7 -4 305.52 10.18
0 -7 -5 496.44 17.55
0 -7 -5 480.84 13.71
0 -7 -6 201.31 11.27
0 -7 -7 16.25 3.27
0 -7 -8 122.09 9.05
0 -7 -9 24.16 4.09
0 -7 -10 45.09 5.74
0 -7 -11 52.33 6.4
0 8 -8 2.98 1.94
0 8 -7 -0.07 1.58
0 8 -6 7.45 3.06
0 8 -5 54.1 7.5
0 8 -4 37.93 6.11
0 8 -3 213.17 13.9
0 8 -2 2 1.63
0 8 -1 41.88 5.89
0 8 0 41.74 5.84
0 8 1 94.16 8.73
0 -8 -1 93.94 4.36
0 8 2 9.04 2.86
0 -8 -2 6.85 1.37
0 -8 -2 5.26 2.01
0 8 3 289.37 15.05
0 -8 -3 276.83 9.45
0 -8 -3 291.52 14.65
0 -8 -4 24.03 4.3
0 -8 -4 23.15 2.96
0 -8 -5 0.19 0.85
0 -8 -6 19.98 3.8
0 -8 -7 20.14 3.9
0 -8 -8 12.88 3.1
0 -8 -9 14.51 3.34
0 -8 -10 9.98 2.8
0 9 -7 33.54 6.64
0 9 -6 2.03 2.35
0 9 -5 2.4 2.18
0 9 -4 1.02 1.71
0 9 -3 26.28 5.42
0 9 -2 146.57 12.16
0 9 -1 93.09 9.51
0 9 0 21.62 4.57
0 9 1 3.57 2.05
0 9 2 1 1.47
0 -9 -2 -0.07 1.66
0 -9 -3 199.65 13.08
0 9 3 191.32 13.22
0 -9 -4 274.38 15.19
0 -9 -5 12.85 3.33
0 -9 -6 24.67 4.55
0 -9 -7 10.27 2.89
0 -9 -8 46.22 6.26
0 10 -4 11.21 3.86
0 10 -3 8.15 3.01
0 10 -2 -0.36 1.61
0 10 -1 2.51 1.54
0 10 0 11.9 3.6
0 -10 -1 3.35 1.8
0 10 1 9.78 3.09
0 -10 -2 0.24 1.1
0 10 2 0.5 0.91
0 -10 -3 6.41 2.62
0 -10 -4 20.92 4.5
0 -10 -5 0.56 1
0 -10 -6 17.99 4.15
1 -10 -6 4.07 1.77
1 -10 -5 0.7 1.73
1 -10 -4 1.05 1.38
1 -10 -3 10.18 3.07
-1 10 2 39.13 6.29
1 -10 -2 41.42 6.36
-1 10 1 37.55 6.18
1 -10 -1 38.3 6.19
-1 10 0 -0.72 1.32
-1 10 -1 26.57 5.44
-1 10 -2 9.12 3
-1 10 -3 17.51 4.57
-1 10 -4 18.69 4.84
-1 10 -5 54.27 8.36
1 -9 -8 71.39 7.72
1 -9 -7 36 5.34
1 -9 -6 35.21 5.46
1 -9 -5 229.57 13.62
1 -9 -4 135.39 10.58
1 -9 -3 132.43 10.54
-1 9 2 122.99 10.5
1 -9 -2 110.6 9.71
-1 9 1 27.07 4.93
-1 9 0 171.19 12.55
-1 9 -1 1.1 1.19
-1 9 -2 142.77 11.92
-1 9 -3 9.53 3.24
-1 9 -4 80.83 9.47
-1 9 -5 23.78 5.3
-1 9 -6 13.24 4.08
-1 9 -7 91.81 10.87
1 -8 -10 81.84 8.01
1 -8 -9 17.2 3.67
1 -8 -8 0.19 1.14
1 -8 -7 17.17 3.55
1 -8 -6 41.8 5.51
1 -8 -5 4.32 1.77
1 -8 -4 239.18 13
1 -8 -4 245.09 10.52
1 -8 -3 24.63 3.16
-1 8 3 26.65 4.53
1 -8 -3 24.03 4.22
1 -8 -2 3.59 1.55
-1 8 2 3.47 1.88
1 -8 -2 4.76 1.33
1 -8 -1 18.94 2.34
-1 8 1 16.72 3.64
1 -8 0 86.9 4.06
-1 8 0 88.12 8.44
-1 8 -1 219.15 13.45
-1 8 -2 3.8 1.77
-1 8 -3 26.38 4.8
-1 8 -4 6.17 2.66
-1 8 -5 15.61 3.84
-1 8 -6 46.29 6.99
-1 8 -7 7.41 2.75
-1 8 -8 4.38 2.47
1 -7 -11 12.12 3.04
1 -7 -10 0.11 1.36
1 -7 -9 11.87 2.85
1 -7 -8 11.97 2.85
1 -7 -7 99.79 7.89
1 -7 -6 93.39 7.54
1 -7 -5 18.91 3.39
1 -7 -4 18.16 3.35
1 -7 -4 13.21 2.31
-1 7 3 11.17 2.83
1 -7 -3 12.79 2.91
1 -7 -3 10.12 1.91
1 -7 -2 -0.41 0.63
-1 7 2 0.45 0.92
1 -7 -2 -1.04 0.86
-1 7 2 0.77 0.57
1 -7 -1 95 5.03
-1 7 1 101.47 8.16
1 -7 0 121.59 5.03
-1 7 0 131.67 9.5
-1 7 -1 777.92 23.43
-1 7 -2 784.62 24.04
-1 7 -3 163.72 11.32
-1 7 -4 2.3 1.7
-1 7 -5 216.64 13.59
-1 7 -6 80.79 8.6
-1 7 -7 23.34 4.65
-1 7 -8 3.41 2.2
-1 7 -9 0.78 1.08
-1 7 -10 11 3.58
1 -6 -12 76.24 7.67
1 -6 -11 27.41 4.45
1 -6 -10 51.33 5.81
1 -6 -9 42.85 5.09
1 -6 -8 0.66 0.51
1 -6 -7 79.61 6.55
-1 6 6 12.52 2.41
1 -6 -6 9.88 2.21
-1 6 5 120.46 7.13
1 -6 -5 125.94 7.13
1 -6 -5 124.82 7.95
-1 6 4 2.46 0.97
1 -6 -4 2.46 1.03
1 -6 -4 2.29 1.03
1 -6 -3 242.94 8.72
1 -6 -3 228.69 10.8
-1 6 3 243.39 8.62
1 -6 -3 242.29 12.18
1 -6 -2 99.2 7.05
-1 6 2 104.97 5.15
1 -6 -2 99.71 7.63
1 -6 -2 106.67 5.45
-1 6 2 106.67 7.59
1 -6 -1 1.24 0.52
1 -6 -1 3.77 1.45
-1 6 1 1.95 0.63
-1 6 1 2.27 1.08
-1 6 0 28.24 4
-1 6 0 26.67 1.99
1 -6 0 28.34 2.39
1 -6 0 27.37 3.84
1 -6 1 52.72 5.32
-1 6 -1 52.13 2.21
-1 6 -1 56.66 5.79
-1 6 -2 42.13 5.14
1 -6 2 47.76 5.06
-1 6 -3 235.47 12.38
-1 6 -4 9.43 2.59
-1 6 -5 65.49 1.92
-1 6 -5 67.9 2.3
-1 6 -6 77.2 3.62
-1 6 -6 80.04 7.89
-1 6 -6 75.92 2.88
-1 6 -7 1.83 0.67
-1 6 -7 -0.45 1.16
-1 6 -8 20.61 4.42
-1 6 -9 3.64 2.21
-1 6 -10 59.18 8.01
-1 6 -11 5.47 2.51
1 -5 -12 3.03 1.78
1 -5 -11 4.25 1.79
1 -5 -10 0.37 0.91
1 -5 -9 65.24 5.94
1 -5 -8 2.12 1.16
1 -5 -7 10.1 2.27
-1 5 7 6.29 1.77
1 -5 -6 88.83 6.29
-1 5 6 89.17 6.33
1 -5 -5 6.71 1.91
1 -5 -5 5.81 1.48
-1 5 5 8.68 1.88
1 -5 -5 4.45 1.32
-1 5 4 126.83 6.48
1 -5 -4 126.8 7.29
1 -5 -4 127.78 8.25
1 -5 -4 130.79 6.43
1 -5 -3 30.41 3.55
-1 5 3 29.46 2.85
1 -5 -3 30.83 2.97
1 -5 -3 33.42 4.11
1 -5 -2 4.57 1.62
-1 5 2 2.8 1.1
-1 5 2 5.35 1.14
1 -5 -2 3.77 0.97
1 -5 -2 2.83 1.03
-1 5 1 -0.24 0.59
-1 5 1 0.31 0.26
1 -5 -1 -0.02 0.54
1 -5 0 180.42 5.71
-1 5 0 180.36 4.85
-1 5 0 193.43 9.39
-1 5 -1 0.48 0.38
-1 5 -1 0.6 0.32
1 -5 1 0.11 0.2
-1 5 -2 29.25 3.84
-1 5 -2 27.86 1.3
-1 5 -3 26.3 1.41
-1 5 -3 20.67 3.32
1 -5 4 0.05 0.39
-1 5 -4 0.66 0.28
-1 5 -4 0.02 0.76
-1 5 -4 0.53 0.28
-1 5 -5 4.56 0.79
-1 5 -5 3.77 1.45
-1 5 -6 6.85 1.11
-1 5 -6 6.13 2.04
-1 5 -7 3.91 1.75
-1 5 -7 4.05 0.96
-1 5 -8 50.91 6.3
-1 5 -9 55.37 6.89
-1 5 -10 10.54 3.31
-1 5 -11 17.31 4.23
1 -4 -13 4.91 1.95
1 -4 -12 6.16 2.04
1 -4 -11 10.65 2.74
1 -4 -10 -0.08 0.67
1 -4 -9 63.93 5.69
-1 4 8 41.32 4.79
1 -4 -8 48.87 4.69
1 -4 -7 15.74 2.54
-1 4 7 12.8 2.49
-1 4 6 1.66 0.99
1 -4 -6 4.06 1.3
-1 4 6 1.25 0.81
1 -4 -6 1.41 0.74
1 -4 -6 2.81 1.12
1 -4 -5 43.67 3.89
-1 4 5 39.65 4.12
1 -4 -5 41.81 3.78
1 -4 -5 41.33 4.37
-1 4 5 45.2 4.03
1 -4 -4 36.16 3.49
1 -4 -4 44.68 3.59
-1 4 4 39.32 3.46
1 -4 -3 0.53 0.29
1 -4 -3 0.47 0.55
-1 4 3 0.09 0.42
1 -4 -2 1375.48 21.17
1 -4 -2 1364.69 22.71
-1 4 2 1394.71 16.63
1 -4 -2 1376.16 17.03
-1 4 2 1335.2 21.37
-1 4 1 97.32 3.87
1 -4 -1 88.57 4.04
1 -4 -1 97.27 5.97
-1 4 1 84.79 5.4
1 -4 0 147.09 7.2
1 -4 0 161.31 5.08
-1 4 0 155.71 7.41
-1 4 0 158.31 4.23
-1 4 -1 17.53 1.25
1 -4 1 17.57 2.47
1 -4 1 16.88 1.5
-1 4 -1 22.58 2.91
-1 4 -2 135.44 3.64
-1 4 -2 131.04 7.21
-1 4 -3 177.54 4.91
-1 4 -3 181.41 8.74
-1 4 -4 253.07 10.72
1 -4 4 240.1 9.56
-1 4 -5 0.8 0.49
1 -4 5 1.52 1.01
-1 4 -5 2.35 1.39
1 -4 5 0.18 0.34
-1 4 -6 1.41 1
-1 4 -6 2.19 0.7
-1 4 -7 14.18 2.96
-1 4 -7 16.26 2.09
-1 4 -8 269.02 13.51
-1 4 -9 59.04 6.67
-1 4 -9 52.06 4.33
-1 4 -10 4.88 2.28
-1 4 -11 17.95 4.23
-1 4 -12 -0.63 0.88
1 -3 -13 0.09 1.19
1 -3 -12 34.75 4.79
1 -3 -11 9.45 2.47
1 -3 -10 12.95 2.68
1 -3 -9 123.2 7.63
1 -3 -8 3.88 1.31
-1 3 8 4.42 1.55
1 -3 -7 194.53 8.42
-1 3 7 222.31 10
-1 3 6 61.27 4.89
1 -3 -6 67.26 4.61
1 -3 -6 77.89 5.3
-1 3 6 65.03 5.08
1 -3 -5 9.1 1.68
-1 3 5 11.26 2.03
-1 3 5 9.13 1.74
-1 3 4 299.79 9.08
1 -3 -4 317.14 10.4
1 -3 -4 307.35 8.96
-1 3 4 307.16 9.8
1 -3 -4 304.53 8.91
1 -3 -3 8.9 1.41
1 -3 -3 7.67 1.53
1 -3 -3 7.7 1.35
-1 3 3 4.94 1.09
1 -3 -2 1.46 0.57
1 -3 -2 1.59 0.55
1 -3 -2 1.84 0.7
-1 3 2 2.67 0.69
1 -3 -1 550.86 9.3
1 -3 -1 539.01 11.95
-1 3 1 546.44 8.47
-1 3 1 547.9 11.81
1 -3 0 57.93 2.86
-1 3 0 56.28 2.44
1 -3 0 58.16 3.84
-1 3 0 64.47 4.11
-1 3 -1 223.52 7.81
1 -3 1 208.2 5.03
1 -3 1 212.68 7.26
-1 3 -1 209.2 4.63
-1 3 -2 38.9 2.21
1 -3 2 42.12 3.29
-1 3 -2 42.7 3.52
1 -3 3 2028.1 23.9
-1 3 -3 2002.89 25.6
-1 3 -4 28.89 3.24
-1 3 -5 287.58 7.54
-1 3 -5 315.14 11.32
1 -3 6 83.95 5.7
-1 3 -6 83.72 6.2
-1 3 -6 76.07 4.3
-1 3 -7 27.79 3.78
-1 3 -8 198.1 8.23
-1 3 -8 213.92 11.27
-1 3 -9 3.85 1.29
-1 3 -9 1.86 1.4
-1 3 -10 44.57 5.83
-1 3 -11 32.06 5.25
-1 3 -12 19.07 4.18
-1 3 -13 32.61 5.84
1 -2 -14 63.95 7.39
1 -2 -13 3.34 1.74
1 -2 -12 43.6 5.35
1 -2 -11 42.4 5
1 -2 -10 171.98 9.33
1 -2 -9 2.01 0.91
-1 2 8 12.87 2.54
1 -2 -8 17.35 2.63
1 -2 -7 37.16 3.55
1 -2 -7 37.6 3.85
-1 2 7 33.79 3.63
-1 2 7 30.49 3.59
-1 2 6 0.71 0.44
1 -2 -6 0.51 0.38
1 -2 -5 343.27 9.12
-1 2 5 329.66 9.69
-1 2 5 320.23 9.87
1 -2 -4 966.94 14.07
-1 2 4 984.95 15.28
1 -2 -4 997.03 15.43
-1 2 4 976.2 15.71
-1 2 3 515.52 10.28
1 -2 -3 528.86 9.63
-1 2 3 510.44 10.09
1 -2 -3 493.61 9.78
1 -2 -2 20.65 1.82
1 -2 -2 23.25 2.11
1 -2 -2 22.14 1.88
-1 2 2 23 1.88
-1 2 1 427.51 8.4
-1 2 1 435.63 7.12
1 -2 -1 411.73 8.48
1 -2 -1 411.39 7.5
-1 2 0 3416.26 19.04
1 -2 0 3483.43 23.93
-1 2 0 3452.84 24.12
1 -2 0 3389.57 20.64
-1 2 -1 4837.76 29.35
1 -2 1 4805.83 28.31
-1 2 -1 4885.19 23.56
1 -2 2 3173.35 24.21
-1 2 -2 3152.13 25.58
1 -2 3 2215.25 21.81
-1 2 -3 2197.08 22.89
-1 2 -4 479.38 11.58
-1 2 -5 189.24 6.41
-1 2 -5 185.15 7.88
-1 2 -6 113.21 6.65
-1 2 -6 108.84 5.38
-1 2 -7 21.64 3.12
1 -2 7 19.68 2.76
-1 2 -7 23.41 3.28
-1 2 -8 1498.15 23.43
-1 2 -8 1522.27 27.83
-1 2 -9 602.91 19.01
-1 2 -9 563.28 18.07
-1 2 -9 573.98 15.46
-1 2 -10 255.73 13.16
-1 2 -10 252.08 12.9
-1 2 -11 4.35 1.72
-1 2 -11 4.66 2.19
-1 2 -12 126.95 10.51
-1 2 -13 0.48 1.05
1 -1 -14 4.41 1.72
1 -1 -13 24.38 4.36
1 -1 -12 7.87 2.34
1 -1 -11 146.26 9.31
1 -1 -10 82.54 6.54
1 -1 -9 180.47 9
1 -1 -8 75.25 5.37
-1 1 8 88.5 6.4
-1 1 8 81.63 5.8
1 -1 -7 2.81 1.06
-1 1 7 2.31 1.06
-1 1 7 4.19 1.29
1 -1 -7 3.78 1.16
1 -1 -6 3.84 1.05
-1 1 6 5.19 1.28
-1 1 6 3.21 1.08
1 -1 -6 2.85 0.95
-1 1 5 1523.17 18.97
-1 1 5 1526.76 20.61
1 -1 -5 1536.81 18.65
-1 1 4 490.97 10.51
1 -1 -4 481.46 9.19
-1 1 4 496.01 9.6
1 -1 -3 550.59 8.57
-1 1 3 544.33 8.89
-1 1 3 558.73 9.95
1 -1 -2 120.68 3.36
-1 1 2 113.1 3.45
-1 1 2 114.13 3.88
-1 1 1 228.08 4.91
1 -1 -1 238.65 4.11
1 -1 -1 234.09 4.48
1 -1 -1 227.47 5.21
-1 1 0 568.86 7.76
-1 1 0 577.52 6.53
1 -1 0 569.09 6.38
1 -1 1 2.46 0.46
-1 1 -1 2.99 0.53
-1 1 -2 924.66 11.05
-1 1 -2 945.17 11.14
1 -1 2 936.17 10.75
-1 1 -3 25.93 2.13
-1 1 -4 273.44 7.82
-1 1 -5 207.57 7.52
-1 1 -5 216.75 7.18
-1 1 -6 102.79 5.8
-1 1 -7 94.23 6.01
-1 1 -7 100.43 5.77
1 -1 7 93.33 5.88
-1 1 -8 33.23 3.86
-1 1 -8 30.48 3.43
-1 1 -9 188.07 9.86
-1 1 -10 238.25 11.88
-1 1 -11 1.08 1.11
-1 1 -11 0.79 0.99
-1 1 -12 1.59 1.96
-1 1 -12 3.04 1.76
-1 1 -13 14.75 3.62
-1 1 -13 22.53 4.52
1 0 -14 114.11 10.12
1 0 -13 34.96 5.52
1 0 -13 45.25 6.09
1 0 -12 1.32 0.66
1 0 -12 2.67 1.23
1 0 -11 2.15 1.04
1 0 -10 61.19 5.75
1 0 -9 6.49 1.76
1 0 -8 29.58 3.43
-1 0 8 29 3.36
-1 0 8 27.93 3.51
1 0 -8 25.73 3.2
1 0 -7 108.32 6.08
-1 0 7 102.9 6.15
-1 0 7 106.25 5.91
1 0 -7 105.65 6.05
1 0 -6 500.2 11.86
-1 0 6 508.49 11.84
-1 0 6 502.47 12.56
1 0 -5 6.32 1.27
1 0 -5 6.98 1.29
-1 0 5 8.45 1.52
-1 0 5 7.18 1.28
1 0 -4 700.93 11.13
1 0 -4 717.93 11.83
-1 0 4 699.03 11.16
-1 0 4 726.78 12.1
1 0 -3 569.37 8.5
1 0 -3 548.17 9.19
-1 0 3 571.38 8.45
-1 0 3 560.7 9.33
1 0 -2 1641.1 11.47
1 0 -2 1629.49 14.26
-1 0 1 200.84 4.43
-1 0 0 452.61 6.72
-1 0 -1 1128.3 8.11
1 0 1 1105.84 8.11
1 0 2 148.06 3.95
-1 0 -2 151.8 3.95
-1 0 -3 1418.46 14.58
-1 0 -4 240.97 6.9
-1 0 -5 29.4 2.73
-1 0 -5 31.39 2.81
-1 0 -6 405.65 10.99
-1 0 -7 159.91 7.56
1 0 7 169.49 7.78
-1 0 -7 171.76 7.79
-1 0 -8 5.13 1.44
-1 0 -8 4 1.32
-1 0 -9 6.47 1.78
-1 0 -10 17.51 3.05
-1 0 -11 65.08 6.46
-1 0 -12 0.16 0.92
-1 0 -13 2 1
1 1 -13 1.56 1.1
1 1 -12 69.58 7.61
1 1 -12 80.54 7.78
1 1 -11 12.91 3.05
1 1 -11 12.82 3.06
1 1 -10 37.55 4.88
1 1 -10 40.9 4.81
1 1 -9 59.28 5.73
1 1 -9 51.5 5.12
-1 -1 8 40.56 4.06
1 1 -8 43.79 4.02
1 1 -8 38.33 4.29
1 1 -8 39.89 4.21
-1 -1 8 40.67 4.12
1 1 -7 14.53 2.41
1 1 -7 15.34 2.4
-1 -1 7 14.26 2.21
1 1 -7 16.83 2.33
-1 -1 7 12.66 2.07
1 1 -6 26.5 3.05
1 1 -6 24.48 2.82
-1 -1 6 24.88 2.66
-1 -1 6 25.03 2.68
1 1 -5 3.9 0.95
1 1 -5 4.65 1.1
1 1 -5 4.15 1.14
-1 -1 5 2.01 0.7
-1 -1 5 3.96 0.98
1 1 -4 229.01 7.07
-1 -1 4 238.28 6.79
1 1 -4 219.99 6.27
1 1 -4 245.4 7.67
-1 -1 4 241.4 6.68
-1 -1 3 380.69 7.59
-1 -1 3 374.97 7.12
1 1 -3 360.39 7.17
1 1 -3 380.58 8.48
-1 -1 2 1018.3 11.71
1 1 -2 1017.04 12.25
-1 -1 2 1061.75 10
1 1 -2 1034.15 10.83
-1 -1 2 1038.73 11.19
-1 -1 1 761.2 9.2
-1 -1 1 778.66 8.2
1 1 -1 794.21 9.59
1 1 -1 774.91 8.81
-1 -1 0 440.65 6.93
1 1 0 442.55 6.87
-1 -1 0 443.56 6.52
-1 -1 -1 11.07 1.16
1 1 1 12.98 1.2
-1 -1 -2 116.26 3.86
-1 -1 -3 141.05 4.82
-1 -1 -4 3.08 0.82
-1 -1 -5 750.75 13.8
-1 -1 -6 59.72 4.28
1 1 7 39.28 3.81
-1 -1 -7 39.19 3.85
-1 -1 -7 35.87 3.57
-1 -1 -8 58.86 4.93
-1 -1 -9 0.28 0.46
-1 -1 -10 70.1 6.15
-1 -1 -11 5.74 1.98
-1 -1 -12 46.22 5.7
-1 -1 -13 0.81 0.91
1 2 -13 1.63 1.83
1 2 -12 172.62 12.3
1 2 -11 1.43 1.66
1 2 -10 2.64 1.66
1 2 -9 299.67 13.6
1 2 -8 147.02 7.16
1 2 -8 140.74 8.7
1 2 -7 51.56 4.88
-1 -2 7 47.43 3.97
-1 -2 7 48.57 4.24
-1 -2 6 183.71 7.66
1 2 -6 181.97 8.64
-1 -2 6 183.74 7.09
1 2 -6 180.15 6.71
-1 -2 5 427.8 10.8
1 2 -5 458.07 12.52
1 2 -5 422.24 9.28
-1 -2 5 425 9.67
-1 -2 4 13.07 1.47
1 2 -4 10.61 1.32
-1 -2 4 11.77 1.72
1 2 -4 14.04 2.03
1 2 -3 206.73 5.22
-1 -2 3 217.14 7.01
1 2 -3 228.32 7.69
-1 -2 3 209.19 4.99
1 2 -2 98.3 3.2
-1 -2 2 90.43 2.62
-1 -2 2 89.56 4.31
1 2 -2 98.97 4.74
-1 -2 1 533.99 6.35
-1 -2 1 522.69 10.15
1 2 -1 518.48 6.78
1 2 -1 514.43 10.43
1 2 0 78.98 3.97
-1 -2 0 74.78 3.89
1 2 1 1.48 0.58
-1 -2 -1 -0.06 0.27
-1 -2 -1 1.77 0.67
-1 -2 -2 50.15 3.13
-1 -2 -3 493.08 10.27
-1 -2 -4 3.52 0.96
-1 -2 -4 2.82 0.85
-1 -2 -5 251.03 8.27
1 2 6 405.14 12.15
-1 -2 -6 457.28 12.15
-1 -2 -7 338.42 11.28
-1 -2 -7 336.75 11.67
-1 -2 -8 161.08 8.27
-1 -2 -9 32.02 3.96
-1 -2 -10 140 8.67
-1 -2 -11 90.91 7.47
-1 -2 -12 63.99 6.61
-1 -2 -13 9.82 2.88
1 3 -12 24.9 5.07
1 3 -11 21.45 4.35
1 3 -10 72.93 7.47
1 3 -9 85.68 5.84
1 3 -9 85.36 7.64
1 3 -8 830.36 16.74
1 3 -8 884.1 23.2
-1 -3 7 799.4 17.72
1 3 -7 825.31 21.18
-1 -3 6 120.11 6.58
1 3 -6 117.85 5.26
1 3 -6 125.35 7.77
1 3 -5 3.42 1.32
1 3 -5 3.24 0.81
-1 -3 5 3.69 0.84
-1 -3 5 3.86 1.31
1 3 -4 78.52 5.52
-1 -3 4 88.71 3.57
1 3 -4 86.32 3.62
-1 -3 4 81.03 5.14
-1 -3 4 76.05 4.89
1 3 -3 577.55 14.22
1 3 -3 552.19 8.07
-1 -3 3 551.28 12.93
-1 -3 3 557.96 7.35
-1 -3 2 287.62 4.01
-1 -3 2 282.4 9.08
1 3 -2 275.95 5.01
1 3 -2 291.43 9.73
-1 -3 1 85.28 4.95
-1 -3 1 89.35 2.44
1 3 -1 93.18 5.31
-1 -3 0 201.44 7.67
1 3 0 214.55 7.92
1 3 1 27.53 2.8
-1 -3 -1 30.11 3.04
1 3 2 -0.25 0.31
-1 -3 -2 0.06 0.29
-1 -3 -3 64.32 4.24
-1 -3 -3 72.4 3.98
-1 -3 -4 130.53 5.92
-1 -3 -4 130.36 6.24
-1 -3 -5 144.21 6.78
-1 -3 -5 141.66 6.8
-1 -3 -6 46.84 4.07
1 3 6 43.81 4.39
-1 -3 -6 43.44 4.05
-1 -3 -7 23.69 3.03
1 3 7 23.47 3.37
-1 -3 -7 22.39 3.07
-1 -3 -8 14.85 2.61
-1 -3 -9 14.94 2.73
-1 -3 -10 5.01 1.79
-1 -3 -11 45.82 5.38
-1 -3 -12 5.81 1.95
-1 -3 -13 3.52 1.72
1 4 -12 7.37 2.59
1 4 -11 284.16 16.52
1 4 -10 245 14.61
1 4 -9 9.69 2
1 4 -9 8.96 2.75
1 4 -8 375.43 16.3
1 4 -7 23.67 2.55
1 4 -7 23.95 3.96
1 4 -6 23.28 2.29
-1 -4 6 21.12 3.05
1 4 -6 26.12 3.95
1 4 -5 268.88 6.87
-1 -4 5 283.75 10.89
1 4 -5 269.13 11.89
-1 -4 5 281.1 11.01
1 4 -4 1.53 0.85
1 4 -4 2.27 0.59
1 4 -3 678.25 17.45
1 4 -3 661.75 7.64
-1 -4 3 691.44 16.49
1 4 -2 42.45 4.27
-1 -4 2 48.21 4.3
1 4 -1 475.91 13.96
1 4 0 1.07 0.59
-1 -4 0 1.51 0.37
1 4 1 3.38 1.12
-1 -4 -1 2.74 0.61
1 4 2 649.72 15.68
-1 -4 -2 665.5 15.35
-1 -4 -3 1.37 0.69
-1 -4 -3 0.02 0.33
-1 -4 -4 3.8 1.09
-1 -4 -4 0.69 0.75
1 4 5 270.03 11.34
-1 -4 -5 274.78 11.62
-1 -4 -5 284.92 9.8
-1 -4 -5 282.72 10.47
-1 -4 -6 58.07 4.93
1 4 6 71.51 6.09
-1 -4 -6 70.4 5.25
-1 -4 -6 55.71 5.49
-1 -4 -7 119.59 7.29
-1 -4 -8 58.84 5.33
-1 -4 -9 221.11 10.97
-1 -4 -10 2.99 1.38
-1 -4 -11 1.43 1.35
-1 -4 -12 20.83 3.98
-1 -4 -13 10.76 2.91
1 5 -11 74.91 8.98
1 5 -10 42.41 6.43
1 5 -9 126.04 10.66
1 5 -8 71.59 7.59
1 5 -7 26.79 2.63
1 5 -7 29.85 4.7
1 5 -6 211.69 6.48
1 5 -6 208.43 11.95
1 5 -5 50.99 5.75
1 5 -5 50.11 2.69
1 5 -4 7.19 2.04
-1 -5 4 8.74 2.06
1 5 -3 80.17 6.79
-1 -5 3 90.19 6.53
-1 -5 2 23.68 3.36
1 5 -2 23.83 3.59
1 5 -1 15.26 2.83
-1 -5 1 13.04 2.49
1 5 0 178.7 9.4
-1 -5 0 164.24 3.72
1 5 1 192.38 9.69
-1 -5 -1 188.22 5.21
-1 -5 -2 902.77 13.3
1 5 2 894.77 20.68
-1 -5 -2 873.31 19.81
-1 -5 -3 101.51 7.47
-1 -5 -3 109 6.98
-1 -5 -3 107.14 5.18
-1 -5 -4 17.95 3.23
-1 -5 -4 11.33 2.25
-1 -5 -4 16.17 2.21
-1 -5 -5 61.61 4.71
-1 -5 -5 65.49 5.52
-1 -5 -6 761.15 19.19
-1 -5 -6 776.8 17.81
-1 -5 -7 446.94 15.14
-1 -5 -8 16.68 3.02
-1 -5 -9 -0.01 0.95
-1 -5 -10 29.62 4.39
-1 -5 -11 40.94 5.38
-1 -5 -12 95.27 8.58
1 6 -10 0.01 0.71
1 6 -9 52.75 7.4
1 6 -8 112.55 10.34
1 6 -7 101.32 9.42
1 6 -6 2.12 1.54
1 6 -6 7.46 0.84
1 6 -5 -0.28 1.37
1 6 -4 51.96 6.2
1 6 -3 39.29 5.21
1 6 -2 0.65 0.55
1 6 -1 110.45 8.28
-1 -6 1 108.21 7.89
-1 -6 0 0.44 0.24
-1 -6 0 0.38 1
1 6 0 0.23 0.87
-1 -6 -1 198.54 11.01
1 6 1 223.71 11.46
-1 -6 -1 207.4 5.49
-1 -6 -2 0.85 0.53
1 6 2 0.59 0.94
-1 -6 -2 0.55 0.55
-1 -6 -2 -0.71 0.72
-1 -6 -3 48.1 5.15
-1 -6 -3 48.23 3.56
1 6 3 44.22 5.15
-1 -6 -4 2.14 0.88
-1 -6 -4 2.36 1.17
-1 -6 -5 57.95 4.68
-1 -6 -5 66.81 6.07
-1 -6 -6 90.95 7.2
-1 -6 -7 181.3 10.32
-1 -6 -8 0.57 0.84
-1 -6 -9 5.7 2.05
-1 -6 -10 2.42 1.31
-1 -6 -11 2.3 1.83
1 7 -9 5 2.65
1 7 -8 91.94 9.97
1 7 -7 47.66 6.89
1 7 -6 -0.33 0.9
1 7 -5 22.54 4.67
1 7 -4 3.38 2.07
1 7 -3 5.56 2.05
1 7 -2 52.94 6.35
1 7 -1 337.21 15.9
-1 -7 0 36.35 1.83
-1 -7 0 34.13 1.6
-1 -7 -1 39.86 2.44
1 7 1 40.03 5.3
1 7 2 0.51 0.59
-1 -7 -2 -0.1 0.37
-1 -7 -2 -0.42 0.64
-1 -7 -3 187.39 7.09
-1 -7 -3 187.8 11.06
1 7 3 191.66 11.58
-1 -7 -4 6.63 1.52
-1 -7 -4 1 0.54
-1 -7 -5 325.2 11.29
-1 -7 -5 348 14.9
-1 -7 -6 365.28 15.52
-1 -7 -7 11.69 2.88
-1 -7 -8 11.03 2.75
-1 -7 -9 -0.66 0.69
-1 -7 -10 2.37 1.33
1 8 -8 11.89 3.87
1 8 -7 0.22 1.07
1 8 -6 10.37 3.34
1 8 -5 81.88 9.21
1 8 -4 171.21 13.04
1 8 -3 25.37 4.88
1 8 -2 67.38 7.83
1 8 -1 546.91 21.85
1 8 0 708.9 24.37
1 8 1 113.16 9.6
-1 -8 -1 111.04 4.14
-1 -8 -2 45.57 5.88
1 8 2 50.58 6.35
-1 -8 -2 55.28 3.5
-1 -8 -3 39.87 3.32
-1 -8 -3 46.69 6.03
1 8 3 41.81 5.73
-1 -8 -4 16.42 2.39
-1 -8 -4 25.33 4.36
-1 -8 -5 3.23 1.68
-1 -8 -6 62.83 6.9
-1 -8 -7 18.66 3.89
-1 -8 -8 24.05 4.45
-1 -8 -9 9.41 2.78
1 9 -6 4 2.18
1 9 -5 0.87 1.5
1 9 -4 7.39 3.1
1 9 -3 9.96 3.26
1 9 -2 30.13 5.59
1 9 -1 65.35 8.08
1 9 0 74.83 8.5
1 9 1 147.89 11.85
1 9 2 3.82 2.06
-1 -9 -2 5.44 2.34
1 9 3 1.07 0.81
-1 -9 -3 0.08 0.71
-1 -9 -4 37.2 5.65
-1 -9 -5 94.85 9.08
-1 -9 -6 114.63 9.92
-1 -9 -7 -0.28 1.7
-1 -9 -8 3.6 1.89
1 10 -4 114.21 12.08
1 10 -3 3.39 2.14
1 10 -2 34.21 6.51
1 10 -1 19.18 4.7
1 10 0 4.67 2.17
1 10 1 97.94 10.35
-1 -10 -1 85.29 9.35
-1 -10 -2 23.53 4.96
1 10 2 19.31 4.6
-1 -10 -3 4.74 2.37
-1 -10 -4 9.5 3.03
-1 -10 -5 8.39 2.84
-2 11 2 13.37 4.04
-2 11 1 8.89 3.36
-2 11 0 31.24 5.96
2 -10 -6 54.77 6.93
2 -10 -5 4.91 2.33
2 -10 -4 -0.49 1.08
2 -10 -3 36.35 5.83
-2 10 2 13.21 3.6
2 -10 -2 16.8 3.91
-2 10 1 18.71 4.53
2 -10 -1 23.86 4.84
-2 10 0 24.47 5.03
-2 10 -1 12.7 3.86
-2 10 -2 9.87 3.41
-2 10 -3 3.91 1.55
-2 10 -4 75.52 9.63
-2 10 -5 35.85 6.83
2 -9 -8 33.99 5.17
2 -9 -7 9.6 2.71
2 -9 -6 3.14 1.47
2 -9 -5 34.64 5.21
2 -9 -4 12.36 3.29
2 -9 -3 -1.43 1.51
-2 9 2 2.39 1.63
2 -9 -2 1.54 0.9
-2 9 1 6.34 2.48
-2 9 0 4.16 1.8
-2 9 -1 28.83 5.21
-2 9 -2 7.94 2.8
-2 9 -3 10.35 3.13
-2 9 -4 4.35 1.85
-2 9 -5 2 1.67
-2 9 -6 9.28 3.58
-2 9 -7 53.59 8.25
2 -8 -10 10.18 3.01
2 -8 -9 91.43 8.11
2 -8 -8 12.06 2.88
2 -8 -7 23.93 4.09
-2 8 6 1.74 1.17
2 -8 -6 1.69 1.19
-2 8 5 3.24 1.33
2 -8 -5 3.71 1.75
2 -8 -4 4.61 1.74
-2 8 4 2.32 1.09
-2 8 3 106.57 6.49
2 -8 -3 93.69 8.09
2 -8 -3 109.2 7.3
-2 8 2 9.85 1.84
-2 8 2 11.23 3.04
2 -8 -2 6.97 1.62
2 -8 -2 11.46 2.96
-2 8 1 91.19 8.25
2 -8 -1 96.53 6.12
-2 8 1 84.5 4.8
-2 8 0 2.76 0.86
-2 8 0 3.01 1.56
2 -8 0 1.41 0.71
-2 8 -1 85.19 3.61
-2 8 -1 81.36 8.07
-2 8 -2 15.85 1.11
-2 8 -2 20.88 4.19
-2 8 -3 46.44 6.41
-2 8 -4 120.76 10.62
-2 8 -5 1.87 1.57
-2 8 -6 45.99 6.92
-2 8 -7 47.73 7.21
-2 8 -8 29.7 5.95
2 -7 -11 15.01 3.44
2 -7 -10 51.51 5.95
2 -7 -9 14.46 3.12
2 -7 -8 5.68 1.87
-2 7 8 4.65 1.77
2 -7 -7 64.2 6.18
-2 7 7 65.05 6.35
-2 7 6 2.03 1.02
2 -7 -6 4.52 1.65
-2 7 5 53 5.12
2 -7 -5 56.39 5.68
-2 7 4 0.39 0.49
2 -7 -4 0.1 0.57
2 -7 -4 -0.19 0.69
2 -7 -3 18.33 2.86
-2 7 3 20.68 2.78
2 -7 -3 20.67 3.49
-2 7 2 116.1 8.46
2 -7 -2 124.38 7.17
2 -7 -2 138.6 9.14
-2 7 2 127.3 6.32
-2 7 1 106.05 8.27
2 -7 -1 110.49 6.38
-2 7 1 103.16 5.23
2 -7 0 108.29 5.86
-2 7 0 95.58 4.51
-2 7 -1 13.32 3.03
-2 7 -1 14.35 1.59
-2 7 -2 136.58 4.13
-2 7 -2 132.47 9.75
-2 7 -3 16.13 1.22
-2 7 -3 15.83 3.46
-2 7 -4 113.74 2.91
-2 7 -4 111.88 9.45
-2 7 -5 89.92 8.71
-2 7 -5 95.3 2.97
-2 7 -6 18.99 4.22
-2 7 -7 56.07 7.3
-2 7 -8 4.46 2.79
-2 7 -9 5.85 2.99
-2 7 -10 0.49 1.4
2 -6 -12 12.79 3.27
2 -6 -11 6.85 2.23
2 -6 -10 5.17 1.59
-2 6 9 -1.3 1.38
2 -6 -9 -1.57 1.04
2 -6 -8 1.23 0.79
-2 6 8 1.65 0.82
2 -6 -7 55.91 5.37
-2 6 7 60.49 5.94
-2 6 6 118.8 7.86
2 -6 -6 117.5 7.64
-2 6 5 7.39 1.8
2 -6 -5 3.31 1.32
2 -6 -4 28.6 3.58
2 -6 -4 27.64 4.26
2 -6 -4 25.31 3.49
-2 6 4 25.77 3.18
2 -6 -3 0.06 0.7
-2 6 3 -0.44 0.38
2 -6 -3 0.78 0.6
2 -6 -3 0.23 0.66
2 -6 -2 10.56 2.31
-2 6 2 9.97 1.7
2 -6 -2 10.1 1.98
2 -6 -2 7.23 2.13
-2 6 2 7.27 1.96
-2 6 1 14.74 1.88
-2 6 1 14.54 2.84
2 -6 -1 14.41 2.84
2 -6 -1 14.22 2.21
-2 6 0 204.42 6.39
-2 6 0 202.43 10.59
2 -6 0 197.9 10.1
2 -6 0 202.45 7.84
-2 6 -1 71.23 3.44
-2 6 -1 75.98 6.58
2 -6 1 79.13 6.33
2 -6 1 73.17 4.31
-2 6 -2 113.51 8.26
-2 6 -2 104.64 3.99
2 -6 2 105.9 7.33
-2 6 -3 24.99 3.93
-2 6 -3 30.42 2.18
-2 6 -4 31.73 4.65
-2 6 -4 31.1 2.37
-2 6 -5 160.61 5.98
-2 6 -5 156.85 10.64
-2 6 -6 12.19 1.84
-2 6 -6 11.94 3.13
-2 6 -6 13.45 1.64
-2 6 -7 2.27 0.76
-2 6 -7 5.01 2.08
-2 6 -8 4.68 2.02
-2 6 -9 25.5 4.87
-2 6 -10 26.41 5.37
-2 6 -11 9.07 3.24
2 -5 -13 74.45 7.5
2 -5 -12 74.02 7.18
2 -5 -11 6.59 2.18
-2 5 10 3.85 1.52
2 -5 -10 4.98 1.66
2 -5 -9 0.9 0.86
-2 5 9 0.65 1.08
-2 5 8 4.55 1.68
2 -5 -8 4.26 1.4
-2 5 7 724.86 19.87
2 -5 -7 740.29 18.03
2 -5 -6 109.59 6.73
-2 5 6 116.34 7.48
2 -5 -5 60.39 5.82
2 -5 -5 59.34 5.12
2 -5 -5 65.79 5.15
-2 5 5 55.64 4.81
2 -5 -4 117.89 7.79
2 -5 -4 124.68 6.97
2 -5 -4 128.38 7.19
-2 5 4 135.84 6.96
2 -5 -3 0.49 0.48
2 -5 -3 -0.01 0.65
2 -5 -3 0.2 0.37
-2 5 3 0.4 0.42
-2 5 2 243.13 10.05
-2 5 2 263.15 8.26
2 -5 -2 251.56 9.16
2 -5 -2 241.5 9.78
-2 5 1 65.53 5.28
2 -5 -1 65.6 4.5
-2 5 1 64.87 3.77
-2 5 0 588.96 16.27
2 -5 0 600.36 13.05
-2 5 0 606.91 10.74
-2 5 -1 45.88 4.58
2 -5 1 42.18 3.28
-2 5 -1 46.72 2.92
2 -5 2 112.95 6.87
-2 5 -2 107.32 4.43
-2 5 -2 95.97 6.9
-2 5 -3 70.43 3.86
2 -5 3 71.56 5.49
-2 5 -3 72.18 6.14
2 -5 4 954.25 20.53
-2 5 -4 948.81 15.1
-2 5 -4 927.11 22.7
-2 5 -5 2.67 1.46
-2 5 -5 2.48 0.75
-2 5 -6 41.86 5.29
-2 5 -7 130.01 6
-2 5 -7 132.32 9.7
-2 5 -8 285.01 14.98
-2 5 -9 -0.6 0.79
-2 5 -10 5.95 2.55
-2 5 -11 24.63 5.09
2 -4 -13 4.77 1.99
2 -4 -12 4.12 1.87
2 -4 -11 20.96 3.57
2 -4 -10 52.02 5.34
-2 4 10 57.03 6.54
2 -4 -9 203.84 9.91
-2 4 9 217.24 11.85
2 -4 -8 111.59 6.93
-2 4 8 108.03 7.88
2 -4 -7 713.55 19.93
2 -4 -7 699.4 16.36
-2 4 7 683.97 18.69
-2 4 7 659.63 18.33
-2 4 6 926.97 20.42
2 -4 -6 925.06 18.01
-2 4 6 951.96 20.55
2 -4 -6 938.86 21.68
-2 4 5 627.28 15.53
2 -4 -5 659.47 17.26
2 -4 -5 664.18 14.68
2 -4 -5 685.96 16.61
-2 4 4 119.11 6.25
2 -4 -4 117.54 6.52
2 -4 -4 108.14 5.8
2 -4 -3 241.64 8.59
-2 4 3 243.85 8.23
2 -4 -3 250.53 9.83
2 -4 -3 236.23 8.86
-2 4 2 35 3.36
2 -4 -2 35.75 3.32
2 -4 -2 33.06 3.19
2 -4 -2 35.99 3.59
-2 4 2 32.76 2.78
-2 4 1 726.44 12.2
-2 4 1 699.19 15.2
2 -4 -1 702.43 15.51
2 -4 -1 697.01 13.96
2 -4 0 577.89 13.69
-2 4 0 586.65 10.77
-2 4 0 590.74 14.22
2 -4 0 577.12 12.28
-2 4 -1 784.63 12.45
-2 4 -1 782.17 16.87
2 -4 1 806.09 16.1
2 -4 1 803.68 13.95
2 -4 2 1463.38 21.76
-2 4 -2 1458.56 17.66
-2 4 -2 1473.68 23.97
-2 4 -3 688.11 16.92
-2 4 -3 654.32 12.44
2 -4 4 334.67 11.08
-2 4 -4 344.36 12.44
-2 4 -4 340.87 9.58
2 -4 4 372.47 11.8
-2 4 -5 22.78 3.36
2 -4 5 27.74 3.3
-2 4 -6 88.52 7.04
-2 4 -7 85.45 7.22
-2 4 -8 89.53 7.84
-2 4 -8 89.04 5.6
-2 4 -9 42.73 4.11
-2 4 -9 39.7 5.46
-2 4 -10 10.76 3.22
-2 4 -11 61.54 7.61
-2 4 -12 12.96 3.61
2 -3 -13 26.03 4.4
2 -3 -12 10.56 2.66
2 -3 -11 1.67 0.98
2 -3 -10 7.09 1.9
-2 3 10 5.75 2.2
2 -3 -9 68.79 5.62
-2 3 9 71.98 6.67
-2 3 8 66.94 5.69
2 -3 -8 67.34 5.18
-2 3 8 70.69 6.15
-2 3 7 38.91 4.08
2 -3 -7 35.65 3.51
-2 3 7 41.67 4.45
-2 3 6 4.6 1.3
-2 3 6 5.15 1.37
2 -3 -6 7.56 1.52
2 -3 -6 4.21 1.38
2 -3 -5 26.98 2.68
-2 3 5 23.48 2.9
2 -3 -5 31.92 3.45
-2 3 5 31.25 3.28
2 -3 -4 2.76 0.95
-2 3 4 4.66 1.2
-2 3 4 4.33 1.14
2 -3 -4 4.75 1.11
-2 3 3 168.36 6.56
2 -3 -3 166.03 6.99
2 -3 -3 170.14 7.13
2 -3 -3 154.6 5.84
2 -3 -2 1092.6 17.05
2 -3 -2 1121.12 17.51
-2 3 2 1099.82 15.4
2 -3 -2 1080.52 15.49
2 -3 -1 330.56 9.22
2 -3 -1 309.36 8.72
-2 3 1 332.09 8.82
-2 3 1 334.81 8.26
-2 3 0 728.28 13.39
2 -3 0 736.75 13.38
-2 3 0 731.82 12.18
2 -3 0 718.06 12.93
-2 3 -1 223.09 7.68
-2 3 -1 236.71 7.05
2 -3 1 235.87 7.41
2 -3 1 243.04 7.49
-2 3 -2 102.39 5.39
-2 3 -2 96.83 4.68
2 -3 2 93.01 4.72
-2 3 -3 379.47 11.04
2 -3 3 384.33 10.15
2 -3 3 376.13 10.11
-2 3 -3 376.49 9.65
-2 3 -4 672.56 15.59
-2 3 -5 1.01 0.69
2 -3 5 1.68 0.86
2 -3 6 187.37 8.4
-2 3 -6 193.55 9.45
-2 3 -7 47.62 5
-2 3 -8 1.28 0.93
-2 3 -8 1.26 0.79
-2 3 -9 4.19 1.49
-2 3 -9 2.89 1.5
-2 3 -10 3.91 2.07
-2 3 -11 5.19 1.86
-2 3 -12 0.62 0.89
2 -2 -14 1.88 1.03
2 -2 -13 6.15 2.31
2 -2 -12 77.39 7.14
2 -2 -11 4.62 1.63
-2 2 11 4.05 1.99
2 -2 -10 7 1.83
-2 2 10 11.98 2.89
-2 2 9 38.51 4.79
2 -2 -9 33.99 3.84
-2 2 8 69.73 5.97
-2 2 8 69 5.42
2 -2 -8 73.42 5.27
2 -2 -7 20.52 2.63
-2 2 7 23.86 3.24
-2 2 7 20.73 2.77
2 -2 -6 22.58 3
-2 2 6 25.97 3.16
2 -2 -6 27.5 2.75
-2 2 6 31.78 3.2
2 -2 -5 105.96 4.92
-2 2 5 95.61 5.03
-2 2 5 97.09 5.64
-2 2 4 62.31 4.15
2 -2 -4 60.41 3.34
-2 2 4 54.26 3.54
-2 2 3 201.54 6.17
2 -2 -3 202.96 5.6
2 -2 -3 198.79 7.4
-2 2 3 215.88 7.04
-2 2 2 26.88 2.38
2 -2 -2 27.88 2.23
2 -2 -2 24.89 1.85
2 -2 -2 26.61 2.59
-2 2 1 412.31 9.11
2 -2 -1 399.59 9.71
2 -2 -1 391.18 7.81
-2 2 1 403.56 7.52
-2 2 0 612.89 11.21
-2 2 0 596.72 9.55
2 -2 0 603.51 11.7
2 -2 0 580.05 9.03
-2 2 -1 384.16 9.07
2 -2 1 393.94 9.32
-2 2 -1 391.35 8.15
2 -2 1 389.95 7.57
-2 2 -2 830.32 13.76
-2 2 -2 822.93 12.83
2 -2 2 860.4 12.23
2 -2 2 843.86 12.13
-2 2 -3 8.56 1.43
2 -2 3 7.03 1.25
2 -2 4 248.71 7.77
-2 2 -4 246.16 8.36
-2 2 -5 707.32 15.48
-2 2 -5 742.33 15.75
2 -2 6 51.4 4.2
-2 2 -6 49.77 4.43
-2 2 -6 49.87 4.4
2 -2 7 71.69 5.32
-2 2 -7 75.4 5.86
-2 2 -7 67.29 5.51
-2 2 -8 1.05 1.02
-2 2 -8 2.78 1
-2 2 -9 362.73 14.55
-2 2 -9 339.5 14.29
-2 2 -10 16.91 3.5
-2 2 -10 17.59 3.41
-2 2 -11 75.6 7.63
-2 2 -11 77.75 7.67
-2 2 -12 52.78 6.79
-2 2 -12 42.38 5.99
-2 2 -13 16.85 4.16
2 -1 -14 -0.63 0.96
2 -1 -13 2.18 1.43
2 -1 -13 2.8 1.82
2 -1 -12 8.04 2.36
2 -1 -11 15.71 3.03
-2 1 11 12.56 2.93
2 -1 -10 23.43 3.42
-2 1 10 22.66 3.76
2 -1 -9 130.83 7.6
-2 1 9 127.58 8.41
-2 1 8 120.08 7.63
2 -1 -8 137.16 7.13
-2 1 8 129.37 7.11
2 -1 -7 15.44 2.64
-2 1 7 10.66 2.08
2 -1 -7 12.78 2
-2 1 7 13.26 2.1
-2 1 6 16.72 2.44
2 -1 -6 14.97 2.36
-2 1 6 16.2 2.14
2 -1 -6 17.39 2.11
-2 1 5 44.14 3.64
2 -1 -5 44.05 3.03
-2 1 5 46.65 3.23
-2 1 4 85.05 4.64
2 -1 -4 84.34 3.7
-2 1 4 81.91 3.77
-2 1 3 13.88 1.71
2 -1 -3 11.36 1.14
-2 1 3 12.38 1.26
-2 1 2 64.57 3.61
2 -1 -2 59.34 2.09
-2 1 2 60.61 2.32
2 -1 -1 175.09 3.47
-2 1 1 183.62 6.02
2 -1 -1 181.93 3
2 -1 0 645.96 11.81
-2 1 0 672.52 11.73
2 -1 0 659.42 5.69
-2 1 0 660.28 6.18
-2 1 -1 3342.91 26.79
2 -1 1 3289.66 17
-2 1 -1 3336.54 17.2
-2 1 -2 65.1 3.01
2 -1 2 63.6 2.82
-2 1 -2 65.15 2.93
-2 1 -3 44.42 2.86
2 -1 3 43.81 2.75
2 -1 4 41.57 3.02
-2 1 -4 41.92 3.15
-2 1 -5 17.59 2.29
2 -1 6 157.57 7.11
-2 1 -6 159.59 7.38
2 -1 7 353.97 11.5
-2 1 -7 353.45 11.86
-2 1 -8 1.61 0.92
-2 1 -8 0.07 0.7
-2 1 -9 39.77 4.53
-2 1 -10 4.37 1.66
-2 1 -11 27.11 4.39
-2 1 -11 24.63 4.18
-2 1 -12 81.57 8.15
-2 1 -12 70.21 7.44
-2 1 -13 29.93 5.27
-2 1 -13 28.23 5.03
2 0 -14 18.93 4.08
2 0 -13 46.29 6.1
2 0 -13 29.54 5.12
2 0 -12 -0.33 1.13
2 0 -12 0.29 0.79
2 0 -11 33.55 4.52
2 0 -11 33.46 4.85
2 0 -10 198.4 10.44
-2 0 10 202.51 11
2 0 -10 214.06 11.32
-2 0 9 18.88 3.18
2 0 -9 22.9 3.23
-2 0 8 53.67 4.42
2 0 -8 50.53 4.49
-2 0 8 52.48 4.88
-2 0 7 10.41 1.76
2 0 -7 10.76 2.07
2 0 -7 10.83 1.91
-2 0 7 9.35 1.94
-2 0 6 84.9 5.29
2 0 -6 92.19 5.65
2 0 -6 82.58 4.8
-2 0 6 87.82 4.8
-2 0 5 329.77 9.58
2 0 -5 317.91 8.38
-2 0 5 334.07 8.51
-2 0 4 835.65 13.91
2 0 -4 815.83 14.89
2 0 -4 831.28 11.87
-2 0 4 825.73 11.52
2 0 -3 65.68 3.98
-2 0 3 69.97 2.81
-2 0 3 70.19 3.75
2 0 -3 69.62 2.92
2 0 -2 221.13 4.64
-2 0 2 220.46 6.5
-2 0 2 220.14 3.87
2 0 -2 212.39 6.85
2 0 -2 218.07 4.07
-2 0 1 91.64 4.2
2 0 -1 90.02 2.18
-2 0 0 1516.83 17.53
2 0 1 168.36 3.53
-2 0 -1 166.43 5.95
-2 0 -1 165.09 3.44
-2 0 -2 203.15 4.92
2 0 2 188.06 4.73
2 0 3 31.68 2.29
-2 0 -3 28.58 2.16
2 0 4 192.3 6.46
-2 0 -4 191.39 6.4
-2 0 -5 158.01 6.39
-2 0 -6 183.65 7.53
2 0 6 184.56 7.61
2 0 7 0.65 0.55
-2 0 -7 -0.15 0.58
-2 0 -8 100.76 6.57
-2 0 -8 115.82 7.11
-2 0 -9 -0.66 0.74
-2 0 -10 212.69 11.03
-2 0 -11 50.59 5.79
-2 0 -12 116.49 9.31
-2 0 -13 3.5 1.53
2 1 -13 55.38 7.16
2 1 -12 11.94 3.18
2 1 -11 15.6 3.39
2 1 -10 9.02 2.47
2 1 -10 8.15 2.2
-2 -1 10 13.26 2.82
2 1 -9 11.44 2.32
2 1 -9 11.35 2.59
-2 -1 9 11.27 2.38
2 1 -8 15.12 2.55
2 1 -8 13.07 2.56
-2 -1 8 17.03 2.56
-2 -1 8 16.93 2.73
2 1 -7 233.05 9.44
-2 -1 7 240.31 8.96
2 1 -7 251.85 10.23
-2 -1 7 229.59 9.25
-2 -1 6 47.43 3.88
2 1 -6 47.91 4.12
2 1 -6 42.52 3.69
2 1 -6 42.81 3.76
-2 -1 6 42.56 3.46
-2 -1 5 1.53 0.72
-2 -1 5 2.5 0.76
2 1 -5 2.3 0.8
2 1 -5 2.52 0.96
2 1 -4 9.8 1.62
2 1 -4 8.99 1.52
-2 -1 4 10.86 1.5
-2 -1 4 9.51 1.34
-2 -1 3 0.05 0.38
-2 -1 3 0.35 0.33
2 1 -3 -0.14 0.36
-2 -1 2 55.3 3.15
2 1 -2 59.64 3.56
2 1 -2 58.69 3.08
-2 -1 2 58.36 2.84
2 1 -1 135.45 5.25
-2 -1 1 138.92 5.14
-2 -1 1 142.7 4.14
2 1 -1 145.13 4.42
2 1 0 4710.81 23.93
-2 -1 0 4684.46 21.93
-2 -1 -1 9910.48 34.02
2 1 1 9999 35.99
2 1 2 7076.44 33.95
-2 -1 -2 6997.93 31.82
-2 -1 -3 26.1 2.14
2 1 3 26.03 2.28
-2 -1 -4 329.17 8.55
2 1 4 327 8.91
-2 -1 -5 228.4 7.83
2 1 6 0.31 0.39
-2 -1 -6 1.34 0.74
-2 -1 -7 52.86 4.41
2 1 7 46.96 4.34
-2 -1 -7 44.74 4.26
-2 -1 -8 2.93 1.22
-2 -1 -9 14.39 2.68
-2 -1 -10 115.61 7.96
-2 -1 -11 5.49 2.04
-2 -1 -12 25.5 4.24
-2 -1 -13 -0.34 1.01
2 2 -13 85.57 9.17
2 2 -12 26.88 4.96
2 2 -11 27.28 4.69
2 2 -10 -0.62 0.89
2 2 -9 782.38 21.95
-2 -2 9 717.81 18.47
2 2 -8 479.19 14.13
2 2 -8 481.95 16.26
-2 -2 8 468.4 13.87
-2 -2 7 1.12 0.71
2 2 -7 1.14 0.65
-2 -2 7 2.66 0.95
2 2 -7 3.08 1.35
-2 -2 6 149.92 6.66
-2 -2 6 152.76 6.82
-2 -2 5 18.27 2.13
2 2 -5 18.29 2.26
2 2 -5 20.66 2.78
-2 -2 5 18.81 2.23
-2 -2 4 0.33 0.32
2 2 -4 0.3 0.24
-2 -2 4 -0.15 0.25
2 2 -4 0.34 0.33
2 2 -3 1221.78 16.55
2 2 -3 1241.97 18.52
-2 -2 3 1200.19 16.78
2 2 -2 175.99 6.57
-2 -2 2 182.83 5.49
2 2 -2 179.62 6.09
-2 -2 2 172.15 6.07
-2 -2 1 7.98 1.31
2 2 -1 6.02 1.15
2 2 -1 7.68 1.23
-2 -2 1 6.86 1.11
2 2 0 1521.93 18.12
-2 -2 0 1547.19 18.48
-2 -2 0 1484.04 17.1
-2 -2 -1 328.99 7.96
-2 -2 -1 314.43 8.53
-2 -2 -2 539.5 11.6
-2 -2 -2 549.87 10.56
2 2 2 511.8 10.86
-2 -2 -3 9.49 1.45
2 2 3 9.02 1.59
-2 -2 -4 61.29 3.93
2 2 4 64.28 4.39
-2 -2 -5 180.59 7.25
-2 -2 -6 526.46 13.3
2 2 6 565.55 14.84
2 2 7 433 13.82
-2 -2 -7 428.97 13.54
-2 -2 -8 0.46 0.69
-2 -2 -9 197.81 10.01
-2 -2 -10 172.48 9.82
-2 -2 -11 5.29 1.92
-2 -2 -12 21.74 3.98
-2 -2 -13 22.57 4.24
2 3 -12 -2.22 1.58
2 3 -11 76.96 8.24
2 3 -10 102.03 9.05
2 3 -9 33.48 4.77
2 3 -8 73.63 5.51
2 3 -8 71.28 6.65
-2 -3 8 80.89 5.62
2 3 -7 9.67 2.31
2 3 -7 13 2.17
-2 -3 7 8.1 1.87
-2 -3 7 8.64 1.71
-2 -3 6 8.15 1.76
-2 -3 6 7.62 1.52
2 3 -6 11.26 2.38
2 3 -5 2.85 1.06
-2 -3 5 3.27 1.17
-2 -3 5 2.43 0.93
2 3 -5 3.59 1.07
-2 -3 5 2.46 0.77
-2 -3 4 967.69 13.12
2 3 -4 944.81 15.17
2 3 -4 999.5 20.1
-2 -3 4 1010.07 18.43
2 3 -3 0.22 0.66
-2 -3 3 -0.16 0.48
2 3 -3 0.79 0.42
-2 -3 3 0.84 0.4
-2 -3 2 72.93 4.71
-2 -3 2 62.55 3.03
2 3 -2 61.46 3.47
2 3 -2 62.93 4.67
-2 -3 1 111.61 4.38
2 3 -1 98.96 5.72
-2 -3 1 97.42 5.41
2 3 0 73.38 4.77
-2 -3 0 72.76 3.77
-2 -3 0 69.86 4.69
2 3 1 810.59 15.72
-2 -3 -1 810.07 16.25
-2 -3 -1 767.27 14.69
-2 -3 -2 37.6 3.58
-2 -3 -2 38.77 3.32
-2 -3 -3 913.57 18.16
-2 -3 -3 925.22 16.32
2 3 3 881.89 17.27
-2 -3 -4 316.87 11.1
-2 -3 -4 297.77 9.7
-2 -3 -5 138.22 6.9
2 3 5 133.06 7.43
2 3 6 85.83 6.22
-2 -3 -6 84.87 5.83
-2 -3 -6 74.03 5.25
-2 -3 -7 414.83 13.1
-2 -3 -8 182.43 9.31
-2 -3 -9 46.3 4.91
-2 -3 -10 163.73 9.77
-2 -3 -11 180.32 10.92
-2 -3 -12 22.41 4.04
-2 -3 -13 19.09 3.97
2 4 -12 7.6 2.98
2 4 -11 15.07 3.97
2 4 -10 17.68 3.97
2 4 -9 315.03 15.92
2 4 -8 43.41 5.63
2 4 -8 43.59 4.19
-2 -4 7 4.82 1.19
2 4 -7 3.04 1.41
2 4 -6 57.09 4.19
2 4 -6 54.27 5.74
-2 -4 6 53.92 4.76
-2 -4 6 54.07 3.72
2 4 -5 177.38 6.84
2 4 -5 179.7 9.9
-2 -4 5 177.68 8.45
-2 -4 5 179.11 8.82
-2 -4 5 177.68 5.96
-2 -4 4 124.53 4.36
2 4 -4 119.82 7.8
2 4 -4 118.55 5.19
-2 -4 4 124.82 7.11
-2 -4 3 374.58 12.15
2 4 -3 364.47 8.31
2 4 -3 389.31 13.56
-2 -4 3 382.56 6.71
-2 -4 2 126.62 3.95
2 4 -2 127.8 7.59
-2 -4 2 121.96 6.9
-2 -4 1 82.83 3.62
2 4 -1 85.74 6.02
-2 -4 1 84.46 5.81
2 4 0 -0.06 0.46
-2 -4 0 0.29 0.44
-2 -4 0 0.54 0.4
2 4 1 31.69 3.58
-2 -4 -1 31.54 3.67
2 4 2 93.17 6.08
-2 -4 -2 99.2 6.05
-2 -4 -2 96.34 6.57
-2 -4 -3 410.54 13.75
-2 -4 -3 414.36 12.4
-2 -4 -4 65.83 5.68
-2 -4 -4 57.11 4.68
-2 -4 -5 0.82 0.96
-2 -4 -5 0.6 0.48
-2 -4 -5 2.1 0.95
2 4 5 -0.3 0.58
-2 -4 -6 23.59 3.15
-2 -4 -6 21.17 2.99
-2 -4 -7 27.34 3.56
-2 -4 -8 271.6 11.76
-2 -4 -9 32.55 4.26
-2 -4 -10 4.21 1.79
-2 -4 -11 -0.34 1.15
-2 -4 -12 4.98 2.16
2 5 -11 44.34 6.91
2 5 -10 13.88 3.86
2 5 -9 7.44 2.97
2 5 -8 2.48 1.8
2 5 -7 166.66 11.27
2 5 -7 152.23 7.17
2 5 -6 174.12 11.1
2 5 -6 191.06 7.32
2 5 -5 2.79 1.69
-2 -5 5 1.39 0.42
2 5 -5 1.72 0.72
2 5 -4 50.3 2.92
2 5 -4 51.36 5.68
-2 -5 4 54.17 2.54
-2 -5 3 18.07 1.26
-2 -5 3 19.16 3.01
2 5 -3 20.83 3.56
-2 -5 2 182.36 3.91
-2 -5 2 179.05 9.35
2 5 -1 221.32 10.85
-2 -5 1 217.59 5.5
-2 -5 0 8.37 2.12
2 5 0 7.34 2.05
-2 -5 0 8.23 1.33
2 5 1 113.45 7.56
-2 -5 -1 129.51 8.26
2 5 2 599.12 17.16
-2 -5 -2 586.04 17.8
-2 -5 -2 564.29 16.15
-2 -5 -3 256.76 12.04
-2 -5 -3 246.74 10.63
-2 -5 -3 257.94 8.52
-2 -5 -4 0.85 0.6
-2 -5 -4 0.15 0.72
-2 -5 -4 0.15 0.52
-2 -5 -5 361.88 11.75
-2 -5 -5 337.42 12.66
-2 -5 -6 131.82 8.13
-2 -5 -7 369.74 14
-2 -5 -8 154.11 9.29
-2 -5 -9 5.12 1.9
-2 -5 -10 13.02 2.95
-2 -5 -11 13.26 3.08
-2 -5 -12 18.15 3.84
2 6 -10 50.04 7.6
2 6 -9 28.64 5.47
2 6 -8 4.44 2.39
2 6 -7 -0.41 0.99
2 6 -6 36.72 5.59
2 6 -6 46.83 2.96
2 6 -5 5.83 2.11
2 6 -4 19.34 3.87
2 6 -3 21.5 3.86
2 6 -2 31.89 4.58
-2 -6 1 0.77 0.25
-2 -6 1 0.23 0.22
2 6 0 86.95 7.39
-2 -6 0 92.47 3.51
-2 -6 0 97.78 4.34
2 6 1 14.36 3.04
-2 -6 -1 17.71 1.84
2 6 2 22.45 3.63
-2 -6 -2 25.62 3.8
-2 -6 -2 25.23 2.46
-2 -6 -3 149.65 9.13
-2 -6 -3 153.87 6.7
-2 -6 -4 230.07 8.95
-2 -6 -4 224.69 11.22
-2 -6 -5 17.65 3.16
-2 -6 -5 17.09 2.6
-2 -6 -6 46.12 5.16
-2 -6 -7 206.42 11.14
-2 -6 -8 483.89 17.4
-2 -6 -9 539.98 18.93
-2 -6 -10 99.34 8.44
-2 -6 -11 1.36 1
2 7 -9 44.99 7.22
2 7 -8 4.42 2.65
2 7 -7 16.88 4.43
2 7 -6 4.53 2.27
2 7 -5 275.09 15.89
2 7 -4 2.07 1.55
2 7 -3 70.99 7.6
2 7 -2 233.22 13.6
2 7 -1 0.55 0.65
-2 -7 0 44.79 2.15
2 7 0 46.92 5.88
-2 -7 0 49.41 2.79
-2 -7 -1 10.03 1.32
2 7 1 7.74 2.28
2 7 2 5.2 2.27
-2 -7 -2 5.95 1.15
-2 -7 -2 6.96 2.2
2 7 3 106.09 8.7
-2 -7 -3 108.72 8.49
-2 -7 -3 106.08 5.63
-2 -7 -4 100.34 5.99
-2 -7 -4 97.54 7.99
-2 -7 -5 8.67 1.84
-2 -7 -5 11.35 2.7
-2 -7 -6 7.56 2.11
-2 -7 -7 32.82 4.8
-2 -7 -8 120.85 9.27
-2 -7 -9 474.17 18.74
-2 -7 -10 14.81 3.42
2 8 -8 30.87 6.27
2 8 -7 50.27 7.72
2 8 -6 6.05 2.69
2 8 -5 -0.33 1.13
2 8 -4 51.95 7.28
2 8 -3 10.95 3.06
2 8 -2 238.81 14.8
2 8 -1 1.7 1.54
2 8 0 72.84 7.86
-2 -8 -1 56.69 2.92
2 8 1 54.25 6.74
2 8 2 20.32 4.15
-2 -8 -2 21.96 2.23
-2 -8 -2 20.52 4.07
2 8 3 63.33 7.25
-2 -8 -3 63.37 4.34
-2 -8 -3 68.23 7.26
-2 -8 -4 7.79 1.73
-2 -8 -4 7.66 2.4
-2 -8 -5 19.37 3.9
-2 -8 -6 -2.51 1.53
-2 -8 -7 16.71 3.66
-2 -8 -8 16.58 3.66
-2 -8 -9 21.86 4.25
2 9 -6 1.8 2.05
2 9 -5 15.58 4.39
2 9 -4 141.77 12.76
2 9 -3 121.57 11.61
2 9 -2 12.92 3.66
2 9 -1 108.62 10.54
2 9 0 13.51 3.72
2 9 1 76.12 8.56
-2 -9 -1 73.87 8.13
2 9 2 0.68 1.32
-2 -9 -2 0.64 0.74
-2 -9 -3 72.97 8.05
-2 -9 -4 29.82 5.05
-2 -9 -5 43.63 6.26
-2 -9 -6 1.81 1.83
-2 -9 -7 3.04 1.64
2 10 -3 19.36 4.97
2 10 -2 25.5 5.66
2 10 -1 3.15 2.41
2 10 0 0.32 1.87
2 10 1 72.05 8.91
-2 -10 -1 65.7 8.19
2 10 2 -0.2 1.49
-2 -10 -2 24.63 5.06
-2 -10 -3 13.41 3.75
-2 -10 -4 -0.06 0.77
-2 -10 -5 1.36 0.87
-3 11 1 36.94 6.46
-3 11 0 53.29 7.79
3 -10 -6 65.67 7.47
3 -10 -5 5.09 2
3 -10 -4 24.69 4.67
3 -10 -3 5.08 2.25
-3 10 2 21.42 4.51
3 -10 -2 15.74 3.88
-3 10 1 27.67 5.2
3 -10 -1 28.99 5.27
-3 10 0 38.43 6.21
-3 10 -1 28.36 5.52
-3 10 -2 25.91 5.28
-3 10 -3 -0.51 2.41
-3 10 -4 23.45 5.39
-3 10 -5 60.5 8.8
3 -9 -8 15.11 3.32
-3 9 7 1.73 1.22
3 -9 -7 2.81 1.66
-3 9 6 0.33 0.82
3 -9 -6 0.89 1.59
-3 9 5 -0.08 0.7
3 -9 -5 0.74 1.26
-3 9 4 1.61 1.1
3 -9 -4 -0.1 1.12
-3 9 3 13.22 2.56
3 -9 -3 19.52 3.89
-3 9 2 9.3 3
-3 9 2 7.61 1.87
3 -9 -2 4.38 2.05
-3 9 1 10.4 3.13
-3 9 0 19.26 4.1
-3 9 -1 24.97 4.76
-3 9 -2 45.11 6.64
-3 9 -3 25.03 5.04
-3 9 -4 3.11 1.95
-3 9 -5 34.54 6.2
-3 9 -6 41.41 7.04
-3 9 -7 46.13 7.66
3 -8 -10 -2.99 1.62
3 -8 -9 0.84 0.9
-3 8 9 1.2 1.44
-3 8 8 2.45 1.16
3 -8 -8 7.65 2.37
3 -8 -7 15.86 3.22
-3 8 7 12.82 3
-3 8 6 30.49 4.43
3 -8 -6 35.54 4.71
-3 8 5 15.19 3.05
3 -8 -5 17.15 3.42
3 -8 -4 0.03 0.78
-3 8 4 1.82 1.16
-3 8 3 17.83 2.87
3 -8 -3 13.56 3.06
-3 8 2 -0.27 0.54
-3 8 2 1.31 1.09
-3 8 1 24.66 2.93
-3 8 1 22.67 4.14
3 -8 -1 28.86 3.84
-3 8 0 13.59 3.2
-3 8 0 15.48 2.13
-3 8 -1 7.1 2.51
-3 8 -1 3.23 0.97
-3 8 -2 219.08 6.66
-3 8 -2 223.64 13.55
-3 8 -3 47.5 6.45
-3 8 -4 2.99 1.9
-3 8 -5 37.59 6.02
-3 8 -6 32.45 5.83
-3 8 -7 6.69 2.56
-3 8 -8 26.92 5.7
3 -7 -11 234.14 12.83
3 -7 -10 2.04 1.62
3 -7 -9 55.06 5.82
-3 7 9 53.09 6.57
-3 7 8 16.47 3.51
3 -7 -8 18.16 3.24
3 -7 -7 60.97 5.81
-3 7 7 52.26 5.92
3 -7 -6 103.33 7.52
-3 7 6 104.15 7.89
3 -7 -5 31.63 4.19
-3 7 5 39.94 4.61
-3 7 4 60.32 5.36
3 -7 -4 66.31 6.03
-3 7 3 60.06 4.99
3 -7 -3 60.34 5.88
-3 7 2 188.28 8.27
3 -7 -2 164.96 9.24
-3 7 2 184.79 10.5
3 -7 -2 173.05 10.04
-3 7 1 43.11 3.7
-3 7 1 41.08 4.99
3 -7 -1 40.27 4.4
-3 7 0 44.14 3.52
-3 7 0 42.38 5.19
3 -7 0 44.45 4.38
-3 7 -1 19.27 2.18
-3 7 -1 23.95 3.98
-3 7 -2 204.14 6.83
-3 7 -2 189.95 11.55
-3 7 -3 116.27 5.16
-3 7 -3 98.92 8.61
-3 7 -4 138.11 5.75
-3 7 -4 123.76 9.95
-3 7 -5 270.01 8.38
-3 7 -5 238.04 14.2
-3 7 -6 60.39 4.28
-3 7 -6 50.6 6.77
-3 7 -7 6.59 2.61
-3 7 -8 8.58 3.51
-3 7 -9 14.85 4.24
-3 7 -10 2.7 2.2
3 -6 -11 66.98 6.69
-3 6 10 2.7 1.33
3 -6 -10 4 1.49
-3 6 9 39.16 5.53
3 -6 -9 44.02 4.93
-3 6 8 17.34 3.48
3 -6 -8 16.78 2.92
3 -6 -7 44.32 4.58
-3 6 7 46.18 5.37
-3 6 6 47.4 5.13
3 -6 -6 45.49 4.56
-3 6 5 210.17 10.22
3 -6 -5 232.42 10.25
-3 6 4 90.36 6.27
3 -6 -4 93.48 7.48
3 -6 -4 79.79 6.02
-3 6 3 96.66 6.07
3 -6 -3 99.73 7.16
3 -6 -3 93.42 7.31
3 -6 -3 99.39 6.8
-3 6 2 69.09 5.84
-3 6 2 65.65 4.75
3 -6 -2 68.34 5.74
3 -6 -2 66.69 5.61
3 -6 -2 62.82 5.8
-3 6 1 131.27 6.29
-3 6 1 140.35 8.46
3 -6 -1 127.05 7.54
3 -6 -1 131.64 8.17
3 -6 0 5.35 1.8
-3 6 0 10.15 2.52
-3 6 0 6.57 1.5
3 -6 0 5.3 1.71
-3 6 -1 178.34 6.91
-3 6 -1 171.98 9.74
3 -6 1 189.37 8.41
3 -6 1 174.06 9.19
-3 6 -2 151.4 6.46
-3 6 -2 147.38 9.34
3 -6 2 140.02 8.26
-3 6 -3 2269.06 25.31
-3 6 -3 2264.22 37.77
3 -6 3 2252.81 33.07
-3 6 -4 4.26 1.75
-3 6 -4 6.85 1.42
-3 6 -5 186.16 8.1
-3 6 -5 179.55 11.36
-3 6 -6 29.66 4.79
-3 6 -6 34.03 3.67
-3 6 -7 70.33 5.58
-3 6 -7 77.77 8.01
-3 6 -8 102.1 7.12
-3 6 -8 116.48 10.23
-3 6 -9 64.29 7.94
-3 6 -10 19.8 4.7
-3 6 -11 3.03 2.48
3 -5 -12 2.46 1.44
3 -5 -11 57.51 5.96
-3 5 11 61.09 7.45
3 -5 -10 46.52 5.15
-3 5 10 52.63 6.58
3 -5 -9 96.85 6.97
-3 5 9 79.08 7.59
-3 5 8 16.6 3.37
3 -5 -8 20.19 3.01
-3 5 7 41.32 4.97
3 -5 -7 45.45 4.31
-3 5 6 52.82 5.23
3 -5 -6 61.49 5.98
3 -5 -6 58.82 4.73
-3 5 5 1.55 1.05
3 -5 -5 3.11 1.23
3 -5 -5 2.1 0.73
-3 5 4 179.96 8.47
3 -5 -4 168.9 9.22
3 -5 -4 183.36 9.61
3 -5 -4 185.37 8.19
-3 5 3 10.15 1.9
3 -5 -3 8.06 1.99
3 -5 -3 10.97 2.03
-3 5 2 323.02 11.29
-3 5 2 338.45 10.31
3 -5 -2 322.09 11.99
3 -5 -2 320.55 11.03
-3 5 1 118.52 6.9
-3 5 1 122.19 6.02
3 -5 -1 116.1 6.97
-3 5 0 19.49 2.88
-3 5 0 17.96 2.28
3 -5 0 19.48 2.77
-3 5 -1 122.9 5.96
-3 5 -1 119.36 7.33
3 -5 1 125.41 6.77
-3 5 -2 185.96 7.49
3 -5 2 184.09 8.47
-3 5 -2 193.54 9.63
-3 5 -3 8.53 2.18
3 -5 3 8.58 1.89
-3 5 -3 7.53 1.63
-3 5 -4 215.1 8.73
-3 5 -4 218.31 10.97
3 -5 4 230.33 9.94
3 -5 4 207.41 9.54
-3 5 -5 -1.42 0.97
-3 5 -5 1.95 1
-3 5 -6 -1.03 0.91
-3 5 -6 0.02 0.4
-3 5 -7 1.84 1.23
-3 5 -8 11.06 3.03
-3 5 -9 20.72 4.18
-3 5 -10 11.6 3.46
-3 5 -11 6.24 2.39
3 -4 -13 29.87 4.65
3 -4 -12 104.15 8.12
-3 4 11 30.45 5.14
3 -4 -11 28.1 3.98
-3 4 10 0.74 0.99
3 -4 -10 -0.44 0.97
3 -4 -9 1.19 0.82
-3 4 9 -0.31 0.73
-3 4 8 19.6 3.49
3 -4 -8 14.62 2.38
-3 4 7 131.25 8.39
-3 4 7 126.48 7.83
3 -4 -7 132.05 8.47
3 -4 -7 132.5 6.96
3 -4 -6 1.79 1.05
3 -4 -6 3.35 1.1
-3 4 6 2.83 1.32
-3 4 5 5.65 1.63
3 -4 -5 6.48 1.43
-3 4 4 39.43 3.83
3 -4 -4 45.74 4.63
3 -4 -4 36.04 3.2
-3 4 3 254.72 9.2
3 -4 -3 248.45 10.43
3 -4 -3 248.54 9.56
3 -4 -3 236.8 8.09
3 -4 -2 4.36 1.32
3 -4 -2 6.23 1.45
-3 4 2 7.47 1.56
3 -4 -2 9.19 1.65
3 -4 -1 10.78 1.8
3 -4 -1 14.28 2.31
-3 4 1 11.34 1.81
-3 4 1 8.69 1.64
-3 4 0 70.73 4.57
3 -4 0 66.98 4.98
3 -4 0 68.37 4.49
-3 4 0 72.49 4.87
-3 4 -1 55.23 4.09
-3 4 -1 59.81 4.59
3 -4 1 56.99 4.12
3 -4 1 55.99 4.42
-3 4 -2 481.1 12.47
-3 4 -2 488.64 13.53
3 -4 2 466.39 11.9
-3 4 -3 352.1 10.99
-3 4 -3 340.58 11.79
3 -4 4 54.36 4.43
-3 4 -4 51.72 4.39
3 -4 4 55 4.4
-3 4 -4 55.9 5
3 -4 5 27.04 3.27
-3 4 -5 21.65 3.24
-3 4 -5 22.58 3.02
-3 4 -6 27.13 3.87
-3 4 -7 66.78 6.35
-3 4 -8 21.77 3.94
-3 4 -9 185.59 11.84
-3 4 -10 -0.49 1.33
-3 4 -11 -1.75 1.39
-3 4 -12 40.81 6.53
3 -3 -13 14.54 3.28
3 -3 -12 19.76 3.59
-3 3 12 18.35 4.1
3 -3 -11 1.94 1.16
-3 3 11 1.62 1.94
-3 3 10 1.63 0.79
3 -3 -10 8.81 2.2
-3 3 9 2.05 1.46
3 -3 -9 0.74 0.48
-3 3 8 47.57 5.25
-3 3 8 49.2 4.83
3 -3 -8 54.43 4.52
-3 3 7 38.33 4.5
3 -3 -7 33.5 3.33
-3 3 7 35 3.87
-3 3 6 24.73 3.34
3 -3 -6 21.84 2.51
-3 3 6 22.27 2.86
-3 3 5 3.17 1.2
3 -3 -5 4.15 1.33
3 -3 -5 2.13 0.74
-3 3 5 2.69 0.84
3 -3 -4 28.57 3.02
3 -3 -4 31.42 3.66
3 -3 -4 30.26 2.52
-3 3 4 26.39 3.06
3 -3 -3 2.08 0.79
3 -3 -3 4.94 1.04
3 -3 -3 4.72 1.46
-3 3 3 2.64 0.95
3 -3 -2 6.92 1.31
-3 3 2 6.8 1.44
3 -3 -2 7.02 1.7
3 -3 -2 7.23 1.21
-3 3 1 509.73 10.12
-3 3 1 487.76 11.96
3 -3 -1 466.94 13.06
3 -3 -1 497.86 10.42
-3 3 0 354.18 9.01
-3 3 0 375.68 10.67
3 -3 0 364.8 11.33
3 -3 0 359.54 8.49
-3 3 -1 4.75 1.09
3 -3 1 5.9 1.13
-3 3 -1 6.15 1.41
3 -3 1 5.95 1.43
3 -3 2 13.75 1.84
-3 3 -2 16.32 2.16
-3 3 -2 14.87 2.22
3 -3 2 17.46 2
3 -3 3 317.61 9.1
-3 3 -3 321.58 10.64
-3 3 -3 322.05 10.07
-3 3 -4 90.82 5.69
3 -3 5 4.96 1.3
-3 3 -5 2.95 1.06
3 -3 6 46.42 4.22
-3 3 -6 48.94 4.78
-3 3 -7 -0.63 0.66
-3 3 -8 40.73 4.87
-3 3 -9 213.77 11.9
-3 3 -10 107.74 9.02
-3 3 -11 15.41 3.56
-3 3 -12 26.65 5.02
3 -2 -13 26.85 4.47
3 -2 -12 0.29 1.06
-3 2 12 -3.68 1.83
3 -2 -11 126.83 8.45
-3 2 11 126.79 9.95
3 -2 -10 12.11 2.42
-3 2 10 17.75 3.54
3 -2 -9 37.13 3.98
-3 2 9 43.24 5.19
-3 2 8 1.02 0.83
-3 2 8 -0.46 0.34
3 -2 -8 1.69 0.87
-3 2 7 80.51 6.2
3 -2 -7 83.92 5.04
-3 2 7 81 5.35
-3 2 6 215.39 9.43
3 -2 -6 220.24 7.47
-3 2 6 202.04 7.88
-3 2 5 21 2.79
3 -2 -5 20.81 3.02
-3 2 5 19.7 2.26
3 -2 -5 17.4 1.92
-3 2 4 108.44 5.93
3 -2 -4 100.18 6.4
-3 2 4 100.62 4.57
3 -2 -4 108.75 4.23
3 -2 -3 172.96 5.88
-3 2 3 165.95 7.03
3 -2 -3 167.33 4.6
-3 2 2 24.31 2.68
3 -2 -2 28 2.11
3 -2 -2 25.96 3.04
3 -2 -2 30.04 1.78
-3 2 1 98.73 5.38
3 -2 -1 94.55 5.74
3 -2 -1 99.03 3.5
3 -2 -1 91.98 3.21
-3 2 0 127.28 4.06
-3 2 0 139.6 6.51
3 -2 0 132.08 6.65
3 -2 0 131.81 3.77
-3 2 -1 17.98 2.41
3 -2 1 19.02 2.49
3 -2 1 22.5 1.78
-3 2 -1 20.73 1.84
3 -2 1 19.84 1.58
-3 2 -2 42.58 3.78
3 -2 2 42.96 2.7
-3 2 -2 43.34 2.91
3 -2 3 173.89 6.07
-3 2 -3 174.59 7.81
-3 2 -3 167.36 6.27
3 -2 4 173.6 6.58
-3 2 -4 173.57 7.07
-3 2 -5 436.1 12.3
-3 2 -5 439.4 12.28
-3 2 -6 2.31 1.04
-3 2 -6 0.59 0.66
3 -2 6 1.36 0.78
-3 2 -7 29.25 3.76
-3 2 -7 35.44 4.02
-3 2 -8 202.86 10.36
-3 2 -8 208.73 10.54
-3 2 -9 -0.5 0.61
-3 2 -9 -3.45 1.48
-3 2 -10 93.96 8
-3 2 -10 109.48 8.71
-3 2 -11 4.63 2.15
-3 2 -11 3.19 1.55
-3 2 -12 32 5.36
-3 2 -12 30.52 5.21
-3 2 -13 0.72 1.57
3 -1 -13 113.52 9.3
3 -1 -13 124.15 10.32
3 -1 -12 -0.57 0.83
-3 1 12 -1.09 0.89
3 -1 -12 -0.18 0.64
-3 1 11 11.6 3.01
3 -1 -11 8.99 2.32
-3 1 10 16.41 3.27
3 -1 -10 10.89 2.32
3 -1 -9 2.31 1
-3 1 9 2.42 1.37
-3 1 8 57.83 5.45
-3 1 8 55.52 4.54
3 -1 -8 60.65 4.73
-3 1 7 8.55 1.96
3 -1 -7 10.38 1.78
-3 1 7 8.92 1.68
3 -1 -6 32.74 3.88
-3 1 6 37.79 3.12
3 -1 -6 36.51 3.03
-3 1 6 40.55 3.98
-3 1 5 172.49 7.66
3 -1 -5 190.48 8.94
-3 1 5 170.05 5.97
3 -1 -5 176.76 5.84
-3 1 4 1.56 0.53
-3 1 4 1.96 0.7
3 -1 -4 1.93 0.45
-3 1 3 156.85 6.83
-3 1 3 151.74 4.1
3 -1 -3 155.97 3.8
3 -1 -2 7.34 0.6
-3 1 2 7.89 1.55
-3 1 1 109.77 5.7
-3 1 0 248.75 8.65
3 -1 0 237.65 8.79
3 -1 0 237.98 3.23
-3 1 -1 41.15 1.88
-3 1 -1 39.75 3.6
3 -1 1 42.45 1.95
-3 1 -2 8.35 1.14
3 -1 2 8.96 1.11
-3 1 -2 9.2 1.71
-3 1 -2 9.98 1.18
-3 1 -3 115.21 4.76
3 -1 3 105.59 4.39
-3 1 -4 4.8 1.11
3 -1 4 6.34 1.2
-3 1 -5 129.95 6.25
-3 1 -6 71.07 5.05
3 -1 6 72.91 4.93
-3 1 -7 86.04 5.94
3 -1 7 85.07 5.75
-3 1 -8 66.25 5.65
-3 1 -9 577.11 17.71
-3 1 -10 629.68 19.69
-3 1 -11 197.83 11.8
-3 1 -12 2.89 1.64
-3 1 -12 5.12 2.41
-3 1 -13 20.62 4.25
-3 1 -13 17.76 4.09
3 0 -13 103.4 9.55
3 0 -12 81.05 7.96
-3 0 12 90.59 8.48
3 0 -11 4.55 1.93
3 0 -11 6.52 2.01
-3 0 11 2.6 1.47
3 0 -10 184.72 10.06
3 0 -10 185.59 10.6
-3 0 10 176.42 10.52
3 0 -9 29.07 3.72
3 0 -9 32.04 4.1
-3 0 9 34 4.43
3 0 -8 759.11 18.49
-3 0 8 770.34 19.38
-3 0 8 803.57 16.87
3 0 -8 801.55 17.81
3 0 -7 184.35 8.41
-3 0 7 167.09 8.49
3 0 -7 166.47 7.41
-3 0 7 177.87 7.32
3 0 -6 441.16 11.84
-3 0 6 415.49 12.38
3 0 -6 420.38 13.7
3 0 -6 408.73 10.55
-3 0 6 425.87 10.23
-3 0 5 236.28 8.71
3 0 -5 238.65 9.79
3 0 -5 250.52 7.41
-3 0 5 255.7 7.04
3 0 -5 233.46 7.77
-3 0 4 401.84 7.64
-3 0 4 381.27 10.44
3 0 -4 384.91 8
3 0 -4 388.48 8.93
-3 0 3 309.78 9.32
3 0 -3 303.48 10.29
-3 0 3 311.93 5.54
3 0 -3 314.63 6.85
-3 0 2 93.3 5.16
3 0 -2 103.9 5.88
3 0 -2 96.55 3.11
-3 0 2 99.28 2.25
-3 0 1 2381.44 26.22
3 0 -1 2412.32 27.83
-3 0 0 91.41 5.25
-3 0 -1 26.5 1.49
-3 0 -1 28.11 2.98
3 0 1 27.14 1.6
-3 0 -2 2 0.56
3 0 2 1.13 0.42
-3 0 -3 663.99 10.82
3 0 3 637.1 10.98
-3 0 -4 1.26 0.57
3 0 4 1.35 0.57
-3 0 -5 0.53 0.42
-3 0 -6 652.45 14.54
3 0 6 641.66 14.74
-3 0 -7 16.78 2.51
3 0 7 18.62 2.72
-3 0 -8 0.29 0.77
-3 0 -9 5.94 1.99
-3 0 -10 623.19 19.14
-3 0 -11 3.15 1.55
-3 0 -12 72.98 7.44
-3 0 -13 3.16 1.75
3 1 -13 51.45 7.05
3 1 -12 6.18 2.4
3 1 -11 3.1 1.65
-3 -1 11 0.69 0.91
3 1 -10 10.59 2.6
-3 -1 10 7.04 2.16
3 1 -9 26.2 3.9
-3 -1 9 25.58 3.67
-3 -1 8 276.63 11.38
-3 -1 8 275.91 10.14
3 1 -8 280.8 11.81
3 1 -7 -0.15 0.37
3 1 -7 0.69 0.88
-3 -1 7 0.08 0.52
-3 -1 7 0.54 0.86
-3 -1 6 196.71 8.35
3 1 -6 201.95 9.39
3 1 -6 209.24 8.77
-3 -1 6 207.43 7.42
-3 -1 5 178.12 7.39
3 1 -5 160.6 7.95
-3 -1 5 173.56 6.1
3 1 -5 176.07 7.37
-3 -1 4 596.36 12.78
-3 -1 4 610.7 10.27
3 1 -4 610.23 12.53
-3 -1 3 34.23 3.03
3 1 -3 33.31 3.41
-3 -1 3 30.72 2.06
3 1 -3 35.23 2.74
-3 -1 2 266.39 8.53
3 1 -2 278.57 9.53
3 1 -2 264.88 6.83
-3 -1 2 277.73 6.22
3 1 -1 12.39 1.37
-3 -1 1 12.66 1.26
3 1 -1 12.08 1.99
-3 -1 1 11.58 1.84
3 1 0 307.77 6.33
-3 -1 0 316.98 5.87
-3 -1 0 298.93 6.43
-3 -1 -1 94.42 3.93
-3 -1 -1 90.88 5.37
-3 -1 -1 95.38 3.44
3 1 1 83.71 3.6
-3 -1 -2 721.22 10.55
3 1 2 719.18 11.57
-3 -1 -3 340.26 8.07
3 1 3 329.75 8.72
-3 -1 -4 6.42 1.26
3 1 4 5.87 1.31
-3 -1 -5 178.2 7.12
-3 -1 -6 100.4 5.82
3 1 6 105.36 6.24
3 1 7 437.23 13.57
-3 -1 -7 419.78 12.83
-3 -1 -8 228.8 10.07
-3 -1 -9 28.71 3.86
-3 -1 -10 52.44 5.43
-3 -1 -11 -0.14 0.89
-3 -1 -12 17.42 3.59
-3 -1 -13 26.16 4.7
3 2 -13 16.71 4.27
3 2 -12 2.29 1.75
3 2 -11 47.25 6.18
-3 -2 11 51.54 5.79
-3 -2 10 23.02 3.67
3 2 -10 28.08 4.53
-3 -2 9 9.74 2.25
3 2 -9 13.02 2.84
3 2 -8 498.29 16.73
-3 -2 8 512.75 15.18
-3 -2 7 257.38 9.99
3 2 -7 254.71 10.93
-3 -2 7 256.23 9.4
3 2 -7 241.17 10.96
3 2 -6 -0.42 0.81
-3 -2 6 0.76 0.71
-3 -2 6 0.38 0.28
3 2 -6 -0.17 0.52
-3 -2 5 41.94 3.47
3 2 -5 45.25 4.21
-3 -2 5 37.26 3.17
-3 -2 4 147.09 6.17
3 2 -4 145.53 7.23
-3 -2 4 145.61 5.83
3 2 -4 138.93 6.83
-3 -2 3 155.09 6.29
3 2 -3 159.92 7.3
3 2 -3 152.8 6.71
-3 -2 3 161.26 6.19
-3 -2 2 985.24 16.12
3 2 -2 1000.54 17.82
-3 -2 2 986.54 14.78
-3 -2 1 510.24 11.93
3 2 -1 478.41 10.73
3 2 -1 485.5 12.08
-3 -2 1 481.21 10.32
3 2 0 454.74 10.2
-3 -2 0 464.91 10.43
-3 -2 0 440.03 9.32
-3 -2 -1 7.7 1.51
3 2 1 7.75 1.33
-3 -2 -1 9.67 1.6
-3 -2 -1 7.79 1.27
-3 -2 -2 263.71 8.49
-3 -2 -2 267.96 7.57
-3 -2 -3 344.06 10.25
3 2 3 364.89 10.29
-3 -2 -3 360.2 9.26
-3 -2 -4 43.11 3.4
3 2 5 86.09 5.73
-3 -2 -5 86.39 5.16
-3 -2 -6 127.93 6.72
3 2 6 138.03 7.6
-3 -2 -7 228.61 9.65
-3 -2 -8 102.03 6.82
-3 -2 -9 231.39 11.05
-3 -2 -10 108.57 7.97
-3 -2 -11 8.97 2.38
-3 -2 -12 5.16 2.07
-3 -2 -13 13.59 3.45
3 3 -12 9.93 3.46
3 3 -11 5.36 2.41
3 3 -10 151.31 11.18
-3 -3 10 138.57 8.76
3 3 -9 64.17 6.89
-3 -3 9 66.12 5.71
3 3 -8 92.44 6.92
3 3 -8 90.17 7.7
-3 -3 8 94.07 6.32
-3 -3 7 274.99 10.06
3 3 -7 281.1 11.5
-3 -3 7 277.26 10.47
3 3 -7 301.01 13.35
-3 -3 6 37.21 3.44
3 3 -6 44.19 4.3
-3 -3 6 42.99 3.9
3 3 -6 44.99 4.89
-3 -3 5 -0.36 0.39
-3 -3 5 -0.04 0.45
3 3 -5 -0.32 0.34
-3 -3 4 591.2 11.77
3 3 -4 576.39 14.17
3 3 -4 569.03 15.63
-3 -3 4 593.1 13.38
-3 -3 4 597.77 14.21
3 3 -3 6.39 1.63
3 3 -3 6.04 1.43
-3 -3 3 7.23 1.37
-3 -3 3 7.02 1.61
-3 -3 2 0.56 0.52
3 3 -2 1.75 0.92
-3 -3 2 1.31 0.74
3 3 -2 0.36 0.49
-3 -3 1 18.12 2.4
3 3 -1 16.69 2.38
-3 -3 1 14.65 1.99
3 3 0 9.35 1.76
-3 -3 0 11.19 1.85
-3 -3 0 10.5 1.94
3 3 1 134.87 6.54
-3 -3 -1 144.8 7.11
-3 -3 -1 128.34 6.08
-3 -3 -2 255.91 9.68
-3 -3 -2 247.77 8.56
-3 -3 -3 174.41 8.21
-3 -3 -3 163.21 7.04
-3 -3 -4 23.1 3.06
-3 -3 -4 22.58 2.71
-3 -3 -5 35.46 4.06
-3 -3 -5 38.59 3.69
3 3 5 35.81 3.98
-3 -3 -6 7.16 1.73
3 3 6 6.32 1.88
-3 -3 -7 974.86 20.52
-3 -3 -8 63.79 5.61
-3 -3 -9 101.22 7.46
-3 -3 -10 249.52 12.37
-3 -3 -11 66.57 6.68
-3 -3 -12 7.43 2.43
3 4 -12 10.55 3.51
3 4 -11 14.67 4.19
3 4 -10 5.82 2.34
3 4 -9 55.57 6.82
-3 -4 9 65.17 5.47
3 4 -8 213.62 10.43
3 4 -8 203.03 12.36
-3 -4 8 211.71 9.23
3 4 -7 344.97 15.31
3 4 -7 330.3 12.34
-3 -4 7 334.14 10.73
-3 -4 6 785 15.1
3 4 -6 748.63 21.68
-3 -4 5 49.19 3.47
3 4 -5 58.58 5.82
3 4 -5 49.69 4.28
-3 -4 5 55.94 4.73
-3 -4 5 50.68 4.73
3 4 -4 0.96 0.89
-3 -4 4 1.59 0.85
-3 -4 4 1.71 0.61
3 4 -4 2.18 0.85
-3 -4 3 2.19 0.93
-3 -4 3 2.18 0.76
3 4 -3 3.74 1.52
3 4 -3 2.06 0.82
3 4 -2 7.19 1.84
-3 -4 2 6.01 1.17
-3 -4 2 8.43 1.91
3 4 -1 288.3 11.25
-3 -4 1 291.67 8.78
-3 -4 1 296.66 10.96
3 4 0 12.28 2.33
-3 -4 0 10.73 1.79
-3 -4 0 15.83 2.68
3 4 1 10.71 2.15
-3 -4 -1 14.7 2.59
-3 -4 -1 9.11 1.86
3 4 2 35.85 3.9
-3 -4 -2 39.61 4.31
-3 -4 -2 32.68 3.54
-3 -4 -3 20.72 3.21
-3 -4 -3 20.2 2.77
-3 -4 -4 0.57 0.4
-3 -4 -4 0.68 0.66
-3 -4 -5 2.64 1.35
3 4 5 0.42 0.58
-3 -4 -5 0.96 0.69
-3 -4 -6 3.76 1.28
-3 -4 -7 44.24 4.67
-3 -4 -8 11.57 2.47
-3 -4 -9 1.9 0.98
-3 -4 -10 0.85 0.92
-3 -4 -11 12.17 2.99
-3 -4 -12 37.7 5.42
3 5 -11 27.51 5.53
3 5 -10 -0.01 1.23
3 5 -9 27.2 5.02
3 5 -8 227.03 14.01
-3 -5 8 227.39 9.04
3 5 -7 141.91 10.59
-3 -5 7 147.27 6.8
3 5 -6 74.75 5.31
3 5 -6 77.53 7.57
-3 -5 6 72.93 4.38
-3 -5 5 69.56 3.92
3 5 -5 68.13 4.79
3 5 -5 69.01 6.94
-3 -5 4 4.17 0.89
3 5 -4 4.69 1.68
-3 -5 3 261.53 6.71
3 5 -3 250.85 12.39
-3 -5 3 259.02 11.36
-3 -5 2 103.94 4.55
3 5 -2 97.25 7.48
-3 -5 2 104.56 7.26
3 5 -1 240.57 11.49
-3 -5 1 232.12 7.6
-3 -5 1 230.03 10.85
3 5 0 45.01 4.88
-3 -5 0 39.54 3.47
-3 -5 0 49.34 5.09
3 5 1 20.69 3.26
-3 -5 -1 22.99 3.53
-3 -5 -1 24.24 3.4
3 5 2 3.81 1.62
-3 -5 -2 1.11 0.9
-3 -5 -2 1.78 0.94
-3 -5 -3 170.16 10.07
-3 -5 -3 171.5 8.97
-3 -5 -4 48.89 4.85
-3 -5 -5 39.47 4.44
-3 -5 -6 71.58 6.07
-3 -5 -7 47.26 5.06
-3 -5 -8 21.85 3.55
-3 -5 -9 34.72 4.73
-3 -5 -10 11.46 2.87
-3 -5 -11 63 6.81
3 6 -10 5.8 2.63
3 6 -9 0.03 1.23
3 6 -8 22.42 4.83
3 6 -7 117.02 10.43
3 6 -6 55.09 7.06
-3 -6 6 44.07 3.05
3 6 -5 26.57 4.58
-3 -6 5 21.43 1.96
-3 -6 4 8.63 1.11
3 6 -4 6.51 2.22
-3 -6 3 23.81 1.74
3 6 -3 21.74 3.98
3 6 -2 5.59 1.88
-3 -6 2 7.29 1.04
3 6 -1 219.24 12.09
-3 -6 1 216.72 6.79
3 6 0 2.42 1.41
-3 -6 0 3.04 0.98
3 6 1 25.06 4
-3 -6 -1 26 3.9
3 6 2 11.7 2.77
-3 -6 -2 8.71 2.19
-3 -6 -3 109.59 7.86
-3 -6 -4 59.35 5.84
-3 -6 -4 68.46 5.18
-3 -6 -5 64.59 6.13
-3 -6 -6 13.7 2.93
-3 -6 -7 39.16 4.95
-3 -6 -8 0.93 0.76
-3 -6 -9 75.9 7.22
-3 -6 -10 0.44 0.58
-3 -6 -11 44.32 6.01
3 7 -9 -2.02 1.73
3 7 -8 41.99 6.93
3 7 -7 117.67 11.27
3 7 -6 15.8 4.04
3 7 -5 12.45 3.38
3 7 -4 13.37 3.62
3 7 -3 130.23 10.52
-3 -7 2 178.22 3.42
3 7 -2 172.12 11.88
-3 -7 1 23.22 1.88
3 7 -1 23.52 4.29
3 7 0 0.38 0.77
-3 -7 0 1.08 0.47
-3 -7 0 1.16 0.71
3 7 1 32.34 4.91
-3 -7 -1 26.68 3.01
-3 -7 -1 29.03 4.42
-3 -7 -1 32.99 2.83
3 7 2 72.46 7.26
-3 -7 -2 72.33 7
-3 -7 -2 59.53 4.15
-3 -7 -3 146.2 9.9
-3 -7 -3 143.65 7
-3 -7 -4 15.24 2.5
-3 -7 -4 20.04 3.68
-3 -7 -5 8.71 2.42
-3 -7 -6 18.52 3.62
-3 -7 -7 11.96 2.98
-3 -7 -8 0.23 1.11
-3 -7 -9 25.14 4.47
-3 -7 -10 3.34 2.11
3 8 -7 9.75 3.66
3 8 -6 3.17 2.03
3 8 -5 2.71 1.72
3 8 -4 24.93 5.08
3 8 -3 0.9 1.49
3 8 -2 9.93 3.22
3 8 -1 62.01 7.5
-3 -8 0 39.77 2.71
3 8 0 40.29 5.87
3 8 1 48.17 6.38
-3 -8 -1 46.31 3.81
-3 -8 -1 52.88 6.44
3 8 2 21.93 4.37
-3 -8 -2 24.72 4.38
-3 -8 -3 5.08 2.08
-3 -8 -4 1.02 0.72
-3 -8 -5 84.69 8.12
-3 -8 -6 3.77 2.15
-3 -8 -7 3.25 1.5
-3 -8 -8 1.68 1.44
3 9 -6 10.1 3.99
3 9 -5 61.06 8.71
3 9 -4 13.52 4
3 9 -3 578.83 25.54
3 9 -2 25.44 5.24
3 9 -1 220.71 15.13
3 9 0 220.83 14.98
3 9 1 257.54 15.84
-3 -9 -1 247.98 15.15
3 9 2 315.46 17.55
-3 -9 -2 321.58 17.18
-3 -9 -3 161.92 12.14
-3 -9 -4 -0.08 0.72
-3 -9 -5 0.4 1.21
-3 -9 -6 61.57 7.46
-3 -9 -7 3.62 1.86
3 10 -2 -2.66 1.93
3 10 -1 9.2 3.58
3 10 0 194.69 14.96
-3 -10 0 192.34 14.21
3 10 1 16.88 4.31
-3 -10 -1 24.05 5.01
3 10 2 106.04 10.8
-3 -10 -2 99.47 9.99
-3 -10 -3 4.46 2.07
-3 -10 -4 3.22 1.24
-4 11 1 -0.92 1.34
-4 11 0 4.23 1.99
4 -10 -5 -0.07 1.16
4 -10 -4 3.81 2.03
4 -10 -3 39 5.86
4 -10 -2 47.87 6.61
-4 10 1 34.71 5.72
4 -10 -1 36.02 5.74
-4 10 0 3.67 2.13
-4 10 -1 20.14 4.46
-4 10 -2 27.65 5.51
-4 10 -3 18.23 4.67
-4 10 -4 8.47 3.28
-4 10 -5 5.02 3.25
-4 9 7 5.77 2.5
4 -9 -6 147.8 10.07
-4 9 6 122.36 9.52
-4 9 5 -0.47 1.08
4 -9 -5 -0.82 1.16
-4 9 4 34.56 4.56
4 -9 -4 39.03 5.28
-4 9 3 53.88 5.37
4 -9 -3 61.54 6.77
-4 9 2 4.05 1.15
4 -9 -2 7.43 2.39
-4 9 1 0.11 1.05
4 -9 -1 -1.01 1.27
-4 9 0 143.37 11.09
-4 9 -1 -0.76 0.97
-4 9 -2 30.75 5.37
-4 9 -3 -2.24 1.66
-4 9 -4 19.47 4.42
-4 9 -5 2.51 1.29
-4 9 -6 286.3 18.27
-4 9 -7 31.29 6.47
-4 8 8 12.47 3.42
4 -8 -7 103.3 7.89
-4 8 7 100.52 8.78
-4 8 6 -0.99 1.24
4 -8 -6 -0.28 0.6
4 -8 -5 3.03 1.56
-4 8 5 2.66 1.19
4 -8 -4 0.74 0.58
-4 8 4 1.59 1.24
-4 8 3 19.69 3.25
4 -8 -3 24.85 3.95
-4 8 2 15.03 2.61
4 -8 -2 11.02 2.77
-4 8 1 87.99 5.97
-4 8 1 82.86 7.6
-4 8 0 17.08 3.51
-4 8 0 20.55 2.79
-4 8 -1 0.9 0.86
-4 8 -1 0.09 0.42
-4 8 -2 26.15 2.85
-4 8 -2 24.89 4.38
-4 8 -3 0.69 1.08
-4 8 -4 211.75 13.79
-4 8 -5 69.71 8.2
-4 8 -6 44.45 6.87
-4 8 -7 4.94 2.78
-4 8 -8 15.02 4.37
-4 7 9 2.8 1.73
4 -7 -8 243.49 11.39
-4 7 8 206.32 12.78
-4 7 7 16.84 3.54
4 -7 -7 19.5 3.18
-4 7 6 46.26 5.54
4 -7 -6 52.28 5.14
-4 7 5 3.08 1.58
4 -7 -5 3.44 1.45
-4 7 4 -0.39 0.99
4 -7 -4 0.2 0.55
-4 7 3 8.03 1.96
4 -7 -3 9.17 2.19
-4 7 2 40.09 4.15
4 -7 -2 39.42 4.67
-4 7 1 13.44 2.91
-4 7 1 16 2.5
4 -7 -1 15.24 2.92
-4 7 0 142.7 7.18
-4 7 0 153.1 9.66
4 -7 0 128.63 8.47
-4 7 -1 0.67 0.57
-4 7 -1 2.21 0.8
-4 7 -2 103.18 6.03
-4 7 -2 97.32 8.18
-4 7 -3 2.95 1.61
-4 7 -3 0.95 0.69
-4 7 -4 6.35 1.6
-4 7 -4 2.92 1.76
-4 7 -5 351.57 11.85
-4 7 -5 299.9 15.79
-4 7 -6 4.96 2.29
-4 7 -6 7.9 1.91
-4 7 -7 1.8 1.93
-4 7 -8 2.07 1.74
-4 7 -9 5.03 2.77
4 -6 -9 72.55 6.21
-4 6 9 60.62 7.07
-4 6 8 19.73 3.87
4 -6 -8 24.58 3.41
4 -6 -7 34.53 3.88
-4 6 7 35.81 4.91
-4 6 6 49.4 5.44
4 -6 -6 56.78 4.93
4 -6 -5 5.23 1.98
-4 6 5 5.68 1.79
4 -6 -5 6.79 1.82
-4 6 4 53.72 5.13
4 -6 -4 50.34 5.39
4 -6 -4 52.4 4.68
-4 6 3 109.78 7
4 -6 -3 107.98 7.59
4 -6 -3 113.97 6.96
4 -6 -2 12.2 2.5
-4 6 2 9.53 2.01
4 -6 -2 12.69 2.38
-4 6 1 175.67 9.11
-4 6 1 174.26 8.21
4 -6 -1 167.06 9.76
4 -6 -1 163.42 8.7
-4 6 0 122.61 6.82
-4 6 0 115.82 7.61
4 -6 0 119.05 8.01
4 -6 0 116.59 7.36
-4 6 -1 77.34 5.44
-4 6 -1 83.21 6.64
4 -6 1 74.17 5.76
-4 6 -2 209.09 8.96
-4 6 -2 188.37 10.36
4 -6 2 189.81 9.23
4 -6 3 19.05 3.01
-4 6 -3 17.04 2.61
-4 6 -3 17.75 3.44
-4 6 -4 146.9 7.97
-4 6 -4 159.29 10.26
-4 6 -5 368.5 13.07
-4 6 -5 362.61 16.01
-4 6 -6 10.93 2.92
-4 6 -6 12.44 2.57
-4 6 -7 7.26 2.56
-4 6 -7 8.44 2.2
-4 6 -8 9.85 3.12
-4 6 -8 7.73 2.18
-4 6 -9 116.1 10.65
-4 6 -10 60.88 8.22
-4 5 10 0.16 1.02
4 -5 -10 0.36 0.89
-4 5 9 11.9 3.1
4 -5 -9 7.82 1.93
-4 5 8 7.91 2.45
4 -5 -8 9.53 2.06
-4 5 7 7.1 2.25
4 -5 -7 4.73 1.32
-4 5 6 58.84 5.81
4 -5 -6 55.27 5.61
4 -5 -6 52.84 4.32
-4 5 5 70.56 5.99
4 -5 -5 69.21 5.99
4 -5 -5 79 5.16
-4 5 4 16.8 2.88
4 -5 -4 12.7 2.48
4 -5 -4 15.48 2.25
-4 5 3 81.35 5.83
4 -5 -3 85.19 5.31
-4 5 2 1.74 1.01
4 -5 -2 3.15 1.59
4 -5 -2 1.73 0.82
-4 5 1 -0.59 0.38
-4 5 1 0.91 0.57
4 -5 -1 -0.37 0.75
-4 5 0 24.44 3.1
-4 5 0 25.37 3.12
4 -5 0 25.11 3.6
-4 5 -1 32.9 3.59
-4 5 -1 36.36 3.99
4 -5 1 36.8 4.19
-4 5 -2 35.72 3.85
-4 5 -2 41.25 4.41
-4 5 -3 193.19 9.21
4 -5 3 206.36 8.98
-4 5 -3 177.23 9.49
4 -5 3 194.18 8.61
-4 5 -4 53.46 4.97
-4 5 -4 63.53 5.93
4 -5 4 56.69 5.04
-4 5 -5 8.94 2.36
-4 5 -5 6.36 1.81
-4 5 -6 115 7.86
-4 5 -6 105.9 8.25
-4 5 -7 2.7 1.29
-4 5 -7 2.91 1.2
-4 5 -8 2.18 1.3
-4 5 -8 1.34 1.39
-4 5 -9 0.84 0.87
-4 5 -10 3.83 2.12
-4 5 -11 9.86 3.23
-4 4 10 0.58 0.79
4 -4 -10 1.32 1.11
-4 4 9 58.3 6.61
4 -4 -9 62.87 5.19
-4 4 8 54.83 6.1
4 -4 -8 54.73 4.59
-4 4 7 33.53 4.5
4 -4 -7 37.07 4.44
4 -4 -7 34.82 3.41
-4 4 6 222.87 10.88
4 -4 -6 207 10.02
4 -4 -6 201.04 7.72
-4 4 5 300.6 11.91
4 -4 -5 286.54 8.64
-4 4 4 25.14 3.28
4 -4 -4 27.68 3.25
4 -4 -4 24.76 2.48
-4 4 3 93.53 6.15
4 -4 -3 98.11 7.43
4 -4 -3 92.57 5.59
4 -4 -3 89.05 4.63
-4 4 2 30.36 3.48
4 -4 -2 29.01 3.98
4 -4 -2 30.14 3.06
4 -4 -2 30.59 2.79
-4 4 1 122.88 5.76
-4 4 1 113.99 6.66
4 -4 -1 128.78 8.09
4 -4 -1 116.87 5.6
-4 4 0 99.56 5.44
-4 4 0 105.38 6.49
4 -4 0 109.41 7.31
4 -4 0 95.03 4.98
-4 4 -1 233.82 9.77
-4 4 -1 230.33 8.68
4 -4 1 239.75 10.55
4 -4 1 226.96 7.71
-4 4 -2 132.31 7.53
-4 4 -2 124.57 6.81
4 -4 2 132.74 6.07
-4 4 -3 0.98 0.67
-4 4 -3 -0.21 0.49
-4 4 -4 93.35 6.69
4 -4 4 84.62 5.46
-4 4 -4 79.67 5.95
-4 4 -5 54.65 5.33
-4 4 -5 57.53 5.36
4 -4 5 48.3 4.44
-4 4 -6 109.08 7.78
-4 4 -6 114.75 8.01
-4 4 -7 35.21 4.69
-4 4 -8 69.8 6.88
-4 4 -9 58.06 6.7
-4 4 -10 95.17 8.98
-4 4 -11 12.27 3.47
-4 4 -12 0.9 2.11
-4 3 11 0.17 1.01
4 -3 -11 1.01 1.31
-4 3 10 6.31 2.23
4 -3 -10 6.2 1.76
-4 3 9 4.48 1.73
4 -3 -9 3.71 1.21
4 -3 -8 22.6 2.82
-4 3 8 23.58 3.84
-4 3 8 28.74 3.7
-4 3 7 482.68 16.42
4 -3 -7 502.4 12.19
-4 3 7 478.3 13.75
-4 3 6 369.24 13.48
4 -3 -6 384.53 9.9
4 -3 -5 1022.86 18.93
-4 3 5 1026.46 21.34
4 -3 -5 1052.05 15.05
-4 3 4 143.45 7.62
4 -3 -4 149.67 6.65
4 -3 -4 155.98 5.27
-4 3 3 29.41 3.45
4 -3 -3 27.74 2.09
4 -3 -3 26.75 2.6
4 -3 -3 26.06 3.69
-4 3 2 -0.57 0.94
4 -3 -2 0.32 0.35
4 -3 -2 -0.13 0.4
4 -3 -2 -0.1 0.21
-4 3 1 37.49 3.85
4 -3 -1 44.03 4.66
4 -3 -1 43.39 2.71
-4 3 0 307.53 7.73
-4 3 0 294.84 10.89
4 -3 0 304.71 11.97
4 -3 0 289.32 6.87
-4 3 -1 96.46 6.34
-4 3 -1 81.37 4.36
4 -3 1 89.58 4.17
4 -3 1 83.39 6.15
4 -3 1 84.68 3.89
-4 3 -2 38.69 4.14
4 -3 2 38.93 2.92
-4 3 -2 37.2 3.18
-4 3 -3 3.31 1.01
4 -3 3 4.22 1.04
-4 3 -3 2.69 1.14
-4 3 -4 36.42 4.24
-4 3 -4 34.31 3.53
-4 3 -5 7.13 1.96
-4 3 -5 6.44 1.6
4 -3 5 6.41 1.57
4 -3 6 8.1 1.87
-4 3 -6 9.27 2.08
-4 3 -7 4.32 1.62
-4 3 -8 24.82 3.89
-4 3 -9 2.88 1.29
-4 3 -10 10.44 2.91
-4 3 -11 2.38 1.61
-4 3 -12 18.64 4.12
4 -2 -12 88.74 8.02
4 -2 -11 5.51 1.9
-4 2 11 1.99 0.79
4 -2 -10 15.61 2.7
-4 2 10 11.81 3.09
-4 2 9 8.51 2.38
4 -2 -9 12.89 2.3
-4 2 8 116.07 8.31
4 -2 -8 119.36 6.41
-4 2 8 119.32 6.91
-4 2 7 280.33 12.14
4 -2 -7 293.02 9.12
-4 2 7 284.84 9.88
-4 2 6 56.27 5.16
-4 2 6 50.43 3.77
4 -2 -6 58.98 3.67
-4 2 5 549.4 15.17
4 -2 -5 547.12 9.88
-4 2 5 515.74 10.94
4 -2 -4 157.16 6.03
-4 2 4 152.14 7.75
4 -2 -4 153.59 9.04
4 -2 -4 155.35 4.53
4 -2 -3 13.9 1.54
4 -2 -3 15.93 1.21
-4 2 3 15.86 2.53
4 -2 -3 9.91 2.28
-4 2 2 213.33 9.15
4 -2 -2 222.96 3.79
4 -2 -2 226.29 10.48
4 -2 -2 210 4.93
-4 2 1 132.6 7.2
4 -2 -1 131.95 7.84
4 -2 -1 130.47 3.13
4 -2 -1 132.36 2.88
-4 2 0 1325.57 10.54
-4 2 0 1342.31 23.26
4 -2 0 1391.46 25.07
4 -2 0 1380.9 11.16
4 -2 1 0.7 0.25
-4 2 -1 0.09 0.36
-4 2 -1 0.45 0.28
-4 2 -2 88.75 6.24
4 -2 2 83.17 3.76
-4 2 -2 81.44 3.97
-4 2 -3 0.9 0.39
4 -2 3 2.27 0.67
-4 2 -3 0.64 0.61
-4 2 -4 172.18 9.13
-4 2 -4 172.66 7.08
-4 2 -5 569.1 14.28
4 -2 5 560.97 13.45
-4 2 -5 538.68 13.69
-4 2 -6 26.43 3.3
4 -2 6 27.62 3.33
-4 2 -6 25.19 3.21
-4 2 -7 9.33 2.14
-4 2 -7 4.41 1.28
-4 2 -8 243.57 11.52
-4 2 -8 258.72 11.86
-4 2 -9 0.46 0.96
-4 2 -9 0.98 1.02
-4 2 -10 64.99 6.76
-4 2 -10 69.1 6.94
-4 2 -11 136.04 10.39
-4 2 -11 131.08 10.15
-4 2 -12 17.14 3.95
-4 2 -12 13.84 3.61
4 -1 -13 -0.19 0.82
4 -1 -12 9.79 2.77
-4 1 12 8.54 2.75
-4 1 11 13.62 3.2
4 -1 -11 12.31 2.64
4 -1 -11 18.59 3.55
4 -1 -10 0.57 0.97
-4 1 10 0.36 0.91
4 -1 -10 1.38 1.24
-4 1 9 7.16 2.2
4 -1 -9 5.71 1.55
4 -1 -9 5.92 1.86
4 -1 -8 0.5 0.42
-4 1 8 2.01 1.05
4 -1 -8 1.36 0.58
-4 1 8 0.14 0.47
-4 1 7 16.13 2.88
4 -1 -7 11.2 1.8
-4 1 7 18.25 2.36
-4 1 6 90.53 6.35
4 -1 -6 89.88 4.59
-4 1 6 86.28 4.58
-4 1 5 122.27 7
4 -1 -5 122.22 4.66
-4 1 5 117.96 4.71
-4 1 4 85.94 5.75
4 -1 -4 79.73 6.37
4 -1 -4 70.34 2.94
-4 1 4 78.9 3.25
-4 1 3 92.48 5.93
4 -1 -3 86.37 6.46
4 -1 -3 90.53 3.2
-4 1 2 9.17 1.84
-4 1 1 51.42 4.54
-4 1 0 10.18 2.02
-4 1 -1 335.94 11.89
4 -1 1 353.9 5.7
-4 1 -1 348.01 5.2
-4 1 -2 65.34 5.36
-4 1 -2 62.03 3.14
4 -1 2 63.01 3.02
-4 1 -2 60.34 2.85
-4 1 -3 217.4 6.43
-4 1 -3 222.24 6.8
4 -1 3 217.97 6.57
-4 1 -4 17.54 2.13
4 -1 4 17.45 2.08
-4 1 -5 356.04 10.5
-4 1 -6 64.98 4.87
4 -1 6 68.28 5
-4 1 -7 25.41 3.31
-4 1 -8 36.9 4.23
-4 1 -9 6.1 2.06
-4 1 -10 356.95 15.15
-4 1 -11 17.42 3.73
-4 1 -11 18.34 3.75
-4 1 -12 29.8 4.98
-4 1 -12 19.86 4.04
-4 1 -13 37.31 5.86
-4 1 -13 45.1 6.49
4 0 -13 12.86 3.39
4 0 -12 48.69 6.23
-4 0 12 42.87 6.11
4 0 -11 -0.87 1.12
-4 0 11 2.7 1.69
-4 0 10 36.17 4.99
4 0 -10 36.15 4.74
-4 0 9 1.4 0.95
4 0 -9 4.95 1.81
-4 0 8 396.07 14.62
-4 0 8 404.87 11.75
4 0 -8 386.08 13.35
-4 0 7 91.4 6.62
-4 0 7 89.31 5.1
4 0 -7 80.72 5.62
-4 0 6 422.51 13.41
-4 0 6 448.29 10.11
4 0 -6 455.77 12.17
-4 0 5 152.47 7.61
4 0 -5 154.23 8.99
-4 0 5 151.49 5.17
4 0 -5 152.05 6.33
-4 0 4 170.93 7.95
4 0 -4 181.48 9.53
-4 0 4 167.51 4.55
4 0 -4 168.14 5.87
-4 0 3 333.77 11.19
4 0 -3 346.63 12.78
4 0 -3 335.59 7.15
-4 0 3 334.94 4.93
-4 0 2 432.64 12.7
4 0 -2 407.1 6.3
-4 0 1 214.72 9.17
-4 0 0 447.89 13.56
-4 0 -1 363.18 6.12
-4 0 -1 368.59 12.45
-4 0 -1 381.17 5.89
4 0 1 353.92 6.32
-4 0 -2 775.7 18.45
-4 0 -2 780.36 10.5
4 0 2 772.79 11.09
-4 0 -3 260.94 7.06
4 0 3 259.82 7.32
-4 0 -4 359.73 9.25
4 0 4 387.04 9.95
-4 0 -5 174.42 7.12
-4 0 -6 15.75 2.37
4 0 6 16.35 2.43
-4 0 -7 35.48 3.79
4 0 7 28.45 3.49
-4 0 -8 20.26 3.1
-4 0 -9 334.66 13.41
-4 0 -10 327.3 14.16
-4 0 -11 73.09 7.16
-4 0 -12 24.6 4.43
-4 0 -13 2.33 1.4
4 1 -13 99.64 9.73
-4 -1 12 16.44 3.61
4 1 -12 17.1 3.86
-4 -1 11 40.59 5.47
4 1 -11 53.88 6.4
-4 -1 10 19.43 3.55
4 1 -10 20.72 3.73
-4 -1 9 0.15 0.67
4 1 -9 2.16 1.2
-4 -1 8 252.7 11.39
-4 -1 8 282.96 9.93
4 1 -8 246.84 11.21
-4 -1 7 75.33 5.85
-4 -1 7 79.67 4.93
4 1 -7 77.73 5.87
-4 -1 6 87.82 5.97
-4 -1 6 85.5 4.61
4 1 -6 84.94 5.71
-4 -1 5 50.8 4.32
4 1 -5 48.07 4.99
-4 -1 5 51.4 3.23
4 1 -5 54 4.23
-4 -1 4 333.33 10.97
4 1 -4 332.95 12.74
-4 -1 4 345.78 7.35
4 1 -4 338.81 9.66
-4 -1 3 81.44 5.45
4 1 -3 86.3 6.28
4 1 -3 81.46 4.3
-4 -1 3 80.7 3.11
-4 -1 2 100.98 6.08
4 1 -2 103.11 4.34
-4 -1 2 109.77 3.3
4 1 -1 37.85 2.32
-4 -1 1 38.91 3.87
-4 -1 1 38.54 2.02
-4 -1 1 41.02 2.2
-4 -1 0 44.63 4.26
-4 -1 0 43.72 2.49
-4 -1 0 46.53 2.21
-4 -1 -1 189.04 5.9
-4 -1 -1 189.95 9
-4 -1 -1 198.03 5.05
-4 -1 -2 706.04 12.38
4 1 2 675.59 12.09
-4 -1 -2 723.92 17.97
-4 -1 -2 712 10.82
-4 -1 -3 111.21 4.81
4 1 3 110.79 5.25
-4 -1 -4 65.23 4.08
4 1 4 56.56 4.16
-4 -1 -5 4.46 1.21
-4 -1 -6 8.69 1.83
4 1 6 10.63 2.04
-4 -1 -7 1.23 0.92
-4 -1 -8 351.33 12.76
-4 -1 -9 110.42 7.6
-4 -1 -10 326.61 13.89
-4 -1 -11 4.66 1.66
-4 -1 -12 1.62 1.09
-4 -1 -13 15.42 3.51
4 2 -12 40.46 6.23
-4 -2 12 39.11 5.5
4 2 -11 27.03 4.74
-4 -2 11 27.24 4.45
4 2 -10 24.74 4.32
-4 -2 10 28.54 4.23
4 2 -9 9.43 2.38
-4 -2 9 14.52 2.93
4 2 -8 3.31 1.51
-4 -2 8 1.39 1.09
-4 -2 8 2.49 1.08
-4 -2 7 0.35 0.66
-4 -2 7 0 0.49
4 2 -7 0.1 0.36
-4 -2 6 6.35 1.61
-4 -2 6 4.76 1.25
4 2 -6 5.93 1.69
4 2 -6 3.26 1.36
-4 -2 5 366.57 11.31
4 2 -5 381.18 13.94
-4 -2 5 367.13 9.57
4 2 -5 375.83 12.3
-4 -2 4 28.29 3.16
-4 -2 4 27.72 2.5
4 2 -4 31.4 3.36
4 2 -4 26.43 3.55
4 2 -3 0.15 0.48
-4 -2 3 -0.13 0.31
-4 -2 3 -0.17 0.46
-4 -2 3 0.07 0.38
-4 -2 2 26.15 3.09
4 2 -2 30.91 2.96
-4 -2 2 32.6 2.67
4 2 -1 0.44 0.31
-4 -2 1 0.23 0.21
-4 -2 1 0.47 0.67
4 2 0 384.31 9.43
-4 -2 0 370.39 12.19
-4 -2 0 345.27 9.25
-4 -2 0 369.4 8.5
-4 -2 -1 925.78 15.93
-4 -2 -1 917.88 19.71
-4 -2 -1 948.95 13.87
-4 -2 -2 3205.38 31.01
-4 -2 -2 3200.15 26.67
-4 -2 -3 1608.02 22.92
-4 -2 -3 1596.06 19.92
4 2 3 1558.52 22.24
-4 -2 -4 145.05 6.42
-4 -2 -5 123.66 6.37
4 2 5 115.81 6.75
-4 -2 -6 0.15 0.31
4 2 6 0.94 0.82
-4 -2 -7 55.93 4.86
-4 -2 -8 0.38 0.64
-4 -2 -9 5.1 1.72
-4 -2 -10 0.92 0.85
-4 -2 -11 47.65 5.75
-4 -2 -12 23.61 4.27
4 3 -12 7.95 2.98
-4 -3 11 3.36 1.49
4 3 -11 2.95 1.94
-4 -3 10 7.64 2.1
4 3 -10 7.68 2.61
4 3 -9 159.37 10.93
-4 -3 9 176.94 9.78
-4 -3 8 14.31 2.73
4 3 -8 9.11 2.43
-4 -3 7 0.1 0.59
4 3 -7 1.36 0.68
-4 -3 7 1.28 0.7
-4 -3 6 199.72 8.53
4 3 -6 198.17 10.37
4 3 -6 209.13 10.68
-4 -3 6 191.44 8.11
-4 -3 5 54.96 4.25
4 3 -5 53.07 5.17
-4 -3 5 54.06 4.18
4 3 -5 57.4 5.34
-4 -3 4 94.76 5.56
4 3 -4 81.02 6.13
-4 -3 4 88.46 5.12
4 3 -4 83.37 6.12
-4 -3 4 88.08 5.44
-4 -3 3 46.13 3.93
4 3 -3 48.57 4.48
-4 -3 3 51.43 4.03
-4 -3 2 22.91 2.88
4 3 -2 26.04 3.1
-4 -3 2 21.45 2.63
-4 -3 1 150.15 6.99
4 3 -1 158.62 7.46
-4 -3 1 146.56 7.47
4 3 0 287.97 9.8
-4 -3 0 292.08 10.84
-4 -3 0 295.28 10.12
-4 -3 0 305.09 9.44
4 3 1 418.16 11.7
-4 -3 -1 402.63 12.17
-4 -3 -1 423.1 13.56
-4 -3 -1 409.8 10.9
-4 -3 -2 416.36 12.87
-4 -3 -2 424.31 11.17
-4 -3 -3 158.15 8.2
-4 -3 -3 176.97 7.43
-4 -3 -4 13.13 2.44
-4 -3 -4 11.03 1.95
4 3 4 10.03 2.12
-4 -3 -5 2.12 1.21
-4 -3 -5 2.29 1.15
4 3 5 2.02 1.25
-4 -3 -6 7.9 1.8
-4 -3 -7 37 4.08
-4 -3 -8 319.99 12.74
-4 -3 -9 17.9 3.26
-4 -3 -10 9.49 2.51
-4 -3 -11 5.24 2
-4 -3 -12 98.06 8.72
-4 -4 11 41.99 5.12
4 4 -11 46.3 6.96
-4 -4 10 2.88 1.48
4 4 -10 4.78 2.12
-4 -4 9 1.65 1.37
4 4 -9 -0.02 1.09
4 4 -8 9.86 2.79
-4 -4 8 7.99 1.94
-4 -4 7 31.45 3.52
4 4 -7 31.55 4.75
4 4 -7 34.78 4.53
4 4 -6 25.34 4.09
-4 -4 6 20.06 2.65
4 4 -6 21.08 3.39
4 4 -5 8.74 2.42
-4 -4 5 8.27 1.85
-4 -4 5 9.65 1.7
-4 -4 5 9.91 2.05
4 4 -5 11.39 2.37
-4 -4 4 4.9 1.45
-4 -4 4 3.56 1.07
4 4 -4 5.73 1.91
-4 -4 3 121.93 6.19
4 4 -3 119.81 7.87
-4 -4 3 123.65 7.16
-4 -4 2 40.02 3.64
4 4 -2 49.34 4.88
-4 -4 2 44.72 4.32
4 4 -1 108.36 7.08
-4 -4 1 112.87 6.46
-4 -4 1 107.01 6.71
-4 -4 0 4.4 1.41
4 4 0 2.93 1.27
-4 -4 0 2.75 1.13
-4 -4 0 2.77 0.97
4 4 1 100.82 6.6
-4 -4 -1 110.5 7.24
-4 -4 -1 107.77 6.86
-4 -4 -1 93.99 6.01
-4 -4 -2 78.07 6.17
-4 -4 -2 69.53 5.15
-4 -4 -3 21.95 3.42
-4 -4 -3 17.63 2.64
-4 -4 -4 32.79 4.26
-4 -4 -4 28.15 3.37
-4 -4 -5 1.87 0.89
-4 -4 -6 17.52 2.85
-4 -4 -7 47.89 4.89
-4 -4 -8 16.83 3.01
-4 -4 -9 0.57 1.27
-4 -4 -10 17.29 3.4
-4 -4 -11 72.53 7.24
-4 -4 -12 81.06 8.07
4 5 -11 5.06 2.86
4 5 -10 0.73 1.59
4 5 -9 9.64 3.19
-4 -5 9 5.99 1.83
4 5 -8 71.04 7.99
-4 -5 8 71.95 5.48
4 5 -7 6.52 2.31
-4 -5 7 7.24 1.65
4 5 -6 11.75 3.05
-4 -5 6 10.78 1.98
4 5 -6 13.72 2.64
-4 -5 5 132.16 6.05
4 5 -5 120.14 9.27
-4 -5 4 6.11 1.27
4 5 -4 7.33 2.16
-4 -5 3 11.44 2.5
-4 -5 3 13.46 1.97
4 5 -3 9.05 2.45
-4 -5 2 58.92 4.24
4 5 -2 68.2 6.36
-4 -5 2 61 5.61
4 5 -1 7.22 2.04
-4 -5 1 5.56 1.7
-4 -5 1 6.41 1.55
4 5 0 269.87 12.08
-4 -5 0 258.8 10.18
-4 -5 0 259.2 11.84
4 5 1 91.25 6.93
-4 -5 -1 83.2 6.07
-4 -5 -1 89.88 7.16
-4 -5 -1 83.41 6.33
-4 -5 -2 1.77 1.16
-4 -5 -2 0.05 0.66
-4 -5 -3 12.77 2.83
-4 -5 -3 14.47 2.65
-4 -5 -4 9.1 2.15
-4 -5 -5 114.18 7.58
-4 -5 -6 31.66 4.1
-4 -5 -7 5.63 1.77
-4 -5 -8 30.46 4.28
-4 -5 -9 10.2 2.54
-4 -5 -10 7.69 2.3
-4 -5 -11 -0.01 1.08
4 6 -10 18.42 4.73
4 6 -9 20.65 4.76
4 6 -8 0.29 1.34
4 6 -7 0.94 1.17
-4 -6 6 59.56 4.12
4 6 -6 60.34 7.28
-4 -6 5 9.05 1.51
4 6 -5 9.12 2.7
-4 -6 4 72.35 4.03
4 6 -4 60.76 6.92
4 6 -3 4.11 1.5
-4 -6 3 7.4 1.35
-4 -6 2 19.3 2.29
4 6 -2 23.72 4.08
4 6 -1 155.26 10.25
-4 -6 1 150.68 7.04
4 6 0 0.97 0.72
-4 -6 0 0.17 0.48
4 6 1 73.96 6.86
-4 -6 -1 77.52 5.85
-4 -6 -1 72.34 6.5
4 6 2 29.21 4.35
-4 -6 -2 30.14 4.17
-4 -6 -3 17.65 3.24
-4 -6 -4 130.13 8.78
-4 -6 -5 122.57 8.54
-4 -6 -6 9.93 2.58
-4 -6 -7 33.07 4.61
-4 -6 -8 16.56 3.36
-4 -6 -9 1.51 1.4
-4 -6 -10 1.76 0.72
4 7 -9 46.8 7.73
4 7 -8 3.67 2.34
4 7 -7 46.15 7.08
4 7 -6 33.69 5.88
4 7 -5 27.12 5.16
4 7 -4 14.45 3.61
-4 -7 3 100.66 4.01
4 7 -3 109.25 9.73
-4 -7 2 301.6 7.96
4 7 -2 296.42 15.67
4 7 -1 638.97 22.47
-4 -7 1 613.58 13.09
4 7 0 67.2 7.3
-4 -7 0 63.99 4.86
-4 -7 0 57.11 6.28
4 7 1 12.7 3.02
-4 -7 -1 16.53 2.65
-4 -7 -1 14.5 3.14
4 7 2 3.25 1.47
-4 -7 -2 2.64 1.43
-4 -7 -2 2.45 1.08
-4 -7 -3 196.52 11.57
-4 -7 -4 12.02 2.94
-4 -7 -5 258.92 13.34
-4 -7 -6 3.33 1.66
-4 -7 -7 -0.57 0.97
-4 -7 -8 6.9 2.26
-4 -7 -9 595.38 21.64
4 8 -7 2.56 2.24
4 8 -6 1.65 1.52
4 8 -5 71.36 8.92
4 8 -4 0.79 0.9
4 8 -3 117.83 10.86
4 8 -2 140.46 11.55
4 8 -1 163.83 12.27
4 8 0 5.69 2.65
-4 -8 0 7.17 2.53
4 8 1 5.13 2.14
-4 -8 -1 3.09 1.12
-4 -8 -1 1.11 1.39
4 8 2 46.78 6.38
-4 -8 -2 54.51 5.1
-4 -8 -2 55.82 6.63
-4 -8 -3 3.73 2.01
-4 -8 -4 21.7 4.18
-4 -8 -5 56.65 6.68
-4 -8 -6 32.47 5.22
-4 -8 -7 43.25 5.99
-4 -8 -8 6.66 2.49
4 9 -5 4.21 2.46
4 9 -4 7.95 3.12
4 9 -3 81.08 9.62
4 9 -2 0.38 1.28
4 9 -1 24.18 4.95
4 9 0 33.24 5.8
-4 -9 0 32.29 5.43
4 9 1 112.56 10.62
-4 -9 -1 111 10.16
4 9 2 27.8 5.39
-4 -9 -2 29.5 5.3
-4 -9 -3 14.65 3.54
-4 -9 -4 16.57 3.8
-4 -9 -5 5.34 2.12
-4 -9 -6 13.62 3.6
4 10 -1 74.33 9.46
-4 -10 1 78.6 9.18
4 10 0 26.32 5.75
-4 -10 0 19.6 4.59
4 10 1 4.21 2.11
-4 -10 -1 1.28 2.05
-4 -10 -2 22.58 4.91
5 -10 -1 4.43 2.04
-5 10 0 55.42 7.04
5 -10 0 59.25 7.42
-5 10 -1 11.86 3.49
-5 10 -2 19.33 4.69
-5 10 -3 8.88 3.28
-5 10 -4 1.08 1.05
-5 9 6 1.01 1.38
-5 9 5 103.06 8.72
-5 9 4 6.15 1.97
-5 9 3 -0.89 1
5 -9 -3 0.18 1.04
5 -9 -2 22.76 4.1
-5 9 1 0.28 1.14
5 -9 -1 -0.92 1.19
-5 9 0 8.7 2.71
-5 9 -1 117.65 9.92
-5 9 -2 17.22 4.04
-5 9 -3 3.86 1.89
-5 9 -4 11.45 3.58
-5 9 -5 56.39 7.83
-5 9 -6 3.11 2.25
-5 9 -7 95.97 10.9
-5 8 7 10.27 2.95
-5 8 6 8.38 2.74
-5 8 5 0.04 0.82
-5 8 4 4.2 1.95
5 -8 -4 3.69 1.6
-5 8 3 1.6 1.2
5 -8 -3 2.81 1.47
-5 8 2 0.54 0.82
5 -8 -2 0.09 0.48
-5 8 1 23.21 3.97
-5 8 1 23.04 3.38
5 -8 -1 22.2 3.83
-5 8 0 60.97 6.49
-5 8 0 69.54 5.61
-5 8 -1 36.75 3.97
-5 8 -1 37.1 5.23
-5 8 -2 65.06 5.21
-5 8 -2 65.53 7.19
-5 8 -3 1.1 1.31
-5 8 -4 8.38 2.69
-5 8 -5 250.09 15.35
-5 8 -6 12.16 3.7
-5 8 -7 83.64 9.54
-5 8 -8 32.3 6.18
-5 7 8 -0.18 1.32
-5 7 7 0.77 0.9
-5 7 6 0.92 1.41
-5 7 5 60.91 6.32
5 -7 -5 65.6 5.42
-5 7 4 22.55 3.7
5 -7 -4 19.69 3.08
5 -7 -3 3.97 1.47
-5 7 3 2.73 1.48
-5 7 2 6.64 1.83
5 -7 -2 6.85 1.91
-5 7 1 15.89 2.89
-5 7 1 13.63 2.62
5 -7 -1 13.74 2.73
-5 7 0 35.87 4.5
-5 7 0 35.38 4.05
-5 7 -1 7.04 2.04
-5 7 -1 10.55 2.4
-5 7 -2 10.45 2.68
-5 7 -2 10.37 2.13
-5 7 -3 89.56 6.55
-5 7 -3 77.75 7.44
-5 7 -4 203.03 10.04
-5 7 -4 214.06 12.78
-5 7 -5 28.84 3.92
-5 7 -5 25.84 4.61
-5 7 -6 19.91 4.23
-5 7 -7 11.49 3.47
-5 7 -8 18.41 4.66
-5 7 -9 21.65 5.17
-5 6 8 3.81 1.54
-5 6 7 186.65 11.74
-5 6 6 -0.5 0.89
5 -6 -6 1.05 0.94
-5 6 5 6.87 1.92
5 -6 -5 8.13 1.75
-5 6 4 2.76 1.21
5 -6 -4 3.71 1.2
5 -6 -3 1.38 0.93
-5 6 3 0.1 0.4
5 -6 -3 0.37 0.35
-5 6 2 40.82 4.49
5 -6 -2 48.41 4.67
5 -6 -2 36.87 3.91
-5 6 1 239.67 10.07
-5 6 1 216.91 10.29
5 -6 -1 229.32 9.87
5 -6 -1 204.68 9.47
5 -6 0 1.69 0.66
-5 6 0 0.11 0.57
-5 6 0 0.68 0.42
-5 6 -1 -0.98 0.78
-5 6 -1 0.41 0.59
5 -6 1 1.49 0.88
-5 6 -2 25.22 3.74
5 -6 2 17.32 2.67
5 -6 2 22.32 3.08
-5 6 -2 26.02 3.63
-5 6 -3 96.78 7.13
-5 6 -3 96.23 7.63
5 -6 3 105.88 6.83
-5 6 -4 58.59 5.61
-5 6 -4 56.36 6.06
-5 6 -5 2.47 1.21
-5 6 -5 6.14 1.89
-5 6 -6 0.35 1.17
-5 6 -6 1.64 1.03
-5 6 -7 22.24 4.32
-5 6 -7 27.17 4.22
-5 6 -8 9.76 3.16
-5 6 -8 13.66 3.1
-5 6 -9 7.56 2.84
-5 6 -10 5.85 1.98
-5 5 9 0.78 0.69
-5 5 8 7.27 2.35
-5 5 7 1.7 1.22
5 -5 -7 2.39 0.97
-5 5 6 -0.22 0.96
5 -5 -6 0.62 0.53
-5 5 5 3.19 1.54
5 -5 -5 1.31 0.71
-5 5 4 359.47 13.75
5 -5 -4 387.53 10.31
-5 5 3 39.27 4.43
5 -5 -3 38 3.8
5 -5 -3 40.07 3.4
5 -5 -2 1.07 0.54
-5 5 2 0.31 0.62
5 -5 -2 0.06 0.41
-5 5 1 44.8 4.65
5 -5 -1 43.88 3.74
5 -5 -1 45.94 3.89
-5 5 0 12.91 2.14
5 -5 0 16.15 2.26
-5 5 0 13.88 2.67
-5 5 -1 0.19 0.36
-5 5 -1 1.57 0.71
-5 5 -2 50.32 5.13
-5 5 -2 51.22 4.78
5 -5 2 55.8 4.43
-5 5 -3 446.29 15.66
-5 5 -3 445.93 14.94
5 -5 3 433.78 13.03
-5 5 -4 636.86 19.16
5 -5 4 605.78 15.68
-5 5 -4 630.42 18.47
-5 5 -5 205.06 11.2
-5 5 -5 183.32 10.45
-5 5 -6 13.52 3.01
-5 5 -6 12.96 3
-5 5 -7 33.19 4.87
-5 5 -7 35.39 5
-5 5 -8 65.01 6.99
-5 5 -8 75.52 7.81
-5 5 -9 42.94 6.2
-5 5 -9 36.09 5.39
-5 5 -10 9.55 3.29
-5 5 -10 12.05 3.41
-5 5 -11 -0.17 1.45
-5 4 9 2.01 1.47
-5 4 8 6.95 2.44
5 -4 -8 10.27 1.88
5 -4 -7 19.24 2.42
-5 4 7 19.75 3.67
-5 4 6 180.59 10.36
5 -4 -6 183.11 6.87
-5 4 5 231.73 11.21
5 -4 -5 220.83 9.32
5 -4 -5 237.8 7.26
-5 4 4 170.6 9.4
5 -4 -4 183.88 7.78
5 -4 -4 185.82 6.04
-5 4 3 8.96 2.16
5 -4 -3 10.06 1.37
5 -4 -3 9.03 1.57
-5 4 2 84.56 6.48
5 -4 -2 82.71 4.37
5 -4 -2 85.21 4.12
5 -4 -1 53.92 3.52
5 -4 -1 49.44 3.21
-5 4 0 453.16 10.58
-5 4 0 448.39 14.98
5 -4 0 451.78 16.74
5 -4 0 436.87 9.41
-5 4 -1 90.47 5.15
-5 4 -1 92.23 6.94
5 -4 1 96.49 4.85
5 -4 1 88.39 4.41
-5 4 -2 36.79 4.46
-5 4 -2 39.08 3.71
-5 4 -3 249.27 11.9
-5 4 -3 243.74 9.84
-5 4 -4 76.26 6.75
5 -4 4 76.46 5.16
-5 4 -4 72.7 5.65
-5 4 -5 9.86 2.26
5 -4 5 13.69 2.28
-5 4 -5 12.63 2.84
-5 4 -6 2.52 1.2
-5 4 -6 1.02 0.91
-5 4 -7 44.55 5.7
-5 4 -7 43.95 5.28
-5 4 -8 15.78 3.52
-5 4 -8 17.9 3.55
-5 4 -9 72.66 7.5
-5 4 -10 1.54 1.05
-5 4 -11 8.47 2.72
-5 4 -12 8.1 2.64
-5 3 10 0.32 1.21
-5 3 9 17.54 3.64
-5 3 8 6.62 2.17
5 -3 -8 4.66 1.27
-5 3 7 60.65 6.13
5 -3 -7 62.03 4.07
-5 3 6 87.2 7.02
5 -3 -6 90.34 4.38
-5 3 5 43.35 4.74
5 -3 -5 42.77 3.69
5 -3 -5 38.58 2.55
-5 3 4 65.17 5.71
5 -3 -4 68.54 4.14
5 -3 -4 63.36 2.89
-5 3 3 95.66 6.84
5 -3 -3 89.57 4.07
5 -3 -3 87.71 2.99
5 -3 -2 15.2 1.21
5 -3 -2 18.13 1.5
-5 3 2 19.69 3.08
-5 3 1 105.91 7.22
5 -3 -1 92.64 3.45
5 -3 -1 105.34 8.06
5 -3 -1 102.53 3.39
5 -3 -1 95.29 2.98
-5 3 0 23.1 1.73
5 -3 0 21.69 1.72
-5 3 0 23.25 3.47
5 -3 0 24.82 3.79
-5 3 -1 3.13 0.83
5 -3 1 3.27 0.75
-5 3 -1 4.42 1.55
-5 3 -2 90.13 7.02
-5 3 -2 80.14 4.56
5 -3 2 81.8 4.12
-5 3 -3 8.38 1.68
5 -3 3 6.51 1.36
-5 3 -3 9.4 2.29
-5 3 -4 3.29 1.14
-5 3 -4 2.91 1.24
-5 3 -5 4.67 1.57
5 -3 5 4.64 1.57
-5 3 -5 4.42 1.66
-5 3 -6 14.96 2.76
-5 3 -6 17.81 3.49
-5 3 -7 3.07 1.24
-5 3 -8 16.73 3.11
-5 3 -9 3.69 1.59
-5 3 -10 70.58 7.49
-5 3 -11 -0.62 0.81
-5 3 -12 6.72 2.71
-5 2 10 37.3 5.45
5 -2 -10 36.14 4.43
-5 2 9 3.5 1.79
5 -2 -9 4.14 1.33
5 -2 -9 3.72 1.28
-5 2 8 90.31 7.64
5 -2 -8 85.86 5.26
-5 2 7 67.8 6.35
5 -2 -7 72.88 4.35
-5 2 7 67.38 4.53
-5 2 6 589.05 17.8
5 -2 -6 612.63 11.04
5 -2 -5 173.14 6.71
-5 2 5 164.63 9.1
5 -2 -5 175.75 5
5 -2 -4 137.65 5.1
-5 2 4 135.62 8.12
5 -2 -4 131.94 3.32
5 -2 -3 10.85 1.06
-5 2 3 8.79 2.1
5 -2 -3 10.37 0.9
-5 2 2 189.73 9.57
5 -2 -2 183.36 10.56
-5 2 1 302.99 12.2
5 -2 -1 335.71 14.14
5 -2 0 453.62 16.11
5 -2 0 434.77 5.13
-5 2 -1 5.2 0.72
5 -2 1 4.54 0.77
-5 2 -1 4.38 1.58
-5 2 -2 57.24 5.6
5 -2 2 52.14 2.99
-5 2 -2 49.52 2.96
-5 2 -3 36.71 4.54
5 -2 3 39.68 2.96
-5 2 -3 42.68 3.17
-5 2 -4 0.87 0.3
-5 2 -4 2.11 1.17
-5 2 -5 71.6 6.79
5 -2 5 81.8 5.28
-5 2 -5 82.61 5.38
-5 2 -6 154.8 8.2
5 -2 6 150.54 7.57
-5 2 -6 148.08 7.84
-5 2 -7 71.87 5.99
-5 2 -7 79.42 6.14
-5 2 -8 11.93 2.7
-5 2 -8 10.77 2.46
-5 2 -9 109.91 8.45
-5 2 -9 123.84 8.78
-5 2 -10 3.53 1.48
-5 2 -10 6.32 2.42
-5 2 -11 451.4 19.14
-5 2 -11 469.84 19.32
-5 2 -12 123.58 10.52
-5 2 -12 120.57 10.48
-5 1 11 2.17 1.2
5 -1 -10 26.55 3.91
-5 1 10 18.96 3.81
-5 1 9 68.66 6.88
5 -1 -9 68.72 5.88
-5 1 8 36.46 4.82
5 -1 -8 44.33 4.35
-5 1 7 85.99 6.99
-5 1 7 101.56 5.27
5 -1 -7 103 6.02
5 -1 -6 10.03 1.75
-5 1 6 8.15 2.16
-5 1 6 11.67 1.55
-5 1 5 110.47 7.35
-5 1 5 116.13 4.14
5 -1 -5 119.38 5.1
-5 1 4 77.47 6.06
5 -1 -4 77.85 3.46
5 -1 -3 327.64 4.78
-5 1 3 339.49 12.67
5 -1 -3 329.2 4.76
-5 1 2 44.19 4.62
5 -1 -2 41.86 4.98
-5 1 1 10.19 2.34
5 -1 -1 7.85 2.07
-5 1 0 186.53 9.84
5 -1 0 189.36 10.22
-5 1 -1 45.15 4.93
5 -1 1 49.27 2.19
-5 1 -2 9.1 1.1
5 -1 2 7.55 1.09
-5 1 -2 7.2 2.01
-5 1 -3 5.66 1.04
-5 1 -3 4.98 1.07
5 -1 3 6.2 1.14
-5 1 -3 5.75 1.81
-5 1 -4 59.64 3.89
-5 1 -4 58.47 5.94
-5 1 -4 65.25 4.23
5 -1 4 58.32 3.92
-5 1 -5 449.88 12.21
5 -1 5 435.09 11.66
-5 1 -6 48.22 4.35
5 -1 6 54.48 4.54
-5 1 -7 30.78 3.72
-5 1 -8 32.16 4.1
-5 1 -9 4.92 1.67
-5 1 -10 305.56 14.3
-5 1 -10 297.61 14.06
-5 1 -11 79.83 7.79
-5 1 -11 65.03 7.03
-5 1 -12 65.45 7.51
-5 1 -12 74.3 7.87
-5 0 11 0.27 0.68
5 0 -11 -0.2 0.94
-5 0 10 1.45 1.27
5 0 -10 1.34 1.02
-5 0 9 49.57 5.73
5 0 -9 58.87 5.57
-5 0 8 1.1 1.29
5 0 -8 1.45 0.77
5 0 -7 2.44 0.86
-5 0 7 1.9 1.14
-5 0 7 1.31 0.59
5 0 -6 4.15 1.1
-5 0 6 7.38 2.01
-5 0 6 6.53 1.17
-5 0 5 4.82 1.57
-5 0 5 5.83 0.96
5 0 -5 5.4 1.23
-5 0 4 31.96 3.85
5 0 -4 34.99 2.63
-5 0 4 34.98 1.74
-5 0 3 128.42 7.76
5 0 -3 129.66 8.82
5 0 -3 126.58 4.1
-5 0 2 88.29 6.53
5 0 -2 103.17 7.72
-5 0 1 63.86 5.62
5 0 -1 71.15 6.33
-5 0 0 149.43 8.76
5 0 0 159.69 9.27
-5 0 -1 56.56 2.27
-5 0 -1 55.74 2.33
5 0 1 52.51 2.56
-5 0 -2 14.88 1.57
-5 0 -2 15.26 1.5
5 0 2 12.34 1.47
-5 0 -2 13.53 2.74
-5 0 -3 161.42 9.75
-5 0 -3 174.59 5.93
5 0 3 169.85 6.28
-5 0 -4 11.1 1.7
5 0 4 8.97 1.59
-5 0 -5 12.43 1.95
5 0 5 17.53 2.46
-5 0 -6 15.35 2.37
5 0 6 11.08 2.14
-5 0 -7 38.86 4.07
-5 0 -8 0.04 0.87
-5 0 -9 9.02 2.3
-5 0 -10 288.81 13.62
-5 0 -11 450.71 17.99
-5 0 -12 109.87 9.43
5 1 -11 3.65 1.6
-5 -1 11 4.29 1.97
5 1 -10 0.06 0.72
-5 -1 10 0.41 0.68
5 1 -9 28.05 4.06
-5 -1 9 22.4 3.8
-5 -1 8 396.03 15.07
5 1 -8 433.48 15.15
-5 -1 7 107.96 7.48
-5 -1 7 109.01 5.53
5 1 -7 105.4 6.95
-5 -1 6 37.02 4.18
-5 -1 6 36.32 2.89
5 1 -6 35.79 3.76
5 1 -5 2.21 0.83
-5 -1 5 1.97 0.99
-5 -1 5 1.53 0.53
5 1 -4 19.73 2.34
-5 -1 4 22.12 1.72
-5 -1 4 23.62 3.26
-5 -1 3 70.14 5.69
5 1 -3 65.7 6.27
5 1 -3 60.24 3.64
-5 -1 3 66.25 2.49
5 1 -2 430.56 8.46
-5 -1 2 433.04 14.28
-5 -1 2 404.06 5.43
-5 -1 2 415.01 6
-5 -1 1 15.81 1.1
-5 -1 1 13.09 2.49
-5 -1 1 15.15 1.28
5 1 -1 13.99 2.85
-5 -1 0 166.11 9.2
-5 -1 0 168.37 4.03
-5 -1 0 154.35 4.47
-5 -1 -1 245.06 6.74
-5 -1 -1 245.86 11.41
-5 -1 -1 248.55 5.76
-5 -1 -2 95.75 4.75
-5 -1 -2 104.16 7.64
-5 -1 -2 112.71 4.44
5 1 2 98.53 4.78
-5 -1 -3 7.04 1.44
-5 -1 -3 8.77 1.39
5 1 3 6.54 1.4
-5 -1 -3 9.41 2.44
-5 -1 -4 335.7 9.49
-5 -1 -5 2.75 1.01
5 1 5 5.13 1.38
-5 -1 -6 7.17 1.66
5 1 6 4.84 1.57
-5 -1 -7 129.08 7.41
-5 -1 -8 38.26 4.28
-5 -1 -9 105.27 7.53
-5 -1 -10 -0.01 1.02
-5 -1 -11 172.67 11.06
-5 -1 -12 107.3 9.13
-5 -2 12 33.35 5.29
-5 -2 11 10.56 2.8
5 2 -11 12.75 3.32
-5 -2 10 92.77 8.08
5 2 -10 93.6 8.47
-5 -2 9 3.36 1.28
5 2 -9 1.53 1.13
-5 -2 8 0.22 0.77
5 2 -8 2.55 1.33
-5 -2 7 88.7 6.65
-5 -2 7 82 5.19
5 2 -7 90.28 6.91
5 2 -6 17.53 2.88
-5 -2 6 13.68 2.54
-5 -2 6 16.33 2.14
-5 -2 5 128.11 7.44
-5 -2 5 141.17 5.65
5 2 -5 134.2 7.48
-5 -2 4 231.01 10.1
5 2 -4 216.38 11.44
-5 -2 4 233.07 6.82
5 2 -4 208.15 8.78
-5 -2 3 332.65 12.22
5 2 -3 299.26 9.77
5 2 -3 311.58 13.44
-5 -2 3 315.26 7.56
5 2 -2 21.18 2.45
-5 -2 2 22.78 3.21
-5 -2 2 20.88 2.13
5 2 -2 18.65 3.2
-5 -2 1 1.21 0.48
5 2 -1 1.16 0.57
-5 -2 1 1.05 0.79
-5 -2 1 1.02 0.51
-5 -2 0 7.65 1.42
-5 -2 0 12.22 2.53
-5 -2 0 9.29 1.31
-5 -2 -1 28.48 2.87
-5 -2 -1 30.51 2.46
-5 -2 -1 30.6 4
-5 -2 -2 26.53 2.96
-5 -2 -2 29.09 2.56
-5 -2 -2 29.84 4.13
-5 -2 -3 86.84 5.6
-5 -2 -3 85.02 7.08
-5 -2 -3 92.68 4.9
-5 -2 -4 2.9 1.16
-5 -2 -4 2.53 0.9
-5 -2 -5 33.35 3.4
5 2 5 33.5 3.8
-5 -2 -6 4.42 1.27
5 2 6 5.92 1.81
-5 -2 -7 34.99 4
-5 -2 -8 56.76 5.36
-5 -2 -9 6.71 2.04
-5 -2 -10 12.91 2.98
-5 -2 -11 30.01 4.69
-5 -2 -12 -2.37 1.41
-5 -3 11 -1.21 2.04
5 3 -11 0.69 0.9
-5 -3 10 1.76 1.43
5 3 -10 1.62 1.4
5 3 -9 7.78 2.42
-5 -3 9 11.7 2.72
-5 -3 8 34.07 4.23
5 3 -8 27.16 4.34
-5 -3 7 88.23 6.45
5 3 -7 94.74 7.7
5 3 -6 10.97 2.54
-5 -3 6 12.88 2.47
-5 -3 6 11.2 2.07
-5 -3 5 0.16 0.63
-5 -3 5 0.05 0.53
5 3 -5 1.28 1.03
-5 -3 4 28.68 3.13
-5 -3 4 29.25 3.5
5 3 -4 29.04 3.68
-5 -3 4 23.02 2.54
5 3 -4 31.58 4.34
-5 -3 3 56.2 4.93
5 3 -3 53.83 4.78
5 3 -3 60.99 5.87
-5 -3 3 62.14 4.46
5 3 -2 27.51 3.25
-5 -3 2 26.91 3.5
-5 -3 2 26.3 2.89
5 3 -1 59.11 4.62
-5 -3 1 75.69 6.07
-5 -3 1 66.68 4.62
-5 -3 1 65.69 4.38
5 3 0 93.46 5.58
-5 -3 0 93.86 6.91
-5 -3 0 99.45 5.91
-5 -3 0 87.16 5.01
-5 -3 -1 12.09 2.14
-5 -3 -1 12.02 1.89
-5 -3 -1 10.8 2.47
-5 -3 -2 356.28 12.2
-5 -3 -2 365.2 10.46
-5 -3 -2 346.82 14.05
-5 -3 -3 83.4 6.14
-5 -3 -3 83.21 5.2
-5 -3 -4 9.03 2.2
-5 -3 -4 10.12 1.84
5 3 4 11.43 2.45
-5 -3 -5 31.55 3.48
5 3 5 28.07 3.79
-5 -3 -6 13.59 2.39
-5 -3 -7 -0.34 0.42
-5 -3 -8 30.18 4.04
-5 -3 -9 21.32 3.6
-5 -3 -10 7.47 2.19
-5 -3 -11 -0.07 0.94
-5 -3 -12 -1.59 1.24
5 4 -11 10.24 3.49
5 4 -10 97.35 9.61
-5 -4 10 98.72 7.92
5 4 -9 2.09 1.09
-5 -4 9 1.81 1.29
-5 -4 8 38.61 4.44
5 4 -8 31.86 5.1
5 4 -7 0.22 0.83
-5 -4 7 1.52 1.06
-5 -4 6 100.43 6.47
5 4 -6 109.13 8.63
-5 -4 5 -0.09 0.39
-5 -4 5 0.53 0.57
5 4 -5 0.01 0.5
5 4 -5 -0.61 1.1
-5 -4 4 33.88 3.7
5 4 -4 32.28 4.29
5 4 -4 38.69 4.72
-5 -4 4 30.44 3.61
-5 -4 3 102.57 6.51
5 4 -3 119.4 7.96
-5 -4 3 107.06 6.63
5 4 -2 56.39 5.32
-5 -4 2 59.07 5.1
-5 -4 2 58.46 4.98
5 4 -1 13.27 2.57
-5 -4 1 14.88 2.51
-5 -4 1 13.02 2.52
-5 -4 1 13.81 2.24
5 4 0 16.16 2.69
-5 -4 0 19.33 2.99
-5 -4 0 22.22 3.33
-5 -4 0 13.33 2.25
-5 -4 -1 73.04 6.32
-5 -4 -1 67.92 5.76
-5 -4 -1 58.28 4.75
-5 -4 -2 158.12 9.03
-5 -4 -2 171.64 9.98
-5 -4 -2 176.56 8.2
-5 -4 -3 41.7 4.76
-5 -4 -3 40.85 4.02
-5 -4 -4 5.72 1.86
-5 -4 -4 4.78 1.45
-5 -4 -5 1.37 0.6
-5 -4 -6 14.84 2.72
-5 -4 -7 186.27 9.79
-5 -4 -8 14.95 3
-5 -4 -9 14.05 3.03
-5 -4 -10 -0.34 0.61
-5 -4 -11 26.15 4.48
5 5 -10 21.64 4.75
5 5 -9 -0.17 1.75
-5 -5 8 78.68 6.15
5 5 -8 81.06 8.75
-5 -5 7 70.64 5.53
5 5 -7 75.09 8.06
-5 -5 6 560.16 14.83
5 5 -6 525.87 20.33
-5 -5 5 121.2 6.54
5 5 -5 129.18 8.62
-5 -5 4 84.49 5.56
5 5 -4 79.9 7.37
-5 -5 3 45.1 4.14
5 5 -3 34.56 4.74
5 5 -2 198.17 10.89
-5 -5 2 188.04 8.88
-5 -5 2 214.54 10.6
5 5 -1 654.87 19.41
-5 -5 1 664.56 17.54
-5 -5 1 653.84 18.69
5 5 0 227.95 11.26
-5 -5 0 244.94 11.13
-5 -5 0 227.16 11.29
-5 -5 0 222.89 10.46
5 5 1 350.27 13.84
-5 -5 -1 361.33 14.13
-5 -5 -1 350.99 14.42
-5 -5 -1 335.3 12.64
-5 -5 -2 26.18 3.52
-5 -5 -2 27.05 4.03
-5 -5 -3 120.16 7.65
-5 -5 -4 106.12 7.29
-5 -5 -5 60.25 5.63
-5 -5 -6 76.72 6.45
-5 -5 -7 43.96 5.04
-5 -5 -8 11.4 2.7
-5 -5 -9 23.76 4.04
-5 -5 -10 64.2 6.93
-5 -5 -11 50.12 6.45
5 6 -9 2.83 1.92
5 6 -8 5.77 2.41
5 6 -7 30.41 5.5
5 6 -6 241.94 14.95
-5 -6 5 151.57 6.97
5 6 -5 161.5 11.68
5 6 -4 0.81 1.21
-5 -6 4 0.76 0.74
-5 -6 3 48.78 4.07
5 6 -3 40.27 5.55
5 6 -2 -0.07 0.54
-5 -6 2 -0.26 0.63
5 6 -1 225.44 12.49
-5 -6 1 238.34 10.21
5 6 0 159.25 10.35
-5 -6 0 156.97 8.81
-5 -6 0 148.94 9.43
5 6 1 0.78 0.77
-5 -6 -1 1.53 1.22
-5 -6 -1 2.55 1.27
-5 -6 -2 56.21 5.83
-5 -6 -2 62.47 6.07
-5 -6 -3 3.23 1.47
-5 -6 -4 13.32 2.84
-5 -6 -5 23.24 3.74
-5 -6 -6 5.21 1.89
-5 -6 -7 46.69 5.5
-5 -6 -8 47.32 5.65
-5 -6 -9 50.07 6.06
-5 -6 -10 2.37 1.28
5 7 -8 -0.54 1.83
5 7 -7 2.72 2.26
5 7 -6 106.74 10.55
5 7 -5 58.34 7.62
5 7 -4 0.53 1.33
5 7 -3 40.73 6.06
-5 -7 2 35.67 3.44
5 7 -2 34.41 5.36
5 7 -1 11 2.82
-5 -7 1 10.38 2.04
5 7 0 44.54 5.9
-5 -7 0 46.03 4.61
-5 -7 0 41.44 5.4
5 7 1 62.57 6.92
-5 -7 -1 67.87 6.05
-5 -7 -1 62.91 6.62
-5 -7 -2 114.9 8.26
-5 -7 -2 115.11 8.94
-5 -7 -3 3.51 1.72
-5 -7 -3 7.42 2.3
-5 -7 -4 93.44 8.05
-5 -7 -5 17.92 3.65
-5 -7 -6 27.22 4.46
-5 -7 -7 2.93 1.73
-5 -7 -8 13.54 3.25
-5 -7 -9 -0.37 0.98
5 8 -6 10.72 3.33
5 8 -5 17.84 4.44
5 8 -4 18.68 4.58
5 8 -3 34.09 5.94
5 8 -2 17.61 4.2
5 8 -1 1.79 1.57
-5 -8 1 1.62 1.41
5 8 0 26.55 4.89
-5 -8 0 22.52 4.23
5 8 1 15.18 3.76
-5 -8 -1 10.68 3.2
-5 -8 -2 4.73 1.94
-5 -8 -2 5.09 1.89
-5 -8 -3 21.02 4.2
-5 -8 -3 27.38 4.25
-5 -8 -4 79.76 7.97
-5 -8 -5 8.19 2.51
-5 -8 -6 15.85 3.79
-5 -8 -7 15.09 3.68
5 9 -4 -2.02 1.72
5 9 -3 25.93 5.42
5 9 -2 -0.4 1.89
5 9 -1 6.35 2.93
-5 -9 1 3.71 1.36
5 9 0 3.83 1.86
-5 -9 0 3.35 2.03
5 9 1 40.75 6.53
-5 -9 -1 30.07 5.22
-5 -9 -2 28.65 5.09
-5 -9 -3 11.33 3.4
-5 -9 -4 8.48 2.61
-5 -9 -5 3.67 1.78
-6 9 4 1.61 1.27
-6 8 5 5.12 2.13
-6 8 4 56.54 6.35
-6 8 3 5.09 1.93
-6 8 2 10.12 2.55
-6 8 1 13.11 2.76
-6 8 0 0.47 0.63
-6 8 -1 165.58 9.47
-6 8 -2 11.45 3.04
-6 8 -2 14.54 2.92
-6 8 -3 -1.27 1.7
-6 8 -4 3.41 2.3
-6 8 -5 1.92 1.73
-6 8 -6 5.09 2.57
-6 8 -7 94.92 10.12
-6 8 -8 22.3 5.24
-6 7 6 20.68 4.02
-6 7 5 9.97 2.9
-6 7 4 6.47 2.09
-6 7 3 30.29 4.41
-6 7 2 46.54 5.3
-6 7 1 1.11 0.94
6 -7 -1 0.64 0.71
-6 7 0 6.73 1.84
-6 7 0 8.71 2.2
-6 7 -1 7.1 1.96
-6 7 -1 5.9 1.89
-6 7 -2 3.4 1.68
-6 7 -2 1.35 0.8
-6 7 -3 0.08 0.51
-6 7 -3 -0.37 1.02
-6 7 -4 27.18 4.5
-6 7 -4 33.73 4.66
-6 7 -5 58.94 6.22
-6 7 -5 63.47 7.17
-6 7 -6 0.7 1.32
-6 7 -7 3.11 2.49
-6 7 -8 0.37 1.56
-6 7 -9 3.89 2.05
-6 6 7 66.23 7.37
-6 6 6 87.24 8.06
-6 6 5 63 6.57
-6 6 4 124.78 8.91
-6 6 3 56.23 5.88
-6 6 2 72.82 6.59
6 -6 -2 70.44 4.87
-6 6 1 2.51 1.31
6 -6 -1 1.05 0.6
-6 6 0 0.93 0.45
-6 6 0 -0.87 0.9
-6 6 -1 -2.24 1.04
-6 6 -1 0.49 1.06
-6 6 -2 111.79 7.56
-6 6 -2 128.93 8.91
-6 6 -3 81.45 7.28
-6 6 -3 86.21 7.02
-6 6 -4 14.47 3.2
-6 6 -4 9.99 2.56
-6 6 -5 48.88 5.86
-6 6 -5 50.62 5.96
-6 6 -6 112.78 9.12
-6 6 -6 129.53 9.9
-6 6 -7 5.51 2.23
-6 6 -7 7.93 2.53
-6 6 -8 2.55 2.01
-6 6 -8 1.58 1.62
-6 6 -9 27.94 5.3
-6 6 -10 48.43 7.21
-6 5 8 3.47 1.66
-6 5 7 23.4 4.23
-6 5 6 4.17 2.02
-6 5 5 58.31 6.23
-6 5 4 33.17 4.62
-6 5 3 256.06 12.34
6 -5 -3 281.43 7.66
-6 5 2 3.3 1.37
6 -5 -2 2.76 0.79
-6 5 1 79.03 6.84
6 -5 -1 89.4 4.99
6 -5 0 4.64 1.08
6 -5 0 2.98 0.93
-6 5 0 4.22 1.5
-6 5 -1 93.17 5.64
-6 5 -1 95.7 7.65
-6 5 -2 286.17 10.77
-6 5 -2 286.72 13.48
6 -5 2 298.88 9.79
6 -5 3 7.95 1.67
-6 5 -3 9.89 2.23
-6 5 -3 9.35 2.52
-6 5 -4 59.18 6.36
-6 5 -4 63.79 5.89
-6 5 -5 2.26 0.95
-6 5 -5 3.5 1.74
-6 5 -6 31.8 4.5
-6 5 -6 35.44 5.26
-6 5 -7 35.4 5.09
-6 5 -7 27.93 4.89
-6 5 -8 5.77 2.27
-6 5 -8 12.44 3.24
-6 5 -9 15.47 3.97
-6 5 -9 15.73 3.71
-6 5 -10 29.49 5.36
-6 5 -10 31.03 5.59
-6 5 -11 4.62 1.94
-6 4 8 4.54 2.13
-6 4 7 6.81 2.23
-6 4 6 193.46 11.43
-6 4 5 166.88 10.21
-6 4 4 477.89 16.97
6 -4 -4 523.85 7.94
-6 4 3 41.4 5.02
6 -4 -3 41.57 2.09
6 -4 -2 20.5 1.58
6 -4 -2 23.5 1.66
-6 4 2 19.24 3.39
6 -4 -2 19.69 1.51
-6 4 1 34.61 4.57
6 -4 -1 33.93 2.18
6 -4 -1 30.14 2.22
-6 4 0 90.19 7.39
6 -4 0 89.73 3.93
-6 4 -1 212.47 6.94
-6 4 -1 203.62 11.29
6 -4 1 210.18 6.61
-6 4 -2 121.37 8.93
-6 4 -2 122.34 6.12
6 -4 2 125.21 5.59
-6 4 -3 0.63 0.49
-6 4 -3 0.06 0.4
-6 4 -4 0.62 0.39
6 -4 4 1.48 0.88
-6 4 -4 1.54 1.35
-6 4 -5 16 2.84
-6 4 -5 17.17 3.64
-6 4 -6 126.61 10.05
-6 4 -6 123.13 8.34
-6 4 -7 0.84 1.06
-6 4 -7 -0.63 1.27
-6 4 -8 80.45 8.45
-6 4 -8 70.56 7.06
-6 4 -9 -0.95 1.21
-6 4 -9 0.14 0.9
-6 4 -10 17.07 4.12
-6 4 -10 18.62 4.01
-6 4 -11 33.4 6.08
-6 4 -11 40.94 6.37
-6 3 9 -0.56 1.08
-6 3 8 1.46 1.15
-6 3 7 29.38 4.51
-6 3 6 10.89 2.63
6 -3 -5 185.45 5.59
-6 3 5 185.82 10.62
-6 3 4 182.06 10.39
6 -3 -4 181.54 4.77
6 -3 -4 185.33 4.22
-6 3 3 4.48 1.51
-6 3 2 1.89 0.63
-6 3 1 124.91 8.62
-6 3 0 43.24 5.16
6 -3 0 38.13 1.81
6 -3 0 36.51 2.05
-6 3 -1 59.12 2.47
-6 3 -1 55.89 6.01
6 -3 1 65.84 3.08
-6 3 -2 67.99 6.75
-6 3 -2 71.82 3.95
6 -3 2 73.18 3.83
-6 3 -3 98.23 8.29
-6 3 -3 101.23 5.42
6 -3 3 109.1 5.24
-6 3 -4 -0.01 0.46
6 -3 4 0.03 0.44
-6 3 -4 1.44 1.28
6 -3 5 2.07 0.95
-6 3 -5 0.29 0.84
-6 3 -5 1.99 1.6
-6 3 -6 207.29 12.93
-6 3 -6 190.69 9.6
-6 3 -7 0.43 0.57
-6 3 -7 -1.95 1.39
-6 3 -8 8.07 2.79
-6 3 -8 6.26 2.2
-6 3 -9 49.41 5.91
-6 3 -10 114.07 9.52
-6 3 -11 9.2 3.04
-6 3 -12 91.24 9.45
-6 2 9 1.02 1.5
-6 2 8 1.92 1.29
-6 2 7 3.38 1.97
-6 2 6 303.35 13.58
6 -2 -6 331.19 8.78
-6 2 5 546.38 17.94
6 -2 -5 585.27 9.56
-6 2 4 293.4 12.97
-6 2 3 251.96 12.14
-6 2 2 17.34 3.31
-6 2 1 40.9 5
-6 2 0 34.44 4.6
-6 2 -1 54.97 5.94
6 -2 1 49.53 2.19
-6 2 -2 90.48 3.61
6 -2 2 94.32 3.91
-6 2 -3 3.2 0.93
6 -2 3 4.71 1.06
-6 2 -4 21.13 2.49
-6 2 -4 20.46 4.05
-6 2 -5 0.51 0.54
6 -2 5 -0.07 0.43
-6 2 -5 0.27 0.83
-6 2 -6 12.44 2.28
6 -2 6 13.13 2.26
-6 2 -6 11.12 2.97
-6 2 -7 8.06 2.92
-6 2 -7 9.47 2.23
-6 2 -8 5.8 1.74
-6 2 -9 29.15 4.36
-6 2 -10 5.1 2.05
-6 2 -11 3.07 1.83
-6 2 -12 37.7 5.93
-6 1 10 0.51 0.99
-6 1 9 -0.55 1.36
-6 1 8 16.2 3.34
6 -1 -7 1.33 0.91
-6 1 7 -0.38 0.79
-6 1 6 7.58 2.13
6 -1 -6 7.68 1.45
-6 1 5 73.6 6.5
6 -1 -5 71.62 3.58
-6 1 4 101.82 7.6
-6 1 3 2.9 1.65
-6 1 2 2.71 1.57
-6 1 1 16.5 3.21
-6 1 0 364.6 15.11
-6 1 -1 222.85 11.97
6 -1 1 205.9 4.06
-6 1 -2 107.77 3.42
-6 1 -2 102.17 8.25
6 -1 2 103.74 4.11
-6 1 -2 98.2 3.23
-6 1 -3 8.07 1.26
6 -1 3 6.16 1.2
-6 1 -3 4.9 1.73
-6 1 -4 7.17 1.42
-6 1 -4 5.43 1.18
-6 1 -4 5.09 2.02
-6 1 -5 0.43 0.44
6 -1 5 1.11 0.62
-6 1 -5 0.14 0.38
-6 1 -5 0.86 1.14
-6 1 -6 322.19 11.14
-6 1 -6 335.03 11.75
-6 1 -6 329.79 16.33
6 -1 6 320.89 11.45
-6 1 -7 1.88 1.16
-6 1 -7 2.49 1.32
-6 1 -8 39.57 4.53
-6 1 -8 43.85 4.9
-6 1 -9 27.93 4.23
-6 1 -9 29.54 4.22
-6 1 -10 42.49 5.41
-6 1 -10 48.27 5.92
-6 1 -11 86.81 8.27
-6 1 -11 99.59 8.78
-6 1 -12 40.7 5.95
-6 1 -12 46.22 6.36
-6 0 10 1.44 1.45
-6 0 9 19.47 3.77
-6 0 8 19.18 3.59
-6 0 7 -0.21 0.52
6 0 -7 1.09 0.92
6 0 -6 26.01 2.88
-6 0 6 19.57 3.46
6 0 -5 26.39 2.5
-6 0 5 21.36 3.6
-6 0 4 79.69 6.72
6 0 -4 89.5 3.63
-6 0 3 10.97 2.63
-6 0 2 2.98 1.55
-6 0 1 9.04 2.34
-6 0 0 51.46 5.66
-6 0 -1 15.72 1.2
-6 0 -1 11.46 2.55
-6 0 -2 123.71 4.47
-6 0 -2 132.1 4.55
6 0 2 135.95 5.14
-6 0 -3 3.79 1
-6 0 -3 3.56 0.89
6 0 3 2.69 0.76
-6 0 -3 5.01 1.88
-6 0 -4 131.33 9.9
-6 0 -4 123.14 5.81
-6 0 -5 142.68 10.44
-6 0 -5 127.74 6.5
6 0 5 132.08 6.92
-6 0 -6 28.43 3.36
6 0 6 21.76 3.07
-6 0 -7 42.17 4.38
-6 0 -8 13.27 2.67
-6 0 -9 13.32 2.89
-6 0 -10 8.54 2.45
-6 0 -11 138.74 10.21
-6 0 -12 8.43 2.73
-6 -1 10 3.49 2.14
-6 -1 9 14.89 3.31
-6 -1 8 52.42 5.88
6 1 -8 59.67 5.6
6 1 -7 3.38 1.25
-6 -1 7 3.9 1.52
6 1 -6 6.22 1.59
-6 -1 6 11.02 2.49
-6 -1 5 38.47 4.62
6 1 -5 32 3.21
-6 -1 5 41.55 2.31
-6 -1 4 8.34 0.78
-6 -1 4 9.98 2.39
6 1 -4 9.96 1.59
6 1 -3 11.8 1.43
-6 -1 3 15.81 2.96
-6 -1 2 40.74 4.85
-6 -1 1 37.73 4.73
-6 -1 0 9.74 0.89
-6 -1 0 7.26 0.8
-6 -1 0 8.06 2.25
-6 -1 -1 61.6 6.36
-6 -1 -1 58.35 3.1
-6 -1 -1 59.72 2.8
-6 -1 -2 191.82 6.78
-6 -1 -2 174.14 10.91
-6 -1 -2 185.63 5.83
-6 -1 -3 58.69 4.22
-6 -1 -3 62.79 6.73
-6 -1 -3 58.83 3.68
6 1 3 56.5 4.2
-6 -1 -4 204.73 8.46
-6 -1 -4 199.47 12.26
-6 -1 -4 201.67 7.52
-6 -1 -5 52.15 4.15
6 1 5 57.04 4.83
-6 -1 -6 31.26 3.5
6 1 6 27.33 3.68
-6 -1 -7 34 3.89
-6 -1 -8 24.39 3.51
-6 -1 -9 57.86 5.76
-6 -1 -10 22.64 3.93
-6 -1 -11 2.74 1.57
-6 -1 -12 7.37 2.64
-6 -2 10 1.78 1.42
-6 -2 9 57.86 6.37
-6 -2 8 189.37 10.92
6 2 -8 222.46 11.57
6 2 -7 4.98 1.64
-6 -2 7 7.83 2.2
6 2 -6 7.41 1.95
-6 -2 6 6.36 1.85
-6 -2 5 159.34 9.23
6 2 -5 162.29 8.26
-6 -2 5 170.97 5.81
6 2 -4 0.18 0.39
-6 -2 4 0.63 0.6
-6 -2 4 1.14 0.46
-6 -2 3 10.88 1.25
-6 -2 3 9.6 2.49
-6 -2 3 8.97 1.27
6 2 -2 68.71 4.12
-6 -2 2 73.22 6.5
-6 -2 2 80.86 3.45
-6 -2 2 78.39 3.56
-6 -2 2 74.7 3.78
-6 -2 1 38.06 4.75
-6 -2 1 42.43 2.56
-6 -2 1 36.72 2.68
-6 -2 0 7.34 1.28
-6 -2 0 6.62 1.04
-6 -2 0 8.68 2.45
-6 -2 -1 160.21 10.23
-6 -2 -1 165.79 5.65
-6 -2 -2 289.97 9.92
-6 -2 -2 284.14 14.06
-6 -2 -2 287.79 8.09
-6 -2 -3 10.7 2.01
-6 -2 -3 7.39 2.5
-6 -2 -4 149.75 8
-6 -2 -4 161.25 11.06
-6 -2 -4 157.68 7.02
6 2 4 158.46 8.27
-6 -2 -5 34.37 4
-6 -2 -5 33.62 3.48
6 2 5 34.24 4.09
-6 -2 -6 4.11 1.68
-6 -2 -6 2.22 1.06
-6 -2 -7 38.84 4.34
-6 -2 -8 109.31 7.56
-6 -2 -9 11.04 2.54
-6 -2 -10 27.71 4.3
-6 -2 -11 23.36 4.07
-6 -2 -12 14.96 3.36
-6 -3 10 76.36 7.54
-6 -3 9 14.04 3.12
6 3 -8 15.4 3.37
-6 -3 8 15.33 3.17
6 3 -7 7.66 2.3
-6 -3 7 2.4 1.3
-6 -3 6 13.75 2.62
6 3 -6 22.93 3.69
-6 -3 5 90.33 6.8
6 3 -5 84.09 6.6
6 3 -4 9.33 2.08
-6 -3 4 6.2 1.82
-6 -3 4 7.25 1.41
-6 -3 3 53.69 5.39
6 3 -3 58.18 4.92
-6 -3 3 60.07 3.9
-6 -3 3 55.67 4.16
6 3 -2 6.27 1.59
-6 -3 2 3.68 1.47
-6 -3 2 3.4 0.95
-6 -3 2 4.85 1.22
6 3 -1 196.45 8.14
-6 -3 1 190.74 10.68
-6 -3 1 189.46 7.14
-6 -3 1 191.24 7.79
-6 -3 0 754.69 21.7
-6 -3 0 720.42 15.67
-6 -3 0 747.49 14.13
-6 -3 -1 158.15 10.2
-6 -3 -1 171.7 8.17
-6 -3 -1 153.27 6.5
-6 -3 -2 1408.01 24.86
-6 -3 -2 1401.11 31.34
-6 -3 -2 1400.57 20.67
-6 -3 -3 639.65 17.49
-6 -3 -3 647.07 21.77
-6 -3 -3 645.44 14.5
-6 -3 -4 335.52 13.15
-6 -3 -4 356.63 16.63
-6 -3 -4 351.47 11.25
-6 -3 -5 331.28 13.6
-6 -3 -5 326.8 11.44
-6 -3 -6 176.96 8.95
-6 -3 -7 36.21 4.21
-6 -3 -8 0.34 0.72
-6 -3 -9 34.25 4.55
-6 -3 -10 4.14 1.35
-6 -3 -11 49.48 6.1
-6 -4 9 5.84 2.35
-6 -4 8 47.19 5.25
6 4 -8 34.56 5.34
-6 -4 7 55.14 5.45
6 4 -7 57.52 6.57
-6 -4 6 18.91 3.11
6 4 -6 17.72 3.42
-6 -4 5 41.79 4.5
6 4 -5 36.28 4.72
-6 -4 4 17.8 2.77
6 4 -4 13.88 2.84
-6 -4 4 11.93 2.46
-6 -4 4 10.78 2.07
-6 -4 3 3.12 1.19
6 4 -3 3.5 1.4
-6 -4 3 3.35 1.32
6 4 -2 36.73 4.26
-6 -4 2 25.78 3.16
-6 -4 2 28.02 3.93
-6 -4 2 41.53 4.14
6 4 -1 69.93 5.6
-6 -4 1 71.49 6.55
-6 -4 1 72.34 5.19
-6 -4 1 68.26 5.41
6 4 0 18.83 2.93
-6 -4 0 17.36 2.85
-6 -4 0 13.78 2.96
-6 -4 0 20.07 2.72
-6 -4 -1 168.04 10.58
-6 -4 -1 155.29 8.79
-6 -4 -1 157.96 7.67
-6 -4 -2 99.25 8.4
-6 -4 -2 93.97 7.09
-6 -4 -2 94.89 6.02
-6 -4 -3 427 15.67
-6 -4 -3 408.37 17.47
-6 -4 -3 395.23 12.57
-6 -4 -4 23.32 4.41
-6 -4 -4 29.99 3.59
-6 -4 -5 7.63 1.92
-6 -4 -6 0.96 0.88
-6 -4 -7 13.04 2.65
-6 -4 -8 69.96 6.46
-6 -4 -9 109.78 8.45
-6 -4 -10 17.23 3.46
-6 -4 -11 20.36 3.92
6 5 -8 0.44 1.39
-6 -5 7 21.57 3.29
6 5 -7 19.13 4.07
-6 -5 6 6.42 1.83
6 5 -6 4.56 1.95
-6 -5 5 65.28 5.39
6 5 -5 72.35 7.32
6 5 -4 4.24 1.49
-6 -5 4 4.48 1.56
-6 -5 3 82.8 6.36
6 5 -3 78.88 7.1
6 5 -2 12.11 2.65
-6 -5 2 11.94 2.67
-6 -5 2 9.34 2.21
6 5 -1 108.36 7.84
-6 -5 1 103.32 7.72
-6 -5 1 105.15 7.19
6 5 0 63.64 5.94
-6 -5 0 57.75 5.98
-6 -5 0 58.93 5.32
-6 -5 -1 2.48 1.47
-6 -5 -1 1.47 0.63
-6 -5 -2 0.25 0.67
-6 -5 -2 -1.05 0.94
-6 -5 -3 133.17 10.06
-6 -5 -3 136.53 8.16
-6 -5 -4 11 2.96
-6 -5 -4 13.47 2.66
-6 -5 -5 29.35 3.97
-6 -5 -6 9.67 2.4
-6 -5 -7 0.03 0.94
-6 -5 -8 33.94 4.69
-6 -5 -9 21.41 3.94
-6 -5 -10 -0.07 1.19
6 6 -7 27.4 5.35
6 6 -6 0.71 1.32
6 6 -5 1.03 1.37
6 6 -4 18.45 3.93
-6 -6 4 18.97 2.81
6 6 -3 4.67 1.99
-6 -6 3 4.05 1.07
6 6 -2 28.98 4.63
-6 -6 2 22.35 3.34
-6 -6 2 17.96 3.2
6 6 -1 2.18 1.08
-6 -6 1 3.47 1.48
-6 -6 1 0.52 0.43
6 6 0 4.09 1.72
-6 -6 0 5.41 2.01
-6 -6 0 6.29 2.01
-6 -6 -1 7.31 2.38
-6 -6 -1 4.12 1.71
-6 -6 -2 2.22 1.26
-6 -6 -2 2.27 1.41
-6 -6 -3 7.96 2.22
-6 -6 -3 16.31 3.7
-6 -6 -4 0.77 1.57
-6 -6 -4 1.71 1
-6 -6 -5 6.96 2.21
-6 -6 -6 29.99 4.34
-6 -6 -7 6.01 2.03
-6 -6 -8 28.4 4.47
-6 -6 -9 2.08 1.72
6 7 -7 2.06 1.4
6 7 -6 9.46 3.4
6 7 -5 14.47 3.73
6 7 -4 13.43 3.74
6 7 -3 37.87 5.88
6 7 -2 41.94 6.06
-6 -7 2 42.11 5.58
6 7 -1 74.77 7.84
-6 -7 1 74.14 6.11
-6 -7 1 69.38 6.96
6 7 0 18.53 3.87
-6 -7 0 23.26 3.64
-6 -7 0 19.61 3.73
-6 -7 -1 8.3 2.33
-6 -7 -1 10.96 2.89
-6 -7 -2 1.41 1.24
-6 -7 -2 -1.42 1.1
-6 -7 -3 1.79 1.28
-6 -7 -3 0.16 0.77
-6 -7 -4 2.62 1.23
-6 -7 -4 0.99 0.89
-6 -7 -5 86.28 7.74
-6 -7 -6 44.08 5.67
-6 -7 -7 6.08 2.18
-6 -7 -8 3.14 1.67
6 8 -6 0.63 1.3
6 8 -5 11.27 3.71
6 8 -4 4.83 2.62
6 8 -3 40.24 6.57
6 8 -2 6.25 2.33
-6 -8 2 12.64 3.4
6 8 -1 1.93 1.82
-6 -8 1 -0.02 1.32
6 8 0 20.14 4.33
-6 -8 0 22.82 4.44
-6 -8 -1 25.44 4.41
-6 -8 -2 6.41 2.2
-6 -8 -3 77.39 7.71
-6 -8 -3 64.82 7.2
-6 -8 -4 1.25 1
-6 -8 -4 -0.17 0.81
-6 -8 -5 68.87 7.95
-6 -8 -5 47.15 6.12
-6 -8 -6 11.62 3.2
6 9 -3 59.15 8.33
6 9 -2 -0.47 1.37
-6 -9 2 -4.02 2.08
6 9 -1 -0.19 1.83
-6 -9 1 -4.18 2.07
6 9 0 144.93 12.37
-6 -9 0 128.43 10.96
-6 -9 -1 3.57 2.1
-6 -9 -2 3.67 2.25
-6 -9 -3 29.14 5.13
-6 -9 -4 1.58 1.68
-7 8 3 -0.14 1.4
-7 8 2 37.21 5.09
-7 8 1 60.06 6.33
-7 8 0 1.8 1.27
-7 8 -1 30.96 4.57
-7 7 4 -2.18 1.38
-7 7 3 7.51 2.38
-7 7 2 62.07 6.58
-7 7 1 101.9 8.34
-7 7 0 2.41 1.29
-7 7 -1 -1.15 1.18
-7 7 -2 10.27 2.78
-7 7 -3 15.25 3.38
-7 7 -4 76.57 7.61
-7 7 -5 52.15 6.36
-7 6 5 59.36 6.8
-7 6 4 78.55 7.62
-7 6 3 345.01 15.57
-7 6 2 33.04 4.82
-7 6 1 1.76 1.03
-7 6 0 17.16 3.61
-7 6 -1 79.73 7.55
-7 6 -2 25.07 4.27
-7 6 -3 26.45 4.45
-7 6 -4 141.45 10.58
-7 6 -5 42.88 5.87
-7 6 -6 14.84 3.54
-7 6 -7 16.39 3.99
-7 5 6 52.6 6.5
-7 5 5 56.83 6.53
-7 5 4 34.96 5.03
-7 5 3 8.93 2.6
-7 5 2 0.73 0.94
-7 5 1 38.64 5.21
-7 5 0 87.59 7.92
-7 5 -1 35.63 5.06
-7 5 -2 4.64 1.86
-7 5 -3 0.08 1.19
-7 5 -4 50.48 5.01
-7 5 -4 40.75 5.9
-7 5 -5 40.69 4.86
-7 5 -5 27.46 4.86
-7 5 -6 3.23 1.27
-7 5 -6 5.11 2.25
-7 5 -7 8.62 2.64
-7 5 -7 12.66 3.76
-7 5 -8 0.9 0.94
-7 5 -8 3.83 2.25
-7 5 -9 11.65 3.57
-7 5 -9 7.87 3.35
-7 5 -10 12.89 3.65
-7 5 -10 8.8 3.48
-7 4 7 0.17 0.76
-7 4 6 13.62 3.32
-7 4 5 1.79 1.65
-7 4 4 4.75 2.1
-7 4 3 88.89 7.86
-7 4 2 158.13 10.5
-7 4 1 7.68 2.34
-7 4 0 14.4 3.27
-7 4 -1 35.44 5.14
-7 4 -2 0.94 0.6
-7 4 -2 2.4 1.37
-7 4 -3 84.19 8.21
-7 4 -3 90.79 5.36
-7 4 -4 235.83 14.08
-7 4 -4 232.35 9.81
-7 4 -5 364.7 17.88
-7 4 -5 407.93 14.11
-7 4 -6 85.24 8.88
-7 4 -6 101.05 7.5
-7 4 -7 27.13 4.18
-7 4 -7 19.86 4.41
-7 4 -8 24.18 4.24
-7 4 -8 27.69 5.42
-7 4 -9 15.81 3.52
-7 4 -9 21.58 4.89
-7 4 -10 21.96 4.64
-7 4 -10 19.82 4.62
-7 4 -11 -2.5 1.75
-7 4 -11 -0.02 1.34
-7 3 7 -1.26 1.11
-7 3 6 42.13 5.57
-7 3 5 49.35 5.93
-7 3 4 6.08 2.21
-7 3 3 12.84 2.95
-7 3 2 11.16 2.79
-7 3 1 3.47 1.58
-7 3 0 18.31 3.66
-7 3 -1 61.95 6.85
7 -3 2 0.82 0.41
-7 3 -2 2.77 1.64
-7 3 -3 197.04 12.67
-7 3 -3 201.29 6.95
7 -3 3 202.45 6.95
-7 3 -4 162.82 11.73
-7 3 -4 156.14 7.24
7 -3 4 158.82 6.94
-7 3 -5 46.3 4.29
-7 3 -5 47.61 6.59
-7 3 -6 60.38 7.53
-7 3 -6 48.73 4.91
-7 3 -7 59.44 5.76
-7 3 -7 47.16 6.86
-7 3 -8 46.94 5.49
-7 3 -8 45.7 6.94
-7 3 -9 7.73 2.43
-7 3 -9 6.29 2.59
-7 3 -10 0.47 0.87
-7 3 -10 0.16 1.12
-7 3 -11 46.15 7.57
-7 3 -11 46.18 6.55
-7 2 8 24.31 4.42
-7 2 7 6.08 2.17
-7 2 6 33.46 4.92
-7 2 5 72.84 7.11
-7 2 4 105.42 8.52
-7 2 3 26.78 4.24
-7 2 2 35.37 5.01
-7 2 1 0.48 0.71
-7 2 0 18.03 3.72
-7 2 -1 0.89 0.71
7 -2 2 36.53 2.34
-7 2 -2 36.9 5.41
-7 2 -3 14.96 1.7
7 -2 3 19.48 2.11
-7 2 -3 17.07 3.82
-7 2 -4 0.27 0.61
-7 2 -4 1.21 1.18
-7 2 -5 0.43 0.35
7 -2 5 1.69 1
-7 2 -5 0.23 0.94
-7 2 -6 0.83 0.53
-7 2 -6 -0.74 1.43
-7 2 -7 0.94 0.68
-7 2 -7 0.52 1.28
-7 2 -8 9.29 2.28
-7 2 -8 4.92 2.09
-7 2 -9 3.04 1.5
-7 2 -9 3.25 1.67
-7 2 -10 29.44 4.68
-7 2 -11 48.26 6.39
-7 2 -12 9.1 3.15
-7 1 8 -0.29 1.07
-7 1 7 4.84 2.14
-7 1 6 58.59 6.32
-7 1 5 18.22 3.61
-7 1 4 14.41 3.15
-7 1 3 8.47 2.33
-7 1 2 1.19 1.32
-7 1 1 1.13 0.87
-7 1 0 44.73 5.79
-7 1 -1 5.08 1.93
-7 1 -2 0.13 0.5
7 -1 2 0.04 0.21
-7 1 -3 29.29 2.2
7 -1 3 26.63 2.48
-7 1 -3 29.43 2.17
-7 1 -3 28.55 4.93
-7 1 -4 34.5 2.92
-7 1 -4 33.52 5.33
-7 1 -5 0.12 0.48
-7 1 -5 0.26 0.61
7 -1 5 -0.29 0.51
-7 1 -5 -0.69 1.43
-7 1 -6 9.37 2.01
-7 1 -6 10.31 2.03
-7 1 -6 12.27 3.43
-7 1 -7 0.48 0.6
-7 1 -7 0.87 0.63
-7 1 -7 0.06 1.05
-7 1 -8 21.53 4.92
-7 1 -8 16.38 3.07
-7 1 -8 8.26 2.26
-7 1 -9 19.25 3.46
-7 1 -9 21.62 3.85
-7 1 -10 10.19 2.65
-7 1 -10 9.27 2.64
-7 1 -11 89.59 8.6
-7 1 -11 95.9 8.78
-7 1 -12 35.83 5.7
-7 0 8 9.36 2.79
-7 0 7 93.72 8.1
-7 0 6 17.48 3.3
-7 0 5 98.58 8.13
-7 0 4 26.25 4.21
-7 0 3 86.79 7.78
-7 0 2 73.64 7.16
-7 0 1 67.99 6.98
-7 0 0 15.17 3.58
-7 0 -1 39.27 5.52
-7 0 -2 204.28 12.8
-7 0 -3 264.08 7.66
-7 0 -3 251.5 14.5
-7 0 -3 269.08 7.68
7 0 3 243.11 8.06
-7 0 -3 260.73 6.56
-7 0 -4 155.99 6.85
-7 0 -4 162.76 11.93
-7 0 -4 159.58 6.78
-7 0 -5 60.6 4.63
7 0 5 54.98 4.73
-7 0 -5 46.14 6.49
-7 0 -6 2.13 1.08
7 0 6 2.21 1.1
-7 0 -6 -0.85 1.48
-7 0 -7 52.82 7.32
-7 0 -7 53.89 5.05
-7 0 -8 115.95 7.91
-7 0 -9 25.76 4.03
-7 0 -10 29.06 4.7
-7 0 -11 7.19 2.26
-7 0 -12 4.1 2.13
-7 -1 9 14.97 3.54
-7 -1 8 67.55 7.06
-7 -1 7 31.28 4.62
-7 -1 6 5.25 1.85
-7 -1 5 7.76 2.22
-7 -1 4 51.41 5.81
-7 -1 3 20.02 3.66
-7 -1 2 5.44 2
-7 -1 1 1.75 1.4
-7 -1 0 53.11 6.32
-7 -1 -1 213.32 12.95
-7 -1 -1 214.49 4.86
-7 -1 -1 204.78 4.03
-7 -1 -2 855.66 26.29
-7 -1 -2 853.48 13.27
-7 -1 -2 859.95 12.18
-7 -1 -3 129.79 6.21
-7 -1 -3 122.03 10.12
-7 -1 -3 112.69 5.1
-7 -1 -4 4.51 1.33
-7 -1 -4 3.44 0.99
-7 -1 -4 3.75 1.85
-7 -1 -5 3.79 1.29
-7 -1 -5 5.37 1.4
7 1 5 5.72 1.66
-7 -1 -5 5.98 2.38
-7 -1 -6 113.76 7.47
-7 -1 -6 115.73 10.65
-7 -1 -6 111.66 6.67
-7 -1 -7 27.56 3.59
-7 -1 -8 110.21 7.65
-7 -1 -9 5.38 2.09
-7 -1 -10 26.29 4.19
-7 -1 -11 60.23 6.79
-7 -2 9 11.6 3.07
-7 -2 8 1.08 1.18
-7 -2 7 227.73 12.24
-7 -2 6 223.04 11.89
-7 -2 5 -0.71 0.85
-7 -2 4 -0.54 1.08
7 2 -3 1.98 0.75
-7 -2 3 0.79 1.19
-7 -2 2 51.51 5.91
-7 -2 2 43.63 1.79
-7 -2 2 51.08 1.92
-7 -2 1 25.76 1.61
-7 -2 1 22.38 3.99
-7 -2 1 26.04 1.94
-7 -2 0 4.93 0.97
-7 -2 0 5.46 0.88
-7 -2 0 5.34 2.16
-7 -2 -1 16.07 1.68
-7 -2 -1 17.65 2.09
-7 -2 -2 190.23 12.47
-7 -2 -2 205.51 8.13
-7 -2 -2 208.69 6.89
-7 -2 -3 78.39 5.5
-7 -2 -3 79.82 8.24
-7 -2 -3 72.64 4.45
-7 -2 -4 2.67 1.36
-7 -2 -4 4.76 1.27
-7 -2 -4 5.07 2.15
-7 -2 -5 54.46 5.28
-7 -2 -5 53.52 7.13
-7 -2 -5 50.58 4.36
7 2 5 53.23 5.21
-7 -2 -6 25.53 4.98
-7 -2 -6 27.97 3.45
-7 -2 -7 -0.4 0.6
-7 -2 -8 89.94 6.97
-7 -2 -9 2.15 1.21
-7 -2 -10 15.31 3.22
-7 -2 -11 59.25 6.73
-7 -3 9 1.06 0.98
-7 -3 8 51.9 6
-7 -3 7 5.84 2.11
-7 -3 6 10.28 2.73
-7 -3 5 74.7 6.8
-7 -3 4 150.22 9.68
7 3 -4 166.71 8.36
7 3 -3 181.2 8.22
-7 -3 3 185.83 10.91
-7 -3 3 176.96 6.52
7 3 -2 62.68 4.59
-7 -3 2 56.31 6.15
-7 -3 2 58.31 3.63
-7 -3 1 66.63 6.87
-7 -3 1 80.58 4.28
-7 -3 1 74.23 4.54
-7 -3 0 162.71 10.98
-7 -3 0 155.56 6.08
-7 -3 0 158.87 7.12
-7 -3 -1 48.74 4.23
-7 -3 -1 50.52 3.64
-7 -3 -1 42.55 5.83
-7 -3 -2 1.21 0.77
-7 -3 -2 2.45 1.02
-7 -3 -2 3.87 1.46
-7 -3 -3 0.79 0.87
-7 -3 -3 1.16 0.78
-7 -3 -3 -0.02 0.59
-7 -3 -4 95.26 7.19
-7 -3 -4 92.74 9.21
-7 -3 -4 102.72 6.15
-7 -3 -5 23.74 3.19
-7 -3 -5 27.1 5.13
-7 -3 -6 8.03 1.92
-7 -3 -7 28.91 3.93
-7 -3 -8 40.94 4.88
-7 -3 -9 3.88 1.57
-7 -3 -10 2.04 0.97
-7 -3 -11 25.52 4.43
-7 -4 8 1.11 0.99
-7 -4 7 5.9 2.08
-7 -4 6 32.66 4.44
-7 -4 5 0.75 0.77
7 4 -4 -1.22 0.89
-7 -4 4 -0.46 0.56
7 4 -3 2.3 1.21
-7 -4 3 0.34 0.6
-7 -4 3 2.23 1.18
7 4 -2 12.19 2.39
-7 -4 2 13.97 2.96
-7 -4 2 11.92 2.07
-7 -4 1 5.07 1.75
-7 -4 1 7.22 1.64
-7 -4 0 22.26 2.78
-7 -4 0 20.43 3.88
-7 -4 -1 26.79 3.63
-7 -4 -1 27.04 3.06
-7 -4 -1 23.53 4.34
-7 -4 -2 25.31 3.12
-7 -4 -2 22.06 4.29
-7 -4 -2 28.33 3.94
-7 -4 -3 102.23 9.47
-7 -4 -3 89.14 5.94
-7 -4 -4 11.08 2.16
-7 -4 -4 19.84 4.3
-7 -4 -5 0.87 1.36
-7 -4 -5 -0.28 0.97
-7 -4 -6 5.28 1.64
-7 -4 -7 0.54 0.76
-7 -4 -8 3.77 1.7
-7 -4 -9 2.07 1.65
-7 -4 -10 -0.98 0.71
-7 -5 6 -0.36 0.62
-7 -5 5 5.13 1.73
7 5 -4 4.93 1.72
-7 -5 4 3.26 1.56
7 5 -3 24.88 3.97
-7 -5 3 28.16 4.19
-7 -5 3 27.59 3.66
7 5 -2 55.6 5.75
-7 -5 2 62.58 6.32
-7 -5 2 55.97 5.15
7 5 -1 7.01 2.06
-7 -5 1 6.16 1.98
-7 -5 1 7.81 1.79
-7 -5 0 23.01 4.16
-7 -5 0 26.96 3.51
-7 -5 -1 27.69 4.65
-7 -5 -1 23.27 3.22
-7 -5 -2 -0.34 0.59
-7 -5 -2 0.61 0.67
-7 -5 -3 8.7 2.16
-7 -5 -3 7.86 2.78
-7 -5 -4 20.64 3.23
-7 -5 -4 14.42 3.68
-7 -5 -5 -0.36 0.77
-7 -5 -5 1.93 1.32
-7 -5 -6 13.91 2.82
-7 -5 -7 9.99 2.47
-7 -5 -8 5.05 2.01
-7 -5 -9 49.64 5.98
7 6 -3 52.03 6.23
-7 -6 3 56.9 5.68
-7 -6 3 55.62 5.74
7 6 -2 2.54 1.09
-7 -6 2 3.21 1.54
-7 -6 2 3.91 1.86
7 6 -1 10.92 2.82
-7 -6 1 22.9 4.02
-7 -6 1 17.68 3.26
-7 -6 0 11.96 3.02
-7 -6 0 13.19 2.89
-7 -6 -1 22.58 4.25
-7 -6 -1 20.5 3.31
-7 -6 -2 0.6 0.9
-7 -6 -2 0.89 0.97
-7 -6 -3 0.65 0.55
-7 -6 -3 0.11 0.78
-7 -6 -4 4.16 1.69
-7 -6 -4 2.81 1.99
-7 -6 -5 32.04 4.47
-7 -6 -5 18.05 4.32
-7 -6 -6 27 4.21
-7 -6 -7 3.39 1.46
-7 -6 -8 2.24 1.63
7 7 -3 65.29 7.58
7 7 -2 25.12 4.69
-7 -7 2 35.56 5.18
7 7 -1 46.06 6.04
-7 -7 1 45.36 5.72
-7 -7 0 53.64 6.11
-7 -7 0 44.47 5.44
-7 -7 -1 175.27 11.52
-7 -7 -1 165.71 10.54
-7 -7 -2 0.41 0.82
-7 -7 -2 0.31 1.04
-7 -7 -3 8.78 2.42
-7 -7 -3 14.6 3.78
-7 -7 -4 2.43 1.27
-7 -7 -4 1.04 1.22
-7 -7 -5 4.03 1.9
-7 -7 -5 2.74 2.22
-7 -7 -6 14.38 3.93
-7 -7 -6 11.34 3.09
-7 -7 -7 9 2.75
7 8 -2 0.23 0.95
-7 -8 2 4 1.9
7 8 -1 -0.4 1.49
-7 -8 1 2.21 0.99
-7 -8 0 0.34 1.38
-7 -8 -1 40.72 5.67
-7 -8 -2 3.15 1.89
-7 -8 -3 -1.06 1.66
-7 -8 -4 66.11 7.24
-7 -8 -5 87.74 9.62
-7 -8 -5 92.93 8.65
-7 -8 -6 19.7 4.93
-7 -9 0 1.53 1.39
-7 -9 -1 17.84 3.87
-7 -9 -2 9.31 2.97
-8 7 2 14.45 3.48
-8 7 1 1.74 1.32
-8 7 0 23.63 4.43
-8 7 -1 0.12 1
-8 7 -2 71.66 7.67
-8 7 -3 45.31 6.14
-8 7 -4 -0.56 1.86
-8 6 3 3.96 1.99
-8 6 2 19.91 4.29
-8 6 1 0.85 1.23
-8 6 0 19.98 4.12
-8 6 -1 11.22 3.04
-8 6 -2 1.15 1.33
-8 6 -3 -0.73 1.26
-8 6 -4 2.32 1.99
-8 6 -5 14.23 3.74
-8 6 -6 59.38 7.76
-8 6 -7 0.87 1.66
-8 5 4 42.96 5.87
-8 5 3 51.67 6.46
-8 5 2 -0.68 1.32
-8 5 1 0.97 1.52
-8 5 0 6.48 1.93
-8 5 -1 -0.34 0.89
-8 5 -2 1.54 1.55
-8 5 -3 10.85 3.27
-8 5 -4 1.39 0.87
-8 5 -5 9.39 2.9
-8 5 -6 6.27 3
-8 5 -7 184.16 14.05
-8 5 -8 -0.4 1.08
-8 4 4 65.35 7.23
-8 4 3 0.28 0.72
-8 4 2 92.65 8.74
-8 4 1 60.53 7.05
-8 4 0 46.7 6.22
-8 4 -1 -0.65 1.24
-8 4 -2 95.05 9.22
-8 4 -3 81.34 8.78
-8 4 -4 91.55 9.38
-8 4 -5 18.3 4.53
-8 4 -6 -0.08 1.23
-8 4 -7 13.5 3.95
-8 4 -8 18.82 4.64
-8 4 -9 10.05 3.73
-8 3 5 0.78 1.31
-8 3 4 31.75 5.22
-8 3 3 1.77 1.45
-8 3 2 1.72 1.54
-8 3 1 5.51 2.19
-8 3 0 5.78 2.25
-8 3 -1 14.27 3.65
-8 3 -2 1.64 1.35
-8 3 -3 4.81 2.15
-8 3 -4 4.1 1.91
-8 3 -5 9.38 3.25
-8 3 -6 2.72 1.96
-8 3 -7 15.68 4.21
-8 3 -8 23.37 5.4
-8 3 -9 5.27 2.72
-8 2 6 30.58 4.96
-8 2 5 85.12 8.19
-8 2 4 2.99 1.47
-8 2 3 142.62 10.78
-8 2 2 -0.5 1.07
-8 2 1 2.23 1.2
-8 2 0 88.79 8.77
-8 2 -1 35.03 5.59
-8 2 -2 8.17 2.78
-8 2 -3 178.75 13.06
-8 2 -4 47.85 6.93
-8 2 -5 223.95 15.26
-8 2 -6 126.58 11.76
-8 2 -7 20.78 4.97
-8 2 -8 -2.98 2.01
-8 2 -9 -0.3 2
-8 1 6 19.57 3.92
-8 1 5 104.59 9.02
-8 1 4 334.95 16.36
-8 1 3 426.05 18.49
-8 1 2 2.48 1.94
-8 1 1 16.93 3.77
-8 1 0 16.63 3.86
-8 1 -1 0.07 0.8
-8 1 -2 310.49 16.92
-8 1 -3 128.17 11.12
-8 1 -4 190.09 13.79
-8 1 -5 0.54 1.11
-8 1 -6 2.88 1.8
-8 1 -7 30.7 6.06
-8 1 -8 20.22 3.61
-8 1 -8 21.58 5.23
-8 1 -9 16.26 3.47
-8 1 -9 17.07 4.99
-8 1 -10 66.52 7.15
-8 1 -11 0.49 1
-8 0 7 31.41 5.02
-8 0 6 8.67 2.57
-8 0 5 43.93 5.83
-8 0 4 22.94 4.31
-8 0 3 63.07 7.15
-8 0 2 25.87 4.68
-8 0 1 14.78 3.57
-8 0 0 9.88 3.12
-8 0 -1 203.61 13.59
-8 0 -2 97.9 9.49
-8 0 -3 189.6 13.65
-8 0 -4 60.16 7.92
-8 0 -4 67.98 4.46
-8 0 -5 2.03 0.96
-8 0 -5 1.25 0.44
-8 0 -5 1.26 2.24
-8 0 -6 4.06 1.3
-8 0 -6 4.48 1.22
-8 0 -6 0.76 0.98
-8 0 -7 71.15 5.68
-8 0 -7 71.35 9.13
-8 0 -7 66.97 5.77
-8 0 -8 0.52 0.79
-8 0 -8 0.13 0.86
-8 0 -8 1.19 0.8
-8 0 -9 1.16 1.92
-8 0 -9 0.07 1
-8 0 -9 2.19 1.36
-8 0 -10 66.71 6.83
-8 0 -10 71.46 7.21
-8 0 -11 -5.68 2.21
-8 -1 7 0.81 1.01
-8 -1 6 10.7 2.89
-8 -1 5 6.56 2.2
-8 -1 4 30.2 4.81
-8 -1 3 137.6 10.46
-8 -1 2 1.02 1.51
-8 -1 1 29.56 5
-8 -1 0 23.44 4.6
-8 -1 -1 47.49 6.61
-8 -1 -2 56.86 7.34
-8 -1 -3 135.99 11.5
-8 -1 -3 131.24 5.44
-8 -1 -4 1.32 0.75
-8 -1 -4 0.62 1.27
-8 -1 -5 121.13 11.49
-8 -1 -5 146.29 7.28
-8 -1 -6 29.47 3.55
-8 -1 -6 24.17 5.35
-8 -1 -7 81.75 9.82
-8 -1 -7 86.5 6.54
-8 -1 -8 11.63 2.69
-8 -1 -8 12.89 3.86
-8 -1 -9 46.28 5.46
-8 -1 -10 2.49 2.1
-8 -1 -11 15.54 3.58
-8 -2 7 25.75 4.41
-8 -2 6 1.29 0.62
-8 -2 5 3.13 1.42
-8 -2 4 8.34 2.67
-8 -2 3 2.24 1.82
-8 -2 2 1.96 1.11
-8 -2 1 21.83 4.19
-8 -2 0 1.68 0.63
-8 -2 -1 9.32 2.78
-8 -2 -2 40.34 2.87
-8 -2 -2 40.74 6.25
-8 -2 -3 63 7.9
-8 -2 -3 63.27 4.1
-8 -2 -4 43.13 3.72
-8 -2 -4 45.81 7.01
-8 -2 -5 29.76 3.36
-8 -2 -5 24.64 4.97
-8 -2 -6 4.18 1.43
-8 -2 -6 5.8 2.79
-8 -2 -7 30.95 3.91
-8 -2 -7 26.61 5.71
-8 -2 -8 0.62 0.67
-8 -2 -8 0.43 0.86
-8 -2 -9 0.01 0.83
-8 -2 -10 39.09 5.32
-8 -3 7 39.7 5.45
-8 -3 6 16.37 3.56
-8 -3 5 0.56 0.85
-8 -3 4 58.84 6.58
-8 -3 3 8.04 2.47
-8 -3 2 1.45 1.42
-8 -3 1 6.69 2.44
-8 -3 0 79.86 8.27
-8 -3 -1 2.01 1.58
-8 -3 -2 0.89 0.57
-8 -3 -2 1.13 1.56
-8 -3 -3 0.62 0.61
-8 -3 -3 0.18 1.23
-8 -3 -4 28.8 3.22
-8 -3 -4 34.73 6.14
-8 -3 -5 2.56 1.21
-8 -3 -5 3.93 2.24
-8 -3 -6 -0.07 0.7
-8 -3 -6 -0.77 2.04
-8 -3 -7 -0.55 0.65
-8 -3 -7 -1.39 2.09
-8 -3 -8 10.18 3.32
-8 -3 -8 11.69 2.82
-8 -3 -9 0.98 1.12
-8 -3 -10 54.52 6.26
-8 -4 7 54.78 6.26
-8 -4 6 11.08 2.79
-8 -4 5 0.01 1.02
-8 -4 4 11.43 2.93
-8 -4 3 5.83 2.26
-8 -4 2 48.11 6.14
-8 -4 1 0.96 1.03
-8 -4 0 0.25 0.72
-8 -4 -1 6.05 2.38
-8 -4 -2 78.96 8.87
-8 -4 -2 91.65 5.68
-8 -4 -3 151.28 12.52
-8 -4 -3 158.28 7.81
-8 -4 -4 472.59 22.56
-8 -4 -4 447.82 13.88
-8 -4 -5 198.06 14.88
-8 -4 -5 222.81 10.32
-8 -4 -6 8.69 2.38
-8 -4 -6 3.58 1.39
-8 -4 -7 6.42 2.01
-8 -4 -7 5.95 2.32
-8 -4 -8 9.32 2.6
-8 -4 -9 7.97 2.26
-8 -5 5 -0.42 1.14
-8 -5 4 5.2 2.16
-8 -5 3 41.15 5.41
-8 -5 2 41.65 5.59
-8 -5 1 20.55 4.09
-8 -5 0 10.59 2.85
-8 -5 -1 16.93 4.04
-8 -5 -2 71.48 8.32
-8 -5 -2 66.21 5.43
-8 -5 -3 75.94 5.96
-8 -5 -3 60.4 7.79
-8 -5 -4 211.95 15.23
-8 -5 -4 232.11 10.75
-8 -5 -5 2.35 1.07
-8 -5 -5 2.09 1.83
-8 -5 -6 1.79 1.11
-8 -5 -6 2.89 2.25
-8 -5 -7 10.94 2.74
-8 -5 -7 12.09 3.93
-8 -5 -8 0.53 1.3
-8 -5 -9 192.41 12.02
-8 -6 2 39.77 5.37
-8 -6 1 28.72 4.63
-8 -6 0 9.21 2.64
-8 -6 -1 -0.73 1.54
-8 -6 -2 3.85 1.59
-8 -6 -2 3.19 1.23
-8 -6 -3 24.05 3.69
-8 -6 -3 21.66 4.83
-8 -6 -4 0.34 1.05
-8 -6 -4 0.3 1.21
-8 -6 -5 11.4 2.61
-8 -6 -5 10.22 3.29
-8 -6 -6 4.83 1.99
-8 -6 -6 3.02 1.72
-8 -6 -7 45.05 5.63
-8 -6 -8 37.18 5.47
-8 -7 -2 11.71 3.65
-8 -7 -3 28.64 4.37
-8 -7 -3 18.99 4.49
-8 -7 -4 24.19 4.27
-8 -7 -4 22.43 5.08
-8 -7 -5 1.03 1.01
-8 -7 -5 -0.63 1.82
-8 -7 -6 8.49 2.46
-9 5 -1 2.42 1.55
-9 5 -2 -0.18 0.65
-9 5 -3 6.82 2.81
-9 5 -4 2.45 2.34
-9 4 1 11.57 3.39
-9 4 0 43.73 6.5
-9 4 -1 23.39 4.91
-9 4 -2 47.52 6.97
-9 4 -3 5.88 2.58
-9 4 -4 62.35 8.36
-9 4 -5 162.8 13.6
-9 3 2 90.14 9.17
-9 3 1 9.18 3.11
-9 3 0 26.07 5.1
-9 3 -1 8.38 3.02
-9 3 -2 52.57 7.46
-9 3 -3 64.8 8.44
-9 3 -4 -0.24 1.56
-9 3 -5 348.16 20.19
-9 3 -6 113.09 11.77
-9 2 3 1.35 0.76
-9 2 2 6.58 2.81
-9 2 1 39.05 6.13
-9 2 0 6.59 2.82
-9 2 -1 18.04 4.37
-9 2 -2 -0.39 1.06
-9 2 -3 16.86 4.3
-9 2 -4 266.39 17.45
-9 2 -5 25.56 5.64
-9 2 -6 138.22 13.02
-9 1 3 17.01 4.01
-9 1 2 79.83 8.7
-9 1 1 44 6.5
-9 1 0 14.73 3.81
-9 1 -1 14.68 3.61
-9 1 -2 44.93 6.95
-9 1 -3 13.73 4.01
-9 1 -4 171.31 14.1
-9 1 -5 3.52 1.99
-9 1 -6 1.99 2.13
-9 0 4 42.65 6.36
-9 0 3 7.07 2.85
-9 0 2 13.01 3.6
-9 0 1 0.77 0.6
-9 0 0 3.81 2.05
-9 0 -1 7.18 3.11
-9 0 -2 8.4 3.06
-9 0 -3 54.11 7.74
-9 0 -4 23.23 5.33
-9 0 -5 4.76 2.7
-9 0 -6 0.3 1.45
-9 -1 4 16.32 3.76
-9 -1 3 13.26 3.52
-9 -1 2 48.45 6.7
-9 -1 1 11.48 3.51
-9 -1 0 24.13 4.99
-9 -1 -1 1.57 1.18
-9 -1 -2 48.57 7.27
-9 -1 -3 9.1 3.19
-9 -1 -4 8.22 3.46
-9 -1 -5 13.22 4.19
-9 -1 -6 20 5.15
-9 -2 4 2.08 1.08
-9 -2 3 2.74 1.37
-9 -2 2 -0.73 1.04
-9 -2 1 1.58 1.5
-9 -2 0 9.48 3.15
-9 -2 -1 5.04 2.41
-9 -2 -2 10.76 3.54
-9 -2 -3 20.92 4.75
-9 -2 -4 29.3 5.94
-9 -2 -5 33.12 6.49
-9 -2 -6 17.74 4.8
-9 -3 5 30.21 5.08
-9 -3 4 43.01 6.02
-9 -3 3 -0.82 1.05
-9 -3 2 33.64 5.51
-9 -3 1 8.03 2.81
-9 -3 0 74.27 8.63
-9 -3 -1 11.74 3.72
-9 -3 -2 -0.62 1.23
-9 -3 -3 35.73 6.47
-9 -3 -4 2.37 1.31
-9 -3 -5 5.83 2.73
-9 -4 5 24.4 4.49
-9 -4 4 7.58 2.73
-9 -4 3 -1.12 2.38
-9 -4 2 180.83 12.71
-9 -4 1 93.07 9.43
-9 -4 0 4.52 2.41
-9 -4 -1 4.27 1.31
-9 -4 -2 16.05 4.05
-9 -4 -3 0.29 1.27
-9 -4 -4 33.86 6.32
-9 -4 -5 -1.25 1.54
-9 -5 3 82.81 8.27
-9 -5 2 43.21 6.19
-9 -5 1 53.22 6.94
-9 -5 0 29.94 5.47
-9 -5 -1 0.27 0.89
-9 -5 -2 0.31 1.72
-9 -5 -3 81.06 9.67
-9 -5 -4 -0.27 1
-9 -6 0 3.94 2.11
-9 -6 -1 -0.01 1.65
-9 -6 -2 4.47 1.2
-9 -6 -3 37.55 6.78
