#------------------------------------------------------------------------------
#$Date: 2019-11-22 17:58:56 +0200 (Fri, 22 Nov 2019) $
#$Revision: 231207 $
#$URL: file:///home/coder/svn-repositories/cod/cif/1/55/29/1552956.cif $
#------------------------------------------------------------------------------
#
# This file is available in the Crystallography Open Database (COD),
# http://www.crystallography.net/
#
# All data on this site have been placed in the public domain by the
# contributors.
#
data_1552956
loop_
_publ_author_name
'Ponce, Aldo'
'Brostoff, Lynn B.'
'Gibbons, Sarah K.'
'Zavalij, Peter'
'Viragh, Carol'
'Hooper, Joseph'
'Alnemrat, Sufian'
'Gaskell, Karen J.'
'Eichhorn, Bryan'
_publ_section_title
;
 Elucidation of the Fe(III) Gallate Structure in Historical Iron Gall Ink.
;
_journal_issue                   10
_journal_name_full               'Analytical chemistry'
_journal_page_first              5152
_journal_page_last               5158
_journal_paper_doi               10.1021/acs.analchem.6b00088
_journal_volume                  88
_journal_year                    2016
_chemical_absolute_configuration ad
_chemical_formula_moiety         'C7 H3 Fe O5, 3.2(H2 O)'
_chemical_formula_sum            'C7 H9.37 Fe O8.18'
_chemical_formula_weight         280.29
_chemical_name_common            'Iron gallate hydrate'
_chemical_name_systematic        'Iron gallate tri-hydrate'
_space_group_crystal_system      trigonal
_space_group_IT_number           152
_space_group_name_Hall           'P 31 2"'
_space_group_name_H-M_alt        'P 31 2 1'
_symmetry_cell_setting           trigonal
_symmetry_space_group_name_H-M   'P 31 2 1'
_atom_sites_solution_hydrogens   difmap
_atom_sites_solution_primary     direct
_atom_sites_solution_secondary   difmap
_audit_creation_method           'SHELXL-2014 & ZCIF'
_cell_angle_alpha                90
_cell_angle_beta                 90
_cell_angle_gamma                120
_cell_formula_units_Z            3
_cell_length_a                   8.7445(16)
_cell_length_b                   8.7445(16)
_cell_length_c                   10.935(2)
_cell_measurement_reflns_used    2322
_cell_measurement_temperature    150(2)
_cell_measurement_theta_max      24.8
_cell_measurement_theta_min      2.7
_cell_volume                     724.1(2)
_computing_cell_refinement       Apex2
_computing_data_collection       'Apex2 (Bruker, 2010)'
_computing_data_reduction        'Apex2, Saint'
_computing_molecular_graphics    'XSHEL (Bruker, 2004)'
_computing_publication_material  'Apex2, SHELXL-2014, Platon (Spek, 1990)'
_computing_structure_refinement  'ShelXL-2014 (Sheldrick, 2014)'
_computing_structure_solution    'ShelXS-97 (Sheldrick, 2008)'
_diffrn_ambient_temperature      150(2)
_diffrn_detector                 'CCD area detector'
_diffrn_detector_area_resol_mean 8.333
_diffrn_measured_fraction_theta_full 1.000
_diffrn_measured_fraction_theta_max 1.000
_diffrn_measurement_device_type  'Bruker Smart Apex II CCD'
_diffrn_measurement_method       '\f and \w scans'
_diffrn_measurement_specimen_support 'MiTeGen loop'
_diffrn_orient_matrix_type       standard
_diffrn_orient_matrix_UB_11      -0.0603155
_diffrn_orient_matrix_UB_12      -0.0084796
_diffrn_orient_matrix_UB_13      -0.0794817
_diffrn_orient_matrix_UB_21      -0.0575698
_diffrn_orient_matrix_UB_22      -0.1316162
_diffrn_orient_matrix_UB_23      0.0029853
_diffrn_orient_matrix_UB_31      -0.1024368
_diffrn_orient_matrix_UB_32      -0.0061978
_diffrn_orient_matrix_UB_33      0.0451258
_diffrn_radiation_monochromator  graphite
_diffrn_radiation_type           MoK\a
_diffrn_radiation_wavelength     0.71073
_diffrn_reflns_av_R_equivalents  0.0611
_diffrn_reflns_av_unetI/netI     0.0352
_diffrn_reflns_Laue_measured_fraction_full 1.000
_diffrn_reflns_Laue_measured_fraction_max 1.000
_diffrn_reflns_limit_h_max       12
_diffrn_reflns_limit_h_min       -12
_diffrn_reflns_limit_k_max       12
_diffrn_reflns_limit_k_min       -12
_diffrn_reflns_limit_l_max       15
_diffrn_reflns_limit_l_min       -15
_diffrn_reflns_number            12499
_diffrn_reflns_point_group_measured_fraction_full 1.000
_diffrn_reflns_point_group_measured_fraction_max 1.000
_diffrn_reflns_theta_full        25.000
_diffrn_reflns_theta_max         29.968
_diffrn_reflns_theta_min         2.690
_diffrn_source                   'sealed tube'
_exptl_absorpt_coefficient_mu    1.592
_exptl_absorpt_correction_T_max  0.976
_exptl_absorpt_correction_T_min  0.868
_exptl_absorpt_correction_type   multi-scan
_exptl_absorpt_process_details   'SADABS (Sheldrick, 2008)'
_exptl_crystal_colour            black
_exptl_crystal_density_diffrn    1.928
_exptl_crystal_density_method    'not measured'
_exptl_crystal_description       needle
_exptl_crystal_F_000             428
_exptl_crystal_size_max          0.16
_exptl_crystal_size_mid          0.02
_exptl_crystal_size_min          0.015
_refine_diff_density_max         0.380
_refine_diff_density_min         -0.369
_refine_diff_density_rms         0.070
_refine_ls_abs_structure_details
;
 Refined as an inversion twin.
;
_refine_ls_abs_structure_Flack   0.00(4)
_refine_ls_extinction_method     none
_refine_ls_goodness_of_fit_ref   1.000
_refine_ls_hydrogen_treatment    refall
_refine_ls_matrix_type           full
_refine_ls_number_parameters     110
_refine_ls_number_reflns         1415
_refine_ls_number_restraints     14
_refine_ls_restrained_S_all      1.005
_refine_ls_R_factor_all          0.0430
_refine_ls_R_factor_gt           0.0341
_refine_ls_shift/su_max          0.000
_refine_ls_shift/su_mean         0.000
_refine_ls_structure_factor_coef Fsqd
_refine_ls_weighting_details
'w=1/[\s^2^(Fo^2^)+(0.0100P)^2^+0.9520P] where P=(Fo^2^+2Fc^2^)/3'
_refine_ls_weighting_scheme      calc
_refine_ls_wR_factor_gt          0.0587
_refine_ls_wR_factor_ref         0.0621
_reflns_Friedel_coverage         0.701
_reflns_Friedel_fraction_full    1.000
_reflns_Friedel_fraction_max     1.000
_reflns_number_gt                1262
_reflns_number_total             1415
_reflns_threshold_expression     'I > 2\s(I)'
_cod_data_source_file            ac6b00088_si_002.cif
_cod_data_source_block           2352
_cod_depositor_comments
;
The following automatic conversions were performed:

data item '_symmetry_cell_setting' value 'Trigonal' was changed to
'trigonal' in accordance with the
/home/saulius/struct/COD-crude-data/automatic-downloads/DataCite-retrospective/ACS/depositions/lib/dictionaries/cif_core.dic
dictionary named 'cif_core.dic' version 2.4.2 last updated on
2011-04-26.

Automatic conversion script
Id: cif_fix_values 6909 2019-04-08 15:41:33Z antanas 
;
_cod_original_cell_volume        724.2(3)
_cod_database_code               1552956
_shelx_shelxl_version_number     2014/7
_shelx_space_group_comment
;
The symmetry employed for this shelxl refinement is uniquely defined
by the following loop, which should always be used as a source of
symmetry information in preference to the above space-group names.
They are only intended as comments.
;
_shelx_estimated_absorpt_t_min   0.785
_shelx_estimated_absorpt_t_max   0.977
_shelx_res_file
;

    as.res created by SHELXL-2014/7


TITL as in P3(1)21
CELL 0.71073   8.7445   8.7445  10.9354  90.000  90.000 120.000
ZERR    3.00   0.0016   0.0016   0.0020   0.000   0.000   0.000
LATT -1
SYMM -Y, X-Y, 0.33333+Z
SYMM -X+Y, -X, 0.66667+Z
SYMM Y, X, -Z
SYMM X-Y, -Y, 0.66667-Z
SYMM -X, -X+Y, 0.33333-Z
SFAC C  H  O  Fe
UNIT 21 28.1 24.55 3
rem
rem H = 9 + (#(o)-15)*2
rem
rem Fe(C7H3O5)*3.2(2)H2O
rem
OMIT   -2  60
L.S. 11
ACTA 50
BOND $H
CONF
HTAB
HTAB O2 O1W
HTAB O2 O3W
HTAB O2 O4W
HTAB O2 O7W
MPLA 5 C1 C2 C3 C4 C5 O1 O2 O5
MPLA 3 C4 > O5
FMAP 2
PLAN 10
SIZE 0.015 0.020 0.160
twin
rem DAMP 200
TEMP -123.150
WGHT    0.010000    0.952000
BASF  -0.00422
FVAR       0.31148   0.07649
MOLE 1
FE1   4    0.953632    1.000000    0.333333    10.50000    0.01945    0.01371 =
         0.01519    0.00222    0.00111    0.00685
O1    3    0.889035    0.889035    0.500000    10.50000    0.01618    0.01618 =
         0.01698    0.00149   -0.00149    0.00050
C1    1    0.734357    0.734357    0.500000    10.50000    0.01609    0.01609 =
         0.02153    0.00218   -0.00218   -0.00213
C2    1    0.630124    0.684520    0.395564    11.00000    0.02483    0.02555 =
         0.02115    0.00472   -0.00439    0.00406
O2    3    0.694934    0.803005    0.302037    11.00000    0.03084    0.03010 =
         0.02067    0.00948   -0.00816   -0.00146
H2    2    0.645001    0.768711    0.247224    10.50000    0.05972
C3    1    0.471840    0.525262    0.394609    11.00000    0.02591    0.02463 =
         0.02413    0.00452   -0.00959   -0.00196
rem AFIX  43
H3    2    0.399924    0.488105    0.329142    11.00000    0.07877
rem AFIX   0
C4    1    0.421135    0.421135    0.500000    10.50000    0.02184    0.02184 =
         0.02599    0.00242   -0.00242   -0.00357
C5    1    0.251680    0.251680    0.500000    10.50000    0.01914    0.01914 =
         0.02804    0.00198   -0.00198    0.00325
O5    3    0.200126    0.167755    0.399867    11.00000    0.02205    0.02631 =
         0.02546   -0.00413    0.00273    0.00041
MOLE 0
part 1
rem ANIS
rem ISOR .01 O1w > LAST
SIMU .01 O1w > LAST
O1W   3    0.537222    0.699433    0.095006     0.50183    0.06156
O2W   3    0.433514    0.845530    0.236244     0.30814    0.09338
part 2
O3W   3    0.451200    0.730647    0.140602     0.17482    0.07241
part 3
O4W   3    0.539263    0.789528    0.098755     0.17680    0.06912
part 4
O5W   3    0.467597    0.676200    0.005454     0.14194    0.07752
part -4
O6W   3    0.549802    0.499411   -0.058059     0.19275    0.10785
part 5
O7W   3    0.569106    0.577380    0.120532     0.07048    0.07565
part 3
O8W   3    0.639031    0.639031    0.000000     0.02458    0.07982
PART 0
HKLF 4

REM  as in P3(1)21
REM R1 =  0.0341 for    1262 Fo > 4sig(Fo)  and  0.0430 for all    1415 data
REM    110 parameters refined using     14 restraints

END

WGHT      0.0213      0.4471

REM Instructions for potential hydrogen bonds
HTAB O2 O1W
HTAB O2 O3W
HTAB O2 O4W
HTAB O2 O7W
HTAB C3 O7W

REM Highest difference peak  0.380,  deepest hole -0.369,  1-sigma level  0.070
Q1    1   0.4627  0.4627  0.0000  10.50000  0.05    0.38
Q2    1   0.4543  0.5105  0.4636  11.00000  0.05    0.25
Q3    1   0.9405  1.0123  0.4231  11.00000  0.05    0.25
Q4    1   0.6428  0.7951  0.0376  11.00000  0.05    0.25
Q5    1   0.2939  0.1717  0.3475  11.00000  0.05    0.24
Q6    1   0.0849  0.1464  0.3982  11.00000  0.05    0.24
Q7    1   0.5379  0.6370  0.0753  11.00000  0.05    0.24
Q8    1   0.4982  0.9397  0.2551  11.00000  0.05    0.23
Q9    1   0.9940  0.9940  0.5000  10.50000  0.05    0.23
Q10   1   0.4734  0.7400  0.0226  11.00000  0.05    0.23
;
_shelx_res_checksum              49760
_shelx_hkl_file
;
   0   1   0  965.71   15.68
   0   1   0  983.70   15.65
   0   1   0  928.93   15.68
   1  -1   0  976.03   15.63
   1   0   0  983.39   15.83
  -1   0   0  977.97   15.23
  -1   1   0  984.14   15.99
  -1   1   0  984.06   15.69
  -1   1   0  991.56   15.34
  -1   1   0  988.07   15.26
   0  -1   0  998.15   16.03
   0  -1   0  970.70   15.60
  -1   0   0  977.37   15.94
  -1   0   0  966.75   15.20
  -1   0   0 1000.00   15.55
  -2   1   0  170.64    4.18
  -2   1   0  171.10    4.18
  -2   1   0  173.38    3.28
  -2   1   0  172.44    3.39
   1  -2   0  175.58    4.23
   1  -2   0  170.06    3.85
   1   1   0  181.18    3.90
   1   1   0  171.85    4.02
  -2   1   0  170.87    3.22
  -1  -1   0  143.20    3.48
  -1   2   0  146.52    3.71
  -1  -1   0  151.97    3.72
  -1  -1   0  147.82    3.69
  -1   2   0  147.58    3.31
  -1   2   0  152.60    3.73
  -2   2   0  521.38    9.16
  -2   2   0  518.67    9.28
   0   2   0  546.59    9.69
  -2   0   0  525.64   10.12
  -2   0   0  534.01    9.15
  -2   0   0  545.94    9.17
  -2   2   0  538.07   10.17
  -2   2   0  541.71    9.73
   0   2   0  548.71    9.66
   0  -2   0  533.71    9.79
   0   2   0  529.41   10.00
   2  -2   0  541.81    9.59
   2   0   0  552.46    9.93
   0  -2   0  541.53   10.28
  -2   0   0  552.71    9.40
   2   1   0   90.48    2.97
   1  -3   0   91.12    3.13
  -3   1   0   86.25    3.38
  -3   2   0   88.55    2.38
  -3   1   0   91.87    2.41
  -3   2   0   88.14    2.45
   1   2   0   88.13    2.93
   1   2   0   88.94    3.31
  -3   2   0   87.36    3.38
  -3   2   0   94.56    3.38
  -3   1   0   89.35    2.39
   1  -3   0   95.30    3.55
   2  -3   0   88.31    3.25
  -3   1   0   92.92    2.36
  -2   3   0   93.90    2.89
  -1  -2   0   98.10    3.57
   3  -1   0   99.43    3.60
  -2  -1   0   96.72    3.19
  -2  -1   0   94.53    3.57
   3  -2   0  105.43    2.70
  -1  -2   0   90.22    3.18
  -1  -2   0   97.96    3.36
  -1   3   0   94.09    3.50
  -2   3   0   92.54    3.19
  -1   3   0  103.78    3.34
  -2  -1   0   90.26    2.99
  -2   3   0   97.32    3.52
  -1   3   0   97.58    2.91
   3  -3   0  122.19    3.61
   0   3   0  123.32    3.76
   0   3   0  122.59    4.20
  -3   3   0  125.77    3.82
  -3   3   0  126.54    3.37
  -3   3   0  125.47    3.44
   0  -3   0  121.61    4.30
   0  -3   0  119.51    4.09
  -3   3   0  123.03    4.20
  -3   0   0  123.58    3.35
   3   0   0  120.80    3.90
   0   3   0  122.04    3.74
  -3   0   0  119.58    4.17
  -3   0   0  120.93    3.33
  -3   0   0  121.41    3.33
  -4   2   0  169.96    3.81
   2   2   0  169.79    4.57
  -4   2   0  157.61    5.08
  -4   2   0  170.44    5.23
  -4   2   0  169.56    3.88
   2  -4   0  170.19    4.67
   2  -4   0  166.14    5.28
  -4   2   0  167.99    3.83
  -2  -2   0  174.21    5.01
   4  -2   0  171.37    5.29
  -2   4   0  177.78    4.51
  -2   4   0  178.89    5.17
  -2  -2   0  178.16    5.22
  -2   4   0  173.08    5.16
  -2  -2   0  169.03    5.21
   3   1   0  180.29    5.02
   1   3   0  185.59    4.91
   3  -4   0  177.77    5.17
   1  -4   0  185.92    5.31
  -4   3   0  191.08    4.30
  -4   3   0  180.64    4.39
  -4   1   0  189.17    4.25
  -4   1   0  190.46    5.71
   1   3   0  184.10    5.10
   1   3   0  188.73    5.47
  -4   1   0  188.89    4.22
  -4   3   0  183.24    5.65
   1  -4   0  171.40    5.68
  -4   1   0  181.39    4.27
  -4   3   0  180.51    5.30
  -1   4   0  195.51    5.00
  -3  -1   0  197.79    5.08
   4  -3   0  201.38    4.79
   4  -1   0  191.13    5.68
  -1   4   0  202.14    5.83
  -3   4   0  204.52    5.17
  -3  -1   0  204.67    5.24
  -3  -1   0  207.28    6.02
  -3   4   0  192.95    5.82
  -1  -3   0  200.96    6.01
  -1  -3   0  202.36    5.71
  -1   4   0  195.87    5.48
  -3   4   0  204.48    5.35
  -3  -1   0  211.92    5.26
  -4   4   0  228.17    6.84
   0  -4   0  246.18    6.62
   0  -4   0  231.11    6.90
   0   4   0  219.72    6.57
   0   4   0  241.41    6.08
  -4   0   0  228.82    5.54
  -4   0   0  238.69    5.55
   4   0   0  236.46    6.37
  -4   4   0  237.57    6.12
  -4   4   0  226.33    5.67
  -4   0   0  235.76    6.77
   0   4   0  236.21    6.05
  -4   4   0  237.09    5.63
  -4   0   0  246.68    5.65
   4  -4   0  228.90    5.86
   2  -5   0   27.22    2.92
  -5   2   0   31.60    3.00
   2   3   0   35.23    2.82
   3  -5   0   27.20    2.69
  -5   2   0   33.75    1.67
   3   2   0   31.63    2.57
  -5   3   0   28.19    2.95
  -5   3   0   30.36    1.87
  -5   3   0   29.40    1.79
  -5   2   0   28.32    1.76
   2  -5   0   31.91    2.61
   2   3   0   33.08    2.33
  -5   2   0   27.16    1.71
  -5   3   0   34.75    3.03
  -2   5   0   25.49    2.15
  -2   5   0   27.91    2.70
  -3   5   0   29.75    2.10
  -3   5   0   27.57    2.59
  -2  -3   0   28.01    2.70
  -3   5   0   26.20    2.73
   5  -2   0   29.77    2.99
   5  -3   0   31.82    1.85
  -3  -2   0   27.19    2.51
  -2  -3   0   26.06    2.58
  -3  -2   0   29.70    2.53
  -2   5   0   32.92    2.84
  -2  -3   0   24.11    2.68
  -3  -2   0   25.79    2.66
   1   4   0   44.17    2.69
   1  -5   0   38.47    3.43
   1  -5   0   39.14    3.14
  -5   4   0   37.22    2.27
  -5   1   0   40.75    3.04
  -5   4   0   37.80    2.19
  -5   4   0   39.75    2.83
   4   1   0   38.97    2.70
  -5   1   0   38.87    1.99
  -5   4   0   35.96    3.27
  -5   1   0   36.79    2.17
  -5   1   0   39.86    2.16
   4  -5   0   39.99    2.86
   1   4   0   40.08    3.24
   1   4   0   40.25    2.72
  -4  -1   0   44.76    2.61
  -4  -1   0   33.90    2.40
   5  -1   0   40.68    2.99
   5  -4   0   35.06    2.13
  -1  -4   0   39.47    2.87
  -1   5   0   37.83    2.41
  -4   5   0   42.30    3.12
  -4  -1   0   38.62    2.52
  -1   5   0   37.22    3.17
  -4   5   0   35.02    2.33
  -1   5   0   36.20    2.67
  -4  -1   0   39.68    3.01
  -4   5   0   34.03    2.48
  -1  -4   0   39.21    3.47
  -5   0   0   37.20    2.38
  -5   5   0   32.77    3.30
  -5   5   0   35.35    2.63
  -5   0   0   36.44    2.28
  -5   0   0   40.46    2.47
  -5   5   0   41.61    2.54
   0   5   0   42.33    3.15
   0  -5   0   42.44    3.49
   5  -5   0   40.22    2.71
   0   5   0   37.01    2.77
   0   5   0   37.81    2.70
  -5   5   0   35.18    2.58
   0  -5   0   39.70    3.76
   5   0   0   40.56    3.35
  -5   0   0   41.26    3.59
   3  -6   0   16.98    2.71
  -6   3   0   14.99    1.63
   3   3   0   15.28    2.05
  -6   3   0   15.59    1.69
   3  -6   0   17.62    2.16
  -6   3   0   14.86    2.39
   6  -3   0   10.39    2.37
  -3  -3   0   10.42    2.09
  -3  -3   0   12.48    2.14
  -3   6   0   12.38    1.83
  -3  -3   0   14.97    2.44
  -3   6   0   16.03    2.43
  -3   6   0   12.98    2.22
   6  -3   0   16.58    1.53
  -6   2   0   16.17    1.75
   4   2   0   17.33    2.30
  -6   4   0   14.75    2.40
   2  -6   0   16.37    2.68
   2   4   0   12.36    2.13
   2  -6   0   10.94    2.07
  -6   4   0   17.36    1.88
  -6   4   0   15.38    2.67
   2   4   0   10.93    1.94
  -6   2   0   17.80    1.81
   4  -6   0   15.48    2.52
  -6   2   0   17.44    1.62
   2   4   0   11.88    2.12
  -6   4   0   17.39    1.80
  -6   2   0   16.00    2.59
  -4  -2   0   13.76    2.09
  -2  -4   0   13.50    2.56
  -4   6   0   13.72    2.46
  -4  -2   0    9.42    2.24
  -4  -2   0   15.00    2.14
  -2  -4   0   13.74    2.44
  -4   6   0   10.89    2.20
  -2   6   0    9.44    2.15
   6  -2   0   12.06    2.34
  -2   6   0   16.24    2.51
  -4   6   0    9.81    1.81
   6  -4   0   11.67    1.60
  -2   6   0   14.19    1.91
   1   5   0   26.75    2.61
   1   5   0   26.22    2.95
  -6   5   0   23.09    2.30
   1  -6   0   27.85    3.02
  -6   1   0   27.07    2.36
   1   5   0   20.53    2.58
  -6   1   0   23.07    2.21
   5  -6   0   22.73    2.72
   1  -6   0   21.07    3.02
  -6   1   0   23.16    3.00
  -6   5   0   29.58    3.02
  -6   5   0   27.22    3.18
   5   1   0   23.33    2.77
  -6   1   0   25.55    1.93
  -5  -1   0   25.26    2.62
  -1   6   0   26.05    2.74
   6  -5   0   21.79    2.22
  -5   6   0   24.13    3.09
  -1  -5   0   22.13    3.01
  -1  -5   0   27.21    3.21
  -1   6   0   20.70    2.36
  -5   6   0   19.43    2.30
  -5   6   0   27.25    2.73
  -5  -1   0   23.18    2.38
  -5  -1   0   22.06    2.94
  -1   6   0   25.10    3.02
   6   0   0   21.41    2.81
   0  -6   0   23.39    3.11
  -6   6   0   27.32    2.89
   0   6   0   28.03    2.90
   0   6   0   22.94    3.06
  -6   0   0   20.91    3.13
   0   6   0   27.93    2.85
   0  -6   0   26.18    3.45
  -6   0   0   26.22    2.62
  -6   0   0   29.50    2.51
   6  -6   0   25.51    2.69
  -6   6   0   25.19    2.66
  -6   6   0   23.71    3.31
   3   4   0   10.65    2.37
   4   3   0    6.77    1.98
  -7   4   0    6.80    2.11
  -7   3   0    8.90    1.61
  -7   4   0   10.18    1.73
   3  -7   0    9.48    2.60
  -7   3   0   11.90    2.67
   4  -7   0    4.63    2.21
   3   4   0   10.18    2.00
   7  -4   0    8.40    2.33
  -3   7   0   11.74    1.94
  -4   7   0   10.92    2.45
  -4   7   0    8.68    2.29
  -3  -4   0    5.38    2.10
  -4  -3   0    6.30    2.08
  -3   7   0    8.84    2.31
  -4   7   0    7.61    1.83
   7  -3   0    4.74    2.22
  -4  -3   0    6.67    2.10
  -4  -3   0    6.48    1.99
  -3  -4   0    6.15    2.16
  -3  -4   0    8.66    2.34
  -3   7   0    9.25    2.28
  -7   2   0    1.73    2.05
   5  -7   0    0.55    1.89
   2  -7   0    1.11    1.86
  -7   2   0    2.13    1.38
  -7   5   0    1.65    1.83
   2   5   0   -0.09    1.50
   2   5   0    2.77    1.78
   5   2   0    3.61    1.93
  -7   5   0    2.85    2.08
  -7   5   0    3.48    1.60
  -5   7   0   -0.38    1.62
  -2   7   0    2.74    1.56
  -2   7   0    4.69    1.90
  -5   7   0   -0.22    1.54
  -2   7   0    3.59    2.02
  -2  -5   0    3.68    2.05
  -5   7   0    2.36    1.53
   7  -5   0    3.77    1.44
  -2  -5   0    1.32    1.77
   7  -2   0    0.28    1.85
  -5  -2   0    1.17    1.66
  -5  -2   0    1.94    1.71
  -5  -2   0    2.23    1.93
   1   6   0    7.02    2.12
   1  -7   0    6.65    2.47
   6   1   0   12.20    2.54
   6  -7   0    9.50    2.28
  -7   6   0   10.15    2.67
  -7   6   0    6.81    2.29
   1   6   0    8.64    2.07
  -7   1   0    5.77    2.28
  -7   1   0    8.82    1.85
  -7   6   0    4.18    1.83
   7  -1   0    5.64    2.29
  -6   7   0    8.28    2.67
   7  -6   0   11.48    2.02
  -1  -6   0    6.76    2.44
  -1  -6   0    7.90    2.51
  -6  -1   0    4.99    2.19
  -6   7   0   10.69    2.23
  -6  -1   0    7.15    1.90
  -1   7   0    4.98    2.08
  -1   7   0    4.35    1.93
  -1   7   0    9.38    2.09
  -6  -1   0    7.57    2.13
  -6   7   0    9.48    2.21
   0   7   0    6.16    2.06
  -7   7   0    6.26    2.38
  -7   0   0    0.57    1.43
   0  -7   0    2.84    2.18
   7  -7   0    4.73    1.96
  -7   7   0    4.27    2.16
   0   7   0    2.68    1.82
   7   0   0    3.09    2.25
  -7   0   0    1.32    1.91
  -7   7   0    1.38    1.67
  -8   4   0    3.69    2.30
  -8   4   0    4.37    1.51
   4  -8   0    7.37    2.54
   4   4   0    7.11    2.08
  -4  -4   0    4.54    2.31
   8  -4   0    6.45    2.53
  -4  -4   0    1.55    2.16
  -4   8   0    6.96    2.35
  -4   8   0   -0.71    1.92
  -4   8   0    3.52    1.82
  -4  -4   0    1.78    1.96
  -8   3   0    9.72    1.86
   3   5   0   13.10    2.44
   3   5   0   11.46    2.55
   5  -8   0    9.28    2.60
   3  -8   0    9.28    2.71
  -8   5   0    7.04    2.47
  -8   5   0    7.96    1.92
   5   3   0   13.97    2.53
  -8   3   0    9.88    2.75
   8  -5   0   10.43    2.82
  -5   8   0   10.71    2.68
  -3   8   0    7.57    2.43
  -5   8   0    8.26    1.98
  -5  -3   0    9.23    2.38
  -3  -5   0    7.45    2.53
  -3   8   0    8.60    2.03
  -5  -3   0   12.44    2.60
  -3  -5   0    9.48    2.74
  -5   8   0   12.45    2.81
  -3   8   0   13.06    2.84
  -5  -3   0    8.55    2.45
   8  -3   0    9.61    2.77
   2   6   0    2.09    1.85
  -8   6   0   -0.48    1.96
   6  -8   0    3.23    2.20
  -8   6   0    3.86    1.80
  -8   2   0    1.23    2.02
  -8   6   0   -0.86    1.91
   2   6   0    1.90    1.99
  -8   2   0   -0.96    1.43
   6   2   0    2.01    2.08
   2  -8   0    1.46    2.17
   8  -2   0    2.98    2.21
  -2   8   0    2.03    2.30
  -6   8   0    4.04    1.83
   8  -6   0   -0.26    2.14
  -2   8   0    3.50    2.14
  -2   8   0    1.24    1.72
  -6   8   0   -1.15    2.19
  -6  -2   0    1.63    1.91
  -2  -6   0    3.56    2.36
  -6   8   0   -0.64    1.92
  -6  -2   0    1.25    1.54
  -2  -6   0    3.88    2.48
  -6  -2   0    1.46    1.96
  -8   7   0   -4.81    1.82
   7   1   0    0.44    2.01
  -8   1   0    0.98    1.70
   1   7   0   -0.67    1.87
  -8   7   0   -0.24    1.62
   1  -8   0   -0.64    1.96
  -8   1   0    5.69    2.59
   7  -8   0    1.06    1.90
   1   7   0    0.16    1.65
  -8   7   0   -2.81    1.67
  -7  -1   0    0.67    1.86
  -1  -7   0   -2.17    2.10
  -7   8   0    1.25    1.91
  -1  -7   0   -0.23    2.04
  -7  -1   0   -2.51    1.99
  -1   8   0    0.34    1.88
   8  -1   0    1.31    2.18
  -7   8   0   -2.69    2.09
  -7   8   0   -0.46    1.73
  -8   0   0    2.79    1.89
  -8   8   0    2.35    2.39
  -8   8   0   -2.59    1.82
  -8   0   0    1.42    2.40
  -8   8   0    0.58    2.03
   8   0   0    3.57    2.41
   0  -8   0   -3.50    1.94
   5  -9   0   37.08    4.40
  -9   5   0   36.83    3.07
   4   5   0   34.00    4.06
   4  -9   0   39.81    4.66
  -9   4   0   34.63    2.99
  -9   5   0   30.13    4.06
  -9   4   0   40.95    4.65
  -4   9   0   37.34    4.28
   9  -4   0   38.80    4.51
  -5  -4   0   32.90    4.23
  -5  -4   0   38.38    4.22
  -5   9   0   41.41    4.55
  -5   9   0   28.47    3.93
  -4  -5   0   35.72    4.28
  -5  -4   0   34.86    3.94
  -4   9   0   34.77    4.10
   9  -5   0   30.78    4.24
  -4  -5   0   33.80    4.07
   6  -9   0   27.30    3.87
   3   6   0   34.88    3.95
   3  -9   0   32.49    4.47
  -9   3   0   37.81    4.48
  -9   3   0   35.48    3.16
  -9   6   0   30.36    3.10
  -9   6   0   41.82    4.57
  -6   9   0   32.48    3.99
  -3  -6   0   32.21    4.19
  -3   9   0   28.52    4.05
  -6   9   0   37.71    4.57
  -6  -3   0   34.75    4.48
  -6  -3   0   34.23    3.86
  -3  -6   0   32.27    4.33
  -3   9   0   40.48    4.39
   9  -6   0   30.11    4.44
  -6  -3   0   29.67    3.55
   9  -3   0   26.30    3.89
  -9   7   0    4.22    1.89
   2   7   0    8.19    2.63
  -9   2   0    7.39    2.14
  -9   2   0    6.28    2.95
   7  -9   0    4.70    2.43
  -9   7   0    7.83    2.70
   2  -9   0   10.18    3.23
   7   2   0    6.11    2.67
   9  -2   0   10.74    3.07
  -7   9   0    7.70    2.75
  -7  -2   0   11.60    3.10
  -2  -7   0   15.63    3.54
  -7   9   0    6.58    2.58
  -2  -7   0    7.42    2.96
  -7  -2   0    5.83    2.25
   9  -7   0    6.92    2.76
  -2   9   0    9.82    2.82
  -9   1   0    2.24    1.98
  -9   1   0    4.51    2.72
   1  -9   0    4.87    2.99
  -9   8   0    0.97    2.19
   8   1   0    0.73    2.46
  -9   8   0    7.11    2.99
  -9   8   0    5.96    2.29
  -8  -1   0    1.61    1.95
  -8  -1   0    4.49    2.86
  -8   9   0    4.91    2.41
  -8   9   0    3.69    2.54
   9  -1   0    2.67    2.48
  -1  -8   0    5.88    2.85
  -9   9   0    3.51    2.40
  -9   0   0    0.92    2.15
  -9   9   0   -0.97    2.63
   9   0   0   -1.15    2.48
   0  -9   0    2.09    2.72
  -9   0   0   -1.06    2.23
   5 -10   0   26.33    4.24
 -10   5   0   20.81    3.81
   5   5   0   23.52    3.86
 -10   5   0   24.09    2.80
  -5  10   0   23.07    3.93
  -5  -5   0   19.87    3.72
  -5  10   0   26.30    4.07
  -5  -5   0   29.03    4.04
  10  -5   0   15.45    3.65
   4   6   0   28.84    3.89
   4 -10   0   25.59    4.31
 -10   4   0   22.84    2.82
 -10   6   0   28.77    4.34
   6 -10   0   28.83    4.24
 -10   6   0   23.54    2.85
 -10   4   0   31.71    4.56
  -4  -6   0   30.25    4.28
  -4  10   0   31.01    4.27
  10  -4   0   26.44    4.17
  -6  10   0   26.07    4.12
  -4  10   0   42.86    5.02
  -6  -4   0   35.70    4.74
  -6  10   0   34.88    4.75
  -6  -4   0   25.16    3.87
  -6  -4   0   30.20    3.89
  -4  -6   0   31.93    4.28
  10  -6   0   35.95    4.87
 -10   7   0   16.61    3.58
   7 -10   0   21.27    3.70
 -10   3   0   17.63    2.67
   3   7   0   18.33    3.46
   3 -10   0   11.73    3.60
 -10   7   0   18.53    2.84
 -10   3   0   19.54    4.00
  -7  10   0   12.39    3.24
  -3  -7   0   17.03    3.72
  10  -3   0   22.35    3.93
  -7  -3   0   12.29    3.58
  -7  -3   0   19.71    3.55
  -7  10   0   15.22    3.70
  -3  10   0   21.75    3.80
  -3  -7   0   13.55    3.24
  10  -7   0   15.28    3.79
 -10   2   0    8.14    2.44
 -10   8   0    3.73    2.15
 -10   8   0    9.71    3.00
   2 -10   0    4.80    2.90
 -10   2   0   -1.75    2.28
  -8  10   0    3.18    2.81
  -8  -2   0    3.96    2.93
  -8  -2   0    2.62    2.46
  10  -8   0    5.58    3.09
  -8  10   0    4.39    2.58
  -2  -8   0    7.43    3.26
  10  -2   0   -0.67    2.67
   1 -10   0    2.93    2.99
 -10   9   0    1.48    2.53
 -10   1   0    2.64    2.06
 -10   9   0    6.42    2.54
 -10   1   0    2.57    2.76
  -9  10   0    3.12    2.91
  -9  -1   0   -2.44    2.20
  -9  -1   0    0.44    2.17
  -9  10   0    3.69    2.66
  -1  -9   0    4.38    3.13
  10  -9   0    0.85    2.55
  10  -1   0    1.81    2.73
 -10   0   0   -0.73    2.89
 -10  10   0    0.99    2.47
   0 -10   0    2.88    3.09
 -10   0   0   -0.08    2.16
 -10  10   0    0.62    2.78
   5 -11   0   15.71    3.94
 -11   5   0   17.16    2.69
 -11   5   0   24.04    4.33
   6   5   0   19.97    3.90
   6 -11   0   18.56    3.97
   5   6   0   16.46    3.82
 -11   6   0   17.44    2.70
 -11   6   0   19.35    3.90
  -6  11   0   17.69    4.06
  -6  11   0   20.23    4.10
  -5  -6   0   20.98    3.97
  -5  11   0   16.80    3.90
  -6  -5   0   15.60    3.49
  -6  -5   0   18.66    3.82
  -5  -6   0   17.20    3.57
  11  -6   0   25.55    4.50
  11  -5   0   19.82    4.10
  -5  11   0   20.76    3.96
 -11   7   0   13.82    3.69
   4 -11   0   13.67    3.81
   7 -11   0   19.10    3.91
 -11   7   0   16.30    2.69
 -11   4   0   13.80    2.64
   4   7   0   17.16    3.77
 -11   4   0   15.99    3.97
  -7  11   0   10.86    3.55
  -7  -4   0    6.70    2.92
  -7  -4   0   12.36    3.69
  -7  11   0   14.92    3.83
  -4  -7   0   12.11    3.47
  11  -7   0   16.24    3.97
  11  -4   0   11.82    3.52
 -11   8   0   10.32    2.40
 -11   8   0    3.98    3.23
 -11   3   0   11.38    2.67
   3 -11   0    9.38    3.67
 -11   3   0    3.54    3.07
  11  -3   0   14.52    3.70
  -3  -8   0   12.56    3.59
  11  -8   0   12.34    3.83
  -8  11   0   11.66    3.36
  -8  11   0   12.27    3.68
  -8  -3   0    5.06    3.37
  -8  -3   0   12.32    3.29
 -11   2   0    6.40    2.61
   2 -11   0    2.26    3.01
 -11   9   0    6.03    2.53
 -11   2   0    3.60    2.94
  -9  11   0    3.89    3.04
  -9  -2   0    7.77    3.14
  -2  -9   0    5.94    2.98
  -9  -2   0    8.54    2.93
  -9  11   0    7.05    3.40
  11  -2   0    3.02    2.96
  11  -9   0    7.76    3.71
 -11   1   0   -0.69    2.74
   1 -11   0   12.22    3.84
 -11   1   0    2.15    2.45
 -11  10   0    3.24    2.69
 -10  -1   0    2.55    3.18
  -1 -10   0    4.73    3.44
  11 -10   0    1.50    3.18
 -10  11   0   -1.62    2.81
 -10  -1   0    3.44    2.69
 -10  11   0    6.06    3.07
   6 -12   0   27.41    4.79
   6   6   0   19.40    4.30
 -12   6   0   25.03    4.69
 -12   6   0   19.79    3.08
  -6  -6   0   14.68    3.64
  -6  12   0   16.68    4.18
  12  -6   0   18.38    4.44
 -12   7   0   18.92    4.18
   7 -12   0    9.39    3.45
 -12   5   0   10.20    3.82
 -12   7   0   18.25    2.94
 -12   5   0   11.05    2.68
   5   7   0   23.82    4.29
   7   5   0   14.76    4.03
   5 -12   0   18.45    4.48
  -5  -7   0   10.81    3.59
  -7  -5   0   19.14    4.10
  -7  12   0   11.16    3.97
  -7  12   0   18.52    4.26
  12  -5   0   14.64    3.93
  12  -7   0   16.98    4.44
 -12   4   0   12.06    2.74
 -12   4   0    9.26    3.61
   8   4   0   12.61    3.95
   4 -12   0   10.99    3.94
 -12   8   0    7.80    3.39
 -12   8   0   16.90    3.04
  -8  -4   0    8.98    3.35
  12  -8   0    6.25    3.31
  -8  12   0    5.75    3.54
  -8  12   0    7.32    3.54
  12  -4   0    8.04    3.56
  -4  -8   0   14.33    3.84
  -8  -4   0   -1.71    2.89
 -12   3   0    7.22    2.50
 -12   3   0    2.26    3.08
   3 -12   0    7.08    3.70
 -12   9   0    6.52    2.64
  -3  -9   0    3.51    3.40
  -9  -3   0    4.72    3.37
  12  -3   0   11.22    4.08
  -9  12   0    9.18    4.01
  -9  12   0    3.91    3.38
  12  -9   0    3.84    3.42
  -9  -3   0    5.90    2.99
   0   0   1    0.06    0.32
   0   0  -1   -0.34    0.33
   0   0   1    0.36    0.36
   0   0   1   -0.34    0.34
   0   0  -1    0.18    0.35
   1   0   1  148.56    3.18
   0  -1   1  145.39    3.19
  -1   0  -1  149.17    3.33
  -1   1   1  149.20    2.61
  -1   1   1  149.62    2.61
   0   1  -1  147.03    2.65
   0  -1   1  146.53    3.44
   0   1  -1  152.95    3.38
  -1   0  -1  144.63    3.19
   1   0   1  149.37    3.38
  -1   1   1  150.07    3.29
   0   1  -1  144.53    3.23
   1  -1  -1  151.78    3.36
  -1   1   1  144.49    3.35
  -1   0  -1  149.85    2.79
   0  -1  -1    2.83    0.78
   0  -1  -1    2.84    0.85
  -1   1  -1    3.86    0.82
  -1   0   1    3.24    0.68
  -1   0   1    2.54    0.79
   0  -1  -1    2.97    0.53
  -1   1  -1    3.33    0.91
   1  -1   1    2.73    0.79
   0   1   1    1.83    0.77
   0   1   1    3.33    0.95
   1  -1   1    2.90    0.64
   1  -1   1    2.62    0.73
  -1   0   1    3.29    0.83
  -2   2   1  951.22   16.69
  -2   0  -1  961.70   16.61
   0  -2   1  946.71   16.75
   0   2  -1  906.75   16.07
   0  -2   1  955.35   16.13
  -2   2   1  943.18   15.17
  -2   0  -1  945.56   15.82
   0   2  -1  956.69   15.55
   2  -2  -1  961.56   16.27
  -2   2   1  960.56   15.71
   0   2  -1  955.86   16.33
  -2   0  -1  966.30   15.39
  -2   2   1  948.62   15.11
  -2   1  -1   60.91    2.46
   1  -2   1   60.93    2.31
   1   1  -1   63.59    1.70
  -2   1   1   62.57    2.44
   1   1   1   62.25    2.35
  -2   1   1   61.97    2.13
  -2   1  -1   60.80    2.16
   1   1   1   61.25    2.47
  -2   1   1   67.10    2.38
   1  -2   1   65.19    2.52
   1  -2  -1   59.26    2.54
  -1   2   1   57.77    1.46
  -1   2   1   58.49    2.34
  -1  -1  -1   56.83    2.24
  -1   2  -1   58.40    2.12
  -1   2  -1   57.21    2.28
   2  -1   1   54.53    2.37
  -1  -1  -1   55.73    2.14
  -1  -1   1   60.47    2.45
  -1  -1   1   60.00    2.40
  -1   2   1   52.11    2.05
  -1   2  -1   58.26    2.35
  -1  -1   1   57.85    2.13
  -1  -1  -1   58.51    2.18
   0  -2  -1  117.08    3.64
   0   2   1  125.76    3.57
  -2   2  -1  120.65    3.35
  -2   2  -1  120.89    3.64
   0  -2  -1  123.97    3.56
  -2   0   1  123.53    2.53
  -2   0   1  126.80    3.82
   2   0  -1  126.93    3.26
   2  -2   1  124.39    3.11
   0  -2  -1  121.08    2.91
  -2   0   1  124.16    2.54
  -2   2  -1  121.62    3.62
   0   2   1  122.97    3.64
  -2   0   1  130.53    3.42
  -3   3   1  719.02   14.27
  -3   3   1  780.35   12.64
   0  -3   1  732.95   13.80
  -3   0  -1  755.48   12.67
   0   3  -1  732.17   13.85
   3  -3  -1  746.74   13.73
   0   3  -1  747.46   13.78
   0  -3   1  731.65   14.38
  -3   0  -1  740.65   13.26
  -3   0  -1  746.90   14.27
   0   3  -1  734.32   13.01
  -3   3   1  748.97   13.27
   3   0   1  728.87   14.04
  -3   3   1  746.68   12.76
  -3   1  -1   33.68    1.78
  -3   2   1   32.75    2.29
  -3   2   1   29.79    2.09
   1   2  -1   30.82    2.04
   2   1   1   28.59    1.88
   1  -3   1   29.52    2.25
   2   1   1   31.10    2.25
  -3   1  -1   30.56    0.98
  -3   1  -1   30.37    2.25
   1   2  -1   34.80    1.62
  -3   1  -1   30.81    1.80
   2  -3  -1   31.89    2.16
  -3   2   1   31.57    1.87
   1  -3   1   29.54    2.13
   1   2  -1   30.45    2.39
  -2  -1  -1   24.88    1.98
  -2  -1  -1   24.04    2.18
  -1   3  -1   29.74    2.33
  -2   3   1   31.72    2.39
  -1  -2   1   29.58    2.24
   3  -1   1   28.00    2.39
  -1   3  -1   28.77    1.94
   3  -2  -1   30.53    1.75
  -2   3   1   29.29    1.48
  -1  -2   1   29.83    2.23
  -1   3  -1   29.14    2.01
  -2   3   1   34.01    2.04
  -2  -1  -1   29.62    1.92
   1  -3  -1   25.28    2.03
   1   2   1   28.71    2.25
  -3   1   1   22.89    2.08
   1   2   1   27.68    2.05
  -3   2  -1   28.87    1.67
   2   1  -1   26.05    1.65
  -3   1   1   25.35    1.71
  -3   2  -1   25.71    1.76
  -3   2  -1   23.50    2.16
   2  -3   1   28.23    2.14
  -3   1   1   27.61    2.07
   2  -3   1   26.52    1.95
   1  -3  -1   26.05    2.22
  -2   3  -1   20.25    1.85
  -2  -1   1   22.75    1.75
   3  -2   1   20.55    2.07
  -2  -1   1   20.56    2.10
  -1  -2  -1   20.72    2.00
  -2   3  -1   18.73    1.81
  -1   3   1   19.80    1.31
  -1   3   1   21.36    1.98
   3  -2   1   20.66    1.11
  -2  -1   1   21.42    1.65
  -2  -1   1   20.67    1.94
  -1   3   1   18.42    1.89
  -1  -2  -1   19.43    1.79
  -1  -2  -1   19.40    2.06
  -2   3  -1   19.84    1.89
   0   3   1    3.28    1.35
  -3   0   1    2.03    0.91
  -3   3  -1    3.96    1.38
  -3   0   1    4.73    1.44
   0  -3  -1    2.68    1.41
   0   3   1    3.89    1.10
  -3   0   1    4.97    1.26
   3  -3   1    4.69    1.24
   0   3   1    3.22    1.45
   0  -3  -1    2.11    1.45
  -3   3  -1    2.58    1.33
  -3   3  -1    1.69    1.21
  -3   0   1    3.35    0.88
   3   0  -1    3.75    1.24
   0   4  -1  412.13    9.23
   0   4  -1  406.53    9.46
  -4   0  -1  397.25    8.67
   4  -4  -1  400.52    8.96
  -4   0  -1  420.05    8.68
  -4   4   1  406.50    8.32
  -4   4   1  394.50    8.66
   0   4  -1  403.43    8.49
   0  -4   1  417.44    9.42
  -4   4   1  422.18    8.20
   0  -4   1  401.55    9.88
  -4   4   1  392.79    9.72
  -4   0  -1  416.60    7.98
  -4   0  -1  415.87    9.86
   4   0   1  402.01    9.51
  -4   3   1  241.98    4.94
   1  -4   1  236.74    6.28
   3   1   1  237.59    6.33
   1   3  -1  244.50    6.28
   1   3  -1  236.70    6.38
  -4   3   1  238.05    6.15
  -4   1  -1  252.80    5.62
   1   3  -1  244.89    5.42
   1  -4   1  242.02    6.85
   3  -4  -1  239.96    6.40
  -4   3   1  240.95    4.78
  -4   3   1  237.54    6.81
  -4   1  -1  242.82    4.59
  -4   1  -1  241.67    6.75
  -4   1  -1  234.57    5.59
  -1  -3   1  239.60    6.83
  -3   4   1  239.78    5.44
  -1  -3   1  233.83    6.21
  -1   4  -1  242.62    5.90
  -3  -1  -1  246.41    5.78
   4  -1   1  252.01    6.73
  -3   4   1  243.24    6.02
  -1   4  -1  240.99    6.04
  -3   4   1  229.72    6.66
   4  -3  -1  234.79    5.73
  -3   4   1  248.95    5.74
  -3  -1  -1  230.69    6.00
  -1   4  -1  233.24    6.43
  -3  -1  -1  240.51    6.56
  -4   2  -1  174.64    5.42
   2  -4  -1  167.72    5.28
  -4   2   1  177.33    3.20
  -4   2   1  173.77    5.22
   2   2  -1  164.76    4.24
   2   2   1  177.17    4.95
   2   2   1  174.80    5.06
   2  -4   1  170.34    5.25
  -4   2  -1  172.58    4.27
  -4   2  -1  169.99    4.44
  -4   2   1  167.48    5.14
   2  -4   1  170.31    4.84
  -4   2   1  168.26    4.35
  -2  -2  -1  161.19    4.91
  -2  -2   1  171.89    5.27
   4  -2   1  171.17    3.32
  -2  -2   1  162.22    4.73
  -2  -2   1  172.91    5.16
  -2  -2  -1  168.03    4.93
  -2  -2  -1  171.10    5.08
  -2   4   1  170.99    3.97
   4  -2   1  168.75    5.43
  -2   4  -1  173.86    5.11
  -2   4  -1  172.42    4.95
  -2   4   1  160.87    5.26
  -2   4   1  170.88    5.07
  -2   4  -1  171.84    4.79
   1  -4  -1  184.17    5.25
  -4   1   1  173.22    5.51
  -4   3  -1  184.68    5.51
  -4   3  -1  185.31    4.81
  -4   1   1  187.63    4.67
   1   3   1  178.68    5.39
   1   3   1  187.91    5.36
  -4   3  -1  186.53    4.66
  -4   1   1  174.89    3.69
   3   1  -1  180.27    4.72
   3  -4   1  187.58    5.33
  -4   3  -1  186.03    5.77
   1  -4  -1  179.05    5.79
  -4   1   1  181.83    3.73
  -3   4  -1  177.64    5.50
  -3  -1   1  178.06    5.10
   4  -1  -1  171.70    5.22
  -3  -1   1  180.56    5.66
  -1   4   1  179.77    5.50
  -3  -1   1  169.92    4.54
  -1  -3  -1  181.40    5.37
  -3  -1   1  173.69    4.62
  -1   4   1  179.74    5.36
   4  -3   1  179.23    4.08
  -1  -3  -1  181.85    5.61
  -1  -3  -1  175.92    4.94
  -3   4  -1  192.66    5.26
  -1   4   1  177.78    4.25
  -3   4  -1  178.44    5.12
   4  -4   1  293.42    6.76
  -4   0   1  298.45    6.25
  -4   0   1  282.59    7.83
  -4   0   1  300.42    6.91
  -4   4  -1  301.15    6.98
   0   4   1  281.99    7.65
   0   4   1  287.45    6.64
   0   4   1  299.01    7.39
   4   0  -1  295.73    7.17
  -4   4  -1  293.05    7.38
  -4   4  -1  286.40    7.77
   0  -4  -1  288.53    7.94
   0  -4  -1  304.56    7.49
  -4   0   1  296.64    6.25
  -5   0  -1    1.53    1.29
  -5   0  -1    1.66    1.03
  -5   5   1    2.75    1.37
   0  -5   1    2.89    1.50
   0   5  -1    2.79    1.39
   0   5  -1    2.26    1.61
   5   0   1    1.65    1.63
  -5   5   1    4.39    1.34
  -5   5   1    0.16    1.45
   5  -5  -1    4.15    1.56
  -5   0  -1    3.94    1.41
  -5   0  -1    1.34    1.51
   0   5  -1    1.21    1.45
  -5   5   1    2.63    1.26
   0  -5   1    5.18    2.03
   1   4  -1   44.31    3.01
  -5   4   1   44.11    2.77
  -5   1  -1   40.31    3.47
   1   4  -1   39.96    3.27
   4   1   1   38.46    2.89
   1  -5   1   42.20    2.90
   1   4  -1   41.72    2.39
  -5   4   1   41.36    2.06
  -5   1  -1   34.90    2.32
   1  -5   1   37.91    3.48
   4  -5  -1   41.96    2.93
  -5   4   1   48.41    3.47
  -5   1  -1   41.92    2.48
  -5   4   1   40.23    2.07
  -5   1  -1   42.55    1.71
   5  -4  -1   41.88    2.54
  -4   5   1   39.52    2.62
  -4   5   1   41.73    3.09
  -1   5  -1   46.97    2.81
  -1  -4   1   42.61    3.06
  -1  -4   1   45.88    3.78
  -4  -1  -1   42.43    3.12
  -4  -1  -1   43.35    2.45
  -4   5   1   47.51    2.47
  -4  -1  -1   37.81    2.69
  -4   5   1   44.26    2.55
  -1   5  -1   42.57    2.70
  -1   5  -1   44.11    3.03
   5  -1   1   44.17    3.22
  -5   3   1   94.98    4.25
  -5   2  -1   94.49    3.39
  -5   2  -1  100.48    4.43
   2  -5   1   91.39    3.93
  -5   2  -1   98.22    3.35
  -5   3   1   95.73    2.59
   3   2   1  100.30    3.99
  -5   3   1   99.36    2.70
   2   3  -1   96.65    3.29
  -5   3   1   92.30    4.03
   2   3  -1   96.40    3.76
   2   3  -1   97.81    4.18
   2  -5   1  104.34    4.59
   3  -5  -1  102.95    4.33
  -2  -3   1  105.94    4.20
  -3  -2  -1   98.60    4.31
   5  -2   1  105.95    2.42
  -2   5  -1  102.70    3.85
  -3   5   1   94.95    3.24
   5  -2   1   96.85    4.44
  -3  -2  -1  101.82    4.04
  -3   5   1  104.52    4.26
  -3   5   1  102.67    4.56
  -2   5  -1  104.67    4.09
   5  -3  -1   99.37    3.48
  -3  -2  -1  102.89    4.02
  -2   5  -1  109.67    4.43
  -2  -3   1  101.22    4.53
  -5   3  -1   87.28    3.39
   3  -5   1   98.12    3.74
  -5   2   1   95.45    4.28
  -5   2   1   93.11    2.50
   3   2  -1   96.31    3.39
   2  -5  -1   98.56    3.77
  -5   2   1   90.06    2.53
   2   3   1   97.48    4.15
   2  -5  -1   91.90    4.41
  -5   3  -1   97.81    3.32
  -5   3  -1   98.84    4.34
   2   3   1   91.67    3.80
  -5   2   1   89.76    3.17
   3  -5   1   91.78    4.12
   5  -3   1   93.12    2.50
  -3  -2   1   90.15    4.00
  -3   5  -1   90.04    3.96
  -2  -3  -1   95.21    3.89
  -2   5   1   98.80    4.24
  -2  -3  -1   92.81    4.08
  -3   5  -1   94.31    3.75
   5  -2  -1   82.85    4.02
  -3  -2   1   85.66    4.20
   5  -3   1   85.81    4.15
  -3  -2   1   90.31    3.67
  -2  -3  -1   95.17    4.07
  -3   5  -1   88.35    3.95
  -2   5   1   94.21    4.23
  -2   5   1   94.31    3.04
   1   4   1  132.16    4.74
  -5   1   1  135.76    3.55
   1   4   1  132.05    4.43
  -5   4  -1  132.76    4.95
   4   1  -1  126.33    4.37
  -5   1   1  136.95    4.11
   4  -5   1  128.00    4.64
   1  -5  -1  136.10    5.52
  -5   4  -1  133.23    5.38
   1  -5  -1  123.05    4.68
  -5   1   1  139.87    3.60
  -5   4  -1  131.31    4.37
  -5   1   1  133.58    5.17
   1   4   1  136.69    5.05
  -5   4  -1  143.44    4.31
  -4   5  -1  134.35    5.21
  -4  -1   1  124.95    5.11
  -1  -4  -1  132.96    5.17
  -1  -4  -1  130.60    5.00
  -4  -1   1  118.39    4.12
  -4   5  -1  129.72    4.62
  -4   5  -1  131.81    4.75
  -1   5   1  130.23    5.16
   5  -1  -1  135.77    4.87
  -1   5   1  138.58    4.96
  -1   5   1  130.70    3.89
  -4  -1   1  134.41    4.54
  -4  -1   1  131.77    4.20
   5  -4   1  133.74    3.86
   5  -5   1   54.12    3.03
   5   0  -1   54.32    3.14
   0   5   1   56.39    3.36
  -5   5  -1   59.21    3.82
   0  -5  -1   56.59    3.57
  -5   0   1   55.88    2.65
  -5   0   1   56.20    2.90
  -5   5  -1   59.66    3.36
  -5   0   1   49.78    3.70
   0   5   1   56.44    2.90
   0   5   1   51.64    3.62
  -5   5  -1   57.81    3.10
  -5   0   1   52.99    2.68
   0  -5  -1   53.31    3.63
   6   0   1    3.66    1.99
   0  -6   1    1.53    1.79
  -6   6   1    1.69    1.51
  -6   0  -1   -1.18    1.06
  -6   0  -1    2.18    1.75
   0   6  -1    1.11    1.83
   6  -6  -1   -0.72    1.46
   0   6  -1    1.41    1.49
  -6   6   1    3.48    2.11
  -6   0  -1    1.62    1.52
   0   6  -1    0.30    1.72
  -6   6   1   -0.37    1.25
   0  -6   1   -0.62    1.68
  -6   5   1    3.75    1.66
   1   5  -1    4.22    1.92
   5   1   1    2.95    1.77
   1  -6   1    6.15    2.05
  -6   5   1    6.29    2.10
  -6   1  -1    4.49    1.09
   5  -6  -1    5.60    1.86
  -6   1  -1    5.29    1.67
  -6   1  -1    6.96    2.12
  -6   5   1    5.49    1.46
   1   5  -1    7.69    2.04
   1   5  -1    5.96    1.47
   1  -6   1    6.45    1.86
  -6   5   1    4.05    1.43
  -1   6  -1    4.35    1.65
   6  -5  -1    2.60    1.43
  -5  -1  -1    3.86    1.44
  -1   6  -1    6.71    2.06
   6  -1   1    1.02    1.65
  -5   6   1    2.10    1.74
  -5  -1  -1    6.62    2.07
  -1  -5   1    6.64    2.10
  -1  -5   1    5.63    2.02
  -1   6  -1    5.35    1.74
  -5   6   1    4.20    1.48
  -5  -1  -1    1.40    1.50
  -5   6   1    5.78    1.66
   4   2   1   41.34    3.40
  -6   2  -1   47.25    1.67
  -6   4   1   47.28    2.30
  -6   2  -1   52.70    3.81
  -6   4   1   44.28    2.16
   2   4  -1   40.83    3.54
  -6   2  -1   49.60    2.68
   4  -6  -1   46.17    3.38
  -6   4   1   43.92    3.16
  -6   2  -1   50.47    2.69
   2  -6   1   51.65    3.62
   2  -6   1   51.39    3.33
   2   4  -1   48.39    2.60
  -6   4   1   50.58    4.15
   6  -2   1   51.40    3.70
  -4  -2  -1   43.97    2.87
  -2   6  -1   49.79    3.52
  -2   6  -1   48.79    3.03
  -4  -2  -1   44.70    3.10
  -2  -4   1   52.22    3.36
  -2   6  -1   47.54    3.19
  -4  -2  -1   44.31    3.84
  -2  -4   1   44.13    3.84
  -4   6   1   43.53    3.20
  -4   6   1   46.57    2.53
   6  -4  -1   45.88    2.58
  -4   6   1   50.88    3.76
  -6   3  -1   56.08    2.77
  -6   3   1   57.24    2.26
   3  -6   1   62.13    3.91
   3   3  -1   59.93    2.93
  -6   3   1   61.71    3.70
  -6   3  -1   56.94    3.86
   3   3   1   55.25    3.37
   3  -6   1   62.49    3.37
  -6   3  -1   60.31    2.86
   3  -6  -1   58.50    3.76
  -6   3   1   57.70    2.21
  -6   3   1   60.38    3.82
  -3   6   1   58.67    2.68
  -3  -3  -1   58.68    3.57
   6  -3   1   54.65    3.78
  -3   6  -1   55.04    3.60
  -3  -3  -1   58.32    3.61
   6  -3  -1   64.21    2.82
  -3  -3   1   59.31    3.71
  -3   6   1   50.37    3.48
  -3  -3   1   52.13    3.33
  -3  -3  -1   62.25    3.65
   6  -3  -1   60.02    3.85
  -3   6  -1   58.49    3.49
   6  -3   1   61.15    1.90
  -3   6  -1   58.13    3.13
  -3  -3   1   55.70    3.61
  -3   6   1   66.56    3.95
  -6   2   1  144.77    4.28
  -6   4  -1  142.09    4.63
   2  -6  -1  132.97    5.04
  -6   2   1  137.79    3.75
   2  -6  -1  138.23    5.86
  -6   2   1  140.31    3.76
   4  -6   1  134.69    5.31
   2   4   1  135.36    5.05
  -6   4  -1  140.15    5.52
  -6   2   1  144.23    5.68
  -6   4  -1  131.95    4.36
   4   2  -1  134.55    4.62
   6  -4   1  139.93    3.70
   6  -4   1  145.49    5.83
  -2   6   1  135.93    5.42
  -4  -2   1  148.08    5.33
  -4   6  -1  137.38    4.94
  -2   6   1  144.36    5.70
  -4   6  -1  134.32    5.52
  -2  -4  -1  146.76    5.63
  -4  -2   1  139.70    4.98
  -2  -4  -1  136.06    5.44
   6  -2  -1  136.24    5.49
  -4  -2   1  139.27    5.78
  -2   6   1  139.47    4.20
  -4   6  -1  130.42    5.19
  -2  -4  -1  146.83    5.27
   5   1  -1   45.32    3.12
   1   5   1   38.32    3.29
  -6   1   1   41.16    2.31
  -6   1   1   35.82    3.61
   1  -6  -1   39.80    3.45
  -6   5  -1   42.21    3.64
  -6   5  -1   33.84    3.68
  -6   1   1   39.88    2.43
   1   5   1   39.97    2.78
   1  -6  -1   39.34    3.80
   1   5   1   41.84    3.73
  -6   1   1   39.23    2.32
   5  -6   1   42.22    3.17
  -6   5  -1   35.10    2.93
  -5  -1   1   33.96    2.99
  -1  -5  -1   32.14    3.23
  -5   6  -1   36.15    3.14
  -5  -1   1   34.23    3.55
  -5   6  -1   34.04    3.16
   6  -1  -1   36.74    3.33
  -1  -5  -1   34.91    3.56
  -1   6   1   39.26    3.76
  -1   6   1   35.85    3.37
  -1   6   1   32.68    2.40
  -5   6  -1   33.95    3.46
   6  -5   1   36.24    2.37
  -5  -1   1   33.06    2.77
  -6   0   1   47.60    2.85
  -6   0   1   51.06    3.02
  -6   6  -1   49.37    4.36
   0   6   1   50.47    3.18
   6   0  -1   53.82    3.54
  -6   6  -1   49.72    3.50
  -6   0   1   47.19    4.28
   6  -6   1   50.82    3.16
   0  -6  -1   49.72    4.50
   0   6   1   48.12    3.36
  -6   6  -1   57.25    3.57
   0   6   1   54.64    4.02
   0  -6  -1   42.13    3.92
  -7   7   1    5.20    1.87
  -7   7   1    2.51    1.77
  -7   7   1    4.62    2.28
  -7   0  -1    7.64    2.67
   7   0   1    2.08    2.25
   0  -7   1    0.04    2.29
   7  -7  -1    3.74    2.09
   0   7  -1    4.87    2.08
   0  -7   1    8.67    2.53
   0   7  -1    3.98    1.82
  -7   0  -1    1.68    1.80
  -7   1  -1    5.83    1.85
  -7   6   1    6.49    1.74
   1  -7   1    7.46    2.54
  -7   1  -1    5.00    2.38
   6  -7  -1    6.44    2.04
   1   6  -1    6.69    2.16
  -7   6   1    4.98    1.99
  -7   6   1    3.83    2.23
   1  -7   1    7.33    2.40
   1   6  -1    6.60    1.75
   6   1   1    1.38    2.10
   7  -1   1    7.11    2.46
  -1  -6   1    5.15    2.25
  -1  -6   1    3.76    2.15
  -1   7  -1    4.79    2.31
  -1   7  -1    3.98    2.02
  -6  -1  -1    6.13    2.09
  -1   7  -1    4.59    1.90
  -6  -1  -1    7.11    2.52
  -6   7   1    3.07    1.72
  -6   7   1    4.48    2.37
  -6  -1  -1    6.89    1.76
  -6   7   1    3.93    1.84
   7  -6  -1   10.97    2.18
   5  -7  -1   12.67    2.57
   5   2   1   10.69    2.55
  -7   2  -1   12.58    2.08
  -7   5   1    7.65    2.19
  -7   5   1   12.42    2.71
  -7   5   1   10.62    1.75
  -7   2  -1   17.04    3.15
   2   5  -1    8.14    2.29
   2   5  -1   10.92    1.96
   2  -7   1    8.74    2.46
  -2   7  -1   11.35    2.22
  -2  -5   1   13.94    2.69
  -5   7   1    7.00    2.00
  -2   7  -1   13.10    2.45
  -5   7   1   12.65    2.02
  -5  -2  -1   14.37    2.22
  -2   7  -1   11.72    2.59
   7  -5  -1   11.83    1.94
  -5  -2  -1    9.15    2.48
  -2  -5   1    9.63    2.58
   7  -2   1    8.56    2.51
  -5  -2  -1   12.32    2.29
  -5   7   1    9.58    2.58
   3   4  -1   36.70    3.65
   3  -7   1   30.47    3.64
   3   4  -1   35.26    2.63
  -7   4   1   34.62    2.21
  -7   3  -1   39.96    4.09
  -7   3  -1   29.68    2.63
  -7   4   1   33.90    3.52
  -7   4   1   43.29    4.05
   4  -7  -1   36.97    3.84
   4   3   1   37.44    3.42
  -7   4   1   34.48    2.10
   7  -3   1   30.33    3.60
  -3  -4   1   33.90    3.51
   7  -4  -1   32.13    2.40
  -3   7  -1   40.15    3.56
  -4  -3  -1   31.82    3.30
  -3  -4   1   34.49    3.60
  -4  -3  -1   28.29    3.28
  -4   7   1   38.47    3.88
  -4   7   1   33.50    2.40
  -3   7  -1   34.66    3.65
  -4  -3  -1   32.08    3.56
  -3   7  -1   35.76    3.12
  -4   7   1   36.97    3.54
   7  -4  -1   34.29    3.80
   3  -7  -1   58.13    4.22
   3   4   1   62.99    3.79
  -7   3   1   62.89    2.63
  -7   4  -1   53.05    3.14
  -7   3   1   62.43    2.59
  -7   3   1   69.33    4.26
  -7   3   1   62.07    2.89
  -7   4  -1   61.07    4.24
   4  -7   1   56.88    4.07
   4   3  -1   53.75    3.21
  -3  -4  -1   60.60    3.99
  -4   7  -1   62.57    4.04
  -3  -4  -1   57.49    3.93
  -3   7   1   56.08    2.89
  -3  -4  -1   65.45    3.98
  -4   7  -1   59.37    3.91
  -4  -3   1   64.03    4.02
  -3   7   1   61.30    4.00
  -3   7   1   58.91    4.03
  -4  -3   1   59.82    3.74
  -4   7  -1   64.54    3.51
   7  -3  -1   56.66    4.17
  -4  -3   1   53.37    4.59
   7  -4   1   55.51    4.11
   5   2  -1   50.84    3.32
  -7   5  -1   52.53    3.95
   2   5   1   55.61    3.62
   5  -7   1   56.85    3.84
  -7   2   1   53.59    2.77
   2  -7  -1   59.41    5.02
  -7   2   1   49.34    2.61
  -7   5  -1   51.37    3.17
  -7   2   1   62.37    4.36
   2   5   1   52.28    3.67
   7  -2  -1   45.77    4.01
  -2   7   1   41.15    3.91
  -5   7  -1   49.81    4.10
  -5  -2   1   48.76    3.46
  -2   7   1   47.95    2.82
  -5   7  -1   48.29    3.37
   7  -5   1   53.00    4.62
  -5  -2   1   46.72    3.34
  -2  -5  -1   46.68    4.22
  -5  -2   1   47.14    4.29
  -2  -5  -1   52.48    4.49
  -2   7   1   45.22    4.08
  -5   7  -1   47.82    4.37
  -7   1   1   34.72    2.52
  -7   1   1   26.28    3.55
  -7   6  -1   28.77    3.40
   6  -7   1   25.15    3.04
  -7   6  -1   26.73    2.96
   6   1  -1   31.78    3.28
  -7   1   1   34.40    2.57
   1   6   1   30.16    3.15
   1  -7  -1   27.10    3.66
   1   6   1   31.90    3.34
  -7   6  -1   26.46    3.52
   7  -1  -1   26.83    3.25
  -1   7   1   21.20    3.02
  -6  -1   1   27.83    2.97
  -6   7  -1   28.08    3.07
  -6  -1   1   26.04    2.80
  -6   7  -1   26.09    3.06
  -6  -1   1   26.66    3.63
  -1   7   1   27.08    3.48
  -1  -6  -1   26.62    3.52
  -1  -6  -1   23.87    3.39
  -6   7  -1   31.15    3.77
  -1   7   1   27.43    2.76
  -7   7  -1   34.40    3.60
  -7   7  -1   35.99    3.69
   7  -7   1   28.08    3.00
   0  -7  -1   33.35    4.20
  -7   0   1   28.77    3.79
   0   7   1   33.77    3.58
  -7   7  -1   29.51    4.03
   0   7   1   35.85    3.31
   7   0  -1   30.45    3.43
  -7   0   1   33.00    3.04
  -7   0   1   37.46    3.20
  -8   0  -1    4.36    2.39
  -8   8   1    0.51    2.36
  -8   8   1    0.91    1.98
   0  -8   1    1.85    2.40
  -8   0  -1   -0.13    1.75
   8   0   1    0.82    2.51
   0   8  -1   -0.83    2.10
   1   7  -1    0.35    2.11
  -8   7   1    2.05    2.30
  -8   1  -1    2.76    2.27
   1  -8   1    6.65    2.63
  -8   7   1    6.28    2.26
  -8   1  -1    4.14    1.99
   7   1   1    2.52    2.36
  -8   7   1    3.36    1.88
   7  -8  -1    4.36    2.23
  -1   8  -1    3.64    2.22
  -1  -7   1    0.62    2.23
  -1  -7   1    3.04    2.54
   8  -1   1    2.73    2.22
  -7  -1  -1    1.24    2.00
  -7   8   1    3.67    2.06
  -7   8   1    6.77    2.73
  -7  -1  -1    2.52    2.52
  -8   2  -1   20.15    3.56
  -8   2  -1   16.97    2.50
  -8   6   1   23.32    3.25
   2  -8   1   16.16    3.34
   2   6  -1   19.19    3.19
   6  -8  -1   22.52    3.39
  -8   6   1   18.93    2.47
   6   2   1   18.44    3.10
  -8   6   1   21.72    3.66
  -2   8  -1   21.58    2.88
  -2  -6   1   18.54    3.27
  -6  -2  -1   19.57    3.34
  -2   8  -1   18.56    2.92
  -6  -2  -1   17.18    2.56
  -2   8  -1   22.26    3.55
  -2  -6   1   23.03    3.58
  -6   8   1   19.75    2.88
   8  -2   1   26.48    3.72
  -6  -2  -1   16.19    2.87
  -6   8   1   18.73    3.26
  -8   5   1    4.65    2.34
  -8   3  -1    5.66    2.41
  -8   3  -1    6.18    1.84
  -8   5   1    6.59    2.49
   3  -8   1    5.17    2.27
   5  -8  -1    6.55    2.53
  -8   5   1   11.52    1.88
   3   5  -1   13.39    2.84
   5   3   1    6.92    2.32
  -3   8  -1    7.77    2.40
  -5   8   1    9.60    2.45
  -5  -3  -1    6.45    2.27
  -3   8  -1   10.48    2.23
  -3  -5   1    7.95    2.42
   8  -5  -1   11.72    2.98
   8  -3   1    7.25    2.44
  -5   8   1    7.07    2.66
  -3   8  -1   11.72    2.72
  -5  -3  -1    7.41    2.56
  -3  -5   1   13.07    2.85
  -5  -3  -1    3.82    2.02
  -8   4   1   31.88    3.83
   4  -8   1   33.07    3.97
  -8   4  -1   23.95    3.49
  -8   4  -1   26.85    2.73
   4   4  -1   25.72    3.43
   4   4   1   29.11    3.29
  -8   4   1   21.92    2.15
   4  -8  -1   26.49    3.77
  -4   8   1   22.75    3.32
  -4   8  -1   17.14    2.61
  -4  -4   1   21.61    3.12
  -4   8  -1   27.18    3.60
  -4  -4  -1   27.82    3.47
   8  -4  -1   23.79    3.68
  -4  -4  -1   24.43    3.33
  -4   8   1   26.16    3.62
  -4   8  -1   25.72    3.43
  -4  -4   1   24.02    3.46
  -4  -4  -1   32.52    3.71
   8  -4   1   16.13    3.24
   5  -8   1   44.00    4.28
   3  -8  -1   48.02    4.83
   3   5   1   49.15    3.72
   3   5   1   52.71    3.76
   5   3  -1   44.99    3.25
  -8   5  -1   55.90    4.98
  -8   3   1   48.87    4.70
  -8   3   1   42.22    2.60
  -8   5  -1   43.57    3.19
  -3   8   1   45.65    4.42
  -5  -3   1   44.99    3.98
  -3  -5  -1   42.10    4.21
  -5  -3   1   40.82    4.38
  -5   8  -1   46.03    3.81
  -5   8  -1   42.95    4.42
  -3  -5  -1   44.52    4.38
  -5  -3   1   37.96    3.79
   8  -3  -1   46.58    4.44
  -5   8  -1   50.53    4.55
   8  -5   1   43.49    4.66
  -3   8   1   51.68    4.64
   2   6   1   79.61    4.47
   6  -8   1   72.57    4.68
   2   6   1   77.71    4.48
  -8   2   1   86.55    5.51
   2  -8  -1   71.81    5.32
  -8   6  -1   81.11    4.99
  -8   2   1   71.41    3.54
   6   2  -1   75.20    4.30
  -8   6  -1   67.78    3.95
  -2  -6  -1   70.19    5.08
  -6   8  -1   75.56    4.78
   8  -2  -1   76.70    4.88
  -6  -2   1   73.40    5.02
  -6  -2   1   77.04    4.44
  -2  -6  -1   73.34    4.88
  -6  -2   1   80.09    4.45
  -2   8   1   73.98    4.74
   8  -6   1   70.55    5.23
  -2   8   1   75.70    5.06
  -6   8  -1   75.98    4.26
  -6   8  -1   85.60    5.31
  -8   7  -1   51.07    5.10
   1  -8  -1   50.95    5.20
  -8   1   1   57.91    3.50
   1   7   1   57.22    3.95
  -8   7  -1   59.47    4.09
  -8   1   1   56.34    5.35
   1   7   1   60.22    4.11
  -8   7  -1   55.38    4.79
   7  -8   1   58.56    4.08
   7   1  -1   59.93    4.25
  -1  -7  -1   51.92    5.14
   8  -7   1   50.02    5.13
  -7  -1   1   55.98    3.70
  -7   8  -1   52.17    4.42
  -7   8  -1   48.43    4.48
  -7  -1   1   55.27    5.21
   8  -1  -1   47.52    4.42
  -1   8   1   54.53    4.14
  -7  -1   1   53.63    3.67
  -7   8  -1   48.51    4.92
  -8   8  -1   38.57    4.05
   0  -8  -1   51.34    5.25
  -8   0   1   49.24    3.66
  -8   8  -1   44.88    4.38
  -8   8  -1   37.28    4.72
   8   0  -1   47.13    4.54
  -8   0   1   47.24    5.31
  -9   9   1    1.27    2.22
  -9   9   1    1.84    2.85
  -9   0  -1   -0.04    2.60
   9   0   1    2.06    2.83
   0  -9   1    0.03    2.35
  -9   0  -1   -1.29    2.03
   1  -9   1    2.23    2.44
  -9   8   1    2.48    1.98
   8   1   1    3.89    2.74
  -9   1  -1    0.72    1.93
   1   8  -1    4.32    2.50
  -9   1  -1    4.56    2.68
  -9   8   1    0.11    2.24
  -8  -1  -1    2.43    2.50
  -8   9   1    1.88    2.53
  -8   9   1   -1.00    2.00
  -8  -1  -1   -1.15    1.99
  -1  -8   1    2.24    2.68
   9  -1   1    3.40    2.75
  -9   7   1    5.65    2.45
   7  -9  -1    8.71    2.90
  -9   7   1    6.03    2.04
   2  -9   1    5.50    2.77
  -9   2  -1   12.13    3.11
   2   7  -1    7.33    2.61
  -9   7   1    8.76    3.09
   7   2   1    1.66    2.36
  -9   2  -1    9.12    2.30
  -7  -2  -1    4.83    2.63
   9  -2   1    8.68    2.91
  -7   9   1    8.85    2.71
  -7  -2  -1    7.02    2.54
  -7   9   1    6.01    2.93
  -2  -7   1    8.59    3.04
  -2  -7   1   10.76    3.21
   6   3   1   34.26    3.97
  -9   3  -1   29.41    3.09
  -9   3  -1   27.42    4.06
   3   6  -1   27.21    3.79
   6  -9  -1   28.36    3.93
   3  -9   1   36.96    4.46
  -9   6   1   38.31    4.39
  -9   6   1   32.94    2.95
   9  -3   1   28.07    4.08
   9  -6  -1   32.88    4.55
  -3   9  -1   29.90    4.20
  -3  -6   1   24.73    3.83
  -6   9   1   27.24    3.78
  -3   9  -1   29.04    3.69
  -3  -6   1   27.35    4.01
  -6  -3  -1   25.22    3.59
  -6   9   1   28.07    4.01
  -6  -3  -1   24.34    3.85
  -6  -3  -1   34.64    3.74
   4   5  -1    9.96    2.79
  -9   5   1   17.86    2.24
  -9   4  -1   13.97    2.41
   4  -9   1   17.78    3.44
  -9   5   1   17.52    3.24
  -9   4  -1    8.72    2.96
   5  -9  -1   12.92    3.28
   5   4   1   14.39    2.88
  -5   9   1   16.26    3.24
   9  -5  -1   20.46    3.70
   9  -4   1   18.17    3.50
  -5  -4  -1   16.66    3.33
  -5  -4  -1   16.29    2.94
  -5   9   1   30.09    3.92
  -4  -5   1   19.38    3.27
  -4   9  -1   20.93    3.57
  -5  -4  -1   23.77    3.52
  -4  -5   1   14.28    3.20
  -4   9  -1   19.53    3.37
  -9   4   1   25.88    3.91
   5  -9   1   23.34    3.73
   4   5   1   30.31    3.56
   4   5   1   28.12    3.69
   4  -9  -1   23.29    3.85
  -9   5  -1   24.63    2.89
  -9   4   1   25.04    2.37
  -9   5  -1   22.49    3.76
  -5  -4   1   28.68    3.69
   9  -4  -1   27.02    3.85
  -5   9  -1   26.01    3.92
  -4  -5  -1   28.39    3.89
  -4   9   1   25.21    3.87
   9  -5   1   25.94    3.97
  -5  -4   1   24.72    3.54
  -4   9   1   24.51    3.70
  -5   9  -1   23.72    3.72
  -4  -5  -1   25.20    3.68
  -9   6  -1   50.14    4.99
  -9   3   1   53.97    5.39
   3   6   1   52.79    4.02
   6  -9   1   53.73    4.88
  -9   6  -1   51.08    3.60
  -9   3   1   55.14    3.16
   3  -9  -1   57.08    5.53
   3   6   1   54.78    4.76
  -6   9  -1   68.53    4.80
  -3  -6  -1   52.51    5.11
  -6   9  -1   60.56    5.43
  -3   9   1   58.94    5.29
  -6  -3   1   48.64    5.18
  -6  -3   1   51.53    4.57
  -3   9   1   51.94    5.07
   9  -3  -1   43.84    4.72
  -6  -3   1   52.06    4.55
   9  -6   1   58.66    5.77
  -3  -6  -1   61.32    5.26
  -9   2   1   84.34    6.05
   2   7   1   87.75    5.18
   7  -9   1   84.12    5.08
  -9   7  -1   82.65    4.71
  -9   7  -1   88.60    5.56
   2  -9  -1   85.35    5.95
  -9   2   1   85.70    4.13
  -7   9  -1   83.81    5.79
   9  -7   1   88.05    6.11
  -2  -7  -1   70.08    6.28
  -7  -2   1   78.42    4.83
  -7   9  -1   82.65    5.38
   9  -2  -1   85.62    5.39
  -7  -2   1   86.10    5.83
  -9   8  -1   37.98    4.39
  -9   1   1   34.67    3.36
   1  -9  -1   33.78    4.65
  -9   8  -1   28.06    3.55
  -9   1   1   33.54    4.73
  -8  -1   1   38.79    4.99
  -8  -1   1   30.60    3.54
  -1   9   1   40.58    4.34
  -8   9  -1   34.76    4.31
   9  -8   1   43.12    5.19
   9  -1  -1   31.68    4.09
  -8   9  -1   36.05    4.00
  -1  -8  -1   38.95    4.90
  -8   9  -1   37.43    4.84
  -9   0   1   29.09    3.54
   0  -9  -1   27.78    4.66
  -9   0   1   33.31    4.77
  -9   9  -1   28.25    4.58
  -9   9  -1   19.13    3.47
  -9   9  -1   24.91    3.80
   9  -9   1   29.84    4.55
 -10   0  -1   15.22    4.04
 -10  10   1    7.01    2.83
  10   0   1    5.65    3.35
 -10   0  -1    8.16    3.03
 -10  10   1   12.77    4.04
   0 -10   1    9.58    3.72
 -10   9   1    2.14    3.00
 -10   1  -1    4.80    2.43
   1 -10   1    7.91    3.42
 -10   1  -1    6.41    3.34
 -10   9   1    3.09    2.38
  -1  -9   1    6.21    3.27
  -9  -1  -1    5.89    2.68
  -9  -1  -1    3.23    2.76
  -9  10   1    5.91    2.82
  -9  10   1    8.38    3.45
  10  -1   1    8.10    3.35
   2   8  -1    9.94    2.95
 -10   8   1    7.95    2.29
 -10   8   1   12.62    3.52
 -10   2  -1   12.98    2.82
   2 -10   1   10.41    3.64
 -10   2  -1   15.32    3.75
  -2  -8   1   14.16    3.67
  -8  10   1   15.60    3.82
  -8  10   1   11.15    3.09
  -8  -2  -1   14.29    3.17
  -8  -2  -1    4.59    2.92
  10  -2   1   10.84    3.30
  10  -8  -1   12.34    3.73
 -10   7   1    8.61    2.16
   3   7  -1    9.57    3.05
 -10   3  -1    8.99    3.29
   7 -10  -1   11.56    3.22
   3 -10   1    5.70    2.88
 -10   7   1   13.13    3.27
 -10   3  -1   15.32    2.72
  -3  -7   1   19.29    3.79
  -7  -3  -1   14.75    3.52
  -7  10   1    8.16    2.91
  10  -3   1   10.62    3.36
  -7  -3  -1   15.14    3.35
  10  -7  -1    8.08    3.31
  -3  -7   1   12.86    3.41
  -7  10   1    9.66    3.29
 -10   6   1   26.38    4.13
   4 -10   1   29.08    4.30
   6 -10  -1   30.08    4.30
 -10   4  -1   20.02    4.06
   4   6  -1   20.12    3.69
 -10   4  -1   26.86    3.08
 -10   6   1   24.06    2.72
  10  -4   1   25.49    4.32
  -4  10  -1   25.55    3.80
  -6  10   1   26.38    4.12
  -6  -4  -1   14.94    3.60
  -6  -4  -1   32.38    4.32
  -4  -6   1   22.67    3.95
  -4  -6   1   32.89    4.40
  -6  10   1   26.55    4.27
  10  -6  -1   28.77    4.38
 -10   5   1    8.95    1.96
   5   5  -1   11.40    3.00
 -10   5  -1    7.84    2.10
   5   5   1   10.06    2.94
 -10   5  -1    5.06    2.70
   5 -10  -1   11.96    3.32
   5 -10   1    7.32    2.87
 -10   5   1    2.75    2.55
  -5  10  -1   11.09    3.22
  10  -5  -1    5.40    2.92
  -5  10   1    7.98    2.99
  -5  10  -1   10.20    3.14
  -5  -5   1    8.14    2.96
  -5  -5  -1    6.06    2.82
  -5  -5  -1   10.31    2.89
  -5  -5   1   11.67    3.05
  -5  -5  -1    8.19    2.95
  10  -5   1    5.63    3.08
  -5  10   1   12.99    3.32
 -10   6  -1    9.59    2.34
   6   4  -1    5.40    2.94
   6 -10   1   12.73    3.34
 -10   4   1   10.88    2.14
 -10   6  -1   11.86    3.28
   4 -10  -1    8.39    3.25
 -10   4   1    9.37    3.23
   4   6   1   11.50    3.05
  -6  10  -1   13.49    3.29
  -6  -4   1   10.01    2.75
  -4  10   1   12.23    3.28
  -6  10  -1   12.91    3.31
  -4  -6  -1   15.38    3.51
  -4  10   1   10.63    3.12
  -4  -6  -1   14.38    3.24
  10  -6   1    9.49    3.36
  -6  -4   1   10.20    2.76
  10  -4  -1    9.06    3.07
 -10   3   1   28.28    4.46
 -10   7  -1   33.62    4.39
   3 -10  -1   26.63    4.58
 -10   7  -1   30.07    3.50
   3   7   1   33.10    4.09
   7 -10   1   38.65    4.49
 -10   3   1   30.86    3.20
  -7  -3   1   33.61    4.10
  10  -3  -1   29.35    4.38
  -7  10  -1   31.07    4.37
  -3  -7  -1   39.23    4.99
  -3  10   1   32.27    4.48
  -7  10  -1   36.20    4.82
  10  -7   1   32.17    4.68
  -7  -3   1   42.07    5.23
 -10   2   1   30.06    4.61
   2 -10  -1   27.70    4.57
 -10   8  -1   30.93    3.71
 -10   2   1   23.38    2.97
 -10   8  -1   26.43    4.02
  -8  10  -1   25.91    4.37
  10  -2  -1   24.52    3.98
  -8  -2   1   30.36    3.82
  -8  10  -1   26.95    4.26
  -2  -8  -1   30.57    4.73
  10  -8   1   24.88    4.53
  -8  -2   1   26.01    4.52
   1 -10  -1   17.61    3.96
 -10   1   1   21.24    4.26
 -10   1   1   15.08    2.94
 -10   9  -1   16.77    3.32
  -9  -1   1   18.54    3.32
  -9  10  -1   15.80    3.55
  -1  -9  -1   28.66    4.77
  -9  -1   1   20.71    4.38
  -9  10  -1   18.32    4.04
  10  -9   1   13.50    3.78
 -10  10  -1    9.84    3.13
  10 -10   1    9.16    3.64
   0 -10  -1   13.89    3.91
 -10   0   1   17.86    3.16
 -10   0   1    9.60    3.53
   1 -11   1    2.77    3.33
 -11  10   1    5.76    2.72
 -11   1  -1    4.39    2.74
 -11   1  -1   15.03    4.34
 -11  10   1    0.62    2.99
  11 -10  -1    9.57    3.71
 -10  11   1    4.66    3.44
 -10  -1  -1    5.91    3.07
 -10  11   1    9.23    3.52
  11  -1   1    6.28    3.74
  -1 -10   1   12.35    3.83
 -10  -1  -1    5.85    3.40
 -11   9   1    5.53    2.52
   2 -11   1   12.43    4.01
 -11   2  -1   -0.06    3.09
 -11   2  -1    5.37    2.55
  11  -2   1    4.77    3.49
  -9  -2  -1    2.14    2.64
  -2  -9   1    7.37    3.44
  -9  11   1    1.66    2.71
  -9  11   1    7.45    3.48
  11  -9  -1    2.05    3.08
  -9  -2  -1    7.95    3.57
   3 -11   1    4.11    3.25
 -11   3  -1    5.63    3.20
   3   8  -1   -1.28    2.62
 -11   8   1    4.03    2.08
 -11   3  -1    6.42    2.42
  -8  -3  -1    3.86    3.19
  -3  -8   1    5.74    3.07
  -8  11   1    3.60    3.11
  -8  -3  -1    1.42    2.66
  -8  11   1    4.87    3.23
  11  -3   1    8.03    3.41
  11  -8  -1    4.70    2.92
 -11   7   1    0.49    1.75
   7 -11  -1   10.90    3.55
   4 -11   1    5.73    3.31
 -11   7   1   -1.27    2.35
 -11   4  -1    6.79    2.43
   4   7  -1    5.15    2.88
 -11   4  -1    4.56    2.82
  -7  -4  -1    7.00    3.15
  11  -7  -1    4.24    3.27
  11  -4   1    3.99    2.99
  -4  -7   1    0.83    2.84
  -7  -4  -1    2.27    2.68
  -7  11   1   10.41    3.32
  -4  -7   1    3.19    2.97
  -7  11   1    7.68    3.58
   6 -11  -1   16.69    4.09
   5 -11   1   12.53    3.58
 -11   5  -1   12.32    3.60
 -11   6   1   12.00    2.27
 -11   5  -1   13.96    2.59
 -11   6   1   11.72    3.41
   5   6  -1   20.97    3.90
   6   5   1    9.82    3.28
  -6  11   1   15.27    3.68
  11  -6  -1    9.70    3.51
  11  -5   1   20.16    4.20
  -5  -6   1   10.95    3.27
  -5  -6   1   11.29    3.59
  -6  -5  -1   12.31    3.55
  -6  11   1   14.58    3.83
   5   6   1    4.04    2.74
   6 -11   1    1.61    2.86
   5 -11  -1    1.95    2.99
 -11   5   1    3.43    1.81
 -11   6  -1    6.40    3.26
 -11   6  -1    3.12    1.98
 -11   5   1    6.70    3.21
   6   5  -1    6.00    3.11
  -6  -5   1    5.99    2.64
  -5  -6  -1    1.64    2.35
  -6  -5   1    8.93    3.09
  -6  11  -1    3.09    3.02
  -5  11   1    8.31    3.31
  -6  11  -1    5.22    3.00
  -5  -6  -1    3.14    2.67
  11  -5  -1    3.89    3.03
  11  -6   1    1.17    2.89
  -5  11   1   -0.07    2.82
 -11   7  -1   11.91    3.56
 -11   4   1   12.99    2.46
   4 -11  -1    8.82    3.56
 -11   4   1   11.14    3.47
   7 -11   1    9.58    3.34
 -11   7  -1   11.42    2.70
   7   4  -1    7.13    3.22
  -4  -7  -1   11.61    3.23
  -7  11  -1   10.51    3.39
  -4  11   1   12.15    3.62
  11  -7   1    5.35    3.08
  11  -4  -1   12.26    3.50
  -7  11  -1   10.53    3.44
  -7  -4   1   11.63    3.23
 -11   8  -1   10.40    2.64
 -11   3   1   16.24    4.10
 -11   8  -1   11.00    3.43
   3 -11  -1    8.15    3.31
 -11   3   1   10.42    2.51
  11  -8   1   13.05    3.81
  11  -3  -1   11.04    3.48
  -3  -8  -1    9.76    3.56
  -8  -3   1   13.98    3.72
  -8  11  -1    3.93    3.13
  -8  11  -1    9.95    3.68
  -8  -3   1   11.46    3.20
 -11   2   1   11.36    2.74
 -11   9  -1   14.94    3.30
   2 -11  -1   11.26    4.10
 -11   2   1   16.67    4.09
  11  -9   1    9.80    3.80
  -9  11  -1   16.42    3.88
  -9  11  -1   15.34    4.06
  -9  -2   1   11.34    3.81
  -2  -9  -1    5.82    3.17
  -9  -2   1   15.88    3.26
 -11   1   1    3.42    3.29
  10 -11   1    7.80    3.61
 -11  10  -1   17.41    3.55
 -11   1   1    7.37    2.63
   1 -11  -1   10.06    3.70
  -1 -10  -1   16.23    3.98
 -10  11  -1   10.81    3.55
  11 -10   1    7.76    3.82
 -10  -1   1    5.50    3.55
 -10  -1   1   11.41    3.26
 -10  11  -1    4.87    3.31
 -12   8   1    0.54    1.88
 -12   4  -1    4.83    3.28
   4 -12   1    3.61    3.19
 -12   4  -1    1.08    2.02
  -4  -8   1    3.81    2.90
  -8  -4  -1    0.17    2.92
  -8  12   1    2.34    3.20
  12  -4   1   -0.85    2.77
  -8  12   1    2.80    3.06
  -8  -4  -1    3.14    3.03
  12  -8  -1    4.40    3.38
   7 -12  -1    4.61    3.41
   5 -12   1    5.28    3.46
 -12   5  -1    6.09    2.52
   5   7  -1    7.78    3.38
 -12   5  -1    7.69    3.51
 -12   7   1    3.94    3.03
   7   5   1    5.11    3.05
 -12   7   1   10.53    2.40
  12  -7  -1    6.70    3.53
  12  -5   1    8.49    3.56
  -7  -5  -1    0.81    2.87
  -7  12   1    1.95    3.39
  -5  -7   1    4.77    3.30
  -7  12   1    1.32    3.14
  -5  -7   1    2.89    2.91
 -12   6  -1    9.95    2.66
   6   6  -1   10.43    3.52
 -12   6  -1    8.51    3.70
   6 -12   1   14.58    4.05
 -12   6   1   12.81    3.76
 -12   6   1    7.95    2.31
   6 -12  -1   11.97    3.99
   6   6   1   14.69    3.66
  -6  -6   1    9.60    3.50
  12  -6  -1   11.88    3.91
  -6  12   1   13.21    3.98
  -6  -6   1   13.98    3.62
  -6  -6  -1    2.99    3.17
  -6  12   1   11.59    3.76
  12  -6   1   12.01    3.98
 -12   5   1   11.10    2.57
   7   5  -1   12.03    3.71
   7 -12   1   14.39    3.85
 -12   5   1   15.72    4.09
   5 -12  -1   10.30    4.02
 -12   7  -1   21.00    4.36
 -12   7  -1   11.62    2.70
  -7  12  -1   12.27    3.78
  -5  -7  -1   12.94    3.55
  -7  12  -1    6.02    3.36
  -7  -5   1    9.92    3.43
  12  -5  -1   11.78    3.83
  -5  12   1    5.29    3.29
  12  -7   1   14.96    4.16
   4 -12  -1   10.16    3.94
 -12   4   1   12.65    2.67
   8   4  -1   23.18    4.56
 -12   4   1   10.87    3.87
 -12   8  -1   13.43    2.95
 -12   8  -1   15.87    4.02
  -8  12  -1    9.77    3.77
  -4  -8  -1   15.96    4.00
  -8  -4   1   11.28    3.33
  12  -4  -1   18.15    4.32
  -8  12  -1   10.97    3.87
  12  -8   1   12.25    3.78
   0   0   2   -0.07    0.77
   0   0   2    0.51    0.79
   0   0  -2    0.62    0.78
   0   0  -2   -0.46    0.68
   0   0   2    1.39    0.75
  -1   0  -2  353.41    6.80
  -1   1   2  349.53    6.88
   0  -1   2  359.32    7.06
   0   1  -2  355.14    7.00
   0   1  -2  341.16    6.61
  -1   1   2  354.24    6.97
   1   0   2  348.12    6.32
  -1   1   2  358.31    6.06
   1  -1  -2  356.68    6.20
  -1   1   2  357.91    6.09
   1   0   2  365.43    6.81
  -1   0  -2  353.63    6.77
   0  -1   2  354.18    6.68
   0  -1   2  356.51    5.97
   1   0   2  360.33    7.10
   0  -1  -2    7.11    0.81
   1  -1   2    5.78    0.96
  -1   0   2    5.52    0.83
   0  -1  -2    6.07    1.22
   1  -1   2    6.79    1.12
  -1   1  -2    5.05    1.14
  -1   1  -2    6.45    1.26
   0   1   2    5.56    1.26
  -1   0   2    4.73    1.08
   0  -1  -2    6.77    1.10
  -1   0   2    5.64    0.75
   0   1   2    5.23    1.11
   1   0  -2    7.80    1.18
   1  -1   2    6.62    1.13
  -2   2   2  363.30    6.30
  -2   2   2  363.88    6.31
  -2   2   2  364.73    6.62
   0   2  -2  365.25    7.75
   2  -2  -2  369.00    7.69
  -2   2   2  369.39    7.79
   0  -2   2  360.08    7.39
   0   2  -2  357.05    7.41
  -2   0  -2  359.91    7.40
  -2   0  -2  357.43    6.49
   2   0   2  358.51    7.79
  -2   0  -2  363.52    7.65
   0   2  -2  368.11    6.27
   0  -2   2  371.77    7.92
   1   1   2   22.26    1.86
  -2   1   2   23.80    1.83
   1   1   2   24.08    2.07
   1  -2   2   26.79    1.94
   1  -2  -2   23.62    2.04
  -2   1   2   25.46    1.75
  -2   1   2   24.33    1.84
   1   1  -2   25.03    2.02
  -2   1  -2   25.89    1.81
  -2   1  -2   23.58    1.98
   1  -2   2   23.90    1.57
   1  -2   2   25.48    1.86
   2  -1   2   25.96    2.03
  -1   2  -2   22.81    1.55
  -1  -1   2   22.53    1.51
   2  -1   2   21.55    0.95
  -1   2   2   23.34    2.03
  -1  -1  -2   24.56    1.70
  -1   2  -2   19.65    1.79
   2  -1   2   23.88    1.71
  -1  -1   2   22.59    1.89
  -1   2  -2   24.94    2.04
  -1  -1  -2   23.42    1.60
  -1  -1  -2   23.20    1.88
  -1   2   2   22.76    1.65
  -1  -1   2   24.08    1.64
  -2   0   2    4.91    1.03
  -2   0   2    4.15    1.37
   0   2   2    5.51    1.32
   0   2   2    6.43    1.55
   0  -2  -2    2.94    1.25
   2  -2   2    5.23    1.46
   0  -2  -2    2.73    1.28
  -2   2  -2    1.62    1.34
   2  -2   2    5.80    1.07
  -2   0   2    4.55    1.34
   0  -2  -2    4.64    0.85
   2  -2   2    4.52    1.23
  -2   0   2    4.46    0.70
  -2   0   2    5.11    0.68
  -2   2  -2    4.72    1.31
  -3   0  -2  100.88    2.66
   0   3  -2  101.63    3.68
  -3   0  -2   98.73    3.83
  -3   0  -2  103.54    3.59
  -3   3   2  106.50    4.12
  -3   3   2   99.86    2.80
   0   3  -2  103.33    2.77
  -3   3   2  105.18    3.04
   0  -3   2  106.09    4.22
   0  -3   2   99.76    3.63
  -3   3   2  108.10    2.79
   3  -3  -2  101.18    3.75
   3   0   2   98.41    3.89
   0   3  -2  109.51    3.93
   2   1   2   31.21    2.29
  -3   2   2   27.70    2.07
  -3   2   2   35.88    2.39
   1   2  -2   31.77    1.19
  -3   1  -2   29.51    2.55
   1  -3   2   30.07    2.25
   1  -3   2   30.25    2.25
   2   1   2   31.51    2.11
  -3   1  -2   31.43    2.22
  -3   2   2   30.54    2.07
   1   2  -2   32.65    2.31
   2  -3  -2   33.08    2.31
  -2   3   2   24.71    1.78
   3  -1   2   26.95    2.38
  -2  -1  -2   23.10    2.10
  -1   3  -2   24.92    1.79
  -1  -2   2   24.72    2.33
  -1   3  -2   26.58    2.25
  -1  -2   2   24.09    2.04
  -2  -1  -2   26.23    1.87
  -2   3   2   26.51    1.17
  -2  -1  -2   25.53    2.21
  -2   3   2   23.63    2.25
  -2   3   2   26.13    1.78
  -1   3  -2   29.45    2.37
  -3   1   2  123.97    3.79
   1   2   2  125.50    4.02
   1  -3  -2  118.85    4.27
   2  -3   2  124.94    3.90
   1  -3  -2  124.00    3.80
  -3   1   2  129.05    3.85
  -3   2  -2  118.27    4.11
   2   1  -2  127.33    2.95
   2  -3   2  121.47    3.84
  -3   2  -2  127.04    3.84
  -3   1   2  127.94    4.04
   1   2   2  120.07    4.02
  -2   3  -2  104.06    3.72
  -2  -1   2  112.38    3.89
  -1  -2  -2  109.52    3.32
  -2   3  -2  111.40    3.57
   3  -2   2  106.52    3.97
  -1   3   2  111.93    3.98
  -1  -2  -2  111.91    3.82
  -1  -2  -2  111.49    3.80
  -2  -1   2  104.90    4.01
  -2   3  -2  111.53    3.76
  -2  -1   2  117.23    3.24
  -1   3   2  108.65    3.66
   3  -2   2  116.39    2.39
  -2  -1   2  111.11    3.19
   0  -3  -2    8.75    1.72
   0   3   2    5.78    1.53
   3  -3   2    4.84    1.26
  -3   0   2    8.40    0.94
  -3   0   2    6.19    1.49
  -3   3  -2    5.84    1.48
  -3   0   2    7.79    1.63
  -3   0   2    8.44    0.97
   0  -3  -2    9.73    1.16
   3  -3   2    7.98    1.77
   3  -3   2    9.01    1.32
   0  -3  -2    6.29    1.55
  -3   3  -2    7.62    1.72
   0   3   2    6.36    1.65
   3   0  -2    7.96    1.34
  -3   3  -2    5.13    1.52
   0   4  -2  274.31    7.32
  -4   0  -2  279.06    7.07
  -4   0  -2  284.28    7.70
   4   0   2  293.26    7.84
  -4   4   2  291.43    6.09
   0   4  -2  284.43    7.42
   0   4  -2  282.42    6.10
  -4   4   2  285.78    7.86
  -4   0  -2  280.37    5.75
   0  -4   2  278.64    7.25
   4  -4  -2  273.81    7.22
  -4   4   2  276.72    6.14
  -4   4   2  287.81    6.45
   0  -4   2  275.67    7.93
  -4   1  -2  106.91    3.74
   3   1   2  104.65    3.65
  -4   3   2  101.92    3.63
  -4   3   2  104.05    4.29
   3  -4  -2  102.99    4.22
   1   3  -2  107.96    3.90
  -4   3   2  105.53    2.43
  -4   3   2  106.72    2.38
   3   1   2  102.97    4.14
  -4   1  -2  108.59    4.44
   1   3  -2  107.50    2.78
   1   3  -2  109.67    4.36
   1  -4   2  105.67    4.05
   1  -4   2  105.43    4.53
  -1  -3   2   96.86    4.16
  -3  -1  -2   90.51    3.66
   4  -1   2   93.56    4.12
  -1   4  -2   93.02    3.80
  -1   4  -2   93.49    3.92
  -3   4   2   92.92    2.68
  -3   4   2   98.39    3.29
   4  -3  -2   92.88    3.57
  -1   4  -2   94.45    3.16
  -3   4   2   86.02    3.24
  -3   4   2   86.91    4.05
  -3  -1  -2   91.01    3.14
  -1  -3   2   90.12    3.72
  -3  -1  -2   84.80    3.81
   2  -4  -2   27.07    2.67
  -4   2   2   23.36    2.38
  -4   2   2   19.84    2.14
   2   2  -2   21.92    1.43
   2   2   2   22.19    2.23
  -4   2   2   23.71    2.09
   2   2  -2   22.22    2.35
  -4   2  -2   24.17    2.44
  -4   2  -2   25.10    2.13
   2  -4   2   24.35    2.49
   2   2   2   24.99    2.47
   2  -4   2   21.04    2.19
  -2  -2   2   23.39    2.19
  -2   4  -2   24.69    2.32
  -2  -2   2   22.20    2.35
  -2   4  -2   25.37    2.27
  -2   4   2   27.05    2.67
  -2  -2  -2   21.26    2.18
   4  -2   2   21.10    2.36
  -2  -2  -2   27.61    2.40
  -2   4   2   26.27    1.20
  -2   4  -2   24.19    2.40
  -2  -2  -2   22.88    2.16
  -2   4   2   23.41    2.24
   1   3   2    6.59    1.67
   3   1  -2    7.24    1.19
  -4   1   2    3.69    1.50
  -4   3  -2    7.96    1.80
   1  -4  -2    5.40    1.50
  -4   1   2    5.65    1.72
   1   3   2    8.16    1.68
   3  -4   2    8.19    1.50
   1  -4  -2    6.74    1.70
  -4   3  -2    5.61    1.50
   3  -4   2    7.46    1.57
  -4   1   2    7.83    1.44
  -1   4   2    5.79    1.66
  -1   4   2    6.17    0.94
  -3  -1   2    7.34    1.35
   4  -3   2    4.12    1.64
  -1  -3  -2    8.14    1.78
  -3  -1   2    5.27    1.54
  -3  -1   2    4.57    1.72
  -3  -1   2    5.66    1.24
   4  -3   2    5.95    0.95
  -1   4   2    4.34    1.61
  -1  -3  -2    5.88    1.73
  -3   4  -2    8.28    1.74
  -1  -3  -2    5.64    1.29
  -3   4  -2    5.63    1.59
  -3   4  -2    7.49    1.72
  -4   0   2    0.55    0.91
   0  -4  -2   -1.05    1.42
  -4   4  -2   -0.65    1.30
   4  -4   2   -0.66    1.00
  -4   0   2    1.43    1.46
  -4   0   2   -0.59    1.13
   0   4   2   -0.19    1.39
   4   0  -2    1.54    1.06
   0   4   2    0.77    0.97
  -4   4  -2   -1.02    1.37
   0  -4  -2   -0.97    1.27
  -4   4  -2    0.78    1.39
   0   4   2    1.46    1.32
  -4   0   2    0.90    0.84
   0  -5   2  203.61    6.55
  -5   5   2  200.37    5.64
   0   5  -2  193.86    5.21
  -5   0  -2  189.51    6.00
  -5   0  -2  202.49    7.01
   0   5  -2  192.92    6.54
  -5   5   2  196.13    6.98
  -5   5   2  197.55    5.46
  -5   0  -2  210.78    4.88
   0  -5   2  203.37    7.26
  -5   5   2  202.75    5.29
   0   5  -2  191.83    6.45
   5   0   2  206.45    6.92
   5  -5  -2  200.46    6.35
   1  -5   2   67.12    4.15
  -5   1  -2   71.08    1.79
  -5   4   2   73.65    3.33
  -5   1  -2   75.94    4.04
  -5   1  -2   75.66    3.43
  -5   4   2   73.21    4.03
  -5   4   2   73.45    2.46
  -5   4   2   69.50    2.57
   1   4  -2   59.93    3.71
   1  -5   2   71.37    3.75
   1   4  -2   67.53    2.58
   1   4  -2   80.91    3.86
   4  -5  -2   72.52    3.86
   4   1   2   75.01    3.99
  -4   5   2   69.82    3.30
  -1   5  -2   84.26    3.81
   5  -4  -2   63.84    3.26
  -4   5   2   69.81    2.75
  -4  -1  -2   71.83    3.88
  -1  -4   2   73.80    4.10
  -1  -4   2   65.49    3.68
  -1   5  -2   70.96    3.12
  -4   5   2   71.46    3.13
  -4   5   2   67.07    4.02
  -1   5  -2   77.79    3.96
  -4  -1  -2   73.84    3.00
   5  -1   2   70.20    3.91
  -4  -1  -2   72.93    3.57
  -5   2  -2  137.29    5.34
   3  -5  -2  139.90    5.41
  -5   3   2  142.47    4.50
  -5   3   2  136.32    4.85
   2  -5   2  133.10    5.33
  -5   2  -2  146.33    4.45
  -5   3   2  137.98    5.18
   2   3  -2  142.70    3.66
   2  -5   2  147.88    5.03
   3   2   2  148.33    4.80
   2   3  -2  146.90    5.30
  -5   2  -2  134.35    4.48
   3   2   2  138.93    5.09
  -3   5   2  152.73    3.63
  -3  -2  -2  141.27    4.70
  -3   5   2  142.98    5.56
  -2   5  -2  145.75    4.97
  -3  -2  -2  143.45    5.04
  -3  -2  -2  148.62    5.18
  -2   5  -2  146.28    5.28
   5  -2   2  139.26    5.54
  -3   5   2  147.12    4.97
  -2   5  -2  144.49    4.59
  -2  -3   2  151.31    5.03
  -2  -3   2  141.96    5.32
   2  -5  -2  152.59    4.72
   2   3   2  152.93    5.21
  -5   2   2  145.56    5.23
   3  -5   2  157.73    4.97
  -5   2   2  148.69    5.28
  -5   3  -2  153.25    5.57
  -5   3  -2  157.60    4.66
   2  -5  -2  147.49    5.57
  -5   2   2  144.93    4.61
   3  -5   2  158.41    5.33
  -5   3  -2  155.61    4.81
   3   2  -2  152.84    4.05
   2   3   2  147.27    5.22
  -3  -2   2  160.64    5.05
  -2   5   2  157.86    5.68
  -2  -3  -2  157.83    5.12
  -2  -3  -2  163.96    5.50
   5  -3   2  166.17    5.88
  -2   5   2  154.24    5.38
  -3  -2   2  162.19    5.01
  -3   5  -2  158.29    5.26
  -2   5   2  158.43    3.65
  -2  -3  -2  163.05    5.50
  -3  -2   2  159.82    5.54
  -3   5  -2  161.76    5.32
  -3   5  -2  165.28    5.48
  -3  -2   2  154.29    5.70
   1   4   2   88.82    4.15
  -5   1   2   92.11    3.61
  -5   1   2   92.92    4.40
  -5   1   2   90.47    2.56
   1   4   2   88.21    4.23
   4   1  -2   91.97    3.38
   1  -5  -2   87.89    4.51
  -5   4  -2   86.54    4.13
  -5   4  -2   88.18    3.82
   1  -5  -2   91.74    4.01
   4  -5   2   91.41    3.78
  -5   1   2   91.21    2.49
  -4  -1   2   80.17    4.24
  -4  -1   2   82.03    3.21
  -1   5   2   80.43    2.69
  -4   5  -2   79.86    4.00
  -1  -4  -2   82.77    4.28
  -1  -4  -2   80.72    3.39
   5  -4   2   77.04    4.15
  -4   5  -2   82.72    3.94
  -4  -1   2   84.31    3.33
  -1   5   2   91.37    4.23
   5  -1  -2   81.57    3.71
  -1   5   2   83.27    4.08
   5  -4   2   80.46    2.73
  -4  -1   2   81.94    3.85
  -4   5  -2   84.23    3.96
  -1  -4  -2   80.85    4.03
  -5   5  -2    4.88    1.73
   0   5   2    0.28    1.54
   0  -5  -2    3.24    2.03
   5   0  -2    4.66    1.54
   5  -5   2    5.23    1.48
  -5   0   2    1.62    1.35
  -5   0   2    3.74    1.26
   0  -5  -2    2.13    1.62
  -5   0   2    4.80    1.84
  -5   0   2    2.12    1.12
  -5   5  -2    0.76    1.47
  -5   5  -2    1.14    1.40
   0   5   2    4.54    1.37
   0   5   2    2.95    1.67
  -6   6   2  308.26    9.59
  -6   0  -2  283.62    8.27
   6  -6  -2  295.86    8.55
   0  -6   2  300.99    9.81
   0   6  -2  300.06    7.39
   6   0   2  299.26    9.34
  -6   6   2  297.99    7.82
   0  -6   2  308.06    9.12
   0   6  -2  293.10    8.63
  -6   0  -2  282.34    9.29
  -6   6   2  298.94    7.54
   1   5  -2   88.31    3.33
   1  -6   2   83.29    4.92
  -6   1  -2   91.33    4.11
   5   1   2   87.74    4.70
  -6   5   2   88.51    3.20
  -6   5   2   95.09    5.02
   1  -6   2   87.39    4.55
   1   5  -2   91.20    4.59
  -6   1  -2   81.23    4.68
  -6   5   2   89.23    3.30
  -6   5   2   86.67    4.04
   5  -6  -2   87.28    4.54
  -1  -5   2   93.05    5.26
  -1   6  -2   93.11    3.79
  -1   6  -2   85.07    4.27
   6  -5  -2   82.33    4.01
  -5  -1  -2   85.94    4.74
  -5   6   2   84.72    3.53
  -5  -1  -2   84.97    4.22
   6  -1   2   93.04    4.92
  -5  -1  -2   83.81    3.45
  -1  -5   2   96.45    4.68
  -1   6  -2   89.55    4.70
  -5   6   2   84.94    4.01
  -5   6   2   87.29    4.88
  -6   4   2   69.61    3.79
  -6   4   2   68.31    2.37
  -6   2  -2   72.20    3.46
   4  -6  -2   71.42    4.11
   2  -6   2   63.36    4.25
  -6   2  -2   67.04    4.24
   2   4  -2   69.75    2.78
  -6   4   2   59.77    3.91
  -6   4   2   65.87    2.29
   2  -6   2   67.77    3.92
   4   2   2   62.81    3.80
   2   4  -2   67.09    4.04
  -4   6   2   64.53    4.11
  -2   6  -2   64.62    3.37
   6  -4  -2   71.39    3.40
  -2  -4   2   57.82    3.88
  -4   6   2   72.23    3.90
   6  -2   2   62.06    4.02
  -2   6  -2   60.44    3.90
  -4  -2  -2   65.55    3.73
  -4   6   2   63.87    2.65
  -4  -2  -2   66.42    3.41
  -2   6  -2   58.21    3.55
  -2  -4   2   67.20    3.92
  -4  -2  -2   62.18    3.82
  -6   3   2  139.38    5.37
  -6   3  -2  125.25    4.64
   3  -6   2  124.22    5.35
   3   3   2  136.25    5.28
  -6   3   2  131.74    4.45
   3  -6   2  128.73    5.02
  -6   3   2  129.70    5.33
   3  -6  -2  129.70    5.74
   3   3  -2  129.87    5.45
  -6   3   2  132.41    2.98
   3   3  -2  130.93    3.89
  -6   3  -2  130.49    5.64
   6  -3   2  137.93    5.70
  -3   6  -2  134.39    5.45
  -3  -3  -2  141.49    5.29
  -3  -3   2  135.77    5.49
  -3   6  -2  137.70    5.14
  -3   6  -2  136.35    5.12
  -3  -3  -2  136.54    5.31
  -3   6   2  132.80    5.62
  -3   6   2  146.82    5.56
  -3  -3  -2  135.47    5.12
  -3   6   2  142.75    3.68
  -3  -3   2  135.41    5.23
  -6   2   2   74.58    4.12
   4  -6   2   75.93    3.95
  -6   4  -2   79.08    3.72
  -6   2   2   74.06    2.26
  -6   2   2   72.55    2.25
   2   4   2   67.73    3.89
   2   4   2   72.22    4.05
  -6   4  -2   76.72    4.34
  -6   2   2   77.61    3.40
   2  -6  -2   76.42    4.57
   4   2  -2   73.35    3.17
  -2   6   2   81.80    4.49
   6  -2  -2   74.44    4.04
  -4   6  -2   73.27    4.06
  -2   6   2   79.18    2.71
  -2  -4  -2   76.00    3.84
   6  -4   2   73.47    4.36
  -4   6  -2   75.22    4.08
  -4  -2   2   77.23    4.00
  -4   6  -2   83.01    4.06
  -2  -4  -2   77.14    4.20
  -2  -4  -2   76.58    4.28
  -2   6   2   84.47    4.47
  -4  -2   2   82.37    3.71
  -4  -2   2   83.83    4.62
   1   5   2   -0.70    1.49
   1   5   2    1.76    1.36
  -6   1   2    0.28    1.28
   1  -6  -2    0.72    1.90
  -6   5  -2    0.29    1.39
   1   5   2    4.84    2.03
  -6   1   2    2.54    1.10
  -6   5  -2    2.55    1.82
   5  -6   2    3.23    1.64
   1  -6  -2    1.57    1.64
  -6   1   2    1.65    1.04
   5   1  -2    3.59    1.58
  -6   1   2    2.20    1.96
  -1  -5  -2    1.92    1.64
  -5   6  -2   -1.31    1.55
  -1   6   2    0.73    1.72
  -5   6  -2   -0.45    1.49
  -5  -1   2    1.64    1.31
  -5   6  -2   -0.52    1.53
  -1   6   2    3.11    1.28
  -1   6   2    1.10    1.85
  -5  -1   2    3.54    1.82
  -1  -5  -2    3.22    1.86
   6  -5   2    1.09    1.17
   6  -5   2    1.22    1.86
   6  -1  -2    0.36    1.43
  -5  -1   2    0.84    1.46
   6   0  -2    1.58    1.60
   0  -6  -2   -1.06    1.60
  -6   0   2    3.97    1.43
  -6   0   2    1.85    1.52
  -6   0   2    4.34    2.21
   0   6   2    1.61    1.82
  -6   6  -2    3.61    1.83
  -6   6  -2    0.13    1.86
   0   6   2    3.37    1.82
   0   6   2    1.51    1.43
   0  -6  -2    3.38    2.15
  -6   6  -2    4.30    2.01
   6  -6   2    0.74    1.43
  -7   0  -2  101.73    5.97
   7  -7  -2  113.33    5.47
  -7   0  -2  108.96    5.24
  -7   7   2  105.84    6.11
   0   7  -2  107.51    5.42
  -7   7   2  104.16    4.71
   0  -7   2  112.98    6.35
  -7   7   2  110.97    4.86
   0  -7   2  106.62    5.80
   7   0   2   99.19    5.58
  -7   6   2  131.04    5.39
   1   6  -2  127.75    5.84
  -7   6   2  123.03    6.23
  -7   6   2  127.00    4.53
   6  -7  -2  128.98    5.73
   1  -7   2  131.57    6.59
  -7   1  -2  136.43    5.51
  -7   1  -2  119.97    6.35
   6   1   2  132.37    6.19
   1  -7   2  125.22    5.90
  -6  -1  -2  123.16    6.13
  -6  -1  -2  128.68    5.65
   7  -1   2  127.11    6.24
  -6   7   2  136.47    6.61
  -1  -6   2  125.01    6.64
  -1   7  -2  145.85    5.87
   7  -6  -2  144.54    5.60
  -1  -6   2  140.78    6.22
  -1   7  -2  127.68    5.01
  -6   7   2  136.58    5.35
  -7   5   2   51.06    3.68
   2  -7   2   47.80    4.61
   5  -7  -2   48.15    4.36
  -7   2  -2   46.36    3.24
  -7   5   2   41.17    4.24
   5   2   2   50.45    4.23
  -7   5   2   49.38    2.53
   2   5  -2   46.72    4.22
  -7   2  -2   49.63    4.62
  -5  -2  -2   47.83    4.38
   7  -5  -2   52.19    3.26
  -5   7   2   46.12    3.95
   7  -2   2   44.67    4.37
  -5  -2  -2   45.40    4.02
  -2  -5   2   52.17    4.58
  -2  -5   2   45.43    4.12
  -5  -2  -2   52.95    3.18
  -2   7  -2   50.36    4.42
  -2   7  -2   49.72    3.25
  -5   7   2   47.38    4.54
  -2   7  -2   42.96    3.73
  -7   3  -2   42.54    4.25
  -7   4   2   44.43    4.11
   4  -7  -2   41.52    4.02
  -7   4   2   38.29    3.70
   3   4  -2   45.55    4.17
   3  -7   2   46.53    4.23
  -7   4   2   44.64    2.05
  -7   3  -2   40.00    2.97
   4   3   2   42.15    3.84
  -7   4   2   41.13    2.06
  -4   7   2   40.65    4.05
  -3   7  -2   43.11    3.65
  -3   7  -2   44.93    3.33
  -3  -4   2   42.06    3.71
   7  -3   2   46.39    4.43
  -4  -3  -2   49.90    4.23
  -4   7   2   48.43    4.08
  -3   7  -2   44.18    4.07
  -3  -4   2   39.80    4.03
  -4  -3  -2   39.49    3.78
   7  -4  -2   43.23    2.91
  -4  -3  -2   45.45    3.32
   3   4   2   51.20    3.63
   4   3  -2   52.38    2.87
  -7   3   2   54.24    3.06
  -7   4  -2   53.58    3.28
  -7   3   2   53.27    3.97
   3  -7  -2   61.84    4.60
   4  -7   2   53.74    3.89
  -7   3   2   55.72    2.15
  -7   4  -2   49.06    4.43
   4   3  -2   51.20    4.44
  -7   3   2   56.03    2.17
  -4   7  -2   48.99    4.17
  -3  -4  -2   52.84    3.85
   7  -4   2   55.09    4.74
   7  -3  -2   46.79    4.16
  -4   7  -2   56.38    3.81
  -3  -4  -2   49.71    3.54
  -4   7  -2   49.27    3.61
  -4  -3   2   53.42    3.86
  -3   7   2   60.57    4.28
  -3   7   2   60.98    4.30
  -4  -3   2   50.97    4.45
  -3  -4  -2   54.58    3.75
  -4  -3   2   52.06    3.63
   5  -7   2   17.19    2.76
  -7   2   2   18.17    1.67
   2  -7  -2   15.42    2.99
  -7   2   2   18.96    3.12
   2   5   2   14.05    2.62
   2   5   2   26.17    2.77
  -7   2   2   17.92    2.30
   5   2  -2   17.37    2.27
  -7   5  -2   18.30    2.51
  -7   5  -2   18.26    2.90
  -7   2   2   19.14    1.74
   7  -5   2   15.40    2.89
  -5  -2   2   21.88    3.28
  -5   7  -2   20.31    2.97
  -5   7  -2   25.04    3.03
   7  -2  -2   23.86    3.06
  -5  -2   2   21.33    2.62
  -2  -5  -2   17.25    2.84
  -5  -2   2   24.06    3.01
  -2   7   2   13.06    2.85
  -2  -5  -2   29.07    3.51
  -2   7   2   22.19    3.16
  -5   7  -2   25.75    3.27
   6  -7   2   -0.90    1.57
  -7   1   2    2.10    1.33
   6   1  -2    4.05    1.85
  -7   6  -2    2.61    1.83
  -7   1   2    0.58    2.02
  -7   1   2    1.28    1.45
   1   6   2    0.96    1.82
   1  -7  -2    6.11    2.50
  -7   6  -2    2.71    2.08
   1   6   2    2.55    1.71
  -1  -6  -2    0.85    2.25
  -6  -1   2    3.13    1.84
  -1  -6  -2    2.06    1.98
  -6  -1   2    0.86    1.53
   7  -6   2    0.51    2.15
   7  -1  -2    1.70    1.85
  -6   7  -2    3.43    2.00
  -6   7  -2    1.24    1.78
  -1   7   2   -2.16    1.66
  -1   7   2    2.94    2.09
  -6  -1   2    3.56    2.09
  -6   7  -2    1.28    1.87
  -7   0   2    2.12    1.67
  -7   0   2    3.50    2.33
  -7   7  -2    0.79    1.88
   7   0  -2   -1.15    1.69
   0   7   2   -1.48    1.62
  -7   0   2    0.95    1.41
  -7   7  -2    0.28    2.01
   0  -7  -2    0.41    1.99
  -7   7  -2    2.76    2.14
   7  -7   2    2.05    2.15
  -8   8   2   57.54    5.58
   0   8  -2   48.87    4.67
  -8   0  -2   50.32    5.45
   0  -8   2   46.14    5.35
  -8   0  -2   50.59    4.53
   8   0   2   48.16    5.08
   8  -8  -2   56.99    4.31
  -8   8   2   55.53    3.92
  -8   7   2   85.75    4.16
   1  -8   2   74.84    5.55
   7  -8  -2   84.04    5.31
  -8   7   2   87.01    5.69
  -8   1  -2   80.67    4.60
  -8   1  -2   91.57    5.93
  -8   7   2   81.84    4.79
   1   7  -2   96.65    5.56
   7   1   2   78.92    5.28
  -1  -7   2   93.00    5.59
   8  -7  -2   82.59    4.78
  -7  -1  -2   82.58    5.58
  -7   8   2   77.91    4.52
  -7  -1  -2   75.45    4.80
  -7   8   2   83.40    5.86
  -1   8  -2   77.18    4.79
   8  -1   2   67.01    5.82
  -1  -7   2   80.78    5.80
   2  -8   2  128.23    6.96
  -8   6   2  124.49    4.54
  -8   2  -2  119.86    6.55
   2   6  -2  129.39    6.20
   6  -8  -2  118.77    5.98
  -8   6   2  124.77    5.91
  -8   2  -2  127.27    5.38
   6   2   2  132.52    6.16
  -8   6   2  120.75    6.53
  -6   8   2  116.34    6.43
  -2  -6   2  133.68    6.37
  -6  -2  -2  113.34    6.26
  -2  -6   2  117.45    6.50
  -6   8   2  119.27    5.48
   8  -2   2  115.18    6.17
  -6  -2  -2  126.13    5.89
   8  -6  -2  125.43    5.21
  -8   3  -2   40.42    4.44
  -8   5   2   47.79    2.63
   3   5  -2   38.56    4.13
  -8   5   2   46.01    4.66
   3  -8   2   43.42    4.57
   5   3   2   41.46    4.01
  -8   5   2   46.47    4.36
  -8   3  -2   44.10    3.29
   5  -8  -2   39.50    4.41
  -5   8   2   41.01    3.99
   8  -3   2   42.82    4.60
  -3  -5   2   46.40    4.57
  -3   8  -2   40.22    3.74
  -3   8  -2   44.38    4.51
  -3  -5   2   47.66    4.47
  -5  -3  -2   40.88    3.72
  -5  -3  -2   43.23    4.34
  -5  -3  -2   44.53    4.19
  -3   8  -2   46.25    4.09
  -5   8   2   44.42    4.70
   4   4   2   21.45    3.16
  -8   4  -2   25.08    2.86
  -8   4   2   29.83    1.97
   4   4  -2   26.52    3.75
  -8   4   2   27.68    3.55
  -8   4  -2   26.24    3.71
   4  -8  -2   33.64    4.18
   4  -8   2   33.74    3.98
  -4   8   2   27.71    3.53
  -4  -4   2   22.77    3.41
  -4   8  -2   29.85    3.76
   8  -4   2   20.63    3.55
  -4  -4  -2   22.97    3.28
  -4  -4  -2   30.81    3.69
  -4   8   2   30.65    4.05
  -4   8  -2   29.73    3.53
   8  -4  -2   23.59    3.53
  -4   8  -2   27.62    3.24
  -4  -4   2   33.45    3.59
  -4  -4  -2   25.55    3.42
  -8   3   2   17.83    1.83
   5   3  -2   15.25    3.15
  -8   5  -2   16.94    2.99
   3   5   2   12.57    2.71
   3  -8  -2   18.54    3.40
   5  -8   2   17.12    3.02
  -8   5  -2   13.95    2.35
  -8   3   2   13.64    3.06
  -3  -5  -2   18.94    3.29
  -5  -3   2   18.00    2.92
  -3  -5  -2   18.50    3.30
  -3   8   2   20.26    3.41
  -5  -3   2   21.92    3.57
  -3  -5  -2   17.21    2.89
  -5  -3   2   15.28    2.65
  -5   8  -2   19.07    3.21
  -5   8  -2   16.71    2.99
  -5   8  -2   17.25    2.89
  -3   8   2   18.86    3.38
   8  -3  -2   19.15    3.25
   8  -5   2   16.09    3.16
  -8   2   2    1.46    2.10
  -8   6  -2    5.28    2.01
   2  -8  -2    7.85    2.72
   6  -8   2    4.28    2.15
   2   6   2    8.67    2.33
   2   6   2    8.58    2.21
  -8   6  -2    1.54    2.13
  -8   2   2    5.61    1.65
  -6   8  -2    8.72    2.59
  -2   8   2    5.43    2.38
  -2  -6  -2    6.97    2.57
  -6  -2   2   11.10    2.34
  -6   8  -2    6.06    2.59
  -6   8  -2    7.22    2.30
   8  -2  -2   10.30    2.71
  -2  -6  -2    7.60    2.58
  -6  -2   2    8.47    2.32
   8  -6   2    9.88    2.80
  -2   8   2    7.04    2.76
  -6  -2   2    5.31    2.47
   1  -8  -2   -1.50    1.83
   1   7   2    1.33    2.10
  -8   1   2    2.65    2.10
  -8   7  -2    4.40    2.37
  -8   1   2   -0.70    1.41
  -8   7  -2   -0.28    1.91
  -7   8  -2   -0.19    1.77
  -7  -1   2   -0.77    1.95
   8  -1  -2    3.13    2.08
  -1  -7  -2   -0.29    2.09
  -7  -1   2    0.21    1.80
  -7   8  -2    3.45    2.16
  -7  -1   2   -0.66    1.58
   8  -7   2    2.93    2.28
  -1   8   2    2.43    2.14
  -7   8  -2    1.61    2.25
  -8   8  -2    4.44    2.23
   8  -8   2    7.14    2.90
   0  -8  -2   -1.54    2.27
  -8   0   2    2.22    2.42
   8   0  -2    5.10    2.48
  -8   0   2    1.47    1.76
   0   8   2    1.73    1.99
  -8   8  -2    4.60    2.30
   0  -9   2   14.11    3.90
  -9   0  -2   13.94    3.71
  -9   0  -2   19.68    3.53
   0   9  -2   20.97    3.60
  -9   9   2   15.92    3.92
   9   0   2   14.37    3.72
  -9   9   2   17.58    3.09
  -9   1  -2   32.20    4.61
  -9   8   2   26.99    3.18
   8   1   2   34.52    4.53
   1  -9   2   32.74    4.86
   1   8  -2   25.08    3.89
  -9   1  -2   23.06    3.51
   8  -9  -2   30.18    4.12
  -9   8   2   32.27    4.70
   9  -1   2   32.89    4.66
  -8  -1  -2   27.72    3.79
  -1   9  -2   32.81    4.12
  -8   9   2   28.67    4.45
  -1  -8   2   21.47    4.07
  -8  -1  -2   23.69    4.30
  -8   9   2   27.86    3.60
  -9   2  -2   63.93    4.36
  -9   7   2   67.00    6.05
   2  -9   2   54.38    5.70
  -9   7   2   54.38    4.86
   2   7  -2   50.50    4.96
  -9   2  -2   66.71    6.16
  -9   7   2   64.18    3.75
   7   2   2   61.66    5.34
   7  -9  -2   59.49    5.39
  -2   9  -2   61.61    4.56
  -7  -2  -2   47.57    5.20
  -7   9   2   47.43    4.46
  -2  -7   2   62.19    5.66
  -7  -2  -2   50.71    4.72
  -2  -7   2   56.00    5.58
   9  -2   2   58.22    5.48
  -7   9   2   62.74    5.96
  -9   6   2   62.17    5.60
   6  -9  -2   57.16    5.45
  -9   6   2   63.68    3.36
  -9   3  -2   64.14    4.16
   3   6  -2   56.68    5.23
   3  -9   2   53.70    5.54
  -9   3  -2   57.81    5.74
   6   3   2   71.31    4.97
  -9   6   2   66.19    4.75
  -3   9  -2   63.65    4.56
   9  -3   2   61.55    5.76
  -6   9   2   60.99    5.76
  -3  -6   2   60.27    5.30
  -6   9   2   69.53    4.69
  -6  -3  -2   63.11    4.71
  -6  -3  -2   59.02    5.52
  -3  -6   2   70.22    5.24
  -9   5   2   18.37    2.07
   5  -9  -2   17.35    3.44
   4  -9   2   19.30    3.50
   5   4   2   17.23    3.20
  -9   5   2   16.24    3.21
  -9   4  -2   14.29    3.45
  -9   4  -2   18.82    2.79
   4   5  -2   19.20    3.45
  -4  -5   2   11.48    2.93
  -5   9   2   18.19    3.77
  -5  -4  -2   17.43    3.06
  -4   9  -2   15.69    3.27
  -5  -4  -2   18.82    3.42
  -4   9  -2   16.49    3.16
   9  -5  -2   13.74    3.26
   9  -4   2   18.94    3.55
  -5  -4  -2   11.22    2.96
  -5   9   2   18.07    3.28
  -4  -5   2   13.55    3.31
  -4   9  -2   16.04    2.76
  -9   4   2    4.11    1.43
  -9   5  -2    2.68    2.48
   4   5   2    3.86    2.37
   5   4  -2    2.64    2.59
  -9   5  -2    6.10    1.99
   5  -9   2   -0.10    2.31
   4  -9  -2    2.24    2.38
  -9   4   2    2.82    2.45
  -4  -5  -2    3.39    2.17
   9  -5   2    2.18    2.55
  -5  -4   2    5.04    2.32
  -4   9   2   12.13    2.96
  -4   9   2    1.12    2.42
  -5   9  -2    4.26    2.49
  -5   9  -2    8.91    2.68
   9  -4  -2    3.07    2.51
  -4  -5  -2    7.43    2.77
  -5  -4   2    4.43    2.28
  -5   9  -2    1.93    2.11
  -4  -5  -2    9.97    2.69
  -9   3   2   -0.61    2.16
  -9   6  -2    1.47    1.80
  -9   6  -2    2.32    2.32
   3   6   2    0.53    1.95
  -9   3   2    1.73    1.41
   6  -9   2   -1.30    2.04
   3  -9  -2   -3.82    2.28
   6   3  -2   -2.78    1.82
   3   6   2    0.38    2.20
  -6   9  -2   -0.11    2.22
  -3   9   2    3.33    2.50
  -6  -3   2    1.28    1.97
  -6  -3   2    3.04    2.18
   9  -3  -2    0.76    2.21
  -6  -3   2   -0.41    1.98
  -3  -6  -2    2.06    2.32
  -3   9   2    1.56    2.38
  -6   9  -2    1.60    2.47
  -3  -6  -2    0.81    2.11
  -6   9  -2    3.92    2.18
   9  -6   2    0.93    2.42
  -9   2   2    3.08    1.66
  -9   2   2   -3.18    1.83
   2  -9  -2   -1.98    2.32
  -9   7  -2   -0.23    1.90
  -9   7  -2    1.08    2.23
   2   7   2   -1.02    2.13
   9  -2  -2    2.58    2.33
  -7   9  -2    3.36    2.25
  -7   9  -2    2.03    2.29
  -7   9  -2    4.21    2.60
  -2   9   2    1.71    2.34
   9  -7   2    0.91    2.57
  -2  -7  -2    2.13    2.57
  -7  -2   2    1.55    2.04
  -7  -2   2   -0.48    1.81
  -7  -2   2   -1.20    2.29
  -9   8  -2    5.51    2.56
   1  -9  -2    4.02    2.77
  -9   1   2    2.74    1.86
  -9   8  -2    2.06    2.04
   1   8   2    1.02    2.20
  -9   1   2    1.05    2.42
   9  -1  -2    8.28    2.68
  -1   9   2    2.07    2.42
  -8   9  -2    2.43    2.54
   9  -8   2   11.21    3.21
  -8   9  -2    1.06    2.13
  -8  -1   2    4.56    2.66
  -8  -1   2    3.59    1.96
  -8   9  -2    7.69    2.95
  -1  -8  -2    2.74    2.81
  -9   9  -2   14.43    3.30
  -9   0   2   11.33    2.47
  -9   0   2   11.85    3.32
  -9   9  -2    7.28    2.73
   9  -9   2    8.85    3.26
   0  -9  -2   10.93    3.50
 -10  10   2   18.00    3.38
 -10   0  -2   18.40    3.67
   0 -10   2   13.88    3.87
  10   0   2   14.49    4.10
 -10  10   2   18.18    4.33
 -10   0  -2   19.59    4.42
 -10   9   2   10.81    2.75
 -10   1  -2   15.94    4.05
 -10   1  -2   17.42    3.28
 -10   9   2   17.29    4.13
   9   1   2    8.20    3.65
   1 -10   2   19.86    4.32
  -9  10   2   12.16    3.99
  -1  -9   2   22.50    4.40
  -9  10   2   18.17    3.43
  10  -1   2   16.92    4.04
  -9  -1  -2   16.39    4.12
  -9  -1  -2   16.63    3.36
 -10   2  -2   18.60    3.19
 -10   8   2   13.70    3.60
   2 -10   2   22.67    4.40
 -10   2  -2   21.81    4.26
 -10   8   2   21.54    2.94
   2   8  -2   17.96    3.66
   8   2   2   27.81    4.32
   8 -10  -2   27.67    4.24
  -8  10   2   29.13    4.85
  -2  -8   2   22.22    4.30
  -8  -2  -2   23.27    3.91
  -8  -2  -2   21.23    4.30
  -8  10   2   14.03    3.25
  10  -2   2   18.42    3.84
   7   3   2   28.36    4.10
 -10   7   2   31.70    4.57
 -10   3  -2   28.60    3.61
 -10   3  -2   28.32    4.67
   7 -10  -2   31.59    4.66
 -10   7   2   33.56    4.37
   3 -10   2   25.42    4.45
 -10   7   2   32.30    3.13
   3   7  -2   31.30    4.22
  -7  -3  -2   27.47    4.38
  -3  -7   2   24.75    4.12
  -7  10   2   22.84    3.65
  -7  10   2   32.73    4.79
  10  -7  -2   27.10    4.56
  -7  -3  -2   25.14    3.96
  -3  -7   2   31.61    4.75
  10  -3   2   34.12    4.67
   4 -10   2   28.37    4.52
 -10   4  -2   30.96    3.54
 -10   4  -2   23.62    4.30
   6 -10  -2   30.92    4.46
   4   6  -2   29.81    4.20
 -10   6   2   28.86    4.14
   6   4   2   26.13    3.90
 -10   6   2   24.85    2.57
  -6  -4  -2   35.12    4.60
  -6  10   2   24.48    4.40
  -4  -6   2   27.68    4.16
  10  -4   2   25.12    4.28
  -6  -4  -2   34.95    4.38
  -4  -6   2   30.58    4.33
  -6  10   2   27.87    4.26
  10  -6  -2   27.23    4.45
   5   5  -2   -0.79    2.24
   5 -10  -2    3.91    2.90
 -10   5   2   -0.17    2.40
   5   5   2    1.80    2.26
 -10   5   2    0.26    1.45
   5 -10   2    6.71    2.95
 -10   5  -2   -0.69    2.03
 -10   5  -2    3.15    1.96
  -5  10   2    1.12    2.80
  -5  10  -2    3.81    2.84
  -5  10   2    7.08    3.00
  10  -5  -2    7.12    3.08
  -5  10  -2    2.78    2.36
  -5  -5  -2    0.45    2.35
  10  -5   2    2.80    2.57
  -5  -5  -2    3.23    2.58
  -5  -5   2   -1.19    2.17
  -5  -5   2    5.63    2.66
  -5  -5  -2    3.14    2.47
 -10   6  -2    1.14    1.81
 -10   6  -2    0.10    2.25
   4 -10  -2   -2.77    2.40
   6   4  -2    3.06    2.81
   6 -10   2   -3.01    2.00
   4   6   2    3.74    2.41
 -10   4   2    0.88    2.52
 -10   4   2    1.23    1.56
  -6  -4   2   -2.02    2.19
  10  -4  -2    2.18    2.57
  -4  10   2   -1.20    2.34
  -6  10  -2    0.17    2.48
  -6  10  -2    7.82    3.10
  10  -6   2    2.52    2.79
  -6  -4   2    1.46    2.20
  -4  10   2    3.78    2.83
  -4  -6  -2    1.26    2.33
  -4  -6  -2    2.52    2.84
 -10   3   2    1.73    2.77
   7   3  -2   12.15    3.37
 -10   7  -2    5.05    2.23
 -10   3   2    8.56    2.01
 -10   7  -2    2.20    2.52
   3 -10  -2   11.23    3.30
  10  -7   2    4.09    2.94
  -3  -7  -2    4.92    2.52
  -7  -3   2    4.55    2.86
  -7  -3   2    3.13    2.34
  10  -3  -2    3.35    2.75
  -3  10   2    8.35    3.02
  -7  10  -2    4.54    2.83
  -7  -3   2    5.55    2.51
  -7  10  -2    4.57    2.90
 -10   8  -2    6.06    2.47
 -10   2   2   10.51    3.33
 -10   8  -2   -0.47    2.24
   2 -10  -2    4.28    3.13
 -10   2   2    3.75    2.02
  -8  10  -2    4.87    2.72
  -8  -2   2    5.59    2.73
  -2  10   2    8.09    3.22
  10  -8   2    0.48    2.69
  -2  -8  -2   10.17    3.45
  -8  -2   2    3.15    2.95
  -8  10  -2   11.27    3.53
  10  -2  -2    9.79    3.09
 -10   1   2   10.82    3.60
 -10   1   2    9.51    2.49
   9 -10   2    9.24    3.51
 -10   9  -2   12.72    3.15
   1 -10  -2    4.43    3.15
 -10   9  -2    9.72    3.08
  -9  10  -2    5.47    2.77
  -9  -1   2    8.29    2.77
  -1  -9  -2    8.35    3.19
  -9  -1   2    3.13    2.84
  10  -9   2    3.65    2.94
 -10  10  -2   17.63    3.61
 -10   0   2    5.31    2.49
   0 -10  -2    0.36    3.03
 -10   0   2    9.41    3.47
  10 -10   2    8.08    3.58
   1 -11   2    6.79    3.54
 -11   1  -2    7.90    3.87
 -11  10   2    6.52    2.84
 -11   1  -2    3.98    2.84
 -11  10   2    5.15    3.49
  11  -1   2    6.62    3.78
 -10  -1  -2    4.92    3.08
  -1 -10   2    6.65    3.46
 -10  11   2    7.00    3.12
 -10  11   2    2.92    3.44
 -10  -1  -2    9.40    3.77
   2 -11   2    0.96    3.10
 -11   2  -2    3.38    2.46
 -11   2  -2    8.55    3.60
 -11   9   2    3.12    2.38
 -11   9   2    2.89    3.10
  -9  11   2    6.77    3.76
  11  -2   2    5.48    3.39
  -9  11   2    4.68    3.01
  -9  -2  -2    2.98    2.98
  11  -9  -2    0.09    2.87
  -9  -2  -2    3.59    2.89
  -2  -9   2    4.92    3.15
 -11   3  -2    0.40    2.80
 -11   3  -2   11.26    2.97
   3 -11   2    7.13    3.27
   8 -11  -2    7.09    3.40
   3   8  -2    2.03    2.77
 -11   8   2    6.34    2.22
  -8  11   2    8.78    3.34
  11  -3   2    8.33    3.58
  -3  -8   2    0.37    2.83
  -8  -3  -2    3.67    2.94
  11  -8  -2   -1.64    2.77
  -8  11   2    5.76    3.60
  -8  -3  -2    6.14    3.38
   4   7  -2    3.57    2.67
 -11   7   2    2.91    1.75
   4 -11   2    3.30    3.17
 -11   4  -2    5.04    2.34
   7 -11  -2    7.42    3.28
 -11   4  -2    1.08    2.92
 -11   7   2    5.31    3.01
  -7  -4  -2    0.39    2.64
  -7  11   2    2.93    3.16
  -4  -7   2    5.32    3.03
  -4  -7   2    1.67    2.94
  -7  -4  -2    6.11    3.11
  11  -7  -2    8.77    3.30
  11  -4   2   -1.91    2.64
  -7  11   2    4.13    2.79
 -11   5  -2    2.49    2.95
   5   6  -2   -0.89    2.42
   5 -11   2    5.86    3.09
   6 -11  -2    2.19    2.96
 -11   5  -2    1.93    2.13
 -11   6   2   -0.49    1.50
 -11   6   2    0.10    2.69
  11  -5   2    5.73    3.18
  -5  -6   2    4.92    3.05
  -6  -5  -2    5.10    2.95
  11  -6  -2    6.40    3.35
  -6  11   2   -0.18    2.72
  -6  -5  -2    1.57    2.59
  -5  -6   2    1.41    2.47
  -6  11   2    7.05    3.01
 -11   6  -2    0.48    2.03
   6   5  -2    1.81    2.77
 -11   5   2    2.70    1.66
   5   6   2    2.78    2.50
 -11   5   2    1.01    2.58
   6 -11   2    2.10    2.71
   5 -11  -2    6.57    3.54
 -11   6  -2    1.59    2.72
  11  -6   2    2.86    3.14
  -6  11  -2    5.31    2.82
  11  -5  -2   -0.05    2.52
  -6  -5   2    1.72    2.33
  -5  11   2   -1.27    2.49
  -6  11  -2    0.47    2.88
  -5  -6  -2    1.55    2.67
  -6  -5   2   -0.72    2.38
  -5  11   2    3.17    3.08
 -11   4   2   -1.02    2.57
 -11   7  -2    2.57    2.28
 -11   7  -2    3.70    2.90
   4 -11  -2   -1.54    2.68
   7   4  -2    1.47    2.61
 -11   4   2    5.69    1.98
  11  -4  -2    9.54    3.43
  11  -7   2   -1.35    2.75
  -4  -7  -2    0.15    2.61
  -7  11  -2    0.03    2.63
  -4  11   2    2.24    2.83
  -7  -4   2    4.27    2.62
  -7  11  -2   -0.58    2.45
 -11   3   2    1.91    1.94
 -11   8  -2    4.25    2.29
   3 -11  -2    5.13    3.23
 -11   3   2    3.20    3.04
   8   3  -2    0.86    2.70
 -11   8  -2    0.10    2.46
  -8  11  -2   -1.47    2.50
  -3  11   2    3.55    3.08
  -8  11  -2    3.49    3.07
  11  -3  -2    3.35    2.79
  -3  -8  -2    7.12    3.18
  11  -8   2    8.10    3.59
  -8  -3   2    2.02    2.34
 -11   2   2    7.44    2.52
 -11   9  -2    7.79    3.17
   2 -11  -2    3.66    3.30
 -11   9  -2    0.57    2.51
   9 -11   2   -2.19    2.62
 -11   2   2   -1.93    2.67
  -2  -9  -2    3.62    3.28
  -9  11  -2    2.98    2.93
  -9  -2   2    4.50    2.72
  -9  11  -2    4.01    2.96
  11  -9   2   -0.63    2.79
  -9  -2   2    5.43    3.17
 -11  10  -2    6.58    3.03
   1 -11  -2    8.66    3.86
 -11   1   2    9.41    3.58
  10 -11   2    6.38    3.31
 -11   1   2    9.25    2.54
 -10  -1   2    6.74    3.43
 -10  -1   2    6.63    2.81
  -1 -10  -2    4.14    3.33
 -10  11  -2    6.88    3.33
  11 -10   2    5.58    3.59
   8 -12  -2    5.07    3.69
 -12   4  -2    4.84    2.61
   4 -12   2    6.43    3.56
 -12   4  -2    7.91    3.69
   4   8  -2    4.39    3.07
 -12   8   2    8.53    2.29
  -8  12   2    9.59    3.96
  -8  -4  -2    0.83    3.14
  -4  -8   2    3.13    2.96
  -8  12   2    6.31    3.45
  -8  -4  -2   11.44    3.57
  12  -8  -2    2.22    3.36
  12  -4   2    4.05    3.33
 -12   7   2    2.76    1.85
 -12   5  -2    8.21    3.46
   5   7  -2    3.46    2.88
   5 -12   2    3.25    3.18
   7 -12  -2    0.10    2.97
 -12   5  -2    4.09    2.48
   7   5   2    7.28    3.50
  -7  -5  -2    0.21    2.88
  12  -7  -2    0.49    3.14
  -7  -5  -2    2.77    3.09
  12  -5   2    7.10    3.70
  -5  -7   2    0.83    2.76
  -5  -7   2    0.51    2.87
  -7  12   2    1.40    2.87
  -7  12   2    7.43    3.43
 -12   6   2    2.75    1.91
 -12   6  -2    0.84    2.98
 -12   6  -2    0.69    2.18
 -12   6   2    2.11    3.22
   6 -12  -2    2.00    3.17
   6 -12   2   -0.91    2.64
   6   6  -2   -0.32    2.81
  -6  12   2   -4.00    2.78
  -6  12   2   -0.50    2.94
  12  -6  -2   -2.66    2.59
  -6  -6   2    3.35    2.85
  12  -6   2    1.86    3.10
  -6  -6   2   -0.24    2.45
 -12   7  -2   -1.71    2.69
   5 -12  -2    3.73    3.41
 -12   5   2   -2.93    1.74
   7   5  -2    1.76    2.89
 -12   7  -2   -0.47    1.98
 -12   5   2   -3.67    2.69
  -7  -5   2    4.65    3.09
  12  -5  -2   -1.63    2.72
  -5  12   2    5.49    3.30
  12  -7   2    2.35    3.17
   4 -12  -2    6.35    3.67
 -12   8  -2   -1.09    2.65
 -12   4   2   -0.96    2.91
 -12   8  -2    3.07    2.40
 -12   4   2    2.75    2.06
   8   4  -2   -0.77    2.87
  -4  -8  -2   -2.16    2.53
  -8  12  -2   -1.36    2.90
  12  -4  -2    0.18    2.70
  -8  -4   2   -3.19    2.33
  -8  12  -2   -2.20    2.43
  12  -8   2    2.74    3.50
   0   0   3  469.74    8.70
   0   0   3  486.98    9.12
   0   0  -3  473.34    8.64
   0   0  -3  487.58    8.86
   0   0   3  481.21    8.85
   1   0   3  161.14    4.41
   1  -1  -3  156.35    3.60
  -1   1   3  160.05    4.19
   0  -1   3  165.06    3.44
   1   0   3  162.03    3.84
  -1   0  -3  158.06    4.20
  -1   1   3  160.64    3.60
  -1   1   3  160.79    4.39
   0  -1   3  155.20    3.99
   0   1  -3  156.69    4.28
   1   0   3  159.61    4.14
  -1   1   3  160.23    3.65
   0   1  -3  158.78    3.90
  -1   0  -3  166.37    4.21
   0  -1   3  159.69    4.41
   1  -1   3  421.61    8.09
   0   1   3  436.57    8.67
   0  -1  -3  419.17    8.09
   0  -1  -3  432.00    7.67
  -1   0   3  431.31    8.65
   1   0  -3  424.63    8.36
   0   1   3  421.35    8.17
  -1   0   3  432.00    7.61
  -1   1  -3  434.13    8.62
  -1   1  -3  426.97    8.35
   0  -1  -3  421.60    8.48
   0   1   3  425.84    8.42
   1  -1   3  424.84    8.30
  -1   0   3  430.86    7.60
   1  -1   3  424.86    8.20
  -1   0   3  426.02    7.72
  -2   0  -3  267.99    6.21
  -2   0  -3  270.63    6.37
  -2   2   3  267.41    6.46
   0  -2   3  255.89    4.67
   0   2  -3  264.17    6.52
   2   0   3  261.72    6.59
  -2   0  -3  271.00    5.38
  -2   2   3  268.26    5.11
  -2   2   3  262.27    6.39
   0  -2   3  276.49    6.24
   0  -2   3  249.26    6.44
   2  -2  -3  267.72    5.20
   0   2  -3  262.64    6.03
   2   0   3  259.64    6.08
  -2   1   3  180.09    3.20
  -2   1  -3  168.02    4.64
   1  -2  -3  183.07    3.22
   1   1  -3  175.07    5.03
   1  -2   3  176.53    4.67
  -2   1   3  178.67    4.53
   1   1   3  179.03    4.71
   1  -2   3  178.47    4.74
   1  -2  -3  175.08    4.95
  -2   1  -3  179.90    4.98
   1   1   3  176.32    4.98
   1  -2   3  182.85    4.20
  -1  -1   3  167.50    4.07
  -1  -1  -3  165.95    4.53
  -1  -1  -3  165.13    4.32
  -1   2  -3  164.67    4.76
  -1  -1  -3  171.01    4.14
   2  -1  -3  159.78    4.11
  -1   2   3  155.22    4.62
   2  -1   3  160.72    4.60
  -1  -1   3  162.67    4.03
  -1   2  -3  167.23    4.56
   2  -1   3  165.24    3.57
  -1   2   3  163.27    4.13
   2  -1   3  163.50    4.38
  -1  -1   3  149.97    4.64
   0   2   3  102.85    3.87
   2  -2   3  100.68    3.47
   0  -2  -3  100.08    3.63
   0  -2  -3  102.69    2.54
   2  -2   3  100.68    3.52
   2  -2   3  102.63    3.08
  -2   0   3  104.24    2.52
   0   2   3   96.53    3.41
  -2   2  -3  101.86    3.62
  -2   0   3  100.59    3.58
  -2   0   3  103.53    2.47
  -2   2  -3  102.77    3.71
   2   0  -3  103.68    3.67
   0  -2  -3   99.52    3.35
  -2   0   3  103.49    2.81
   0   3  -3  170.32    5.01
  -3   3   3  170.63    3.92
   0  -3   3  174.82    5.10
  -3   3   3  171.29    5.41
   3  -3  -3  167.55    5.26
  -3   3   3  175.00    4.09
   0  -3   3  167.14    5.53
   0   3  -3  175.18    3.53
  -3   0  -3  174.75    5.39
   3   0   3  168.96    5.41
   0   3  -3  174.72    5.46
  -3   0  -3  170.26    3.90
  -3   0  -3  169.44    5.09
  -3   3   3  170.58    3.91
  -3   2   3  393.59    8.68
  -3   2   3  380.14    8.63
  -3   2   3  388.11    8.04
  -3   1  -3  391.12    8.95
   2   1   3  390.67    8.97
  -3   1  -3  396.04    8.49
   1  -3   3  398.95    7.59
   2  -3  -3  401.57    9.07
   2   1   3  387.63    8.47
   1  -3   3  397.21    8.86
   1   2  -3  396.24    9.06
  -3   1  -3  399.49    6.65
   1  -3   3  378.02    8.51
  -2  -1  -3  397.59    8.76
  -1  -2   3  391.48    8.24
   3  -1   3  408.17    9.13
  -2  -1  -3  398.60    8.09
  -1   3  -3  397.78    8.72
   3  -1   3  401.32    8.30
  -2  -1  -3  397.49    8.54
  -2   3   3  396.89    9.19
  -1  -2   3  401.13    9.16
  -2   3   3  394.29    7.97
  -1   3  -3  409.27    8.98
   1  -3  -3   44.33    2.77
   1   2   3   48.37    2.81
   1   2   3   37.60    2.53
  -3   1   3   49.23    2.52
  -3   1   3   47.99    2.66
  -3   2  -3   38.30    2.60
   2  -3   3   46.99    2.43
   2  -3   3   42.18    2.38
   2   1  -3   44.94    1.49
  -3   1   3   42.65    2.56
  -3   2  -3   44.14    2.60
   2   1  -3   43.18    2.68
   2  -3   3   37.73    2.45
  -2  -1   3   42.21    2.78
  -1  -2  -3   42.06    2.07
   3  -2   3   39.73    2.29
  -2  -1   3   40.76    2.02
  -2   3  -3   36.81    2.55
   3  -2   3   32.86    2.48
  -1  -2  -3   41.45    2.58
   3  -2   3   40.60    1.49
  -1  -2  -3   43.46    2.60
  -1   3   3   38.55    2.34
  -2  -1   3   37.45    1.99
  -2   3  -3   36.05    2.64
  -1   3   3   45.27    2.87
   0  -3  -3   13.67    1.19
  -3   0   3   14.23    1.53
  -3   0   3   13.69    1.12
  -3   0   3   13.39    1.12
   3  -3   3   12.55    1.51
   0   3   3   16.19    2.10
  -3   3  -3   11.14    1.96
  -3   0   3   10.76    1.95
  -3   3  -3   14.62    1.99
   3  -3   3   13.07    1.91
  -3   0   3   11.37    1.79
   0   3   3    9.34    1.92
   0  -3  -3   10.35    1.88
   3  -3   3   13.76    1.75
   0  -3  -3   11.76    1.76
   0  -4   3    3.24    1.59
   4  -4  -3    4.18    1.44
   0  -4   3    5.53    1.73
  -4   0  -3    5.43    1.70
  -4   4   3    4.93    1.15
  -4   4   3    2.62    1.57
  -4   4   3    5.06    1.14
   0   4  -3    3.24    1.54
   4   0   3    5.51    1.96
   0   4  -3    3.35    0.92
  -4   0  -3    4.09    1.62
  -4   0  -3    5.16    1.00
   0   4  -3    6.24    1.71
  -4   4   3    4.93    1.18
   3  -4  -3  164.35    5.57
   1   3  -3  159.48    5.56
  -4   3   3  157.49    5.10
   1  -4   3  163.92    5.61
  -4   3   3  146.28    5.25
  -4   3   3  156.73    4.60
   3   1   3  165.77    4.95
   1   3  -3  168.37    4.85
  -4   1  -3  167.18    5.67
  -4   1  -3  155.38    5.01
   3   1   3  168.47    5.57
   1  -4   3  164.77    5.29
   4  -3  -3  159.13    5.14
  -3   4   3  165.01    4.47
  -1   4  -3  161.64    4.17
  -3   4   3  160.23    5.57
  -3   4   3  161.04    4.47
   4  -1   3  162.55    5.62
  -1  -3   3  154.63    5.54
  -3  -1  -3  158.14    5.24
  -1   4  -3  154.98    5.28
  -1  -3   3  161.42    5.16
  -3  -1  -3  165.48    4.50
  -3   4   3  160.43    3.47
  -1   4  -3  165.92    5.46
  -3  -1  -3  172.51    5.33
   2  -4   3  298.67    7.46
  -4   2  -3  314.06    7.45
  -4   2   3  304.23    7.38
   2  -4  -3  300.00    8.07
  -4   2  -3  292.24    7.97
   2   2   3  307.14    7.91
  -4   2   3  310.29    7.43
   2   2  -3  305.86    8.03
   2  -4   3  301.49    7.76
   2   2   3  306.26    7.53
  -4   2   3  312.17    7.54
  -2   4   3  323.62    8.35
  -2  -2  -3  308.45    7.47
  -2  -2  -3  322.59    7.47
  -2   4  -3  324.43    7.95
  -2   4   3  316.45    7.45
  -2  -2   3  312.32    8.09
  -2  -2  -3  302.11    7.79
  -2  -2   3  313.57    7.22
  -2   4  -3  310.07    7.11
   4  -2   3  310.68    8.26
  -2   4  -3  314.24    7.99
   1   3   3  103.48    4.38
   3   1  -3  103.94    2.95
   3   1  -3  104.48    4.36
  -4   1   3  109.22    4.36
  -4   1   3  103.75    3.83
   3  -4   3  101.25    3.82
   1  -4  -3  106.57    4.52
   3  -4   3  108.41    3.97
   1  -4  -3  113.56    3.96
  -4   3  -3  101.60    4.41
  -4   3  -3  105.56    4.10
  -4   1   3  104.49    3.98
   1   3   3  109.78    4.30
   3  -4   3  102.99    4.05
  -1  -3  -3  113.34    4.48
  -1   4   3  109.28    4.25
  -1   4   3  103.28    4.48
  -3  -1   3  117.86    4.52
  -1  -3  -3  109.70    3.60
   4  -3   3  115.14    4.61
  -1  -3  -3  106.29    4.26
  -3   4  -3  111.23    4.34
  -3  -1   3  117.64    3.52
  -3  -1   3  100.73    4.37
   4  -3   3  112.09    2.78
  -3   4  -3  113.08    4.49
   4  -3   3  111.67    3.82
  -3  -1   3  115.01    3.50
   0   4   3   80.40    3.89
  -4   0   3   83.68    3.82
  -4   0   3   86.57    2.63
  -4   0   3   81.83    4.02
  -4   4  -3   86.69    3.83
   0  -4  -3   83.83    3.82
  -4   4  -3   83.98    4.15
   0   4   3   88.16    2.70
   4  -4   3   82.09    3.94
   4   0  -3   85.75    3.23
   0  -4  -3   80.91    4.05
   4  -4   3   88.73    3.14
   4  -4   3   89.82    3.48
   0   4   3   83.05    4.11
  -4   0   3   82.73    2.55
  -5   5   3    2.78    1.35
  -5   5   3    0.64    1.16
   0  -5   3    3.36    1.76
   0  -5   3    0.42    1.77
   0   5  -3    2.23    1.71
  -5   5   3    1.55    1.83
   0   5  -3    1.43    1.56
   0   5  -3    2.48    1.03
   5   0   3    4.24    2.07
  -5   5   3    2.32    1.26
  -5   0  -3    1.31    1.62
  -5   0  -3    1.26    0.87
  -5   0  -3    1.02    1.51
  -5   1  -3   80.28    3.71
  -5   1  -3   70.34    4.09
  -5   4   3   80.50    2.51
   1   4  -3   79.88    3.81
   1   4  -3   74.49    2.27
   1   4  -3   79.34    4.08
   4   1   3   81.39    4.29
  -5   4   3   81.30    3.43
   1  -5   3   79.78    4.07
  -5   4   3   81.75    2.49
   4  -5  -3   78.21    4.17
   1  -5   3   76.06    4.42
   4   1   3   80.42    3.67
  -5   4   3   79.03    4.27
  -4  -1  -3   82.90    3.13
  -1  -4   3   79.97    4.31
  -1   5  -3   83.08    3.16
  -4   5   3   83.85    3.41
  -1  -4   3   78.75    3.98
  -1   5  -3   74.39    3.98
  -4  -1  -3   73.48    3.93
  -4   5   3   81.83    3.47
  -4  -1  -3   77.55    4.01
   5  -4  -3   81.55    3.89
  -4   5   3   77.99    2.66
  -1   5  -3   90.96    4.32
  -4   5   3   73.27    4.19
   5  -1   3   89.45    4.56
  -5   3   3   82.87    3.72
   2  -5   3   80.60    4.19
  -5   2  -3   78.70    3.72
   3   2   3   80.67    3.69
  -5   3   3   84.90    3.73
   2   3  -3   81.36    2.07
   2   3  -3   76.56    4.05
   3   2   3   77.96    3.99
  -5   2  -3   74.82    4.05
  -5   3   3   76.96    4.07
   3  -5  -3   74.10    4.06
   2  -5   3   82.64    3.92
  -3  -2  -3   87.45    3.94
  -2   5  -3   83.88    4.22
  -3   5   3   80.87    3.57
  -2   5  -3   81.36    3.38
  -3   5   3   83.63    4.42
  -3  -2  -3   78.41    3.89
  -2  -3   3   73.33    4.02
  -2  -3   3   81.13    3.83
  -2   5  -3   82.28    3.90
   5  -2   3   87.41    4.31
  -3  -2  -3   83.60    3.60
   3  -5   3  148.55    5.09
   2  -5  -3  146.36    5.77
  -5   3  -3  141.87    5.54
   2   3   3  146.13    5.52
   3   2  -3  145.56    5.68
  -5   3  -3  139.83    4.93
   3   2  -3  152.75    3.59
   2   3   3  156.35    5.34
  -5   2   3  141.35    5.23
  -5   2   3  155.52    5.26
   3  -5   3  146.26    5.28
  -5   2   3  144.26    4.90
  -3  -2   3  146.34    5.48
  -3   5  -3  153.18    5.56
  -2  -3  -3  160.92    5.02
  -2   5   3  144.61    5.75
  -3  -2   3  159.86    4.85
  -3  -2   3  148.64    4.75
   5  -3   3  156.45    5.92
  -2  -3  -3  150.10    5.41
  -3   5  -3  144.73    4.95
  -2  -3  -3  148.08    5.33
  -3   5  -3  143.29    5.28
  -2   5   3  151.54    5.29
   1   4   3   41.31    3.40
   4   1  -3   35.98    2.13
   4  -5   3   43.95    2.74
  -5   1   3   42.50    2.80
   1  -5  -3   38.31    3.62
   4  -5   3   41.58    2.77
  -5   1   3   39.28    1.46
   4  -5   3   39.62    3.02
   1   4   3   38.31    3.43
  -5   4  -3   37.69    2.83
  -5   1   3   38.59    1.41
   1  -5  -3   41.64    2.87
  -5   1   3   41.85    3.66
  -5   4  -3   44.61    3.74
  -4  -1   3   38.39    3.57
  -1   5   3   46.00    1.75
  -4  -1   3   45.67    2.47
  -4  -1   3   42.96    2.46
  -4   5  -3   44.13    3.33
  -1   5   3   45.14    3.31
  -4  -1   3   47.99    3.20
   5  -4   3   37.60    3.54
  -1   5   3   44.95    3.24
  -4   5  -3   43.31    3.10
  -1  -4  -3   43.89    3.21
  -1  -4  -3   49.30    2.56
  -1  -4  -3   42.84    3.50
   5  -1  -3   37.58    2.69
   5  -4   3   47.39    1.97
  -4   5  -3   45.28    3.23
   0   5   3   42.55    3.66
  -5   5  -3   41.84    3.11
   5   0  -3   44.92    2.73
   5  -5   3   38.01    2.47
   0  -5  -3   50.87    3.38
  -5   0   3   38.43    2.88
  -5   0   3   44.64    2.33
   0   5   3   45.37    2.29
   0   5   3   43.20    3.78
  -5   0   3   40.88    2.14
   5  -5   3   46.52    3.90
  -5   5  -3   43.44    3.73
  -5   0   3   39.34    3.70
   0  -5  -3   39.65    3.74
   0   6  -3   71.20    4.46
   0  -6   3   64.41    4.30
   6   0   3   75.44    4.87
  -6   6   3   71.20    3.45
  -6   0  -3   63.99    4.66
   6  -6  -3   71.00    4.39
  -6   6   3   68.04    3.57
  -6   6   3   62.70    4.66
   0  -6   3   70.98    4.97
  -6   0  -3   68.33    4.20
  -6   5   3  111.25    3.50
  -6   5   3  103.31    4.30
  -6   5   3  111.61    3.67
  -6   5   3  104.09    5.22
   5  -6  -3  101.76    5.11
  -6   1  -3  106.33    4.81
   1  -6   3  116.10    5.85
   1   5  -3  111.96    5.24
   1  -6   3  111.60    5.20
   5   1   3  116.62    5.49
  -6   1  -3  105.79    5.43
  -5   6   3  107.44    5.53
  -1   6  -3  111.90    4.01
  -1   6  -3  112.56    5.28
  -1  -5   3  106.71    5.67
  -1   6  -3  116.51    5.26
  -5  -1  -3  113.33    3.96
   6  -1   3  119.38    5.62
  -5   6   3  124.02    4.71
  -5   6   3  119.13    3.85
  -5  -1  -3  119.48    5.15
  -1  -5   3  112.35    5.13
   6  -5  -3  120.01    5.02
  -5  -1  -3  112.88    5.26
   2   4  -3   74.39    4.32
  -6   4   3   68.67    4.20
   4   2   3   68.11    4.06
   2  -6   3   72.56    4.42
  -6   4   3   76.27    2.27
  -6   2  -3   68.21    3.76
   2  -6   3   69.87    3.97
  -6   4   3   72.57    3.88
  -6   2  -3   77.58    4.51
  -6   4   3   80.00    2.21
   4  -6  -3   75.21    4.48
  -2  -4   3   76.01    4.15
  -4   6   3   74.26    3.91
  -4   6   3   73.29    4.58
  -2   6  -3   75.62    4.14
  -2  -4   3   77.12    4.51
  -4  -2  -3   78.23    4.32
  -2   6  -3   78.05    3.59
  -2   6  -3   83.70    4.50
  -4  -2  -3   78.95    4.24
  -4  -2  -3   79.54    3.56
   6  -2   3   80.95    4.72
   6  -4  -3   76.05    3.91
  -6   3  -3   45.47    4.18
   3   3   3   42.40    3.75
   3   3  -3   45.51    4.12
  -6   3  -3   37.18    3.14
  -6   3   3   36.32    3.40
   3  -6  -3   38.25    3.76
  -6   3   3   44.37    3.78
   3  -6   3   43.71    3.10
   3   3  -3   40.41    1.91
  -6   3   3   39.92    2.91
   3  -6   3   32.99    3.44
  -3  -3  -3   34.64    3.23
  -3  -3   3   35.37    3.20
  -3   6   3   35.65    3.70
  -3   6  -3   34.89    3.26
  -3   6   3   36.50    3.33
  -3  -3  -3   41.12    3.66
  -3  -3   3   37.65    3.57
  -3   6  -3   37.32    3.14
  -3  -3  -3   38.92    3.35
   6  -3   3   36.93    3.71
  -3   6  -3   35.49    3.59
  -6   4  -3   48.52    3.15
  -6   2   3   54.77    3.29
  -6   2   3   53.53    3.52
   4  -6   3   54.26    3.53
   2   4   3   55.82    3.80
   2   4   3   54.33    3.70
  -6   2   3   61.59    3.76
   4   2  -3   55.73    4.00
   2  -6  -3   51.03    3.88
  -6   4  -3   48.65    3.61
   4   2  -3   49.03    2.48
  -2  -4  -3   54.60    3.73
  -2  -4  -3   48.80    3.58
  -4  -2   3   58.26    4.02
  -4  -2   3   53.68    3.70
  -4   6  -3   53.99    3.77
  -4  -2   3   54.23    3.14
  -2   6   3   51.51    3.62
  -2  -4  -3   54.55    3.20
  -4   6  -3   52.68    3.50
  -4   6  -3   53.91    3.67
   6  -4   3   54.54    3.98
   6  -2  -3   53.17    3.42
  -2   6   3   53.21    3.92
  -6   5  -3   41.10    3.55
  -6   5  -3   34.28    3.48
   5  -6   3   30.46    2.93
   1  -6  -3   42.12    4.13
   1   5   3   32.71    3.50
   1   5   3   37.45    2.53
   1   5   3   37.32    3.67
  -6   1   3   36.60    2.00
   5  -6   3   39.21    3.69
  -6   1   3   35.11    3.83
  -6   1   3   33.72    3.02
  -6   1   3   35.97    1.91
   5   1  -3   34.01    2.42
  -5   6  -3   28.59    3.33
  -5   6  -3   33.44    3.42
  -1  -5  -3   35.05    3.54
  -5   6  -3   31.89    3.33
  -5  -1   3   39.43    3.50
  -1  -5  -3   33.20    3.70
  -5  -1   3   36.82    2.58
  -1   6   3   30.61    3.39
   6  -1  -3   34.58    3.08
  -1   6   3   33.20    3.52
   6  -5   3   36.74    3.86
  -5  -1   3   35.14    3.89
  -6   0   3   15.76    2.77
   0   6   3   13.53    2.78
  -6   6  -3   18.28    2.74
   0   6   3   14.19    2.74
   6   0  -3   22.18    2.54
   0  -6  -3   12.19    2.90
  -6   0   3   13.25    2.33
   6  -6   3   15.60    2.97
  -6   6  -3   14.19    2.72
  -6   0   3   14.84    1.88
   6  -6   3   18.74    2.21
   0  -7   3   24.32    3.93
  -7   0  -3   22.12    3.21
   0   7  -3   24.22    3.50
   0  -7   3   30.75    3.78
  -7   7   3   24.28    3.81
  -7   0  -3   20.64    3.61
   7  -7  -3   25.71    3.52
  -7   7   3   26.94    2.88
   7   0   3   30.46    4.06
  -7   6   3   27.28    2.48
  -7   6   3   24.65    2.89
   6  -7  -3   24.38    3.44
   1  -7   3   19.92    3.23
   1  -7   3   33.07    4.25
  -7   1  -3   32.55    3.53
   1   6  -3   20.53    3.19
  -7   6   3   32.37    4.00
  -7   1  -3   21.76    3.56
   6   1   3   22.41    3.47
  -6  -1  -3   23.52    3.50
  -1  -6   3   32.68    3.83
  -1   7  -3   22.31    3.21
   7  -6  -3   36.57    3.63
  -6  -1  -3   24.29    3.23
  -1  -6   3   24.71    3.87
   7  -1   3   27.81    3.89
  -6   7   3   27.26    3.87
  -6   7   3   25.36    3.02
  -7   5   3   25.09    1.94
  -7   2  -3   25.71    3.07
  -7   2  -3   20.18    3.23
   2  -7   3   23.01    3.44
   2   5  -3   29.26    3.57
  -7   5   3   32.63    3.27
   5   2   3   26.77    3.44
  -7   5   3   27.74    1.97
  -7   5   3   29.56    3.70
   5  -7  -3   32.94    3.86
  -5   7   3   30.91    3.31
   7  -5  -3   31.93    3.19
  -5  -2  -3   37.83    2.82
  -5  -2  -3   30.64    3.63
  -5   7   3   26.01    3.71
  -5  -2  -3   35.33    3.70
  -2   7  -3   27.19    2.86
  -2  -5   3   26.09    3.67
  -2   7  -3   32.51    3.47
  -2  -5   3   26.11    3.34
  -2   7  -3   29.61    3.67
   7  -2   3   24.72    3.53
  -7   4   3    6.34    2.12
   4   3   3    4.97    2.18
   3   4  -3    6.98    2.36
  -7   3  -3    1.17    1.65
   3  -7   3    4.27    2.25
  -7   3  -3    7.54    2.48
  -7   4   3    6.32    1.00
   4  -7  -3    2.40    2.06
  -7   4   3    2.71    1.92
  -4   7   3   13.52    2.85
  -4  -3  -3   10.50    2.54
  -3   7  -3    6.96    1.96
  -3   7  -3    2.16    2.13
  -4  -3  -3    5.96    1.94
  -4  -3  -3    8.64    2.33
  -3  -4   3   15.00    2.80
  -4   7   3    6.58    2.27
  -3  -4   3    6.32    2.08
  -3   7  -3   12.20    2.50
   7  -4  -3    8.39    1.98
   7  -3   3    5.85    2.25
  -7   4  -3    5.90    1.97
  -7   3   3    2.67    1.60
   4   3  -3    1.26    2.05
  -7   3   3    4.16    2.03
   3  -7  -3    2.93    2.09
   4  -7   3    6.80    2.28
  -7   3   3    5.89    2.16
  -7   4  -3    5.04    2.21
   3   4   3    6.08    2.26
  -4  -3   3    6.40    2.15
  -4  -3   3    7.67    1.88
   7  -4   3    2.25    2.17
  -4   7  -3    0.96    2.02
  -3   7   3    3.46    2.05
  -3  -4  -3    9.65    2.47
  -3  -4  -3    2.48    1.77
  -4   7  -3    6.12    2.13
  -4   7  -3    3.79    1.99
  -3  -4  -3    6.46    2.14
  -3   7   3    5.78    2.36
  -7   5  -3   20.23    2.76
   5  -7   3   22.44    3.01
  -7   2   3   26.04    2.89
  -7   2   3   21.85    3.17
   2   5   3   19.57    3.04
   2  -7  -3   25.85    3.55
  -7   2   3   22.76    1.62
  -7   2   3   24.57    1.57
  -7   5  -3   22.18    3.26
   5   2  -3   22.51    3.33
   7  -2  -3   24.29    3.12
   7  -5   3   21.26    3.25
  -2  -5  -3   25.38    2.88
  -5  -2   3   23.43    3.39
  -5   7  -3   14.69    2.77
  -2   7   3   21.94    3.26
  -2  -5  -3   25.04    3.38
  -5  -2   3   26.47    3.29
  -5   7  -3   23.16    3.28
  -5   7  -3   22.29    3.13
  -2   7   3   22.64    3.35
  -2  -5  -3   21.78    3.17
  -5  -2   3   15.78    2.45
   6  -7   3    2.96    1.90
  -7   1   3    0.43    2.02
   6  -7   3    0.84    2.09
   1  -7  -3    4.71    2.38
   1   6   3    2.85    2.13
  -7   1   3    4.41    1.31
  -7   6  -3   -0.61    1.97
  -7   1   3    1.77    1.74
  -7   6  -3    1.57    1.88
   7  -1  -3    0.62    1.77
  -1   7   3    2.65    2.25
  -1   7   3    3.35    2.09
  -6  -1   3    1.96    1.58
  -6   7  -3    3.26    1.91
   7  -6   3    6.11    2.28
  -6  -1   3    4.26    1.92
  -6   7  -3    3.42    2.18
  -1  -6  -3    5.66    2.53
  -6   7  -3   -0.05    1.85
  -6  -1   3    7.04    2.34
  -7   0   3   -0.37    1.71
   7   0  -3    3.56    1.84
   0  -7  -3    1.02    2.38
  -7   7  -3    1.38    1.99
  -7   0   3    0.19    1.96
   0   7   3   -1.43    1.85
  -7   0   3    3.83    1.46
  -7   7  -3    0.42    1.98
   0   7   3    0.98    2.33
   7  -7   3    2.99    2.26
  -8   8   3    7.83    2.31
  -8   0  -3    4.03    2.38
  -8   8   3    5.81    2.76
   8  -8  -3    1.94    2.36
   8   0   3    8.17    3.08
   0  -8   3    7.77    2.89
  -8   0  -3    3.33    2.37
   0   8  -3   10.82    2.97
  -8   7   3    5.39    2.71
   7   1   3    3.47    2.72
  -8   1  -3    5.48    2.84
   1  -8   3    1.09    2.28
  -8   1  -3    6.79    2.25
   1   7  -3    1.55    2.25
  -8   7   3    1.48    1.66
   7  -8  -3    2.63    2.27
  -1  -7   3    1.28    2.54
   8  -1   3    5.06    2.71
  -7  -1  -3   -0.64    2.33
  -1  -7   3    6.26    2.71
  -7   8   3    0.90    2.16
  -7  -1  -3    1.84    2.17
   8  -7  -3    5.10    2.35
  -1   8  -3    1.71    2.28
  -7   8   3    3.26    1.99
   6  -8  -3    8.24    2.70
   2   6  -3    5.03    2.45
  -8   6   3   12.14    2.64
   2  -8   3    8.95    2.96
  -8   6   3    7.43    1.64
  -8   2  -3    9.89    2.37
  -8   2  -3   10.56    3.01
   6   2   3   11.67    3.01
  -8   6   3   11.22    2.90
  -6  -2  -3    8.27    2.83
  -6   8   3    3.76    2.27
  -6  -2  -3    6.34    2.46
  -2   8  -3    5.96    2.37
  -2  -6   3    7.71    2.91
   8  -2   3    7.13    2.92
  -6   8   3    7.29    2.61
  -2  -6   3   13.11    3.01
   8  -6  -3    6.08    2.15
   5   3   3    6.79    2.57
   3  -8   3    6.12    2.51
  -8   5   3    7.80    2.54
   3   5  -3   16.47    3.20
  -8   5   3   12.57    2.63
  -8   3  -3   16.08    2.62
  -8   3  -3   11.29    2.88
   5  -8  -3    9.89    2.97
  -8   5   3   12.33    1.65
  -3   8  -3   15.36    2.88
  -3  -5   3   13.43    3.02
  -3   8  -3   16.75    2.63
  -5   8   3   13.84    3.22
  -5  -3  -3   13.44    2.79
   8  -5  -3   10.50    2.29
   8  -3   3   13.92    3.26
  -5  -3  -3   12.14    2.80
  -5  -3  -3   11.30    2.36
  -3   8  -3    8.91    2.82
  -3  -5   3   10.29    2.60
  -5   8   3   13.26    2.83
  -8   4   3   21.15    3.27
  -8   4  -3   22.06    3.58
   4   4   3   20.62    3.23
  -8   4   3   20.99    1.60
   4  -8  -3   17.50    3.27
  -8   4   3   20.39    3.29
   4   4  -3   25.88    3.71
  -8   4  -3   17.94    2.60
  -8   4   3   20.44    1.52
   4  -8   3   22.93    3.61
  -4   8  -3   20.24    3.07
  -4   8   3   11.30    2.91
  -4  -4   3   25.26    3.53
  -4  -4  -3   24.42    3.31
  -4   8   3   17.25    3.25
  -4  -4   3   18.48    3.16
  -4  -4  -3   30.46    3.85
   8  -4   3   16.03    3.38
   8  -4  -3   28.26    2.97
  -4  -4  -3   23.02    3.20
  -4   8  -3   17.23    3.34
  -4   8  -3   16.80    2.87
   8  -4  -3   19.81    3.29
   3   5   3   19.43    3.14
  -8   3   3   19.49    1.67
  -8   3   3   13.88    2.42
  -8   5  -3   13.23    2.62
  -8   5  -3   15.02    3.14
  -8   3   3   17.87    1.60
  -8   3   3   15.63    3.22
   5  -8   3   18.22    3.05
   5   3  -3   18.51    3.38
   3  -8  -3   15.33    3.45
  -3  -5  -3   12.21    2.87
  -3   8   3   18.52    3.41
  -5   8  -3   21.51    3.56
   8  -3  -3   11.96    2.85
  -5  -3   3   14.36    2.70
  -3   8   3   20.17    3.39
   8  -5   3   17.57    3.35
  -5   8  -3   14.25    2.85
  -5  -3   3   16.00    2.96
  -5   8  -3   17.55    3.02
  -3  -5  -3   16.54    2.72
  -3  -5  -3    8.95    2.65
   2  -8  -3    5.94    2.85
  -8   6  -3    6.29    2.31
  -8   2   3    6.48    2.77
  -8   2   3   10.21    1.56
   6  -8   3   11.99    2.62
  -8   2   3    9.45    2.28
   2   6   3    8.97    2.58
  -8   6  -3   13.68    3.05
  -6  -2   3   11.58    3.07
  -6   8  -3   11.66    2.71
   8  -2  -3   11.27    2.54
  -2  -6  -3    6.88    2.77
  -6   8  -3    7.40    2.58
  -2   8   3   10.16    2.88
   8  -6   3   12.28    3.06
  -6  -2   3    9.84    2.20
  -2   8   3    7.22    2.74
  -6  -2   3   12.29    2.69
  -6   8  -3    6.96    2.54
   7  -8   3    8.87    2.91
   1  -8  -3   10.69    3.17
  -8   1   3    3.96    2.44
  -8   1   3    7.16    1.82
   1   7   3    7.44    2.60
  -8   7  -3    9.02    2.53
  -8   7  -3   10.98    2.84
  -7  -1   3    5.91    2.04
   8  -7   3    8.94    3.00
  -7  -1   3   12.89    2.78
  -1  -7  -3    5.96    2.93
  -7  -1   3    5.70    2.75
  -7   8  -3    5.82    2.46
  -7   8  -3    7.27    2.63
  -1   8   3   10.52    3.00
   8  -1  -3    6.91    2.42
  -1   8   3    8.06    2.73
  -8   0   3   26.07    2.84
  -8   8  -3   24.58    3.59
   0   8   3   23.95    3.62
  -8   8  -3   31.31    4.02
   8  -8   3   26.45    4.24
  -8   0   3   26.30    4.09
   0  -8  -3   29.99    4.37
   9   0   3   -3.76    2.69
   0   9  -3    3.54    2.71
   0  -9   3   -2.52    2.43
  -9   0  -3    1.00    2.34
  -9   9   3   -3.22    2.17
  -9   0  -3   -0.70    2.57
  -9   9   3    3.96    2.20
  -9   8   3    0.77    1.75
  -9   1  -3    5.28    2.55
   1   8  -3    6.00    2.69
   1  -9   3    0.10    2.34
  -9   8   3    1.97    2.57
   8  -9  -3    0.40    2.46
   8   1   3    4.03    2.98
  -9   1  -3    6.43    2.84
   9  -1   3    8.43    3.27
  -1   9  -3    5.07    2.60
  -8  -1  -3    4.86    2.90
  -1  -8   3    4.11    2.71
  -8   9   3   -0.46    2.71
  -8  -1  -3    2.90    2.41
  -8   9   3    4.57    2.32
   7  -9  -3    8.97    3.02
  -9   7   3    6.82    2.01
   2  -9   3    6.19    3.08
  -9   7   3    5.15    2.79
  -9   2  -3    7.87    2.39
   7   2   3   -0.02    2.47
  -9   2  -3    6.39    3.10
   2   7  -3    3.79    2.55
  -7  -2  -3    4.26    2.36
  -2  -7   3    7.39    2.98
  -7   9   3    2.64    2.75
  -7  -2  -3    5.66    2.60
  -7   9   3    6.94    2.44
  -2  -7   3   12.42    3.43
   9  -2   3    2.26    2.76
  -2   9  -3    7.04    2.77
   3  -9   3    4.60    2.58
   6   3   3    3.90    2.74
   6  -9  -3    9.11    3.03
  -9   3  -3    7.69    2.33
  -9   3  -3    7.24    2.72
  -9   6   3    6.74    2.94
  -9   6   3    5.69    2.52
  -9   6   3    5.76    1.68
   3   6  -3    3.61    2.59
  -3  -6   3    6.59    2.51
  -6   9   3    5.96    2.89
  -3  -6   3    5.37    2.67
   9  -3   3    6.45    2.95
  -6  -3  -3    6.31    2.66
  -3   9  -3   10.89    2.87
  -6  -3  -3    5.43    2.58
  -6   9   3    7.15    2.55
   4   5  -3   15.39    3.35
   5   4   3   24.74    3.71
  -9   5   3   22.21    1.99
   5  -9  -3   24.26    4.06
   4  -9   3   15.10    3.38
  -9   4  -3   22.31    3.86
  -9   5   3   25.22    3.72
  -9   4  -3   14.44    2.74
  -9   5   3   21.62    3.60
  -5  -4  -3   23.63    3.38
   9  -4   3   25.23    3.95
  -5   9   3   21.40    3.69
  -5  -4  -3   16.65    3.21
  -4   9  -3   23.27    3.86
  -5   9   3   25.78    4.31
  -4  -5   3   27.53    3.88
  -4   9  -3   29.84    3.67
   9  -5  -3   27.98    4.15
  -4  -5   3   17.81    3.33
  -5  -4  -3   27.58    3.97
  -4   9  -3   19.84    3.19
   4  -9  -3   21.99    4.06
   5  -9   3   16.92    3.29
  -9   4   3   22.25    1.87
   5   4  -3   17.41    3.53
   4   5   3   19.82    3.45
  -9   4   3   21.92    3.68
  -9   5  -3   18.25    2.92
  -9   5  -3   22.04    3.84
  -4   9   3   21.13    3.51
  -5  -4   3   21.32    3.33
   9  -5   3   17.92    3.51
   9  -4  -3   18.03    3.46
  -5   9  -3   19.88    3.80
  -4   9   3   19.99    3.73
  -4  -5  -3   20.65    3.31
  -5  -4   3   14.97    3.23
  -5   9  -3   25.75    3.57
  -4  -5  -3   22.45    3.51
  -4  -5  -3   18.98    3.53
  -5   9  -3   22.41    3.48
   3   6   3   20.98    3.56
  -9   6  -3   18.97    3.07
   3  -9  -3   24.28    4.38
   6   3  -3   20.99    3.77
  -9   3   3   28.10    3.99
  -9   3   3   19.79    1.97
  -9   6  -3   15.18    3.39
   6  -9   3   22.00    3.63
   9  -6   3   25.97    4.05
  -6  -3   3   21.48    3.45
   9  -3  -3   18.66    3.30
  -6   9  -3   20.38    3.48
  -6  -3   3   16.39    3.01
  -3   9   3   29.44    4.32
  -3   9   3   19.33    3.68
  -3  -6  -3   20.23    3.52
  -6   9  -3   27.52    3.76
  -6   9  -3   17.10    3.53
  -9   2   3    9.46    1.87
   2   7   3    8.46    2.72
   7  -9   3   10.14    3.01
  -9   7  -3   11.23    2.80
  -9   7  -3   12.96    3.14
   2  -9  -3    9.36    3.32
  -9   2   3   14.57    3.46
  -7   9  -3   14.30    3.23
  -7   9  -3    5.58    2.62
  -7  -2   3    8.59    2.35
  -7  -2   3    9.72    2.70
  -7   9  -3   10.27    3.09
  -7  -2   3    8.19    3.15
  -2   9   3   11.21    3.04
  -2   9   3    8.82    3.28
   9  -7   3   13.44    3.37
   9  -2  -3   11.06    2.88
  -2  -7  -3    8.17    2.94
  -9   8  -3   13.66    2.90
   8  -9   3    7.11    3.03
  -9   1   3    8.46    2.95
   1   8   3   14.29    3.25
  -9   8  -3   12.26    3.16
   1  -9  -3   11.08    3.36
  -9   1   3   13.01    2.23
  -1   9   3   10.94    3.07
   9  -8   3   15.64    3.73
  -8  -1   3   14.17    3.28
  -1  -8  -3   14.54    3.69
  -8   9  -3   10.38    2.89
  -8   9  -3   12.73    3.31
  -8  -1   3   18.24    2.70
   0   9   3   10.60    3.26
   9  -9   3   13.74    3.70
  -9   9  -3    9.86    3.04
  -9   0   3    8.24    3.08
   0  -9  -3   12.03    3.69
  -9   9  -3   12.44    3.25
  -9   0   3   12.21    2.50
 -10  10   3    4.51    3.08
 -10  10   3    2.86    2.39
 -10   0  -3    1.10    3.09
   0 -10   3   -0.17    2.75
  10   0   3   -3.28    2.82
 -10   0  -3   -0.01    2.60
   1   9  -3    4.73    2.98
 -10   9   3    3.57    3.13
 -10   1  -3    6.31    3.42
 -10   1  -3    6.14    2.90
 -10   9   3    8.27    2.47
   9   1   3    1.96    3.20
   1 -10   3    4.70    3.06
  -1  -9   3    0.54    2.79
  -9  10   3    8.39    2.84
  -9  -1  -3    2.01    2.92
  -9  -1  -3    8.14    3.00
  10  -1   3    5.04    3.37
  -9  10   3    1.52    2.92
 -10   8   3    9.22    3.07
 -10   2  -3    6.63    3.27
 -10   8   3    8.38    2.26
   8   2   3   13.79    3.61
 -10   2  -3    6.55    2.68
   8 -10  -3    8.40    3.35
   2   8  -3   10.17    3.17
   2 -10   3    9.96    3.46
  -8  10   3    8.81    2.81
  10  -2   3    1.02    3.00
  -8  10   3    3.61    3.21
  -2  -8   3    2.99    2.94
  -8  -2  -3   10.31    3.22
  -8  -2  -3   10.06    3.39
 -10   7   3   11.42    2.13
 -10   7   3    9.45    2.96
   3 -10   3    9.61    3.39
 -10   3  -3   10.41    3.50
   7 -10  -3    6.62    3.09
   7   3   3   11.54    3.43
   3   7  -3   16.09    3.52
 -10   3  -3    3.30    2.37
  -3  -7   3   13.47    3.56
  -7  10   3   13.10    3.19
  -3  -7   3   12.80    3.53
  10  -3   3    9.79    3.32
  -7  10   3    7.95    3.44
  -7  -3  -3   10.72    3.08
  -7  -3  -3   12.15    3.56
 -10   4  -3   14.75    3.45
   4   6  -3   14.42    3.55
   6   4   3   12.55    3.39
   4 -10   3   15.89    3.74
 -10   4  -3   11.96    2.80
 -10   6   3   14.83    3.48
   6 -10  -3   14.56    3.83
 -10   6   3   12.55    1.97
  -4  -6   3    7.98    3.17
  -6  -4  -3    8.42    3.13
  -6  10   3   14.72    3.39
  -6  -4  -3   15.30    3.47
  10  -4   3   10.70    3.50
  -4  -6   3   11.89    3.21
  10  -6  -3   12.42    3.38
  -6  10   3   10.99    3.46
   5 -10   3   17.49    3.65
 -10   5   3   15.19    3.59
   5   5   3    8.09    3.00
   5   5  -3   18.83    3.79
   5 -10  -3   12.85    3.65
 -10   5   3   17.12    2.01
 -10   5  -3    6.58    3.04
  -5  10   3    7.74    3.06
  -5  10   3   10.65    3.18
  -5  -5  -3   14.48    3.32
  10  -5  -3   13.61    3.53
  -5  -5  -3   11.06    2.99
  -5  -5  -3   15.55    3.55
  10  -5   3   11.57    3.55
  -5  -5   3   11.51    3.09
  -5  -5   3   12.40    3.14
 -10   6  -3   22.95    4.27
   6   4  -3   19.87    3.94
   6 -10   3   23.11    3.90
 -10   4   3   32.00    2.36
 -10   6  -3   20.17    3.27
   4   6   3   28.18    3.97
 -10   4   3   32.57    4.50
   4 -10  -3   28.55    4.77
  -6  10  -3   26.95    4.20
  -6  -4   3   20.40    3.53
  -4  10   3   27.51    4.17
  -6  -4   3   24.32    3.89
  -6  10  -3   20.59    3.74
  -4  10   3   29.83    4.64
  10  -6   3   25.88    4.45
  10  -4  -3   32.48    4.33
  -4  -6  -3   31.20    4.42
 -10   3   3   22.11    2.42
 -10   3   3   16.24    3.85
 -10   7  -3   18.24    3.29
   3 -10  -3   26.19    4.50
 -10   7  -3   14.71    3.61
   7   3  -3   10.85    3.33
   3   7   3   27.92    4.01
  -7  -3   3   18.55    3.34
  -7  10  -3   18.04    3.88
  -7  10  -3   20.00    3.83
  -3  10   3   15.70    3.66
  10  -7   3   16.36    3.88
  -7  10  -3   18.18    3.50
  -7  -3   3   29.24    4.12
  10  -3  -3   22.36    3.75
  -3  10   3   19.70    3.87
  -3  -7  -3   22.74    4.01
 -10   2   3    9.97    2.24
   2 -10  -3    9.44    3.63
 -10   8  -3    7.40    3.08
   8   2  -3   11.88    3.56
 -10   2   3   10.32    3.41
 -10   8  -3   17.43    3.17
   8 -10   3    6.02    3.04
  -8  -2   3   11.12    3.30
  -8  -2   3   13.61    2.96
  -2  -8  -3   10.32    3.47
  -8  10  -3   13.40    3.17
  -2  10   3    8.84    3.22
  10  -8   3   15.90    3.78
  -8  10  -3   15.57    3.46
 -10   1   3    2.35    1.88
   1 -10  -3    3.36    2.98
   9 -10   3    1.04    2.96
 -10   9  -3   -1.93    2.34
 -10   1   3    2.71    2.95
 -10   9  -3    7.49    3.07
  -9  -1   3    1.50    2.64
  -9  -1   3    0.07    1.96
  -9  10  -3    2.21    2.49
  10  -9   3    5.27    3.16
  -1  10   3    3.20    2.86
  -9  10  -3    8.75    3.05
  -1  -9  -3   -1.07    2.58
   0 -10  -3   -1.44    2.53
 -10   0   3   -0.77    2.81
 -10   0   3   -0.05    2.02
  10 -10   3   -3.06    2.55
 -10  10  -3    2.11    2.98
 -10  10  -3   -0.25    2.56
 -11   1  -3    7.82    3.22
 -11   1  -3   -1.66    2.95
  10   1   3    8.53    3.77
   1 -11   3    0.29    3.05
 -11  10   3   -3.20    2.86
 -11  10   3    1.38    2.29
 -10  -1  -3    1.98    3.22
  -1 -10   3    1.26    3.30
 -10  11   3    5.83    3.60
 -10  11   3    7.59    3.00
 -10  -1  -3    1.27    2.91
  11  -1   3    4.43    3.64
 -11   2  -3    8.12    3.90
   9   2   3    2.91    3.06
 -11   9   3    5.50    3.44
   2   9  -3    4.62    3.08
 -11   9   3    5.50    2.35
   2 -11   3    3.46    3.29
 -11   2  -3    3.63    2.65
  -9  -2  -3   10.65    3.57
  -2  -9   3    4.17    3.48
  -9  11   3   15.98    3.61
  11  -2   3   11.62    4.03
  -9  11   3    9.37    3.90
   3 -11   3    7.68    3.48
   8 -11  -3    4.55    3.34
 -11   3  -3    7.67    2.75
 -11   8   3    9.68    3.43
 -11   3  -3    4.84    3.36
 -11   8   3    7.15    2.12
  11  -8  -3    9.05    3.67
  11  -3   3   10.26    3.70
  -8  11   3   11.59    3.93
  -3  -8   3    2.74    3.02
  -8  11   3    5.57    2.85
  -8  -3  -3    8.33    3.19
  -8  -3  -3   13.55    3.99
   4   7  -3    9.67    3.21
 -11   4  -3    9.80    3.45
   4 -11   3   11.50    3.70
 -11   7   3    8.99    2.08
 -11   4  -3   10.76    3.00
   7 -11  -3   13.78    4.01
  11  -4   3   12.04    3.70
  -7  -4  -3    8.32    3.38
  11  -7  -3   12.28    3.53
  -4  -7   3   10.35    3.44
  -4  -7   3    7.24    3.26
  -7  -4  -3   14.10    3.64
  -7  11   3    5.63    3.33
  -7  11   3    7.94    3.18
   5 -11   3    7.90    3.27
 -11   6   3    1.44    2.89
 -11   5  -3    3.87    2.33
   5   6  -3    3.30    2.78
 -11   6   3    5.62    1.73
 -11   5  -3    2.49    3.06
   6 -11  -3    2.65    3.24
  -6  11   3    3.88    2.99
  -5  -6   3    6.69    2.82
  -6  -5  -3    1.22    2.87
  -6  11   3    6.46    3.49
  11  -5   3    2.12    3.04
  -5  -6   3    2.38    2.63
  11  -6  -3    6.90    3.38
  -6  -5  -3    2.15    2.89
 -11   5   3    4.76    1.66
   6 -11   3    5.28    3.03
   6   5  -3    4.19    2.88
 -11   5   3    1.80    2.67
 -11   6  -3    2.22    2.84
 -11   6  -3    6.32    2.49
  -6  -5   3    4.87    2.86
  11  -5  -3    8.41    3.30
  -6  -5   3    5.31    2.81
  -5  11   3    5.63    3.25
  11  -6   3    9.37    3.37
  -5  11   3    7.56    3.41
   7   4  -3    9.60    3.53
 -11   7  -3    7.81    3.24
 -11   4   3    7.63    3.39
 -11   7  -3    9.79    2.75
   4 -11  -3    8.18    3.39
 -11   4   3    9.11    2.07
  -7  -4   3    7.04    2.91
  -7  -4   3    9.54    3.12
  -4  -7  -3   11.12    3.37
  -7  11  -3    8.57    3.20
  11  -4  -3    6.38    3.22
  -7  11  -3    6.60    3.27
  11  -7   3    3.30    3.10
  -4  11   3   15.75    3.94
   8 -11   3    3.66    3.10
   3 -11  -3   12.66    4.11
 -11   8  -3   12.67    3.22
 -11   8  -3   10.74    3.45
 -11   3   3    9.53    3.40
   8   3  -3   12.92    3.72
  11  -8   3    9.28    3.63
  -3  -8  -3    6.56    3.19
  -8  11  -3    9.48    3.22
  -3  11   3    6.36    3.23
  -8  -3   3    9.50    2.90
   9   2  -3    5.37    3.28
 -11   9  -3    0.50    2.43
 -11   2   3    2.54    1.99
   9 -11   3   -2.72    2.69
 -11   2   3    1.83    2.58
 -11   9  -3   -4.38    2.32
   2 -11  -3    2.66    3.20
  -9  11  -3    4.14    2.91
  -2  -9  -3    1.89    2.91
  11  -9   3    5.06    3.40
  -9  -2   3    5.10    2.63
 -11  10  -3    0.46    2.63
  10 -11   3   -0.55    2.94
 -11   1   3    3.31    3.27
   1 -11  -3    4.25    3.53
 -11   1   3    2.81    2.20
 -10  -1   3    1.19    3.12
  -1 -10  -3   -0.82    2.71
 -10  -1   3   -1.07    2.23
  11 -10   3    1.47    3.00
 -10  11  -3   -3.08    2.47
 -12   8   3    4.80    2.15
 -12   4  -3    3.40    3.52
 -12   4  -3    4.13    2.96
   8 -12  -3   18.71    4.67
   4 -12   3    3.05    3.17
   4   8  -3    3.78    3.31
  -8  -4  -3    6.74    3.35
  12  -8  -3   10.71    3.96
  -4  -8   3    8.76    3.51
  -8  12   3   13.62    3.79
  12  -4   3   13.65    4.21
  -8  -4  -3    5.59    3.43
  -8  12   3    6.48    3.71
   5 -12   3    6.40    3.56
 -12   5  -3   -0.17    2.46
 -12   5  -3   11.03    3.87
   5   7  -3    6.76    3.34
   7 -12  -3    4.53    3.71
 -12   7   3    6.25    2.01
  -5  -7   3    8.91    3.22
  12  -7  -3   11.10    3.96
  -5  -7   3    9.66    3.61
  -7  12   3    6.25    3.32
  12  -5   3   10.26    3.83
  -7  12   3   12.00    4.12
   6 -12  -3    8.43    3.54
   6   6  -3    3.96    3.34
 -12   6   3    6.02    1.96
   6 -12   3    5.85    3.26
 -12   6   3    9.53    3.67
 -12   6  -3    9.04    3.47
 -12   6  -3   12.35    3.16
  -6  -6   3    6.54    3.48
  -6  12   3   12.58    3.78
  -6  -6   3    7.79    3.20
  -6  12   3    4.22    3.62
  12  -6  -3    8.76    3.66
  12  -6   3    3.40    3.58
 -12   5   3    8.00    2.23
   7   5  -3   10.61    3.79
 -12   5   3   10.33    3.71
 -12   7  -3   10.37    2.99
 -12   7  -3    6.86    3.35
   5 -12  -3   14.28    4.31
  12  -5  -3    8.24    3.72
  -5  12   3   16.56    4.38
  -7  -5   3   10.48    3.46
  12  -7   3    4.20    3.48
 -12   4   3   13.34    3.96
 -12   8  -3   11.44    3.25
 -12   4   3    8.75    2.21
   8   4  -3    9.26    3.76
   4 -12  -3    8.36    4.04
 -12   8  -3    5.45    3.27
  -4  -8  -3   15.82    4.08
  -4  12   3   16.50    4.09
  12  -8   3   13.47    4.10
  -8  -4   3   11.74    3.49
   0   0  -4   -2.29    0.97
   0   0   4    0.26    1.01
   0   0   4   -0.23    1.04
   0   0   4    0.33    1.13
   0   0  -4   -0.18    1.04
   1  -1  -4   26.46    1.67
   1   0   4   28.31    2.19
  -1   1   4   28.83    1.82
   0  -1   4   27.54    1.97
   0   1  -4   31.74    2.30
   1   0   4   25.96    2.24
   0   1  -4   29.42    1.88
  -1   1   4   29.80    1.77
  -1   1   4   29.23    2.13
   1   0   4   27.15    1.84
  -1   0  -4   25.94    2.14
  -1   1   4   29.16    2.35
   0  -1   4   28.93    2.11
  -1   0  -4   26.65    2.02
   0  -1   4   26.89    1.65
  -1   0   4    1.27    0.97
   1  -1   4   -0.51    1.05
  -1   0   4    0.52    0.94
  -1   1  -4    0.99    1.18
   0   1   4    0.15    1.14
  -1   0   4    0.31    0.99
   1  -1   4    1.62    1.08
   1   0  -4   -0.14    1.16
   0   1   4   -0.86    1.03
   0  -1  -4    0.20    0.91
   1  -1   4    0.39    1.13
   0  -1  -4    1.47    1.09
  -1   0   4   -1.12    1.00
  -1   1  -4   -0.43    1.10
   0   1   4   -0.25    1.24
  -2   2   4   31.22    1.69
  -2   0  -4   38.29    2.47
  -2   0  -4   31.84    1.86
  -2   0  -4   33.13    2.30
  -2   2   4   31.36    1.76
   0   2  -4   37.66    2.53
   2   0   4   32.72    2.55
  -2   2   4   37.00    2.59
   2   0   4   29.75    2.68
  -2   2   4   30.97    2.26
   0  -2   4   33.58    2.78
   0  -2   4   32.62    1.37
   2  -2  -4   32.16    1.68
   0  -2   4   29.68    2.38
   0   2  -4   37.01    2.15
  -2   1   4   88.45    2.44
  -2   1  -4   87.60    3.53
  -2   1  -4   87.58    3.48
   1  -2   4   87.86    2.87
   1   1  -4   84.48    3.52
   1  -2   4   81.51    3.23
   1   1   4   86.13    3.39
   1  -2  -4   91.34    3.64
   1  -2  -4   91.87    2.32
   1  -2   4   85.81    3.33
   1   1   4   87.74    3.65
  -2   1   4   89.81    2.46
  -2   1   4   87.79    3.67
  -2   1   4   85.70    3.12
   2  -1  -4   77.61    3.00
  -1  -1   4   83.14    2.09
  -1  -1  -4   79.09    2.98
  -1   2   4   81.21    2.98
  -1  -1   4   82.10    2.97
  -1  -1   4   82.42    3.53
  -1  -1  -4   80.31    3.20
  -1   2  -4   79.49    3.23
  -1   2  -4   83.24    3.54
  -1   2   4   79.00    3.55
  -1  -1  -4   79.75    3.12
   2  -1   4   82.27    3.46
  -1  -1   4   85.89    2.99
   2  -1   4   81.74    2.66
   2  -1   4   79.78    3.25
  -2   0   4    3.63    1.01
  -2   0   4    4.89    1.02
  -2   2  -4    4.77    1.59
   2  -2   4    3.32    1.33
   0  -2  -4    4.37    1.51
   2   0  -4    3.41    1.47
  -2   0   4    4.44    0.98
   0   2   4    2.74    1.50
  -2   2  -4    5.46    1.53
  -2   0   4    3.37    1.36
   0   2   4    3.65    1.37
   0  -2  -4    5.33    1.34
   0  -2  -4    3.71    0.94
   2  -2   4    3.54    1.40
   2  -2   4    6.15    1.29
   0  -3   4  128.51    4.87
   3  -3  -4  131.90    3.41
   3   0   4  131.58    4.96
   3   0   4  130.91    4.49
   0   3  -4  129.93    4.96
   3  -3  -4  126.88    4.83
  -3   3   4  136.49    4.95
  -3   0  -4  128.13    3.50
  -3   0  -4  134.90    4.71
   0  -3   4  130.98    2.69
  -3   3   4  134.12    3.46
  -3   0  -4  136.82    4.65
   0  -3   4  126.68    4.57
   0   3  -4  133.51    4.49
  -3   1  -4   12.60    1.83
  -3   2   4   15.13    2.05
  -3   2   4   13.65    1.00
  -3   2   4   12.11    1.84
  -3   1  -4   13.34    2.10
   2  -3  -4   14.43    2.21
  -3   1  -4   12.88    1.23
   1   2  -4   13.82    2.19
  -3   2   4   14.70    0.98
   2   1   4   12.93    2.04
   1  -3   4   12.09    1.38
   1  -3   4   14.79    2.06
   2   1   4   13.83    1.98
   1  -3   4   14.77    2.00
  -1  -2   4   16.53    1.86
  -2  -1  -4   17.45    1.98
  -2   3   4   15.62    1.69
   3  -2  -4   16.41    1.74
  -2  -1  -4   16.56    2.18
  -2   3   4   16.05    1.70
   3  -1   4   16.06    2.23
   3  -1   4   18.44    2.05
  -2   3   4   13.28    1.99
  -1  -2   4   12.95    2.09
  -1   3  -4   12.78    1.91
  -1   3  -4   14.95    2.21
  -2  -1  -4   17.45    1.81
  -3   1   4   14.46    1.96
   2  -3   4   17.15    1.91
   1  -3  -4   17.66    2.17
   2  -3   4   15.93    1.80
   2   1  -4   18.16    2.35
   2  -3   4   12.85    1.93
  -3   2  -4   17.09    2.29
   1   2   4   18.94    2.15
  -3   1   4   14.56    1.81
  -3   2  -4   16.81    2.06
   1   2   4   15.35    2.32
  -2  -1   4   12.34    1.48
  -1  -2  -4   15.02    2.02
  -1   3   4   10.68    1.95
   3  -2   4   11.35    1.93
  -2   3  -4   12.54    2.11
   3  -2   4   11.83    1.79
  -2   3  -4   12.32    1.93
   3  -1  -4   11.09    1.69
  -2  -1   4   15.02    1.69
  -1  -2  -4   12.65    1.93
  -1   3   4   13.27    1.81
  -2  -1   4   14.70    1.01
   3  -2   4   13.32    1.26
  -2  -1   4   14.14    2.03
  -1  -2  -4   15.03    1.61
   3  -3   4   73.22    3.50
   3  -3   4   80.32    2.92
  -3   0   4   81.89    2.46
   0  -3  -4   70.81    3.40
  -3   0   4   71.39    2.38
   0  -3  -4   77.38    2.30
  -3   0   4   75.82    2.72
   0   3   4   80.65    4.00
  -3   0   4   73.80    3.56
   3   0  -4   75.54    3.68
   3  -3   4   82.62    3.46
  -3   3  -4   86.80    4.01
   0   3   4   78.06    3.57
  -3   3  -4   74.82    3.60
   0  -3  -4   75.67    3.66
   4  -4  -4   22.26    2.66
  -4   4   4   28.91    3.01
  -4   4   4   29.04    1.83
  -4   0  -4   24.63    1.65
  -4   0  -4   24.29    2.75
   4   0   4   22.59    2.84
  -4   4   4   29.85    1.79
   0   4  -4   24.94    2.57
   0  -4   4   22.68    2.75
   0   4  -4   19.99    2.63
   0  -4   4   23.73    2.66
   0  -4   4   25.33    1.22
  -4   4   4   22.90    1.72
  -4   0  -4   22.19    2.70
   4   0   4   32.50    2.79
  -4   1  -4   76.73    1.95
  -4   3   4   80.38    3.91
   3   1   4   74.92    3.57
   3  -4  -4   80.18    1.91
  -4   1  -4   74.46    3.92
  -4   1  -4   74.36    3.56
   1  -4   4   76.42    4.01
   1  -4   4   75.37    3.78
   3   1   4   70.59    3.94
  -4   3   4   76.12    2.05
   3  -4  -4   67.22    3.73
   1  -4   4   76.14    2.71
  -4   3   4   75.37    3.74
  -4   3   4   73.19    2.01
  -4   3   4   78.35    3.18
   1   3  -4   74.94    4.06
  -3   4   4   82.36    4.15
  -3   4   4   78.92    3.13
  -1  -3   4   78.38    3.99
  -3   4   4   78.86    3.07
   4  -1   4   84.94    4.20
  -3  -1  -4   73.95    3.03
  -1   4  -4   79.15    3.76
  -1   4  -4   74.02    3.89
   4  -1   4   79.61    3.57
  -3  -1  -4   80.27    3.78
  -1  -3   4   84.65    3.69
  -3  -1  -4   87.53    4.06
  -4   2  -4    6.53    1.80
  -4   2  -4    6.19    1.66
   2   2  -4    3.61    1.73
   2  -4   4    6.84    1.48
   2  -4  -4    4.57    1.75
  -4   2   4    5.14    1.50
   2  -4   4    2.33    1.49
  -4   2   4    5.97    1.53
   2  -4   4    5.62    1.68
   2   2   4    6.28    1.69
   2   2   4    6.18    1.75
  -4   2   4    4.51    1.49
   4  -2   4    3.15    1.63
  -2  -2   4    0.83    1.19
   4  -2   4    3.43    1.37
  -2   4  -4    2.79    1.56
  -2   4   4    5.14    1.46
  -2  -2  -4    3.70    1.38
  -2  -2  -4    4.37    1.53
  -2  -2  -4    1.59    1.53
  -2  -2   4    2.38    1.30
  -2  -2   4    2.07    1.47
  -2   4   4    3.64    1.67
  -2   4  -4    0.24    1.43
   3  -4   4   89.78    3.79
   1   3   4   92.34    4.11
  -4   1   4   88.33    3.92
  -4   3  -4   93.99    4.06
   3  -4   4   83.87    3.57
   3  -4   4   91.06    3.89
   3   1  -4   91.30    2.60
   1  -4  -4   81.86    4.15
  -4   1   4   86.95    4.00
  -4   3  -4   87.83    4.19
   1   3   4   92.42    4.27
  -4   1   4   89.96    3.57
   1  -4  -4   88.77    3.62
   3   1  -4   92.40    4.35
  -1   4   4   78.39    3.99
  -3   4  -4   83.92    4.04
  -3  -1   4   87.19    4.03
  -3  -1   4   82.11    3.06
  -1  -3  -4   77.63    3.89
  -1  -3  -4   86.20    3.89
   4  -3   4   83.87    2.52
  -3  -1   4   88.62    3.14
  -1   4   4   83.10    3.80
  -1  -3  -4   86.09    3.07
   4  -3   4   87.12    3.63
   4  -3   4   82.83    4.13
  -3   4  -4   77.48    4.04
   0  -4  -4  186.73    6.44
   0   4   4  184.39    6.50
  -4   0   4  186.39    6.16
   4  -4   4  188.89    5.03
   4  -4   4  188.58    6.09
   0   4   4  189.28    6.20
   4   0  -4  194.44    5.09
   0  -4  -4  188.00    5.94
  -4   4  -4  195.18    6.64
  -4   4  -4  193.85    6.21
  -4   0   4  188.00    4.45
  -4   0   4  188.26    6.37
   0  -4  -4  196.63    4.32
   4  -4   4  202.27    5.88
  -5   5   4    1.74    1.24
   0  -5   4   -1.07    1.53
   5  -5  -4   -0.40    1.52
   0   5  -4    1.05    1.80
   5   0   4    2.20    1.97
  -5   5   4    1.11    1.18
  -5   5   4   -1.15    1.62
  -5   5   4    3.22    1.27
   0  -5   4    3.32    1.83
  -5   0  -4   -1.77    1.47
  -5   0  -4   -1.43    1.57
  -5   4   4   15.95    1.97
   4  -5  -4   16.13    2.52
   1   4  -4   18.28    2.76
   4   1   4   18.22    2.79
   1  -5   4   19.97    2.70
  -5   4   4   16.58    1.36
  -5   1  -4   17.29    2.48
  -5   1  -4   14.44    2.64
   1  -5   4   17.09    2.80
  -5   4   4   15.69    2.60
  -4   5   4   16.10    2.84
  -1   5  -4   17.58    2.63
  -4  -1  -4   19.04    2.63
  -4  -1  -4   19.51    2.64
  -1   5  -4   20.15    2.70
  -4   5   4   19.56    2.13
  -4   5   4   19.45    2.10
  -1   5  -4   18.89    1.73
   5  -1   4   15.35    2.76
  -4  -1  -4   17.03    1.88
   5  -4  -4   21.62    2.78
  -4   5   4   18.14    1.30
  -1  -4   4   15.81    2.46
  -1  -4   4   18.27    2.72
   2   3  -4    9.70    2.24
   3   2   4   11.55    2.04
   2  -5   4   10.78    1.79
  -5   3   4   10.91    1.97
   3  -5  -4   10.11    2.14
   3   2   4    8.26    2.09
  -5   2  -4    6.57    2.06
   2  -5   4   11.92    2.12
   2  -5   4    9.27    2.13
  -5   2  -4    8.49    1.91
  -5   3   4    9.73    2.03
  -5   3   4    8.73    1.94
  -3  -2  -4   13.08    2.01
  -2   5  -4   11.01    2.22
   5  -2   4   13.28    2.43
  -2   5  -4   11.65    2.20
  -2  -3   4    6.87    1.82
  -3  -2  -4   12.10    2.10
  -3   5   4    8.91    2.09
  -3  -2  -4   12.69    2.27
  -3   5   4   13.51    2.03
  -2  -3   4   10.69    2.29
  -5   2   4   60.68    3.49
   2   3   4   64.06    4.03
   3   2  -4   67.83    1.77
   3   2  -4   62.50    3.88
   2  -5  -4   63.63    3.96
  -5   3  -4   70.22    4.10
  -5   3  -4   60.82    3.48
   2   3   4   65.28    3.74
   3  -5   4   73.32    3.56
  -5   2   4   60.86    3.57
  -5   2   4   64.38    3.47
   3  -5   4   64.78    3.60
   3  -5   4   64.06    3.59
  -2  -3  -4   57.37    3.45
   5  -3   4   53.84    3.80
  -2  -3  -4   60.76    3.50
  -3  -2   4   54.23    3.69
  -2   5   4   57.69    3.80
  -3   5  -4   53.22    3.51
  -3  -2   4   58.88    3.14
  -3  -2   4   57.81    3.03
  -2   5   4   48.60    3.32
  -3   5  -4   52.14    3.43
  -2  -3  -4   55.32    2.99
  -5   1   4  205.04    6.48
   4   1  -4  202.74    6.87
   1   4   4  201.32    7.07
   4  -5   4  206.60    6.61
   4   1  -4  202.20    4.89
   1   4   4  206.12    6.74
   4  -5   4  196.98    6.12
  -5   1   4  200.72    5.97
  -5   4  -4  204.24    6.51
  -5   1   4  201.69    6.86
   4  -5   4  202.40    5.94
   1  -5  -4  198.81    7.20
  -5   4  -4  209.20    7.15
  -1  -4  -4  208.43    5.47
  -4  -1   4  213.03    5.50
   5  -4   4  204.55    7.07
  -4   5  -4  214.66    6.86
  -1   5   4  212.58    7.19
  -1   5   4  216.51    6.84
   5  -4   4  216.58    4.77
  -4   5  -4  197.41    6.91
  -4  -1   4  192.49    6.67
  -1  -4  -4  228.64    7.18
  -1  -4  -4  201.69    6.63
  -4  -1   4  202.82    5.47
   0   5   4  313.28    9.47
   0   5   4  329.42    6.73
  -5   0   4  324.53    6.88
  -5   0   4  325.15    6.92
   5   0  -4  324.68    7.70
  -5   0   4  331.32    9.03
  -5   5  -4  327.11    9.41
   5  -5   4  332.02    9.23
  -5   0   4  322.59    9.50
   5  -5   4  329.28    7.57
   0   5   4  316.42    9.07
  -5   5  -4  310.19    8.88
   0  -5  -4  324.45    9.66
   0  -6   4   14.46    3.06
  -6   0  -4   12.91    2.72
   0  -6   4   14.39    2.77
  -6   6   4   15.96    2.94
   6   0   4   13.77    3.09
  -6   6   4   11.61    1.93
   0   6  -4   14.81    2.84
   6  -6  -4   12.37    2.69
  -6   0  -4    9.05    2.45
  -6   1  -4   29.23    3.21
   1  -6   4   30.87    3.41
   1   5  -4   28.23    3.43
  -6   5   4   30.51    2.89
  -6   5   4   31.89    3.62
  -6   1  -4   28.20    3.70
   5   1   4   38.27    4.01
   1  -6   4   19.98    3.30
  -6   5   4   27.20    2.00
   5  -6  -4   33.98    3.72
  -5  -1  -4   26.23    2.31
  -1   6  -4   26.85    3.35
  -5  -1  -4   25.41    3.21
  -5  -1  -4   29.86    3.48
  -1  -5   4   33.84    3.89
   6  -1   4   23.80    3.56
  -5   6   4   28.70    2.78
  -1  -5   4   23.54    3.14
   6  -5  -4   25.06    3.03
   2   4  -4   77.55    4.62
   4  -6  -4   75.52    4.65
  -6   4   4   78.76    4.59
   2  -6   4   85.66    4.48
   4   2   4   74.44    4.48
  -6   2  -4   78.57    4.68
  -6   2  -4   80.68    4.35
  -6   4   4   80.88    3.99
   2  -6   4   79.78    4.75
   6  -2   4   75.43    4.62
  -4  -2  -4   70.14    4.09
  -2  -4   4   65.04    3.92
  -4  -2  -4   66.39    4.16
  -4   6   4   75.71    3.87
  -2  -4   4   68.87    4.54
  -2   6  -4   68.24    4.16
  -4   6   4   71.64    4.71
  -4  -2  -4   68.39    3.48
  -2   6  -4   73.36    3.36
  -2   6  -4   69.50    4.27
   6  -4  -4   65.11    3.86
   3   3   4  103.58    5.13
  -6   3   4  103.32    4.57
   3  -6   4  103.83    4.94
   3  -6  -4   92.92    5.20
  -6   3  -4  103.87    4.70
  -6   3  -4   98.76    5.09
   3   3  -4   97.14    5.20
   3  -6   4  101.48    4.29
   3  -6   4  100.23    4.72
  -6   3   4   98.68    4.65
  -6   3   4  100.53    4.80
  -3  -3  -4   85.28    4.24
  -3  -3  -4   90.55    4.66
  -3  -3  -4   93.55    4.40
  -3   6   4   96.87    4.55
  -3   6  -4   91.30    4.80
  -3  -3   4   93.32    4.29
  -3   6   4   85.23    4.97
   6  -3   4   90.80    4.89
  -3   6  -4   84.75    3.96
  -3  -3   4   88.98    4.73
  -3   6  -4   84.49    4.76
  -6   4  -4  138.90    6.19
   4  -6   4  149.47    5.63
   4  -6   4  131.80    5.29
   2  -6  -4  155.26    6.52
   2   4   4  151.59    5.93
  -6   2   4  143.84    5.90
  -6   4  -4  139.18    5.64
  -6   2   4  144.81    5.45
   2   4   4  134.44    5.98
   4   2  -4  141.83    6.15
  -6   2   4  137.84    5.40
  -2   6   4  138.80    6.12
  -2   6   4  134.95    5.71
  -2  -4  -4  139.82    5.00
  -2  -4  -4  139.43    5.88
   6  -4   4  144.10    6.27
  -4  -2   4  130.71    4.98
  -4   6  -4  141.81    5.97
  -4  -2   4  148.36    6.07
  -4   6  -4  146.96    5.92
  -2  -4  -4  133.10    5.73
   1   5   4  179.96    6.94
   5  -6   4  190.74    7.04
  -6   1   4  190.43    4.33
   5  -6   4  192.74    6.05
  -6   5  -4  196.60    6.91
   5   1  -4  187.87    7.19
  -6   5  -4  187.38    7.32
  -6   1   4  181.94    7.13
  -6   1   4  190.63    4.36
   1  -6  -4  194.30    7.70
   1   5   4  191.65    7.24
  -6   1   4  186.41    6.54
  -1   6   4  193.70    7.25
  -5  -1   4  184.19    5.47
  -5  -1   4  199.59    7.38
  -1  -5  -4  185.74    6.87
  -5  -1   4  184.48    6.72
  -1  -5  -4  191.99    5.38
   6  -1  -4  181.35    6.05
  -5   6  -4  183.96    7.07
  -5   6  -4  183.55    6.80
   6  -5   4  184.24    7.07
  -1  -5  -4  183.60    7.22
  -1   6   4  174.59    6.84
   0   6   4  114.12    5.68
  -6   0   4  107.42    5.78
   6   0  -4  102.89    4.26
  -6   6  -4  102.71    5.25
  -6   6  -4  116.62    5.63
  -6   0   4  106.39    3.79
   0  -6  -4   96.59    5.79
   6  -6   4  124.07    5.81
   0   6   4  103.01    5.34
  -6   0   4  114.15    5.20
   7  -7  -4    5.16    2.36
   7   0   4    5.12    2.59
  -7   7   4    4.80    2.42
  -7   0  -4    4.16    2.69
   0  -7   4    1.59    2.34
   0  -7   4   -0.13    2.04
  -7   7   4    2.55    1.85
   0   7  -4    7.17    2.61
  -7   0  -4    3.29    2.23
   1  -7   4   14.16    3.06
   1  -7   4   22.90    3.65
  -7   1  -4   19.60    3.29
   1   6  -4   19.67    3.47
   6  -7  -4   21.46    3.39
  -7   6   4   21.07    2.32
   6   1   4   20.61    3.56
  -7   1  -4   21.08    3.13
  -7   6   4   16.86    3.25
   7  -1   4   27.10    4.01
  -6  -1  -4   20.87    3.27
  -1  -6   4   30.83    3.69
  -6   7   4   20.93    2.78
  -1  -6   4   24.06    3.79
  -6   7   4   20.15    3.46
   7  -6  -4   30.18    3.52
  -1   7  -4   22.35    3.46
  -6  -1  -4   25.81    3.64
  -7   2  -4   17.98    3.41
  -7   5   4   12.23    2.89
   2  -7   4   20.24    3.40
  -7   2  -4   20.86    2.95
  -7   5   4   24.12    3.03
  -7   5   4   18.14    1.69
  -7   5   4   19.36    1.74
   5  -7  -4   16.09    3.05
   5   2   4   16.32    3.11
   2   5  -4   14.76    2.93
   7  -5  -4   21.96    2.94
  -5  -2  -4   20.82    2.41
  -2   7  -4   21.19    3.18
  -5   7   4   19.44    2.77
  -5  -2  -4   23.34    3.34
  -5   7   4   22.23    3.60
  -5  -2  -4   20.41    3.16
  -2  -5   4   17.31    3.15
  -2  -5   4   21.01    3.05
   7  -2   4   16.65    3.33
   3   4  -4   17.08    3.09
  -7   4   4   18.04    2.79
   4  -7  -4   16.56    2.99
   4   3   4   14.33    2.89
  -7   3  -4   19.23    3.23
   3  -7   4   18.72    3.15
  -7   4   4   16.31    2.80
  -7   3  -4   11.65    2.39
  -7   4   4   19.47    2.75
  -4  -3  -4   19.33    2.86
   7  -3   4   22.77    3.40
  -3  -4   4   20.24    2.88
  -4   7   4   13.86    3.12
  -3   7  -4   21.96    2.65
  -3   7  -4   20.15    3.15
  -3  -4   4   17.15    2.97
  -4  -3  -4   18.84    2.64
  -4  -3  -4   23.58    3.30
   7  -4  -4   15.23    2.48
  -4   7   4   17.56    2.88
  -3   7  -4   18.56    3.02
   3   4   4   27.19    3.54
   4   3  -4   18.36    3.27
  -7   3   4   22.35    2.86
   3  -7  -4   29.02    3.78
   4  -7   4   24.88    3.23
  -7   4  -4   28.92    3.23
  -7   3   4   22.83    3.10
  -7   3   4   25.70    3.36
  -7   4  -4   25.44    3.53
   4  -7   4   27.12    3.12
  -4   7  -4   26.17    3.57
  -4   7  -4   29.58    3.20
  -4  -3   4   30.53    3.59
  -3  -4  -4   25.10    2.95
   7  -4   4   23.96    3.48
  -4  -3   4   22.27    2.90
  -3   7   4   25.29    3.29
  -4   7  -4   24.59    3.27
  -3  -4  -4   29.23    3.70
  -3   7   4   24.56    3.51
  -3  -4  -4   27.61    3.26
   2   5   4   67.86    4.70
   5  -7   4   68.17    4.31
  -7   5  -4   67.40    4.26
   2  -7  -4   71.58    4.89
   5   2  -4   66.75    4.65
  -7   2   4   63.60    4.55
   5  -7   4   62.44    3.95
  -7   2   4   66.05    4.06
  -7   5  -4   62.20    4.69
  -5  -2   4   58.93    4.09
  -5   7  -4   65.31    4.61
  -5  -2   4   63.10    3.63
  -2   7   4   66.21    4.79
  -2  -5  -4   66.90    3.76
  -2  -5  -4   67.33    4.63
   7  -5   4   58.39    5.10
  -5   7  -4   68.40    4.54
  -2   7   4   71.21    4.66
  -2  -5  -4   73.68    4.67
   7  -2  -4   66.18    4.07
  -7   6  -4   50.57    4.77
   1  -7  -4   54.60    5.39
   1   6   4   51.54    4.69
  -7   1   4   51.74    3.75
  -7   6  -4   48.00    4.31
  -7   1   4   52.35    4.93
  -7   1   4   55.90    2.57
   6  -7   4   47.25    4.60
  -1  -6  -4   55.86    5.13
   7  -6   4   57.56    5.08
  -6   7  -4   62.87    4.40
  -1   7   4   66.70    4.77
  -6  -1   4   58.46    5.30
  -6  -1   4   58.13    3.39
   7  -1  -4   59.15    3.68
  -1   7   4   57.62    4.98
  -6  -1   4   57.21    4.13
  -6   7  -4   59.99    4.47
  -7   7  -4   49.41    4.62
  -7   0   4   47.73    2.98
  -7   0   4   47.47    4.90
   0  -7  -4   55.15    5.27
  -7   0   4   50.07    4.36
   0   7   4   55.85    4.97
   7  -7   4   51.17    4.86
  -7   7  -4   50.88    4.91
   0   7   4   51.76    5.01
  -8   0  -4    8.46    2.59
  -8   0  -4    3.84    2.67
  -8   8   4    3.55    2.75
   0   8  -4    5.47    2.62
   8   0   4    6.28    2.96
   8  -8  -4    7.12    2.61
   0  -8   4    6.65    3.04
  -8   8   4    1.50    1.76
   1  -8   4    0.59    2.32
   7   1   4    0.67    2.59
  -8   7   4    2.73    1.55
   1   7  -4    1.13    2.21
   7  -8  -4   -0.19    2.26
  -8   1  -4    4.28    2.28
  -8   1  -4    0.86    2.55
  -8   7   4    3.32    2.57
  -7   8   4    1.53    1.94
  -7  -1  -4    1.88    2.30
  -1   8  -4    0.53    2.12
  -1  -7   4    1.32    2.26
   8  -7  -4   -0.36    2.08
  -7   8   4   -2.11    2.11
   8  -1   4    2.67    2.69
  -7  -1  -4    5.39    2.50
  -1  -7   4   -1.34    2.24
   6   2   4    4.04    2.66
  -8   2  -4    2.94    2.19
  -8   6   4    1.43    1.37
   2  -8   4    4.84    2.53
   2   6  -4    2.33    2.40
  -8   6   4    1.36    1.94
  -8   6   4    5.38    2.71
  -8   2  -4    0.37    1.94
   6  -8  -4    3.45    2.47
  -6   8   4    4.42    2.75
   8  -6  -4    9.71    2.38
  -6   8   4    3.56    2.21
  -2   8  -4    3.64    2.33
  -6  -2  -4    6.63    2.66
  -2  -6   4    2.67    2.46
   8  -2   4    4.85    2.63
  -2  -6   4    0.14    2.04
  -6  -2  -4    1.39    2.24
  -8   5   4    5.35    2.35
  -8   3  -4   10.19    2.97
  -8   5   4    7.41    2.63
   3   5  -4    3.55    2.35
   5  -8  -4    5.40    2.49
  -8   5   4    5.51    1.29
   3  -8   4    5.48    2.60
   5   3   4    4.51    2.47
  -8   3  -4    7.82    2.37
  -5  -3  -4    9.05    2.62
  -3  -5   4    9.38    2.69
  -3   8  -4    6.21    2.43
   8  -5  -4    7.69    2.25
  -5   8   4    8.92    3.06
  -5  -3  -4    8.06    2.66
   8  -3   4   10.62    3.05
  -5  -3  -4    6.85    2.23
  -5   8   4    5.28    2.49
  -3  -5   4    4.85    2.35
  -8   4  -4   12.06    2.96
   4  -8  -4   10.11    2.95
  -8   4  -4   13.86    2.70
   4   4  -4   13.59    3.20
   4   4   4   18.86    3.26
  -8   4   4    8.99    2.60
  -8   4   4   19.14    3.14
   4  -8   4   15.03    3.06
  -8   4   4   16.80    2.76
   8  -4  -4    9.57    2.22
  -4   8  -4    6.03    2.60
  -4   8   4   15.64    3.10
  -4   8  -4   14.72    2.95
  -4   8  -4   13.82    2.59
  -4  -4  -4   14.11    2.84
  -4  -4  -4   12.86    2.89
  -4  -4   4   18.35    2.96
  -4  -4  -4   13.47    2.69
   8  -4   4   12.11    3.09
  -4   8   4   10.93    3.13
  -4  -4   4   15.69    3.00
   3   5   4   37.99    4.26
  -8   5  -4   50.01    5.10
  -8   5  -4   50.38    4.27
   3  -8  -4   44.35    5.00
  -8   3   4   49.81    4.78
   5  -8   4   51.36    4.58
   5   3  -4   42.77    4.60
   5  -8   4   47.28    4.37
  -8   3   4   44.86    3.91
  -3   8   4   44.68    4.64
  -3  -5  -4   50.24    4.58
  -5   8  -4   41.44    4.46
  -5   8  -4   57.60    5.14
   8  -5   4   47.30    4.97
  -3  -5  -4   51.02    4.84
  -3  -5  -4   46.28    4.06
  -5  -3   4   44.61    4.11
   8  -3  -4   53.91    4.67
  -3   8   4   40.61    4.63
  -5   8  -4   47.97    4.34
  -5  -3   4   50.88    4.72
  -8   2   4   48.94    2.37
   6  -8   4   48.12    4.28
  -8   2   4   50.63    5.00
   2  -8  -4   59.05    5.63
  -8   6  -4   47.63    4.87
   6  -8   4   52.93    4.84
   6   2  -4   54.84    5.17
   2   6   4   48.76    4.76
  -8   6  -4   48.89    4.30
  -8   2   4   57.29    4.00
   8  -2  -4   57.05    4.12
  -2  -6  -4   53.04    5.09
  -6   8  -4   55.91    5.01
  -2   8   4   53.41    5.21
  -6   8  -4   57.13    4.99
  -2   8   4   46.45    4.82
  -6  -2   4   57.82    4.37
   8  -6   4   45.82    4.99
  -6  -2   4   46.94    3.52
  -8   7  -4   36.68    4.39
   1   7   4   36.56    4.25
  -8   1   4   36.30    4.49
   7  -8   4   34.33    4.38
  -8   7  -4   38.09    4.20
  -8   1   4   37.11    2.57
  -8   1   4   38.80    3.99
   1  -8  -4   33.09    4.57
  -7  -1   4   33.23    4.34
  -1   8   4   43.70    4.68
  -1  -7  -4   28.17    4.10
  -7  -1   4   43.84    3.60
  -7   8  -4   30.44    3.98
  -7   8  -4   30.67    4.01
  -1   8   4   34.55    4.58
   8  -7   4   40.14    4.74
  -7  -1   4   33.01    3.78
   0  -8  -4   53.83    5.71
  -8   0   4   55.27    4.77
  -8   8  -4   43.92    4.90
   0   8   4   44.92    4.82
  -8   0   4   46.56    5.17
  -8   0   4   42.81    3.17
   8  -8   4   46.15    5.06
  -8   8  -4   53.47    5.01
  -9   9   4    1.14    2.56
  -9   9   4    4.33    2.35
   0   9  -4    9.37    3.08
  -9   0  -4    9.43    3.09
   0  -9   4    6.09    3.12
   9   0   4   -0.46    3.04
  -9   0  -4    6.46    3.03
  -9   8   4    2.25    2.70
   8  -9  -4    2.31    2.59
   8   1   4    2.94    2.87
  -9   1  -4    1.46    2.75
   1  -9   4    3.18    2.87
  -9   8   4    6.53    1.98
   1   8  -4    2.40    2.53
  -9   1  -4    5.13    2.66
  -8   9   4    2.73    2.16
  -8  -1  -4    2.78    2.82
   9  -1   4    2.02    2.78
  -8  -1  -4    4.32    2.45
  -1   9  -4   -2.73    2.27
  -8   9   4    0.62    2.49
  -1  -8   4   -1.32    2.55
   7  -9  -4   -0.98    2.38
   7   2   4    0.96    2.60
  -9   7   4    1.74    1.54
  -9   7   4    4.50    2.76
   2  -9   4    7.02    2.89
  -9   2  -4    5.21    2.71
  -9   2  -4    2.37    2.36
   2   7  -4    5.39    2.85
  -7  -2  -4    2.66    2.81
  -2   9  -4    4.98    2.70
  -7  -2  -4    5.73    2.87
  -7   9   4    5.00    2.53
  -2  -7   4    0.45    2.56
   9  -2   4    8.29    3.35
  -2  -7   4    4.53    2.92
  -7   9   4    4.83    2.98
  -9   6   4    3.33    2.43
  -9   3  -4    4.78    2.22
   3  -9   4    2.86    2.38
  -9   6   4    3.39    1.45
   6   3   4    1.93    2.63
   6  -9  -4    1.33    2.55
  -9   6   4   -0.23    2.29
   3   6  -4   -0.61    2.24
  -9   3  -4    1.99    2.52
  -6   9   4    0.47    2.64
  -3  -6   4    0.94    2.28
  -6   9   4    0.71    2.26
  -6  -3  -4    1.06    2.44
  -6  -3  -4    1.82    2.37
   9  -3   4    1.61    2.50
  -3   9  -4    7.15    2.79
  -9   4  -4   10.71    2.61
   5   4   4    6.72    2.80
  -9   5   4    6.24    2.59
  -9   5   4    5.20    1.28
   5  -9  -4    4.78    2.83
  -9   5   4    8.58    2.80
   4  -9   4    2.81    2.45
  -9   4  -4    3.55    2.76
   4   5  -4    5.93    2.96
  -5   9   4    3.12    2.71
  -4   9  -4    5.90    2.48
   9  -4   4    6.60    2.87
  -4  -5   4    4.22    2.45
  -5   9   4    4.42    2.49
  -5  -4  -4   10.02    3.07
  -4  -5   4    5.85    2.45
  -5  -4  -4    6.50    2.63
  -9   4   4   31.09    4.17
   5  -9   4   31.46    4.16
  -9   5  -4   30.17    4.19
   4  -9  -4   30.28    4.59
   5   4  -4   22.70    3.81
   4   5   4   28.85    4.11
  -9   5  -4   31.51    3.74
  -5  -4   4   30.49    3.76
   9  -5   4   22.69    4.04
  -5   9  -4   37.35    4.05
  -5  -4   4   29.23    4.03
  -4  -5  -4   29.43    4.11
  -4   9   4   32.12    4.23
  -5   9  -4   29.74    4.31
  -4   9   4   30.10    4.25
  -5   9  -4   42.53    4.50
   9  -4  -4   27.73    3.88
  -4  -5  -4   33.99    4.03
  -4  -5  -4   32.47    3.97
   6  -9   4   41.73    4.42
  -9   3   4   38.69    2.22
  -9   6  -4   42.68    4.76
  -9   3   4   45.05    4.95
   3  -9  -4   44.66    5.40
  -9   6  -4   40.40    4.14
   3   6   4   38.80    4.63
   6  -9   4   38.29    4.55
   6   3  -4   33.68    4.53
  -6  -3   4   43.51    4.58
   9  -6   4   33.05    4.57
  -6   9  -4   35.80    4.49
  -3   9   4   44.45    5.07
  -3  -6  -4   45.35    4.75
  -6   9  -4   43.15    4.78
   9  -3  -4   44.48    4.51
  -6  -3   4   33.88    3.86
  -3   9   4   40.46    4.84
   2  -9  -4   42.91    5.45
  -9   2   4   38.04    2.56
  -9   2   4   31.96    4.31
   7   2  -4   27.83    4.26
   7  -9   4   30.72    4.33
  -9   7  -4   25.40    3.59
  -9   7  -4   32.86    4.46
   2   7   4   28.18    4.07
  -7  -2   4   46.94    4.67
  -7  -2   4   29.44    3.43
  -7   9  -4   34.95    4.40
  -2   9   4   33.17    4.46
  -7   9  -4   43.24    4.71
  -2   9   4   29.81    4.45
   9  -7   4   33.62    4.81
  -2  -7  -4   36.42    4.67
  -9   1   4   27.64    2.81
   1   8   4   28.95    4.17
  -9   1   4   23.32    4.28
   8   1  -4   28.81    4.38
  -9   8  -4   29.83    4.32
   8  -9   4   24.65    4.25
   1  -9  -4   30.18    4.63
  -9   8  -4   32.17    4.31
  -1  -8  -4   30.24    4.62
  -8  -1   4   32.40    4.06
  -8  -1   4   23.72    4.15
   9  -8   4   15.87    3.58
  -8   9  -4   19.21    3.57
  -8  -1   4   27.35    3.22
  -8   9  -4   27.29    4.12
  -1   9   4   22.61    4.12
   0  -9  -4   46.52    5.73
  -9   9  -4   52.48    5.43
  -9   9  -4   46.75    5.05
  -9   0   4   47.80    3.94
  -9   0   4   48.80    5.81
   0   9   4   40.14    4.74
   9  -9   4   50.90    5.55
 -10  10   4    7.16    2.68
 -10   0  -4    6.59    3.63
   0 -10   4    5.55    3.59
 -10   0  -4    2.95    3.02
  10   0   4   10.21    3.91
 -10  10   4    6.15    3.52
 -10   1  -4    3.65    2.74
 -10   9   4    0.68    2.80
   1 -10   4    2.49    2.85
 -10   1  -4   -1.33    2.64
   9   1   4    0.30    2.97
   1   9  -4    3.53    2.79
 -10   9   4    3.90    2.13
  -1  -9   4    5.92    3.20
  -9  10   4    0.99    2.15
  -9  10   4    1.90    2.70
  -9  -1  -4    6.55    3.09
  -9  -1  -4   -1.11    2.94
  -1  10  -4    6.97    3.21
  10  -1   4    3.17    3.42
 -10   2  -4    4.42    2.61
 -10   2  -4    1.84    2.79
   2   8  -4    5.85    3.00
 -10   8   4    3.29    1.93
   8 -10  -4    1.52    2.76
 -10   8   4    4.11    2.99
   2 -10   4   13.83    4.02
   8   2   4    2.32    2.96
  -8  -2  -4    0.94    2.49
  -8  10   4    1.75    2.45
  10  -2   4    5.63    3.34
  -8  10   4    2.55    3.00
  -2  10  -4    4.68    3.00
  -8  -2  -4    4.63    3.13
  -2  -8   4    0.73    2.59
 -10   3  -4   10.18    2.78
 -10   7   4   10.02    2.03
   3 -10   4    5.32    3.09
   3   7  -4   16.24    3.58
 -10   3  -4   17.90    4.06
 -10   7   4    9.25    3.12
   7   3   4   15.53    3.68
   7 -10  -4   15.80    3.76
  -7  -3  -4   15.63    3.67
  -7  10   4   17.24    4.22
  -7  -3  -4   17.81    3.74
  10  -3   4   13.32    3.75
  -7  10   4    9.55    2.90
  -3  -7   4    8.88    3.16
  -3  -7   4   15.22    3.65
  -3  10  -4   10.76    3.34
   6   4   4    6.41    2.99
 -10   4  -4    7.66    2.72
 -10   6   4    9.60    3.13
   4   6  -4   12.45    3.47
 -10   6   4   18.21    3.63
 -10   4  -4    7.95    3.27
   6 -10  -4   12.62    3.65
   4 -10   4   15.61    3.82
 -10   6   4   12.68    1.83
  -6  -4  -4    9.79    3.25
  -4  10  -4   14.31    3.43
  -6  -4  -4   16.09    3.60
  -4  -6   4    6.74    2.97
  -6  10   4   11.54    3.20
  -6  10   4   13.27    3.81
  10  -4   4   11.92    3.42
  10  -6  -4   19.36    3.95
  -4  -6   4   10.98    3.09
   5 -10  -4   20.15    4.31
 -10   5  -4   18.36    3.24
 -10   5  -4   18.00    3.86
   5 -10   4   22.05    3.90
 -10   5   4   24.15    1.97
   5   5   4   26.39    4.09
 -10   5   4   28.17    4.24
   5   5  -4   17.26    3.93
  10  -5   4   12.42    3.52
  -5  10   4   21.40    4.23
  -5  10   4   26.81    4.40
  -5  10  -4   16.05    3.38
  10  -5  -4   21.03    3.94
  -5  -5   4   21.63    3.74
  -5  -5   4   26.05    4.05
   6   4  -4   26.04    4.20
 -10   4   4   26.69    4.23
   4   6   4   28.79    4.33
   6 -10   4   30.74    4.27
 -10   4   4   24.10    2.03
 -10   6  -4   27.21    4.29
   4 -10  -4   18.05    4.31
 -10   6  -4   17.39    3.17
  -6  -4   4   24.26    3.84
  -4  -6  -4   24.87    3.98
  -4  10   4   26.93    4.25
  10  -4  -4   28.63    4.18
  10  -6   4   17.12    3.96
  -6  10  -4   25.23    4.00
  -6  -4   4   15.70    3.20
  -4  10   4   19.51    4.03
 -10   3   4   24.63    2.33
 -10   7  -4   15.83    3.78
   7 -10   4   26.01    4.18
   3 -10  -4   23.46    4.71
   3   7   4   18.29    3.69
 -10   7  -4   15.35    3.33
   7   3  -4   22.41    4.12
 -10   3   4   16.63    3.70
  -3  10   4   25.77    4.41
  -7  10  -4   24.64    4.24
  -7  -3   4   24.03    3.91
  -7  -3   4   27.53    3.86
  -3  10   4   17.21    3.88
  10  -7   4   16.74    3.96
  -3  -7  -4   18.93    3.84
  -7  10  -4   22.87    3.91
   8   2  -4   21.58    4.07
   2 -10  -4   22.35    4.47
 -10   2   4   21.17    4.16
 -10   8  -4   14.59    3.78
   8 -10   4   19.42    3.98
   2   8   4   17.18    3.58
 -10   8  -4   21.91    3.79
 -10   2   4   23.39    2.62
  10  -8   4   15.56    3.70
  -8  10  -4   15.87    3.65
  -2  -8  -4   18.81    4.07
  -8  10  -4   20.09    3.92
  -8  -2   4   19.72    3.07
  -2  10   4   21.30    4.07
   9 -10   4   19.98    4.15
 -10   1   4   20.47    2.83
 -10   1   4   13.05    3.66
   1 -10  -4   23.48    4.74
 -10   9  -4   22.12    4.31
   9   1  -4   18.60    4.08
   1   9   4   21.42    3.89
 -10   9  -4   23.78    4.10
  10  -9   4   22.79    4.41
  -9  -1   4   15.18    2.94
  -9  10  -4   16.81    3.85
  -9  10  -4   18.24    3.83
  -1  10   4   17.09    3.76
  -9  -1   4   13.26    3.86
  -1  -9  -4   20.69    4.48
 -10   0   4   29.65    3.47
  10 -10   4   33.86    5.19
   0 -10  -4   17.05    4.45
 -10   0   4   27.88    4.93
 -10  10  -4   28.83    4.57
 -10  10  -4   21.07    4.03
   2   9  -4    1.16    2.88
 -11   9   4    5.38    2.22
 -11   2  -4   -0.42    3.06
   2 -11   4    4.79    3.51
 -11   2  -4    1.95    2.66
   9   2   4    0.97    3.01
 -11   9   4    9.80    3.82
  -9  -2  -4    9.10    3.56
  11  -2   4   10.31    3.78
  -9  11   4    7.24    3.80
  -2  -9   4    5.96    3.54
  -9  -2  -4    4.04    3.04
  -9  11   4   11.42    3.27
 -11   8   4   -0.70    2.82
 -11   3  -4    2.28    2.46
 -11   8   4    4.07    1.99
 -11   3  -4    7.96    3.46
   8   3   4    6.63    3.20
   8 -11  -4    8.38    3.49
   3   8  -4    2.22    2.96
   3 -11   4    3.50    3.28
  11  -3   4    2.05    3.21
  -3  -8   4    3.39    3.09
  -8  11   4    4.13    3.36
  -8  -3  -4    4.96    3.19
  -8  -3  -4    4.28    3.06
  -8  11   4    2.62    2.70
   4   7  -4    3.84    3.10
 -11   4  -4    5.19    3.28
 -11   4  -4   -0.22    2.31
   7   4   4   -1.94    2.72
   4 -11   4    4.96    3.22
   7 -11  -4   -0.81    2.82
 -11   7   4    2.62    1.67
  11  -4   4    3.35    3.13
  -7  11   4    5.38    3.41
  -4  -7   4    3.10    2.94
  -7  -4  -4    2.79    2.73
  -7  11   4    2.21    2.72
  -7  -4  -4    3.62    3.08
  -4  -7   4    0.57    2.62
  11  -7  -4    5.12    3.18
 -11   5  -4    3.30    2.63
 -11   6   4   -0.62    1.33
   6   5   4    3.75    2.75
   5   6  -4    2.99    2.99
 -11   5  -4    1.20    2.77
   5 -11   4    2.08    2.71
   6 -11  -4    4.66    3.17
  -5  -6   4    2.08    2.68
  -6  11   4    0.22    2.67
  11  -6  -4   -1.16    2.68
  11  -5   4    0.43    2.53
  -5  -6   4    3.51    2.83
  -6  11   4    5.68    3.57
   5 -11  -4    1.00    2.96
 -11   5   4    4.56    3.06
   5   6   4   -0.25    2.78
 -11   5   4    1.79    1.39
   6   5  -4   -0.04    2.61
 -11   6  -4   -1.86    2.56
   6 -11   4    3.59    2.82
 -11   6  -4   -0.68    2.16
  11  -6   4    1.18    2.69
  -6  -5   4    1.63    2.63
  11  -5  -4    1.54    2.76
  -5  11   4   -1.78    2.60
  -5  11   4    0.70    2.96
  -6  -5   4    1.88    2.76
   7   4  -4   -0.43    2.73
 -11   4   4    5.21    1.71
 -11   7  -4    5.01    3.19
 -11   7  -4   11.12    2.87
 -11   4   4    5.60    3.16
   4 -11  -4    6.87    3.80
  -7  -4   4    4.97    2.75
  -4  11   4    7.76    3.46
  11  -7   4    0.60    3.05
  -4  -7  -4    6.43    3.24
  -4  11   4    6.72    3.52
  -7  -4   4    4.30    2.91
 -11   8  -4    7.25    3.27
 -11   8  -4   10.84    3.15
   3 -11  -4    1.94    3.23
 -11   3   4   12.23    2.24
   8 -11   4   10.49    3.78
 -11   3   4   13.73    3.78
   8   3  -4    4.76    3.47
  11  -8   4    4.84    3.37
  -8  -3   4    3.19    2.35
  -3  11   4    3.51    3.20
  -8  11  -4    5.89    3.21
  -3  -8  -4    5.66    3.23
 -11   9  -4    3.87    3.04
 -11   2   4    3.25    2.00
   9 -11   4   11.62    3.81
   2 -11  -4   -1.20    2.87
 -11   9  -4    6.96    2.99
   9   2  -4    8.00    3.66
 -11   2   4    5.13    3.39
  -9  -2   4    3.67    2.40
  -2  11   4    5.72    3.26
  -9  11  -4    4.38    3.21
  11  -9   4   -1.43    2.63
  -2  -9  -4    8.01    3.54
 -12   7   4    0.37    1.53
   5   7  -4    6.53    3.30
 -12   5  -4    0.66    2.50
 -12   5  -4    2.52    2.93
   5 -12   4    0.30    2.93
   7 -12  -4    2.81    3.56
  -7  12   4    6.43    3.23
  12  -5   4    2.70    3.37
  -7  12   4    3.90    3.61
  12  -7  -4    4.65    3.11
  -5  -7   4   -2.13    2.63
  -5  -7   4   -0.24    2.66
   6 -12  -4   -2.70    2.81
 -12   6  -4    3.70    3.30
 -12   6   4    0.53    1.46
   6   6  -4   -0.58    2.85
 -12   6  -4   -1.59    2.29
  12  -6   4    3.76    3.57
  -6  12   4    2.86    3.44
  -6  -6   4    2.78    2.80
  -6  12   4   -3.60    2.52
  12  -6  -4    1.32    3.07
  -6  -6   4    3.87    3.08
 -12   5   4   -1.57    2.70
 -12   7  -4    6.22    2.87
   7   5  -4    2.01    3.06
 -12   5   4    5.26    1.70
 -12   7  -4    4.04    3.19
   5 -12  -4   -0.52    3.25
  -7  -5   4   -1.54    2.49
  -5  12   4    2.34    3.11
  12  -7   4    7.56    3.76
  -7  -5   4    1.91    2.57
   0   0   5    1.29    1.25
   0   0  -5    0.25    1.11
   0   0   5    0.59    1.16
   0   0   5    1.75    1.16
   1   0   5  124.54    4.34
  -1   1   5  126.94    3.76
   0  -1   5  124.75    4.06
  -1   1   5  130.01    3.87
  -1   0  -5  130.77    4.21
  -1   0  -5  132.12    4.29
   0  -1   5  127.83    3.58
  -1   1   5  127.78    4.21
  -1   1   5  125.12    4.41
   0  -1   5  124.14    4.37
   1   0   5  125.29    4.07
   0   1  -5  124.36    4.40
   1  -1  -5  124.42    3.67
   1   0   5  118.46    4.12
   0  -1  -5  156.70    4.25
  -1   1  -5  172.73    4.82
   0   1   5  157.64    4.93
  -1   0   5  163.78    4.42
   1  -1   5  160.05    4.67
   1   0  -5  165.21    4.81
   0  -1  -5  173.31    4.65
  -1   0   5  154.19    4.30
   0   1   5  153.22    4.65
   1  -1   5  153.03    4.75
  -1   1  -5  159.44    4.95
   0   1   5  163.17    4.91
   1  -1   5  162.53    4.63
  -1   0   5  152.56    4.99
  -1   0   5  167.19    4.38
  -2   0  -5  179.07    5.47
   0   2  -5  180.73    5.65
   0   2  -5  177.11    4.97
   0  -2   5  181.16    3.97
   0  -2   5  179.98    5.27
   2  -2  -5  187.10    4.39
  -2   2   5  177.35    5.40
  -2   0  -5  176.90    5.35
   0  -2   5  169.61    5.60
   2   0   5  173.14    5.65
   2   0   5  177.06    5.43
  -2   2   5  182.90    4.60
  -2   2   5  172.97    4.48
  -2   2   5  179.08    5.72
  -2   0  -5  174.99    4.76
  -2   1   5  144.19    4.98
   1  -2   5  141.54    4.57
   1   1  -5  138.23    4.78
   1   1   5  143.42    4.94
   1  -2  -5  136.62    3.48
   1  -2  -5  140.42    4.95
  -2   1  -5  144.59    4.77
  -2   1  -5  135.72    4.79
  -2   1   5  141.93    3.74
   1  -2   5  140.90    4.02
   1  -2   5  142.77    4.69
  -2   1   5  137.86    3.74
   1   1   5  139.27    4.65
  -2   1   5  144.09    4.34
  -1   2   5  143.71    4.91
  -1   2  -5  136.27    4.84
  -1  -1  -5  146.12    4.27
  -1  -1  -5  150.97    4.73
   2  -1  -5  136.45    4.27
  -1   2  -5  146.47    4.64
  -1  -1   5  139.99    4.32
   2  -1   5  147.72    4.15
  -1   2   5  149.18    4.45
  -1   2   5  142.90    4.91
  -1  -1   5  144.57    3.45
  -1  -1   5  150.45    5.15
   2  -1   5  134.98    4.71
  -1  -1  -5  145.79    4.63
   2  -1   5  140.59    4.67
   2  -2   5  157.12    5.05
   2   0  -5  158.68    5.09
   0  -2  -5  165.35    5.35
   0   2   5  164.38    5.07
   0  -2  -5  166.00    4.83
  -2   2  -5  154.20    5.11
  -2   0   5  159.35    5.35
   2  -2   5  162.19    4.61
  -2   2  -5  155.21    5.30
   0  -2  -5  168.39    4.07
  -2   0   5  163.83    4.17
   0   2   5  164.65    5.50
  -2   0   5  160.18    4.20
   2  -2   5  159.15    4.91
  -2   0   5  166.64    4.22
  -3   3   5   61.62    2.48
  -3   0  -5   55.31    3.39
   3  -3  -5   59.52    3.57
   3   0   5   54.01    3.19
   3   0   5   53.75    3.46
   3  -3  -5   58.99    2.34
  -3   3   5   61.11    3.58
  -3   3   5   57.24    3.42
  -3   0  -5   56.19    2.53
   0  -3   5   59.72    3.32
   0  -3   5   53.30    3.49
   0   3  -5   58.34    3.61
   0   3  -5   63.91    3.18
   0  -3   5   55.35    1.62
  -3   0  -5   59.20    3.37
  -3   3   5   58.05    2.49
   2   1   5   85.39    4.19
   1  -3   5   91.08    2.93
   1  -3   5   78.40    3.76
  -3   2   5   87.56    3.77
  -3   1  -5   81.38    3.99
  -3   2   5   91.67    2.66
   1   2  -5   91.21    4.20
  -3   1  -5   88.53    4.01
   1  -3   5   86.00    3.90
   2   1   5   91.49    3.90
   2  -3  -5   89.02    4.26
  -3   2   5   90.53    4.17
  -3   2   5   88.29    2.66
   2  -3  -5   89.37    2.25
  -1   3  -5   84.46    3.96
  -1  -2   5   80.82    4.10
   3  -1   5   80.30    2.70
  -2  -1  -5   87.19    3.63
  -2  -1  -5   81.97    3.91
   3  -1   5   83.85    4.08
  -1  -2   5   81.45    3.48
  -2   3   5   93.23    4.17
  -2  -1  -5   87.29    3.51
   3  -1   5   79.44    3.69
  -2   3   5   91.74    3.41
   3  -2  -5   89.72    3.34
  -1   3  -5   77.50    3.58
  -2   3   5   83.08    3.30
   2  -3   5   53.19    2.75
   2  -3   5   49.57    2.94
   1   2   5   54.92    3.48
  -3   2  -5   52.57    3.24
  -3   1   5   48.77    2.62
  -3   2  -5   50.88    3.41
   1  -3  -5   50.35    1.53
   1  -3  -5   51.76    3.30
  -3   1   5   53.11    2.01
   1   2   5   53.07    3.19
   2   1  -5   49.86    3.13
   2  -3   5   50.58    2.87
  -3   1   5   53.01    1.96
  -3   1   5   47.88    3.06
  -1   3   5   55.02    3.10
  -2  -1   5   55.55    1.81
  -2  -1   5   51.26    3.27
   3  -2   5   58.55    3.34
  -2   3  -5   53.74    3.28
  -1  -2  -5   60.88    2.68
  -1  -2  -5   53.67    3.15
   3  -2   5   53.80    2.30
  -2   3  -5   61.65    3.27
   3  -2   5   57.88    3.12
  -2  -1   5   58.43    2.74
  -1   3   5   48.13    3.37
  -1  -2  -5   58.28    3.23
  -2  -1   5   50.14    2.55
   3  -1  -5   54.48    2.97
  -3   3  -5    0.12    1.28
  -3   3  -5   -1.17    1.34
   3  -3   5   -0.92    1.31
   0  -3  -5    1.10    1.26
  -3   0   5    0.23    0.94
  -3   0   5    0.58    1.48
   0  -3  -5   -0.05    1.46
   3  -3   5   -0.52    1.23
   0  -3  -5    1.64    0.82
   0   3   5    1.38    1.33
  -3   0   5    1.40    1.02
  -3   0   5    0.30    0.92
   3   0  -5    1.08    1.44
   0   3   5   -2.48    1.45
   3  -3   5    2.26    1.15
   4   0   5   76.54    3.90
   0  -4   5   74.88    4.01
  -4   0  -5   68.34    3.94
  -4   4   5   79.71    2.97
  -4   4   5   72.05    2.95
   4  -4  -5   77.83    2.72
   4  -4  -5   78.56    4.31
   4   0   5   79.02    4.39
  -4   0  -5   81.56    4.23
  -4   4   5   72.36    4.11
   0  -4   5   73.89    4.30
  -4   0  -5   78.39    2.83
   0   4  -5   76.86    4.30
  -4   3   5   39.08    1.74
   1  -4   5   37.89    3.29
   1   3  -5   37.78    3.54
   3   1   5   47.01    3.84
   3  -4  -5   42.58    3.68
  -4   3   5   40.61    1.82
  -4   3   5   38.81    2.88
   3   1   5   37.51    3.13
  -4   1  -5   39.53    1.76
   1  -4   5   36.30    3.35
   1  -4   5   37.39    1.92
  -4   1  -5   38.61    3.51
  -4   1  -5   45.67    3.14
  -4   3   5   37.36    3.31
   4  -1   5   39.56    2.85
  -3  -1  -5   35.81    3.21
  -3   4   5   41.16    3.64
  -3  -1  -5   35.02    2.47
   4  -1   5   39.37    3.69
  -1  -3   5   37.89    3.47
  -3   4   5   38.70    2.45
  -1   4  -5   39.46    3.52
  -1   4  -5   39.48    2.92
   4  -3  -5   39.49    2.37
  -3  -1  -5   43.94    3.00
  -1  -3   5   36.80    3.05
  -3   4   5   41.44    2.41
   2  -4   5   77.78    3.92
  -4   2   5   83.68    2.09
   2   2  -5   76.97    4.12
   2   2   5   82.92    4.06
   2  -4   5   85.30    3.90
   2  -4  -5   81.27    4.29
  -4   2  -5   79.37    4.24
  -4   2  -5   81.14    4.06
  -4   2   5   74.75    3.72
   2  -4   5   84.50    3.32
   2   2   5   72.35    4.14
  -4   2   5   82.43    4.07
   4  -2  -5   80.55    3.44
   4  -2   5   80.08    2.33
  -2  -2   5   75.78    4.14
  -2  -2   5   77.44    3.45
  -2  -2  -5   74.11    3.87
  -2   4   5   71.16    3.95
  -2   4  -5   72.37    3.87
  -2  -2  -5   84.77    3.80
  -2   4   5   83.48    3.69
  -2   4  -5   77.60    4.18
   4  -2   5   82.41    3.84
   4  -2   5   80.75    4.12
  -2  -2  -5   84.52    3.56
  -2  -2   5   78.89    3.42
  -4   1   5    7.52    1.98
   1   3   5    8.43    2.04
   3   1  -5   10.96    1.19
  -4   1   5   10.06    1.75
  -4   1   5   10.88    1.05
   3  -4   5   11.76    1.89
  -4   3  -5   12.72    2.21
   1  -4  -5    9.91    2.22
   3  -4   5   13.32    2.10
   3  -4   5    6.55    1.79
   1   3   5   10.45    2.09
  -4   1   5    9.86    1.06
  -4   3  -5    9.34    2.11
   3   1  -5   10.83    2.29
  -3   4  -5   11.78    2.21
   4  -1  -5   10.12    1.94
  -1  -3  -5   10.57    2.11
  -3  -1   5   11.14    2.19
  -1  -3  -5   11.79    2.06
  -1  -3  -5   12.35    1.62
  -3   4  -5   10.72    2.09
  -1   4   5   10.60    2.14
  -1   4   5    6.80    1.84
   4  -3   5    7.03    2.04
   4  -3   5   12.30    1.35
  -3  -1   5    7.73    1.45
   4  -3   5   11.19    1.96
  -3  -1   5   10.54    1.64
  -4   0   5   -0.94    1.45
   0   4   5   -1.44    1.36
   0   4   5   -0.70    1.45
  -4   4  -5    0.50    1.45
   4   0  -5   -2.14    1.44
  -4   0   5    1.06    1.11
   0  -4  -5    0.06    0.78
   4  -4   5    0.71    1.14
  -4   0   5    1.65    1.03
   0  -4  -5   -0.57    1.39
   4  -4   5    0.48    1.42
  -4   0   5    0.99    0.96
   4  -4   5   -0.90    1.44
  -4   4  -5    1.02    1.71
   0  -4  -5    1.05    1.41
   5   0   5   62.52    5.13
   0  -5   5   59.09    4.31
   0   5  -5   55.64    4.17
  -5   5   5   60.63    4.34
  -5   0  -5   58.05    4.14
   5  -5  -5   46.05    4.08
  -5   0  -5   59.90    4.00
  -5   5   5   58.51    2.82
   0  -5   5   56.50    3.97
   4   1   5   55.51    4.16
  -5   4   5   73.25    3.21
  -5   4   5   72.22    2.55
   1  -5   5   72.07    4.16
  -5   1  -5   68.39    4.37
   1   4  -5   70.50    4.40
  -5   1  -5   70.30    4.14
   4  -5  -5   68.25    4.29
   1  -5   5   67.44    4.33
  -5   4   5   71.54    4.30
   1  -5   5   67.72    2.61
  -4   5   5   74.22    4.53
   5  -1   5   79.64    4.81
  -4  -1  -5   68.23    4.00
  -4  -1  -5   58.70    3.89
  -1   5  -5   71.53    4.29
  -1  -4   5   77.74    4.54
   5  -4  -5   67.32    4.14
  -1   5  -5   68.58    3.96
  -1  -4   5   72.17    3.98
  -4  -1  -5   70.15    3.18
  -4   5   5   69.04    3.32
  -5   3   5   84.98    4.23
   3   2   5   78.74    4.55
   3   2   5   78.90    4.14
  -5   2  -5   79.00    4.21
  -5   3   5   73.10    4.14
  -5   3   5   85.39    3.88
   2  -5   5   72.55    4.26
   2  -5   5   85.08    3.35
   3  -5  -5   87.15    4.80
   2   3  -5   81.77    4.63
  -5   2  -5   74.98    4.45
   2  -5   5   82.27    4.28
  -2   5  -5   93.47    4.82
  -2  -3   5   82.91    4.02
  -3  -2  -5   88.85    4.08
  -2   5  -5   93.63    4.56
  -3   5   5   83.59    4.75
  -3  -2  -5   85.13    4.49
  -3   5   5   85.62    3.94
  -2  -3   5   85.68    4.67
  -3  -2  -5   94.03    3.98
   5  -2   5   85.08    4.67
  -5   2   5   63.44    3.82
  -5   2   5   63.61    3.69
   3  -5   5   55.55    3.54
   3   2  -5   65.29    4.09
  -5   2   5   56.54    3.40
   2   3   5   57.58    3.74
   2  -5  -5   71.30    4.40
   3  -5   5   62.84    3.34
   3  -5   5   63.33    3.63
   2   3   5   60.97    3.98
  -5   3  -5   67.47    3.78
  -5   3  -5   57.76    3.94
  -3  -2   5   59.76    3.21
  -3   5  -5   67.75    4.17
  -3   5  -5   62.01    3.98
  -2   5   5   52.44    3.45
  -2  -3  -5   63.84    3.85
   5  -3   5   59.10    3.95
  -2  -3  -5   71.92    3.99
  -2  -3  -5   67.63    3.25
  -3  -2   5   61.58    3.96
  -2   5   5   64.88    4.04
  -5   1   5   18.28    2.20
   1   4   5   12.63    2.70
  -5   4  -5   18.47    2.63
   4   1  -5   12.78    2.48
   1  -5  -5   16.97    2.83
  -5   1   5   12.48    2.33
   4  -5   5   15.94    2.20
   4  -5   5   17.68    2.48
  -5   1   5   16.86    1.29
   1   4   5   18.82    2.76
   4  -5   5   17.35    2.51
  -5   4  -5   13.37    2.71
  -5   1   5   18.31    2.70
  -5   1   5   15.51    1.28
  -4  -1   5   14.01    1.84
  -4   5  -5   19.23    2.83
   5  -4   5   14.49    2.65
  -4  -1   5   15.70    2.70
   5  -4   5   17.60    1.60
  -1  -4  -5   18.05    2.75
  -4   5  -5   15.98    2.65
  -1  -4  -5   17.84    1.90
  -1  -4  -5   18.62    2.67
  -1   5   5   17.02    2.61
  -1   5   5   11.28    2.54
   5  -1  -5   17.81    2.61
   0  -5  -5   20.31    3.05
   0   5   5   19.26    3.00
  -5   0   5   20.08    1.86
   0   5   5   16.03    2.91
   5   0  -5   18.57    2.81
   5  -5   5   19.66    2.09
  -5   5  -5   21.20    2.98
  -5   0   5   18.69    2.82
   5  -5   5   16.89    2.83
  -5   0   5   15.52    1.69
   5   0  -5   18.56    2.10
  -5   5  -5   22.59    3.28
   6   0   5   15.59    3.45
   0  -6   5   18.14    3.12
  -6   0  -5   16.31    2.90
   6  -6  -5   13.08    2.80
  -6   6   5   23.65    3.49
  -6   6   5   20.78    2.34
  -6   0  -5   16.06    2.99
   0   6  -5   20.55    3.42
   0  -6   5   12.71    3.12
   1  -6   5   22.54    3.37
  -6   1  -5   34.66    3.68
   5  -6  -5   24.68    3.44
  -6   5   5   29.54    2.06
  -6   1  -5   30.83    3.80
  -6   5   5   27.89    3.55
   1  -6   5   31.86    3.64
   1   5  -5   20.30    3.26
  -6   5   5   33.06    2.83
   5   1   5   24.82    3.64
  -6   5   5   29.49    2.03
  -1   6  -5   35.43    3.97
  -5  -1  -5   35.93    3.73
  -1  -5   5   32.46    3.86
  -5   6   5   32.59    3.90
  -5  -1  -5   37.06    3.88
  -1  -5   5   36.85    3.71
   6  -1   5   39.73    4.48
   6  -5  -5   42.93    4.00
  -5   6   5   34.65    2.96
  -6   4   5   37.33    3.73
  -6   4   5   35.40    3.57
  -6   4   5   40.62    3.02
   4   2   5   38.67    4.03
  -6   2  -5   37.96    4.19
   2  -6   5   36.91    2.60
   2  -6   5   44.30    4.28
   2   4  -5   33.45    3.96
   4  -6  -5   33.44    3.91
  -6   2  -5   33.53    3.56
   2  -6   5   38.91    3.77
  -4  -2  -5   51.26    4.31
  -2  -4   5   46.21    3.90
   6  -2   5   50.95    4.73
   6  -4  -5   46.31    4.04
  -4  -2  -5   41.32    3.03
  -4   6   5   51.09    3.24
  -4   6   5   42.85    4.34
  -4  -2  -5   50.89    3.80
  -2   6  -5   54.20    3.97
  -2  -4   5   53.13    4.02
  -2   6  -5   46.71    4.34
   3  -6   5   57.68    3.34
   3  -6   5   54.48    3.82
   3  -6  -5   54.57    4.15
   3   3  -5   59.58    4.24
  -6   3  -5   57.10    3.95
  -6   3  -5   51.47    4.55
  -6   3   5   61.20    3.92
   3   3   5   54.38    4.57
  -6   3   5   50.82    3.68
   3  -6   5   54.39    3.91
  -6   3   5   56.86    3.84
  -3  -3   5   70.02    3.78
  -3   6  -5   62.57    4.03
  -3   6  -5   63.56    4.36
  -3  -3  -5   66.88    4.03
  -3   6   5   73.70    4.79
  -3  -3   5   52.27    4.01
   6  -3   5   59.92    4.31
  -3   6   5   66.62    3.91
  -3  -3  -5   60.77    3.58
  -3  -3  -5   61.47    4.16
   2   4   5   48.06    4.15
   2  -6  -5   45.67    4.60
  -6   2   5   48.59    3.40
   4  -6   5   42.69    3.66
  -6   2   5   45.68    4.04
   4   2  -5   39.03    3.99
  -6   2   5   46.77    3.97
   4  -6   5   37.54    3.47
   2   4   5   46.34    4.32
  -6   4  -5   48.91    4.48
  -6   4  -5   41.52    3.81
  -2  -4  -5   49.13    3.06
  -4   6  -5   52.47    4.40
  -2  -4  -5   43.67    4.02
  -4  -2   5   53.49    4.56
  -4  -2   5   41.77    3.07
   6  -4   5   49.59    4.41
  -2   6   5   43.75    3.94
  -4   6  -5   50.08    4.37
  -2   6   5   49.80    4.41
  -6   1   5   10.13    1.30
   1   5   5    5.78    2.45
   5   1  -5    8.74    2.57
  -6   5  -5    8.45    2.30
  -6   1   5    8.00    2.30
  -6   1   5    8.98    1.30
   5  -6   5    9.09    2.47
   1   5   5    6.58    2.32
  -6   5  -5   12.42    2.73
   5  -6   5   10.24    2.03
   1  -6  -5   13.64    2.91
  -6   1   5    8.59    2.26
  -1   6   5   16.91    3.02
   6  -1  -5   10.19    1.98
  -5   6  -5   11.34    2.66
  -1  -5  -5   12.21    2.68
  -5  -1   5   12.59    1.98
  -1   6   5    6.35    2.40
  -5  -1   5    7.68    2.23
   6  -5   5   15.51    2.87
  -5   6  -5    7.51    2.41
  -6   6  -5   20.50    3.25
  -6   0   5   20.59    2.09
   0   6   5   15.86    3.17
  -6   6  -5   20.22    3.22
   6  -6   5   13.94    2.91
  -6   0   5   19.29    3.21
   6   0  -5   11.48    2.81
  -6   0   5   24.03    3.14
   0   6   5   25.81    3.51
   0  -6  -5   18.56    3.34
   0  -7   5   81.08    5.44
  -7   7   5   98.32    6.16
   0   7  -5   84.67    5.53
  -7   0  -5   85.03    5.64
   7   0   5   94.15    6.21
   0  -7   5  100.09    6.28
  -7   7   5   79.96    4.20
   7  -7  -5   82.45    5.38
  -7   0  -5   81.37    5.38
   1  -7   5   81.66    5.60
  -7   1  -5   84.41    5.60
  -7   1  -5   90.14    5.25
   6   1   5   77.67    5.35
   1  -7   5   85.88    5.25
   1   6  -5   85.50    5.52
  -7   6   5   85.93    5.48
  -7   6   5   84.67    3.65
   6  -7  -5   93.17    5.64
  -6  -1  -5   83.00    5.22
  -6  -1  -5   82.47    5.18
  -1  -6   5   81.82    5.09
  -6   7   5   86.40    5.82
   7  -6  -5   84.96    5.19
   7  -1   5   87.43    5.72
  -1  -6   5   80.46    5.48
  -7   5   5   40.88    2.11
  -7   5   5   41.53    2.04
  -7   5   5   39.72    4.35
   2  -7   5   35.87    4.39
   5  -7  -5   49.31    4.84
  -7   2  -5   41.89    4.02
  -7   2  -5   42.51    4.56
   5   2   5   41.72    4.53
  -7   5   5   42.73    3.67
   2   5  -5   32.12    4.08
  -2   7  -5   35.56    4.11
   7  -2   5   35.48    4.31
  -5   7   5   39.33    4.37
  -5  -2  -5   37.43    4.08
  -5   7   5   35.89    3.50
  -5  -2  -5   33.94    3.92
   7  -5  -5   38.77    4.00
  -2  -5   5   39.52    4.38
  -2  -5   5   39.88    4.09
   3  -7   5   46.32    4.51
  -7   4   5   46.15    4.39
  -7   3  -5   60.94    5.28
   4  -7  -5   54.14    4.97
   4   3   5   45.66    4.44
   3   4  -5   40.33    4.48
  -7   4   5   50.32    3.66
  -7   3  -5   54.72    3.98
  -7   4   5   57.52    3.96
   7  -3   5   42.68    4.49
  -4   7   5   39.00    3.82
  -4  -3  -5   43.80    4.33
  -4  -3  -5   45.03    3.80
  -3  -4   5   47.33    4.00
  -4   7   5   45.75    4.65
  -4  -3  -5   46.34    4.10
  -3   7  -5   39.30    4.27
  -3  -4   5   38.71    4.18
   3   4   5   49.84    4.64
   4  -7   5   57.13    4.15
  -7   4  -5   51.31    4.34
   4   3  -5   45.01    4.72
  -7   3   5   52.59    3.89
   3  -7  -5   58.03    5.31
  -7   4  -5   55.44    4.97
   4  -7   5   55.43    3.79
  -7   3   5   56.13    4.11
  -7   3   5   56.58    3.94
  -3   7   5   53.52    4.48
  -3  -4  -5   55.14    4.00
  -4  -3   5   46.52    4.50
  -4  -3   5   50.14    3.58
  -4   7  -5   49.16    4.56
   7  -4   5   47.62    4.68
  -3   7   5   54.77    5.04
  -3  -4  -5   55.61    4.77
  -3  -4  -5   47.56    3.57
  -4   7  -5   46.86    4.53
   2   5   5   44.67    4.52
  -7   2   5   48.20    4.15
   5  -7   5   44.29    3.94
   5  -7   5   42.83    4.02
  -7   5  -5   44.29    4.52
  -7   5  -5   50.35    4.37
   5   2  -5   36.25    4.35
   2  -7  -5   48.38    4.93
  -7   2   5   52.69    4.68
  -5   7  -5   44.87    4.41
  -5  -2   5   35.72    3.26
  -5   7  -5   42.14    4.35
   7  -5   5   42.16    4.49
  -2   7   5   47.19    4.65
  -5  -2   5   40.46    4.14
   7  -2  -5   47.69    3.55
  -2   7   5   30.02    3.78
  -2  -5  -5   33.13    4.03
  -7   1   5   24.12    3.62
   6  -7   5   28.54    3.70
   1   6   5   28.27    3.89
  -7   6  -5   22.63    3.42
  -7   6  -5   28.93    3.87
   1  -7  -5   27.42    4.10
  -7   1   5   30.79    2.03
  -7   1   5   29.07    3.49
   6   1  -5   28.03    3.84
  -1  -6  -5   29.40    4.12
   7  -6   5   25.58    3.85
  -1   7   5   24.21    3.76
  -1   7   5   29.84    4.00
  -6  -1   5   27.86    2.68
  -6   7  -5   27.12    3.77
  -6  -1   5   23.75    3.40
  -6   7  -5   31.44    3.92
   0  -7  -5    9.07    3.27
   0   7   5    7.35    2.85
  -7   0   5    7.16    1.69
  -7   0   5   10.17    2.97
  -7   0   5    5.89    2.30
   0   7   5    3.94    2.58
   7   0  -5    5.93    2.59
  -7   7  -5    7.59    2.75
  -7   7  -5    6.19    2.55
   7  -7   5   12.22    3.09
  -8   0  -5   21.45    3.83
   0   8  -5   15.74    3.51
   8  -8  -5   21.87    3.79
  -8   0  -5   22.06    3.99
   8   0   5   20.21    4.20
  -8   8   5   22.33    3.14
  -8   8   5   26.98    4.28
   0  -8   5   21.60    4.11
  -8   7   5   64.87    3.77
  -8   1  -5   66.96    6.19
  -8   1  -5   71.34    4.95
   1   7  -5   64.97    5.81
   7  -8  -5   62.49    5.66
   7   1   5   68.57    6.24
  -8   7   5   65.70    6.12
   1  -8   5   58.78    5.97
   8  -7  -5   59.70    5.28
  -7  -1  -5   69.88    5.12
  -7  -1  -5   57.97    5.60
   8  -1   5   57.71    5.92
  -1  -7   5   69.05    6.43
  -1  -7   5   59.45    5.48
  -7   8   5   70.55    4.53
  -7   8   5   60.32    5.90
  -1   8  -5   49.57    5.23
  -8   6   5   48.20    2.79
   6   2   5   55.62    5.39
  -8   2  -5   58.96    5.11
   2  -8   5   48.60    5.35
   2   6  -5   59.02    5.53
  -8   6   5   50.32    5.18
   6  -8  -5   54.55    5.29
  -8   2  -5   63.27    5.74
  -6  -2  -5   57.77    5.27
  -2  -6   5   50.94    4.84
  -2   8  -5   51.10    5.03
  -2  -6   5   47.73    5.24
   8  -6  -5   54.49    4.79
   8  -2   5   48.36    5.36
  -6   8   5   51.66    5.50
  -6   8   5   56.55    4.12
  -6  -2  -5   55.04    5.14
   5   3   5   27.22    3.97
  -8   5   5   39.63    4.46
  -8   3  -5   26.12    3.67
  -8   5   5   27.12    3.51
   3  -8   5   35.21    4.33
  -8   3  -5   38.39    4.67
   3   5  -5   37.89    4.57
   5  -8  -5   39.54    4.62
  -8   5   5   33.96    1.85
  -5  -3  -5   35.43    4.10
  -5   8   5   28.27    3.65
  -5  -3  -5   35.39    4.23
  -5   8   5   25.94    4.11
  -3  -5   5   25.12    3.95
   8  -3   5   34.24    4.51
   8  -5  -5   35.79    3.91
  -3  -5   5   25.33    3.59
  -3   8  -5   29.65    4.03
   4   4   5   44.22    4.63
   4  -8  -5   49.13    5.20
  -8   4   5   62.15    4.64
   4   4  -5   63.11    5.61
  -8   4   5   65.93    4.29
  -8   4  -5   52.80    5.26
  -8   4  -5   60.73    4.38
  -8   4   5   64.85    4.55
   4  -8   5   54.14    4.97
  -4  -4  -5   58.84    5.22
  -4  -4   5   45.91    4.20
  -4   8  -5   54.89    4.94
  -4   8   5   50.60    5.29
  -4  -4   5   60.22    5.43
  -4   8   5   55.44    4.90
  -4  -4  -5   52.50    3.92
  -4  -4  -5   51.98    4.47
   8  -4   5   60.82    5.67
   5   3  -5   40.36    4.55
   5  -8   5   44.17    4.29
   3  -8  -5   44.58    5.04
  -8   3   5   54.70    4.05
   3   5   5   31.95    4.28
   5  -8   5   45.45    4.29
  -8   5  -5   40.57    4.68
  -8   3   5   53.68    4.96
  -8   5  -5   47.95    4.49
  -3   8   5   43.98    4.63
  -5   8  -5   45.71    4.70
  -5  -3   5   47.80    4.08
  -3  -5  -5   44.76    4.52
  -3   8   5   45.97    4.89
   8  -3  -5   46.70    4.45
   8  -5   5   40.67    4.69
  -5   8  -5   48.83    4.82
  -5  -3   5   54.68    5.02
  -8   2   5   18.48    1.63
  -8   6  -5   16.10    3.47
  -8   2   5   17.41    3.41
   2  -8  -5   17.24    3.67
   6   2  -5   12.51    3.19
   2   6   5   20.50    3.57
   6  -8   5   13.65    2.95
  -8   2   5   19.13    3.08
  -8   6  -5   16.50    3.18
  -6   8  -5   22.01    3.58
  -2   8   5   11.34    3.17
  -2   8   5   12.50    3.16
  -6   8  -5   15.80    3.48
   8  -2  -5   15.98    2.86
  -6  -2   5   13.32    2.49
  -6  -2   5   19.09    3.30
   8  -6   5   15.21    3.50
  -2  -6  -5   13.98    3.29
   1   7   5    5.34    2.66
   1  -8  -5    0.80    2.67
  -8   1   5    1.86    2.41
  -8   7  -5   -1.50    1.86
   7  -8   5    1.83    2.40
  -8   1   5    2.68    2.18
   7   1  -5    3.02    2.37
  -8   7  -5   -0.87    2.23
  -8   1   5    0.56    1.31
  -1   8   5    4.80    2.83
   8  -7   5    4.27    2.72
  -1   8   5   -2.05    2.18
  -7  -1   5    0.11    1.55
  -1  -7  -5   -0.71    2.47
  -7  -1   5    0.55    2.06
  -7   8  -5   -0.86    2.15
  -7   8  -5   -1.52    2.12
   0  -8  -5   -0.98    2.46
   8   0  -5   -3.98    2.19
  -8   8  -5    2.29    2.43
  -8   0   5   -0.72    1.94
  -8   0   5   -0.36    2.27
  -8   0   5   -0.97    1.49
  -8   8  -5    1.52    2.39
   8  -8   5    2.76    2.56
   0   8   5   -2.54    2.12
  -9   9   5    9.17    2.66
  -9   0  -5   11.33    3.66
  -9   0  -5   10.91    3.37
  -9   9   5   14.67    3.92
   0  -9   5    9.72    3.70
   9  -9  -5   10.36    3.52
   9   0   5    8.21    3.40
   0   9  -5   10.80    3.35
   8   1   5   25.45    4.42
   1   8  -5   19.45    3.93
  -9   8   5   22.24    2.86
   8  -9  -5   32.31    4.53
  -9   8   5   28.70    4.65
  -9   1  -5   27.85    4.74
   1  -9   5   21.45    4.22
  -9   1  -5   23.02    3.93
  -1  -8   5   24.16    4.33
   9  -1   5   24.06    4.50
   9  -8  -5   23.69    3.95
  -8   9   5   20.56    4.14
  -8   9   5   28.59    3.67
  -8  -1  -5   20.34    3.94
  -8  -1  -5   21.69    4.15
  -1   9  -5   26.20    4.21
   7   2   5   38.36    5.00
  -9   7   5   43.51    2.99
   7  -9  -5   46.30    5.31
  -9   2  -5   39.54    5.08
  -9   2  -5   37.07    4.44
   2  -9   5   41.81    5.32
   2   7  -5   37.94    4.73
  -9   7   5   43.56    5.24
  -2  -7   5   35.88    4.99
   9  -2   5   43.35    5.40
  -7  -2  -5   52.40    5.39
  -7   9   5   40.62    5.16
  -2  -7   5   41.83    4.86
   9  -7  -5   40.36    4.66
  -7  -2  -5   42.89    5.10
  -7   9   5   37.46    4.17
  -2   9  -5   39.53    4.83
  -9   6   5   25.96    4.08
   6   3   5   33.32    4.44
  -9   6   5   29.45    2.18
   6  -9  -5   23.32    4.05
   3  -9   5   27.78    4.29
  -9   3  -5   26.57    3.77
  -9   3  -5   24.34    4.21
   9  -6  -5   32.62    4.03
   9  -3   5   32.36    4.81
  -6  -3  -5   22.67    4.00
  -3   9  -5   29.59    4.22
  -6   9   5   34.38    4.86
  -6   9   5   25.80    3.86
  -3  -6   5   25.56    4.12
  -6  -3  -5   27.14    4.06
  -3  -6   5   30.27    4.24
   4   5  -5   11.32    3.28
  -9   4  -5    9.49    2.77
  -9   5   5   11.37    3.05
   4  -9   5   15.75    3.47
  -9   4  -5   10.37    3.14
   5   4   5   14.50    3.43
  -9   5   5   21.57    3.62
   5  -9  -5   16.14    3.80
  -5  -4  -5   14.41    3.43
  -4   9  -5    7.86    2.91
  -5   9   5   16.09    3.77
  -4  -5   5   12.81    3.13
   9  -4   5   13.08    3.27
  -5  -4  -5   16.51    3.09
  -5   9   5   10.46    3.07
   5  -9   5   23.27    3.72
   4  -9  -5   20.78    4.07
   4   5   5   21.84    3.94
  -9   4   5   26.16    3.94
  -9   5  -5   26.59    4.23
   5   4  -5   27.67    4.24
  -9   5  -5   28.43    3.78
   9  -5   5   19.32    3.81
  -5   9  -5   24.09    3.83
   9  -4  -5   18.41    3.41
  -4   9   5   27.84    4.28
  -4  -5  -5   28.86    3.82
  -5  -4   5   29.15    4.10
  -5  -4   5   29.22    3.59
  -4   9   5   25.78    4.01
  -9   3   5   17.29    3.55
   3   6   5    9.79    3.20
   6  -9   5   10.81    3.09
  -9   6  -5    7.97    3.05
   3  -9  -5   12.25    3.69
   6   3  -5   14.74    3.33
  -9   6  -5    9.87    2.89
  -3  -6  -5    7.61    2.88
  -6   9  -5    9.04    3.09
  -6   9  -5    9.22    3.09
  -3   9   5   10.59    3.25
  -6  -3   5   11.77    3.09
  -6  -3   5    5.03    2.31
   9  -3  -5    7.22    2.63
   9  -6   5    6.02    2.95
  -3   9   5   12.43    3.44
   7   2  -5    4.99    3.01
  -9   7  -5    1.99    2.45
   2   7   5    0.03    2.48
   2  -9  -5    3.95    2.98
   7  -9   5    7.46    2.79
  -9   2   5    3.38    2.84
  -9   7  -5   11.68    3.14
  -9   2   5    7.09    1.50
  -7  -2   5    3.38    2.10
  -7   9  -5    8.89    3.19
  -7  -2   5    1.68    2.32
  -2   9   5    2.47    3.13
   9  -7   5    3.45    2.77
  -2   9   5    2.42    2.64
  -2  -7  -5    0.07    2.65
  -7   9  -5    1.70    2.53
   8  -9   5   14.65    3.60
   1   8   5    7.89    3.02
  -9   1   5   10.68    3.51
  -9   1   5   12.61    2.10
  -9   8  -5   10.52    3.13
   1  -9  -5   17.12    4.03
  -9   8  -5   10.11    3.05
   8   1  -5    8.47    3.30
  -8   9  -5   12.10    3.35
  -1   9   5    8.74    3.16
  -8  -1   5    9.77    2.94
   9  -8   5    1.83    2.94
  -8  -1   5    9.94    2.26
  -8   9  -5    9.19    3.21
  -1  -8  -5   18.93    3.94
  -9   0   5    2.58    2.77
  -9   0   5    3.10    1.93
   0  -9  -5   -1.92    2.70
   9  -9   5   -0.12    2.66
   0   9   5    5.02    2.92
   9   0  -5    3.23    2.55
  -9   9  -5    1.09    2.61
  -9   9  -5   -1.96    2.49
 -10  10   5    4.69    2.51
 -10  10   5    4.06    3.27
   0  10  -5    7.46    3.39
 -10   0  -5    6.54    3.27
 -10   0  -5    4.80    3.49
   0 -10   5    6.40    3.33
  10   0   5    6.18    3.62
   1   9  -5   17.26    4.09
 -10   9   5   11.35    3.86
   9 -10  -5    6.45    3.33
 -10   1  -5   12.30    3.49
   1 -10   5    9.36    3.73
 -10   9   5   14.70    2.85
 -10   1  -5   18.80    4.17
   9   1   5   16.86    4.26
  10  -1   5   15.01    4.23
  -9  -1  -5   14.65    3.72
  -1  10  -5    9.45    3.41
  -9  10   5   11.49    3.06
  -1  -9   5   13.78    3.99
  -9  10   5   10.54    3.97
  -9  -1  -5    9.95    3.61
   2 -10   5   15.91    4.12
 -10   2  -5    8.05    3.58
   2   8  -5   20.39    4.10
   8   2   5   20.60    4.33
 -10   8   5   13.73    2.46
   8 -10  -5   15.84    3.84
 -10   2  -5   13.74    3.47
 -10   8   5   17.65    4.12
  -8  -2  -5   18.55    4.10
  -8  -2  -5   21.84    4.22
  -2  10  -5   15.79    3.91
  -8  10   5   15.48    4.00
  -2  -8   5   21.78    4.49
  -8  10   5   16.97    3.42
  10  -2   5   20.59    4.50
   3 -10   5    4.33    3.17
   7 -10  -5    3.42    3.17
 -10   7   5    9.40    1.89
   7   3   5   14.43    3.71
 -10   3  -5   11.83    3.65
 -10   3  -5   13.00    3.25
 -10   7   5    4.11    2.71
   3   7  -5   13.53    3.45
  10  -3   5    9.58    3.81
  -3  -7   5    9.94    3.18
  -3  10  -5    8.82    3.35
  -7  10   5    3.40    2.70
  -7  -3  -5    5.51    3.04
  -3  -7   5    6.83    2.99
  -7  10   5    7.71    3.52
  -7  -3  -5   16.58    3.67
 -10   4  -5    4.00    2.75
   4 -10   5    4.96    2.98
 -10   4  -5    7.38    2.73
   6 -10  -5    2.32    2.93
   4   6  -5    6.36    3.19
 -10   6   5    5.29    2.88
   6   4   5    1.01    2.72
 -10   6   5    4.45    1.41
  -4  -6   5    1.48    2.58
  -4  10  -5    4.59    2.75
  -6  10   5    1.40    2.56
  -6  -4  -5    5.81    2.78
  10  -4   5    4.51    2.86
  -6  10   5    3.11    3.18
  -4  -6   5    3.47    2.69
   5   5  -5    5.68    2.86
   5 -10   5    3.98    2.85
 -10   5  -5    3.71    2.43
   5 -10  -5    0.96    2.77
 -10   5   5   -0.57    2.44
   5   5   5    1.18    2.77
  -5  -5   5    3.42    2.61
  -5  -5   5    4.03    2.54
  -5  10   5   -1.60    2.34
  -5  10  -5   -0.75    2.33
  10  -5  -5    0.41    2.47
  -5  10   5    0.29    2.64
  10  -5   5   -0.98    2.55
   4 -10  -5   -2.37    2.48
   6   4  -5    2.31    2.82
 -10   6  -5    1.67    2.20
 -10   6  -5    1.20    2.72
   4   6   5    2.06    2.80
 -10   4   5    1.84    2.65
  -6  10  -5    4.29    2.75
  10  -4  -5    0.70    2.39
  -4  10   5   -2.18    2.50
  10  -6   5   -2.56    2.53
  -6  -4   5   -0.14    1.94
  -4  10   5   -0.39    2.66
  -6  -4   5    4.78    2.75
  -4  -6  -5    3.06    2.63
 -10   7  -5    4.29    2.90
 -10   3   5   -2.70    2.44
   7 -10   5    2.97    2.83
   3 -10  -5    4.66    3.37
 -10   3   5    4.93    1.39
   7   3  -5    2.82    2.78
 -10   7  -5    1.43    2.46
   3   7   5    0.12    2.61
  -3  10   5   -3.45    2.53
  10  -7   5    3.71    3.00
  -7  -3   5    4.17    2.56
  -3  -7  -5    5.14    2.76
  -7  10  -5    1.60    2.47
  -7  -3   5    3.42    2.17
  -3  10   5    3.83    3.00
   8   2  -5   12.62    3.69
 -10   2   5    5.64    3.12
   2 -10  -5    6.29    3.67
   2   8   5    8.68    3.37
   8 -10   5    9.80    3.36
 -10   2   5   11.82    2.00
 -10   8  -5   10.54    3.24
 -10   8  -5    9.41    3.43
  -2  10   5    8.30    3.31
  -8  -2   5    8.73    3.05
  -8  10  -5    9.65    3.38
  -8  10  -5    8.97    3.26
  10  -8   5    0.29    2.94
  -8  -2   5    9.27    2.62
  -2  -8  -5   15.19    3.85
 -10   1   5    4.30    2.07
 -10   9  -5   15.32    3.68
   9   1  -5   12.07    3.70
   1   9   5   15.84    3.74
 -10   1   5    6.76    3.32
   9 -10   5    4.78    3.19
 -10   9  -5   11.87    3.19
   1 -10  -5    7.67    3.84
  -9  -1   5    5.87    2.28
  -9  10  -5    8.73    3.17
  -1  -9  -5    2.67    3.23
  -1  10   5    9.53    3.40
  -9  10  -5    7.16    3.38
  10  -9   5    9.45    3.64
 -10   0   5    4.68    2.21
  10 -10   5    6.74    3.44
 -10  10  -5    2.60    2.90
 -10  10  -5    2.55    3.01
   0  10   5    6.14    3.18
   0 -10  -5    9.69    3.62
  10   0  -5    9.55    3.35
   2   9  -5   21.07    4.38
   9 -11  -5   14.88    4.18
   9   2   5   17.01    4.58
 -11   2  -5   13.77    3.73
   2 -11   5   13.37    4.14
 -11   9   5   22.41    3.08
 -11   9   5   18.87    4.30
 -11   2  -5   18.65    4.44
  -9  -2  -5   13.98    4.24
  -9  -2  -5   26.41    4.75
  11  -2   5   21.67    4.73
  -9  11   5   23.05    4.12
  -9  11   5   23.38    5.24
 -11   8   5   18.17    4.38
   3   8  -5   22.65    4.39
   8 -11  -5   22.94    4.62
 -11   3  -5   10.81    4.07
 -11   3  -5   17.42    3.79
   8   3   5   26.04    4.73
   3 -11   5   12.98    4.06
 -11   8   5   21.37    2.76
  -8  -3  -5   18.52    4.23
  -3  -8   5   21.15    4.35
  -8  -3  -5   26.76    4.50
  -8  11   5   26.75    4.26
  11  -3   5   26.82    5.16
  -8  11   5   24.49    4.97
 -11   7   5   12.86    1.90
 -11   4  -5   15.21    3.67
   7 -11  -5    6.66    3.64
   7   4   5   13.73    3.91
   4 -11   5   12.87    3.83
   4   7  -5   10.80    3.60
 -11   7   5   14.13    3.71
 -11   4  -5    4.87    3.27
  -4  -7   5    9.59    3.71
  -7  11   5    9.13    3.28
  -4  -7   5   14.15    4.00
  -7  11   5   11.23    3.88
  11  -4   5    9.08    3.84
  11  -7  -5   20.86    4.33
 -11   5  -5   12.12    3.75
   6 -11  -5   12.99    4.14
   6   5   5    9.39    3.45
   5 -11   5    2.15    2.88
 -11   5  -5    4.14    2.79
 -11   6   5    9.80    1.59
   5   6  -5    9.93    3.53
  11  -6  -5    6.97    3.41
  -5  -6   5    6.25    3.37
  -6  11   5   11.86    4.04
  -6  11   5   10.12    3.41
  -5  -6   5   15.15    3.62
  11  -5   5    1.83    3.14
   6   5  -5    6.93    3.23
 -11   5   5    5.70    3.06
 -11   6  -5    2.55    2.85
 -11   6  -5    7.60    3.05
   5 -11  -5    4.98    3.20
   5   6   5   11.07    3.45
  11  -6   5    7.33    3.58
  -5  11   5    4.45    3.18
  -6  -5   5    2.54    2.69
  -5  11   5    7.20    3.50
  -6  -5   5   -0.19    2.61
  11  -5  -5    1.67    2.98
 -11   4   5    5.73    3.27
   4   7   5   10.87    3.47
   4 -11  -5    7.38    3.65
 -11   7  -5    1.74    2.64
   7   4  -5    0.40    2.94
 -11   7  -5    5.05    2.89
  -7  -4   5    3.42    2.84
  -4  11   5    0.01    2.85
  11  -7   5   10.26    3.75
  -7  -4   5    3.42    2.71
  -4  11   5    2.13    3.05
 -11   3   5    1.15    1.53
 -11   8  -5   -0.93    2.65
 -11   8  -5    1.48    2.94
   3 -11  -5    1.53    3.07
   8   3  -5    0.63    2.94
   3   8   5    2.86    2.77
 -11   3   5    0.70    2.82
  -3  -8  -5    2.08    3.00
  -8  -3   5    1.14    2.52
  -3  11   5    6.69    3.51
  11  -8   5    1.31    2.89
  -8  11  -5    0.42    2.62
   2 -11  -5    5.56    3.70
 -11   2   5    2.61    1.75
   9 -11   5   -0.78    2.96
 -11   9  -5    7.09    3.35
   9   2  -5   -3.97    2.62
 -11   2   5    4.62    3.26
 -11   9  -5    3.23    2.86
  -2  -9  -5    0.98    2.94
  11  -9   5    1.58    3.12
  -2  11   5    4.60    3.26
  -9  -2   5   -0.41    2.24
  -9  11  -5    5.45    3.41
   0   0   6  169.97    5.47
   0   0  -6  174.00    5.20
   0   0   6  167.10    5.06
   0   0   6  163.62    5.01
  -1   1   6  333.73    8.61
   1   0   6  347.26    8.39
   1  -1  -6  338.75    7.63
   0  -1   6  342.48    8.07
   0  -1   6  336.73    8.51
  -1   1   6  341.69    7.78
  -1   0  -6  338.61    8.14
   0  -1   6  339.67    7.44
  -1   1   6  344.19    8.16
   1   0   6  357.51    8.23
   0   1  -6  349.34    8.53
  -1   0  -6  351.05    8.22
   1   0   6  355.12    8.35
   1   0  -6  263.61    6.80
   0   1   6  261.06    6.71
  -1   0   6  259.42    6.24
  -1   0   6  254.58    6.30
  -1   1  -6  252.55    7.00
   0   1   6  267.23    7.10
  -1   1  -6  253.94    6.63
   1  -1   6  248.42    6.75
   1  -1   6  258.35    6.78
   0  -1  -6  272.31    6.32
   1  -1   6  252.75    6.58
   0   1   6  263.42    7.12
  -1   0   6  251.88    7.20
  -1   0   6  271.24    6.38
  -2   2   6  237.61    5.85
   2  -2  -6  225.41    5.49
   0  -2   6  224.36    6.92
   0  -2   6  233.56    5.18
  -2   0  -6  221.95    6.58
   2   0   6  233.74    6.05
   2   0   6  235.74    6.99
   0   2  -6  245.98    7.16
  -2   0  -6  232.30    6.60
  -2   0  -6  231.83    6.06
   0  -2   6  230.28    6.52
  -2   2   6  239.76    5.92
  -2   2   6  234.17    6.66
  -2   2   6  229.97    7.08
   2   0   6  233.27    6.76
   1   1  -6  187.33    6.00
  -2   1   6  190.06    6.24
   1   1   6  202.13    6.24
  -2   1   6  205.35    5.11
  -2   1  -6  184.40    6.11
   1   1   6  194.40    5.94
   1  -2   6  190.84    5.15
   1  -2  -6  196.10    4.71
   1  -2   6  190.14    5.87
   1  -2   6  185.43    5.79
  -2   1   6  191.57    4.94
  -2   1   6  196.54    5.48
  -2   1  -6  188.51    5.88
  -1   2   6  194.38    6.20
  -1   2  -6  189.50    6.19
  -1  -1   6  199.63    5.67
   2  -1   6  200.75    6.04
   2  -1   6  196.46    6.04
  -1   2  -6  198.85    5.88
  -1   2   6  208.56    6.26
  -1  -1   6  201.78    4.69
  -1  -1  -6  199.04    5.89
  -1  -1   6  190.33    6.34
  -1  -1  -6  207.44    5.57
   2  -1   6  204.06    5.48
   2  -1  -6  198.64    5.54
  -1  -1  -6  198.22    5.84
  -1   2   6  187.38    5.58
  -2   2  -6   45.92    3.19
  -2   2  -6   44.20    3.00
  -2   0   6   46.30    3.24
   0   2   6   43.22    2.85
   2  -2   6   41.81    2.54
   0  -2  -6   42.34    3.04
   0  -2  -6   49.08    2.90
   2  -2   6   48.66    2.86
   0   2   6   48.57    3.34
   2   0  -6   44.17    2.91
   0  -2  -6   43.87    2.24
   2  -2   6   45.10    2.83
  -2   0   6   43.19    2.48
  -2   0   6   46.54    2.33
  -2   0   6   49.85    2.53
  -3   3   6  157.84    4.61
   0  -3   6  159.58    5.99
  -3   3   6  158.52    5.81
  -3   0  -6  158.32    5.81
   3   0   6  160.87    5.62
  -3   3   6  174.00    4.74
   3   0   6  157.97    6.06
  -3   0  -6  156.29    5.62
   3  -3  -6  162.70    4.30
  -3   0  -6  163.61    4.76
   0  -3   6  165.41    3.53
   0   3  -6  150.98    5.93
  -3   3   6  170.85    6.10
   0  -3   6  160.16    5.60
  -3   2   6  259.14    7.74
   2   1   6  257.15    7.39
  -3   1  -6  250.50    7.29
  -3   2   6  247.51    5.75
   1  -3   6  256.65    5.91
   2   1   6  257.95    7.69
   1  -3   6  268.26    7.42
  -3   1  -6  248.79    7.44
   2  -3  -6  258.86    5.25
  -3   2   6  244.21    6.99
  -3   2   6  255.61    5.80
   2  -3  -6  256.11    7.81
   1   2  -6  260.48    7.77
   1  -3   6  259.40    7.55
   3  -1   6  231.41    7.29
  -1  -2   6  217.17    7.21
  -2   3   6  239.30    6.33
  -1   3  -6  242.14    7.47
  -1   3  -6  237.63    6.77
   3  -2  -6  236.99    6.08
  -2  -1  -6  237.70    6.60
  -1  -2   6  238.20    4.38
   3  -1   6  240.80    5.76
  -2  -1  -6  238.16    7.03
   3  -1   6  233.79    6.82
  -2   3   6  224.55    7.01
  -2   3   6  233.40    6.24
  -2  -1  -6  244.31    6.59
  -1  -2   6  251.06    6.66
  -3   2  -6   92.25    4.32
   2   1  -6   88.63    4.38
   1  -3  -6   93.25    2.61
  -3   2  -6   91.06    4.50
  -3   1   6   96.89    3.13
   1   2   6   90.58    4.24
  -3   1   6   96.48    3.09
   1   2   6   93.55    4.54
   2  -3   6   90.59    3.68
   2  -3   6   94.00    4.19
  -3   1   6   93.79    3.69
   1  -3  -6   89.42    4.38
  -3   1   6   99.30    4.53
   2  -3   6   96.14    4.12
   3  -2   6   75.93    3.08
  -2   3  -6   78.72    3.91
  -1  -2  -6   74.47    3.76
  -1  -2  -6   79.39    3.24
   3  -2   6   83.12    4.07
  -2  -1   6   72.50    3.31
  -2  -1   6   85.86    3.52
   3  -2   6   80.88    3.90
  -2   3  -6   90.29    4.42
  -2  -1   6   84.33    2.48
   3  -1  -6   86.30    3.78
  -2  -1   6   84.95    4.26
  -1   3   6   77.55    4.29
  -1   3   6   80.28    3.75
  -1  -2  -6   74.29    3.79
  -3   0   6  160.56    4.55
  -3   3  -6  176.65    6.03
   0  -3  -6  166.20    5.44
  -3   3  -6  160.26    6.09
   3   0  -6  163.59    5.92
   3  -3   6  174.74    5.08
  -3   0   6  168.59    4.53
  -3   0   6  163.53    6.13
   0  -3  -6  163.55    6.06
   0   3   6  167.14    5.79
  -3   0   6  176.99    4.60
   0   3   6  166.06    6.36
   0  -3  -6  165.81    4.17
   3  -3   6  159.92    5.63
   3  -3   6  162.39    5.54
   0   4  -6   29.12    3.36
   4  -4  -6   33.84    1.96
  -4   0  -6   28.15    2.26
   0  -4   6   31.09    3.45
  -4   4   6   29.45    2.34
   4   0   6   29.03    3.11
   4   0   6   24.38    3.23
  -4   4   6   28.80    2.12
  -4   0  -6   32.84    3.38
   0  -4   6   27.05    3.09
  -4   4   6   30.20    3.32
  -4   0  -6   31.86    3.36
   4  -4  -6   26.45    3.31
   1  -4   6  112.08    5.17
   1   3  -6  113.62    5.27
   3  -4  -6  108.13    5.20
  -4   3   6  115.42    3.45
  -4   1  -6  125.13    5.25
  -4   3   6  110.21    5.04
   3   1   6  119.19    4.94
   1  -4   6  120.24    5.05
  -4   3   6  115.86    4.97
  -4   1  -6  115.44    5.20
  -4   3   6  119.69    3.53
   1  -4   6  112.56    3.35
  -4   1  -6  116.83    3.50
   3   1   6  112.70    5.25
   4  -1   6  107.48    5.17
  -1   4  -6  108.71    5.28
  -1  -3   6  107.61    5.16
   4  -3  -6  113.82    4.03
  -3  -1  -6  115.12    5.08
  -3   4   6  108.62    4.16
  -1   4  -6  118.33    4.78
  -3  -1  -6  106.51    4.63
  -1  -3   6  113.06    4.68
  -3  -1  -6  116.52    4.25
  -3   4   6  120.73    5.37
   4  -1   6  109.72    4.68
   2  -4   6  131.53    5.13
   2   2   6  132.91    5.23
   2  -4  -6  122.37    5.45
   2   2  -6  120.26    5.29
   2  -4   6  126.38    4.13
  -4   2  -6  114.55    5.29
  -4   2   6  114.56    3.21
  -4   2   6  121.67    3.29
  -4   2  -6  118.56    5.13
  -4   2   6  114.41    4.66
   2  -4   6  118.34    4.95
  -4   2   6  120.25    5.22
   2   2   6  103.15    5.19
  -2   4  -6  112.35    5.26
   4  -2  -6  105.00    4.27
  -2   4  -6  112.56    4.78
   4  -2   6  120.11    5.35
  -2   4   6  116.47    5.22
  -2  -2  -6  108.38    4.61
  -2   4   6  105.17    4.44
   4  -2   6  109.64    3.30
   4  -2   6  116.11    4.86
  -2  -2   6  109.41    4.43
  -2  -2  -6  128.37    5.13
  -2  -2   6  114.43    5.37
  -2  -2  -6  121.16    4.40
   1   3   6   57.22    4.04
  -4   3  -6   66.00    3.84
  -4   1   6   68.42    4.10
   3   1  -6   71.30    4.28
  -4   1   6   59.02    2.40
   3  -4   6   65.42    3.75
   3  -4   6   66.80    3.53
  -4   1   6   65.22    2.44
   1   3   6   60.84    3.66
  -4   1   6   61.04    3.08
   1  -4  -6   67.27    4.23
  -4   3  -6   71.91    4.25
   3  -4   6   65.25    3.45
  -3   4  -6   59.20    3.75
   4  -3   6   63.74    3.89
  -1  -3  -6   67.45    3.90
  -3  -1   6   64.12    2.17
   4  -3   6   66.54    3.67
  -3  -1   6   58.99    3.03
  -3   4  -6   58.05    3.84
  -1   4   6   53.92    3.79
  -3  -1   6   66.47    4.16
  -1   4   6   62.58    3.66
  -1  -3  -6   59.32    2.77
  -1  -3  -6   69.23    3.83
   4  -3   6   69.15    2.76
   4  -1  -6   58.24    3.47
  -4   4  -6   81.45    4.79
  -4   0   6   95.41    3.38
   4  -4   6   99.49    3.72
  -4   0   6   93.50    3.30
   4  -4   6   90.89    4.53
   0   4   6   90.29    4.91
   0   4   6   92.40    4.60
   0  -4  -6   90.56    4.87
   4   0  -6   87.49    4.62
  -4   4  -6   91.67    4.76
   4  -4   6   95.52    4.48
  -4   0   6   87.15    4.62
  -4   0   6   91.14    3.27
   5   0   6    4.40    2.48
   0  -5   6    1.42    2.03
  -5   5   6    1.97    1.33
   5  -5  -6    0.83    1.84
  -5   5   6   -2.00    1.65
  -5   0  -6    3.32    2.02
   0   5  -6   -1.65    1.58
   0  -5   6    5.58    2.14
  -5   0  -6    1.63    1.93
   4  -5  -6    5.07    2.23
  -5   4   6   10.28    1.44
   1  -5   6    6.13    2.21
  -5   1  -6    6.37    2.35
  -5   4   6    7.79    1.39
   4   1   6    9.17    2.52
   1   4  -6   10.59    2.56
  -5   4   6    5.58    2.20
   1  -5   6    5.10    2.14
  -5   1  -6    9.86    2.34
   5  -4  -6    3.01    1.84
  -1   5  -6    5.45    2.17
   5  -4  -6   11.99    1.87
  -4  -1  -6    3.10    1.93
  -4   5   6    8.33    2.29
  -1  -4   6    7.20    2.13
  -4  -1  -6   10.92    2.45
  -4  -1  -6    7.88    1.72
  -4   5   6    9.38    1.76
  -1  -4   6    7.88    2.35
   5  -1   6    3.80    2.11
   3  -5  -6   32.55    3.67
  -5   3   6   37.00    1.73
   2   3  -6   31.16    3.66
   2  -5   6   31.51    3.47
   3   2   6   30.36    3.48
  -5   3   6   29.38    1.62
  -5   3   6   36.34    3.42
  -5   2  -6   29.23    3.46
  -5   2  -6   35.21    3.56
  -5   3   6   25.47    3.19
   3   2   6   35.39    3.52
   2  -5   6   32.61    3.44
   2  -5   6   33.01    2.30
  -2   5  -6   28.22    3.21
  -3   5   6   25.08    3.31
   5  -3  -6   26.92    2.72
  -3  -2  -6   31.37    3.00
  -3   5   6   26.95    2.80
   5  -2   6   26.08    3.36
  -2   5  -6   31.49    3.69
  -2  -3   6   28.96    3.42
  -2  -3   6   31.58    3.07
  -3  -2  -6   28.18    3.32
  -3  -2  -6   29.82    3.02
   3  -5   6   49.63    3.39
   2   3   6   54.32    3.81
  -5   2   6   47.95    1.83
  -5   2   6   50.23    3.18
  -5   3  -6   54.24    3.81
  -5   2   6   48.84    1.86
  -5   2   6   50.73    3.78
   2  -5  -6   42.46    4.15
   2   3   6   45.33    4.30
   3  -5   6   47.71    3.99
   3   2  -6   50.81    3.83
  -5   3  -6   45.74    4.34
   3  -5   6   48.38    3.11
  -2  -3  -6   51.62    3.09
  -3   5  -6   51.81    4.52
  -3  -2   6   59.22    4.20
   5  -2  -6   50.95    3.47
   5  -3   6   58.18    4.18
  -2   5   6   50.27    4.40
  -3   5  -6   46.90    4.08
  -3  -2   6   50.81    3.13
  -2   5   6   54.15    3.53
  -2  -3  -6   51.81    3.71
  -2  -3  -6   52.67    3.60
   1  -5  -6   19.51    3.06
  -5   4  -6   20.98    2.92
   1   4   6   13.45    2.64
  -5   1   6   18.40    1.61
  -5   1   6   14.32    2.59
  -5   1   6   21.20    2.45
   1   4   6   19.46    3.07
  -5   4  -6   18.36    3.04
   4  -5   6   17.87    2.66
   4   1  -6   21.04    3.14
  -5   1   6   18.35    1.59
   4  -5   6   18.84    2.49
  -1  -4  -6   22.23    3.09
  -1   5   6   16.91    2.69
  -4  -1   6   13.75    2.06
  -1   5   6   23.61    3.29
   5  -4   6   20.88    3.13
  -4  -1   6   12.09    2.49
  -4   5  -6   21.90    2.96
  -4   5  -6   11.59    2.67
   5  -1  -6   18.25    2.76
  -5   5  -6   35.64    3.75
  -5   0   6   33.08    3.69
   5   0  -6   34.10    3.80
  -5   0   6   35.65    2.29
  -5   5  -6   29.61    3.86
   5  -5   6   31.71    3.58
   0   5   6   30.14    3.58
   0   5   6   37.00    4.15
   0  -5  -6   34.08    3.88
   6  -6  -6    2.98    2.21
  -6   0  -6    3.79    2.36
   0   6  -6    2.30    2.44
  -6   6   6    6.81    2.65
   0  -6   6   -1.25    1.90
   0  -6   6    0.86    1.98
   6   0   6    3.37    2.41
  -6   6   6    2.12    1.56
  -6   0  -6    4.67    2.48
   1  -6   6   16.94    3.16
   1   5  -6   13.63    3.16
  -6   5   6   14.01    2.99
   5  -6  -6   18.63    3.28
  -6   5   6   17.67    1.88
  -6   1  -6   12.96    2.93
  -6   1  -6   11.40    2.81
   1  -6   6   18.32    3.01
   5   1   6   15.60    3.18
  -1  -5   6   18.56    3.39
  -1   6  -6   18.93    3.29
  -5  -1  -6   24.45    3.32
  -5   6   6   19.57    2.45
   6  -1   6   22.32    3.70
  -5  -1  -6   18.03    3.13
  -1  -5   6   20.38    3.16
  -5   6   6   22.45    3.50
   6  -5  -6   18.38    3.20
  -6   4   6    1.68    1.85
  -6   4   6   -0.66    1.73
   2  -6   6    1.30    1.87
  -6   2  -6    0.53    1.80
  -6   2  -6    0.52    1.98
  -6   4   6    1.22    0.95
   2  -6   6   -3.63    1.53
   4  -6  -6    1.61    1.97
   4   2   6   -0.60    1.93
  -6   4   6    2.41    1.58
  -6   4   6    2.44    0.92
   2   4  -6    0.20    1.89
  -4  -2  -6   -1.03    1.81
  -4   6   6    1.65    1.94
  -2   6  -6   -1.87    1.67
  -4  -2  -6    0.22    1.71
   6  -4  -6    0.68    1.49
   6  -2   6   -3.74    1.89
  -4  -2  -6    1.74    1.84
  -2  -4   6   -1.27    1.64
  -2  -4   6   -0.89    1.73
   6  -4  -6    0.26    1.61
  -4   6   6   -0.22    1.52
   3  -6   6    1.40    1.53
   3  -6  -6    0.99    1.88
  -6   3   6    1.21    1.67
  -6   3  -6    0.25    1.80
  -6   3  -6   -0.32    1.72
   3   3  -6    0.18    1.85
   3  -6   6    0.92    1.78
   3  -6   6   -0.32    1.72
  -6   3   6    0.15    1.55
  -6   3   6    0.14    1.49
   3   3   6   -1.66    1.76
  -3  -3   6    1.44    1.85
   6  -3  -6    3.34    1.64
  -3   6  -6    2.06    2.10
  -3   6  -6    1.84    2.00
  -3   6   6    3.08    1.88
  -3  -3  -6    1.06    1.67
   6  -3   6    4.98    2.27
  -3  -3  -6    3.12    2.00
  -3  -3  -6   -1.75    1.50
  -3   6   6    2.18    1.87
  -3  -3   6    1.76    1.71
   2  -6  -6    5.40    2.21
   2   4   6    0.42    1.85
  -6   4  -6    1.43    1.97
   4   2  -6   -0.69    1.99
  -6   2   6    0.84    1.70
   2   4   6    3.53    2.47
  -6   2   6   -1.06    1.60
   4  -6   6    0.05    1.53
   4  -6   6    0.18    1.78
  -6   4  -6    2.40    1.87
  -2  -4  -6    3.86    2.13
  -4  -2   6    0.64    1.91
   6  -4   6    1.76    2.05
   6  -2  -6    0.28    1.59
  -2   6   6    2.29    1.87
  -4  -2   6    2.33    1.59
  -4   6  -6   -0.45    1.62
  -2   6   6    1.25    1.96
  -4   6  -6   -0.26    1.81
  -6   1   6    4.34    2.10
   5  -6   6    6.88    1.82
   1   5   6    5.01    2.40
  -6   1   6    5.34    1.85
   1  -6  -6    7.55    2.72
  -6   5  -6    5.20    2.24
   5   1  -6    8.73    2.72
   1   5   6   12.77    2.81
   5  -6   6    4.88    2.20
  -6   1   6    5.89    1.34
  -6   1   6    7.77    1.32
  -6   5  -6    7.75    2.42
  -1   6   6    5.33    2.43
  -5  -1   6    2.76    1.52
  -1  -5  -6    5.63    2.51
  -1   6   6    5.04    2.30
  -5   6  -6   12.88    2.72
   6  -5   6    9.37    2.63
   6  -1  -6    9.30    2.55
  -5   6  -6    7.45    2.54
   6  -1  -6    6.27    1.82
  -5  -1   6    3.44    2.12
  -6   6  -6   -0.41    2.19
  -6   0   6    5.46    2.19
   0   6   6    4.19    2.48
   0   6   6    5.01    2.46
   6   0  -6    0.74    2.14
   6  -6   6    3.25    2.26
  -6   0   6    1.73    1.40
  -6   6  -6    1.27    2.06
   0  -6  -6    4.24    2.40
   7   0   6    5.62    2.84
  -7   0  -6    2.59    2.43
   0  -7   6    1.13    2.43
   0  -7   6    3.14    2.54
  -7   0  -6   -1.47    2.19
  -7   7   6    5.41    1.98
  -7   7   6    0.38    2.23
   0   7  -6    1.95    2.44
   7  -7  -6   -0.38    1.87
   6  -7  -6   10.30    3.01
  -7   6   6   14.19    3.28
   1  -7   6    7.97    2.83
  -7   1  -6    9.79    2.91
   6   1   6    3.82    2.78
   1  -7   6   15.37    3.37
  -7   6   6    7.71    1.74
  -7   1  -6    6.32    2.65
   1   6  -6   18.24    3.38
  -6   7   6   14.16    3.32
  -6  -1  -6   14.30    3.14
  -6  -1  -6    9.67    2.92
  -6   7   6   13.72    2.46
  -1  -6   6    9.23    2.97
  -1  -6   6   14.39    3.05
   7  -1   6    4.65    2.95
  -1   7  -6   17.42    3.40
   7  -6  -6    8.03    2.77
  -7   5   6   14.28    3.00
   5   2   6   13.70    3.16
   2  -7   6   24.35    3.71
   2   5  -6   18.28    3.62
   5  -7  -6   10.12    2.98
  -7   2  -6   13.65    2.94
  -7   2  -6   21.03    3.58
  -7   5   6   14.30    1.62
  -5  -2  -6   17.81    3.13
  -5  -2  -6   16.37    3.27
  -2  -5   6   15.34    3.28
   7  -2   6   20.37    3.69
  -5   7   6   10.74    2.38
  -2  -5   6   14.01    3.02
  -2   7  -6   18.31    3.45
  -5   7   6   20.98    3.60
   7  -5  -6   13.10    2.97
  -7   3  -6   14.41    3.05
  -7   4   6   18.25    3.15
  -7   4   6   18.05    2.90
  -7   3  -6   11.30    2.89
  -7   4   6   20.07    3.17
   4   3   6   19.49    3.45
   3   4  -6   10.10    2.93
   4  -7  -6   26.61    4.03
   3  -7   6   21.38    3.36
  -4   7   6   17.62    3.39
  -3   7  -6   16.57    3.22
   7  -3   6   18.74    3.66
  -4  -3  -6   20.37    3.03
  -4   7   6   14.33    2.77
  -4  -3  -6   20.98    3.10
  -3  -4   6   15.75    2.73
  -3  -4   6   12.11    3.06
  -4  -3  -6   22.01    3.45
  -7   4  -6   22.33    3.35
  -7   3   6   19.20    3.10
   4  -7   6   20.18    3.21
   3  -7  -6   18.35    3.63
  -7   3   6   21.94    3.32
   4   3  -6   20.01    3.55
  -7   4  -6   20.63    3.50
   3   4   6   22.64    3.59
   4  -7   6   18.95    2.79
  -7   3   6   18.95    2.98
  -3   7   6   22.70    3.31
  -3  -4  -6   20.40    3.31
  -3   7   6   19.50    3.53
   7  -4   6   15.67    3.33
  -4   7  -6   20.38    3.40
  -4  -3   6   17.39    3.30
  -4  -3   6   17.90    2.79
  -7   2   6   11.10    2.71
  -7   2   6   17.35    3.13
  -7   5  -6   13.74    3.05
   5  -7   6   14.18    2.84
  -7   5  -6    7.42    2.83
   5   2  -6    7.17    2.73
   2  -7  -6    9.55    3.04
   5  -7   6   13.68    2.58
  -7   2   6   10.69    2.32
   2   5   6   16.31    3.15
  -2   7   6    7.69    2.72
   7  -5   6    5.11    2.54
  -5   7  -6   11.52    2.86
  -5  -2   6    8.28    2.72
   7  -2  -6    7.88    2.48
  -5  -2   6    9.37    2.10
  -5   7  -6   10.48    3.04
  -2   7   6   16.47    3.06
  -2  -5  -6    8.34    2.79
  -7   6  -6    3.61    2.48
  -7   1   6    1.28    1.22
  -7   1   6   -0.36    1.90
   1   6   6    4.16    2.60
  -7   6  -6   -0.04    2.30
   6   1  -6    1.55    2.22
   1  -7  -6   -0.60    2.36
   6  -7   6    2.18    2.22
   7  -1  -6    1.42    2.15
  -6  -1   6    2.84    2.31
  -1   7   6    1.64    2.15
  -6   7  -6   -1.17    2.11
  -6   7  -6    3.87    2.47
   7  -6   6    4.17    2.50
  -1  -6  -6   -0.87    2.20
  -1   7   6    3.91    2.54
   7   0  -6   28.53    4.15
  -7   0   6   31.42    2.76
  -7   7  -6   35.59    4.16
  -7   0   6   31.19    3.90
   7  -7   6   31.85    4.18
   0  -7  -6   26.55    4.33
   0   7   6   32.06    4.34
   0   7   6   32.50    4.33
  -7   7  -6   33.33    4.32
  -8   8   6   11.81    3.54
  -8   8   6   10.39    2.51
  -8   0  -6    9.24    3.10
   0   8  -6    9.87    3.36
   0  -8   6    9.32    3.19
   8   0   6    9.37    3.52
  -8   0  -6    9.22    3.30
   8  -8  -6    7.23    2.90
   1  -8   6   -0.41    2.20
  -8   7   6   -0.13    1.59
  -8   1  -6    2.50    2.52
   1   7  -6    2.74    2.62
  -8   7   6    4.19    2.68
  -8   1  -6    1.73    2.45
   7  -8  -6    1.60    2.54
  -1  -7   6   -2.18    1.78
  -7  -1  -6    0.75    2.49
  -1  -7   6    1.25    2.57
  -7   8   6    1.14    1.90
  -7  -1  -6    3.52    2.35
  -7   8   6    5.78    3.03
   8  -1   6    0.46    2.70
   8  -7  -6    3.08    2.45
  -1   8  -6    1.02    2.18
  -8   6   6    6.89    1.61
  -8   2  -6    4.41    2.71
  -8   6   6    2.34    2.50
   2   6  -6   -0.46    2.35
   2  -8   6    2.93    2.51
   6  -8  -6    2.11    2.27
  -8   2  -6    3.86    2.55
   6   2   6    1.85    2.89
  -2   8  -6    6.48    2.86
  -2  -6   6    1.25    2.18
  -6   8   6    4.06    2.61
   8  -2   6    2.61    2.81
  -6  -2  -6    3.08    2.63
  -6   8   6   -1.54    1.98
  -6  -2  -6    3.72    2.50
  -2  -6   6    4.93    2.58
   8  -6  -6    2.00    2.08
  -8   3  -6   12.47    3.22
   3   5  -6    6.19    2.75
   5   3   6    4.51    2.84
  -8   5   6    9.54    2.97
  -8   3  -6    7.30    2.62
   5  -8  -6    7.92    3.08
   3  -8   6   12.05    3.17
  -5  -3  -6   11.61    3.07
  -3   8  -6    8.89    3.15
  -5   8   6    8.81    2.65
  -3  -5   6    8.78    2.77
   8  -5  -6    9.17    2.63
   8  -3   6    5.12    3.03
  -5   8   6   10.81    3.24
  -3  -5   6   15.92    3.41
  -5  -3  -6   11.77    3.00
   4  -8   6    9.70    2.90
   4  -8  -6    1.71    2.31
  -8   4   6   11.17    2.76
   4   4   6   10.36    3.11
  -8   4   6    8.79    2.63
  -8   4   6    8.44    2.67
   4   4  -6    7.92    3.03
  -8   4  -6    6.51    2.68
  -8   4  -6    5.86    2.64
  -4  -4  -6   11.30    2.72
  -4  -4   6    3.24    2.57
   8  -4   6    5.87    2.59
  -4   8   6    4.88    2.50
  -4   8  -6   10.64    3.00
  -4  -4   6    8.71    2.64
  -4   8   6    6.23    2.83
   5   3  -6   17.14    3.74
   3   5   6   15.51    3.35
  -8   3   6   21.67    3.22
  -8   5  -6   11.82    3.02
  -8   3   6   14.25    2.95
   5  -8   6   18.33    3.14
  -8   3   6   21.46    3.60
  -8   5  -6   14.92    3.29
   3  -8  -6   13.59    3.55
   5  -8   6   18.08    3.16
  -5   8  -6   11.50    3.17
   8  -5   6   18.28    3.73
  -5  -3   6   10.63    2.57
  -3   8   6   19.05    3.63
  -5  -3   6   19.35    3.49
  -3   8   6   17.85    3.40
  -3  -5  -6   24.04    3.67
   6  -8   6   10.69    2.85
  -8   2   6    5.53    2.45
   6   2  -6    2.28    2.71
  -8   6  -6   12.98    2.98
   2  -8  -6    7.78    3.12
  -8   2   6    6.93    1.26
  -8   2   6    9.16    2.93
  -8   6  -6    9.94    3.19
   2   6   6    8.84    2.93
  -6   8  -6    9.41    2.99
   8  -2  -6    4.39    2.57
  -6  -2   6    6.76    2.15
  -2  -6  -6    8.19    3.08
   8  -6   6    4.38    2.63
  -6   8  -6    6.59    2.96
  -6  -2   6   10.08    2.84
  -2   8   6    7.79    2.87
  -2   8   6    3.68    2.70
  -8   7  -6    5.70    2.84
   7  -8   6    2.94    2.47
   1   7   6    4.88    2.49
  -8   7  -6   -0.61    2.14
   7   1  -6    4.44    2.82
  -8   1   6    1.83    1.38
  -8   1   6    1.62    2.11
   1  -8  -6   -0.84    2.74
  -7   8  -6    6.68    2.93
  -1  -7  -6    1.30    2.75
  -7  -1   6    3.32    1.76
  -7  -1   6    3.06    2.36
   8  -7   6    0.65    2.43
  -1   8   6    2.03    2.64
  -1   8   6    4.33    2.61
  -7   8  -6   -0.18    2.34
   8  -1  -6    0.00    2.28
  -8   0   6   11.99    2.98
  -8   0   6    4.53    1.90
  -8   8  -6    5.99    2.92
   0   8   6    0.61    2.37
   8  -8   6    3.41    2.72
   0  -8  -6    8.49    3.30
  -8   8  -6    2.02    2.48
   8   0  -6    8.99    3.20
   0   9  -6    3.57    3.03
   9  -9  -6    0.55    2.71
  -9   9   6    0.68    2.17
  -9   0  -6    0.71    2.90
  -9   0  -6    3.70    2.89
   9   0   6    4.63    3.13
   0  -9   6   -0.38    2.61
  -9   9   6   -0.83    2.45
   8   1   6    5.20    3.17
   1  -9   6    5.17    3.21
   1   8  -6    3.48    2.79
  -9   1  -6    3.95    2.73
  -9   1  -6    5.25    2.94
  -9   8   6    2.85    2.03
   8  -9  -6    3.27    2.77
  -9   8   6    4.07    2.96
  -1   9  -6    5.01    2.78
   9  -8  -6   -2.46    2.15
  -8   9   6   -0.86    2.11
  -8   9   6    0.41    2.66
  -1  -8   6    5.19    3.12
   9  -1   6    2.46    2.79
  -8  -1  -6    2.36    2.85
  -8  -1  -6    3.57    2.87
  -9   7   6    0.15    2.51
   2  -9   6    0.06    2.46
  -9   7   6   -0.08    1.61
   2   7  -6    2.72    2.68
   7   2   6   -0.63    2.65
  -9   2  -6    5.24    2.68
   7  -9  -6    1.34    2.65
  -9   2  -6   -1.76    2.13
  -2   9  -6   -1.39    2.37
  -7   9   6   -1.91    2.27
  -7  -2  -6   -0.65    2.37
   9  -2   6   -0.83    2.66
  -2  -7   6    1.48    2.41
  -7   9   6   -3.22    2.43
  -7  -2  -6    5.25    2.95
  -2  -7   6    3.15    2.56
   9  -7  -6    2.33    2.46
   6  -9  -6    3.63    2.92
  -9   6   6    1.85    1.37
   3  -9   6    2.37    2.61
  -9   3  -6    1.79    2.31
   6   3   6    6.04    2.99
   3   6  -6   -1.76    2.46
  -9   3  -6    4.80    2.85
  -9   6   6    4.14    2.63
  -6   9   6   -2.70    2.50
  -6  -3  -6    0.33    2.43
  -6  -3  -6    4.21    2.92
   9  -3   6    5.70    3.22
  -3   9  -6    8.83    2.90
  -6   9   6    3.36    2.52
   9  -6  -6    1.45    2.18
  -3  -6   6    3.14    2.73
  -3  -6   6    4.81    2.56
  -9   4  -6    7.23    2.83
  -9   5   6   11.52    3.15
   5  -9  -6    6.80    2.94
  -9   4  -6   10.03    3.14
   5   4   6    6.13    3.01
   4   5  -6   10.43    3.33
   4  -9   6   11.35    3.07
  -5   9   6    9.80    2.96
   9  -4   6   13.81    3.63
  -4   9  -6    5.96    2.85
  -4  -5   6    3.66    2.58
   9  -5  -6   13.13    3.07
  -4  -5   6    7.25    2.92
  -5   9   6   11.69    3.49
   5  -9   6   10.21    3.01
  -9   5  -6   11.88    3.09
  -9   4   6   10.62    2.93
   5   4  -6   13.03    3.54
  -9   4   6   12.55    2.97
  -9   5  -6   10.95    3.24
  -9   4   6    6.72    2.78
   4  -9  -6    6.37    3.22
   4   5   6   14.36    3.64
  -4   9   6    9.12    3.20
   9  -4  -6    7.07    2.76
  -5  -4   6   13.12    3.38
  -5  -4   6    6.21    2.41
  -4   9   6    8.27    2.97
  -4  -5  -6   11.95    3.12
  -5   9  -6    6.36    3.03
   9  -5   6    4.80    2.77
  -9   6  -6   18.87    3.94
   3   6   6   14.88    3.66
   6   3  -6   14.92    3.72
   3  -9  -6   12.61    3.58
  -9   3   6   11.98    2.96
  -9   3   6   15.85    3.47
  -9   6  -6   13.08    3.24
  -3   9   6   11.85    3.53
  -6  -3   6   15.32    2.89
  -3  -6  -6   18.44    3.63
  -6   9  -6   15.75    3.62
   9  -6   6   18.14    3.80
  -3   9   6   13.42    3.46
  -6  -3   6   14.81    3.46
   2  -9  -6    3.87    3.16
  -9   2   6    8.51    2.62
  -9   2   6    6.96    1.50
  -9   7  -6    6.72    3.03
  -9   2   6    5.34    2.79
  -9   7  -6    3.16    2.53
   2   7   6    7.63    2.98
   7   2  -6    1.44    2.62
   7  -9   6    6.66    2.91
  -2   9   6    6.49    3.12
  -2   9   6    5.86    3.17
   9  -7   6    3.75    2.94
  -7   9  -6    5.32    2.96
  -7   9  -6    4.34    2.52
  -7  -2   6    5.71    2.64
   9  -2  -6    1.66    2.30
  -7  -2   6    0.26    1.89
  -2  -7  -6    6.34    3.11
   1  -9  -6    4.17    3.24
  -9   8  -6   -0.56    2.51
  -9   8  -6    6.22    3.03
   8   1  -6    4.81    3.06
   1   8   6    1.36    2.70
  -9   1   6    1.04    1.50
   8  -9   6    4.30    2.84
  -8   9  -6    6.43    2.92
  -8   9  -6    5.50    3.05
  -1  -8  -6    4.09    2.95
   9  -8   6   -0.45    2.56
  -1   9   6    2.26    2.73
   9  -1  -6    3.70    2.79
  -8  -1   6    3.91    1.99
  -8  -1   6    7.11    2.86
   0   9   6    0.32    2.68
   0  -9  -6   -2.61    2.65
   9   0  -6   -2.20    2.67
  -9   9  -6   -2.89    2.24
  -9   0   6    2.68    1.91
  -9   9  -6   -4.98    2.33
   9  -9   6   -6.85    2.15
 -10   1  -6    2.21    2.77
   1   9  -6    1.09    3.07
 -10   1  -6   -1.49    2.90
   9   1   6   -5.31    2.66
   1 -10   6   -1.15    2.94
 -10   9   6    5.10    3.39
   9 -10  -6   -1.89    2.56
 -10   9   6    1.61    1.98
  -9  10   6   -3.89    2.72
  -9  -1  -6   -3.94    2.47
  10  -1   6    0.52    3.17
  -1  -9   6    0.59    2.86
  -1  10  -6    4.33    2.99
  -9  -1  -6    1.83    2.90
  -9  10   6    0.83    2.22
   2   8  -6    3.33    2.99
 -10   2  -6    2.14    2.86
 -10   8   6   -0.15    2.74
   8 -10  -6    0.45    2.97
   2 -10   6    1.68    3.10
 -10   2  -6    2.60    2.68
 -10   8   6    4.44    2.03
   8   2   6    6.91    3.54
  -8  -2  -6    3.77    3.00
  10  -2   6    0.53    3.25
  -8  10   6   -1.46    2.87
  -2  -8   6    0.67    2.90
  -8  -2  -6    1.86    2.98
  -8  10   6    3.29    2.66
  -2  -8   6    5.58    3.34
  -2  10  -6    5.06    3.13
 -10   3  -6   -0.68    2.45
   3 -10   6    4.04    2.99
 -10   3  -6    0.59    2.47
   7   3   6    1.38    2.88
   7 -10  -6    2.77    3.23
   3   7  -6    4.97    3.15
 -10   7   6    4.71    1.68
 -10   7   6    4.09    2.82
  -7  10   6    1.31    3.03
  -7  -3  -6    8.68    3.27
  -3  -7   6    3.83    2.78
  -3  10  -6    2.25    3.01
  -7  10   6    1.25    2.59
  10  -3   6    5.62    3.35
  -3  -7   6    3.73    2.79
   6 -10  -6    5.62    3.36
 -10   4  -6   10.02    3.53
   4 -10   6    6.64    3.08
   4   6  -6    5.21    3.15
 -10   6   6    5.57    3.00
   6   4   6   12.23    3.69
 -10   4  -6    1.31    2.50
  -4  -6   6    8.77    2.99
  -4  -6   6    8.73    3.15
  -4  10  -6    6.89    3.08
  10  -4   6    9.15    3.64
  -6  10   6    9.92    3.68
  -6  10   6    9.09    3.14
 -10   5  -6   16.53    3.42
   5   5   6   13.18    3.73
   5   5  -6   13.02    3.64
 -10   5  -6   15.05    3.96
   5 -10   6   22.37    4.04
   5 -10  -6    7.91    3.17
  -5  10   6   12.47    3.51
  -5  -5   6   15.19    3.71
  -5  10   6   22.83    4.52
  -5  -5   6   14.63    3.44
  10  -5  -6   15.76    3.59
  10  -5   6   16.97    4.01
  -5  10  -6   17.85    3.91
 -10   4   6    9.61    3.09
 -10   6  -6    6.22    3.08
 -10   6  -6    6.89    2.78
   4 -10  -6    3.80    3.41
   4   6   6    6.60    3.27
   6   4  -6   13.07    3.74
  -6  -4   6    6.78    2.70
  -4  10   6    6.21    3.23
  10  -6   6    7.07    3.24
  -4  10   6    9.43    3.43
  -6  -4   6    9.89    3.22
  -6  10  -6   10.36    3.42
   7   3  -6   -0.49    2.89
 -10   3   6    4.68    2.93
   3 -10  -6   10.58    3.76
   3   7   6    3.88    2.91
 -10   7  -6   11.50    3.12
 -10   7  -6    7.11    3.28
  10  -7   6    7.67    3.38
  -7  -3   6    3.80    2.31
  -3  10   6    6.21    3.48
  -3  10   6    7.36    3.46
  -7  10  -6    1.95    2.79
  -3  -7  -6    6.12    3.22
  -7  -3   6    5.88    2.95
   2   8   6    5.66    3.11
 -10   8  -6    4.12    2.79
 -10   2   6    2.57    2.89
   8 -10   6    6.98    3.24
   8   2  -6    1.89    3.08
 -10   2   6    2.32    1.54
 -10   8  -6    1.58    2.81
   2 -10  -6    5.15    3.51
  -8  -2   6    0.50    2.08
  -2  10   6    5.51    3.17
  10  -8   6   -1.53    2.69
  -8  10  -6    8.10    3.34
  -2  -8  -6    5.38    3.31
  -8  -2   6    1.91    2.43
  10  -2  -6    5.96    3.11
 -10   9  -6   -4.90    2.31
   9 -10   6   -0.07    2.84
   9   1  -6   -1.77    2.62
   1   9   6    2.78    3.13
   1 -10  -6    0.89    3.16
 -10   1   6    1.79    1.89
 -10   9  -6   -0.28    2.66
  10  -1  -6    0.59    2.75
  -9  -1   6   -1.31    1.95
  -1  -9  -6    1.93    3.11
  -9  10  -6    2.20    2.83
  -1  10   6   -1.66    2.56
  10  -9   6   -0.42    2.89
  -9  10  -6   -0.49    2.78
  10 -10   6    0.00    3.00
   3 -11   6   16.20    4.43
   3   8  -6   14.49    4.03
   8   3   6   22.96    4.66
 -11   3  -6   19.01    3.93
 -11   3  -6   14.59    4.06
   8 -11  -6   13.61    4.14
 -11   8   6   15.64    2.32
 -11   8   6   18.91    4.41
  -8  11   6   11.04    4.16
  -3  11  -6   16.57    4.31
  -3  -8   6   13.65    3.95
  11  -3   6   14.51    4.51
  -3  -8   6    9.24    3.81
  -8  -3  -6   19.76    4.26
  -8  11   6    9.84    3.16
 -11   4  -6   19.62    3.83
 -11   7   6   26.01    4.56
   4 -11   6   18.26    4.38
 -11   4  -6    8.57    3.56
   4   7  -6   20.30    4.53
   7   4   6   16.74    4.20
   7 -11  -6   12.91    4.10
 -11   7   6   18.36    2.01
  -7  11   6   16.67    4.65
  -7  11   6   13.19    3.90
  -4  -7   6   15.70    3.88
  -4  11  -6   17.69    4.02
  -4  -7   6   15.47    4.05
  11  -4   6    5.67    3.72
 -11   5  -6   23.39    3.98
   5 -11   6   24.60    4.65
   6   5   6   13.59    4.18
   6 -11  -6   22.75    4.78
 -11   5  -6   19.94    4.49
   5   6  -6   20.42    4.51
  -5  -6   6   23.32    4.43
  11  -6  -6   25.53    4.56
  -6  11   6   28.34    5.17
  11  -5   6   19.50    4.61
  -6  11   6   22.47    4.27
  -5  11  -6   27.99    4.59
  -5  -6   6   27.29    4.57
   5   6   6   18.24    4.26
 -11   6  -6   27.78    4.40
 -11   6  -6   20.62    4.61
   5 -11  -6   24.79    5.06
   6   5  -6   22.07    4.62
  -5  11   6   22.54    4.56
  11  -6   6   17.54    4.36
  -5  11   6   28.24    5.21
  -6  -5   6   20.48    3.84
  -6  11  -6   19.20    4.26
  -6  -5   6   32.20    4.85
 -11   4   6   16.84    4.08
   4 -11  -6   17.46    4.90
   7   4  -6   11.39    3.78
   4   7   6    9.74    3.61
 -11   7  -6    8.72    3.16
 -11   7  -6   11.45    3.57
  -4  11   6   12.34    3.90
  -4  11   6    8.74    3.63
  -7  -4   6    9.14    3.52
  -7  11  -6   11.40    3.66
  11  -7   6   13.99    4.24
  -7  -4   6   11.32    3.16
 -11   3   6    8.90    1.80
 -11   8  -6   15.30    4.08
 -11   8  -6    9.72    3.20
   8   3  -6   14.19    4.10
   3 -11  -6    5.15    3.63
   3   8   6   14.03    3.94
 -11   3   6   13.64    4.01
  -3  11   6    9.75    3.67
  -8  -3   6    7.39    3.23
  11  -8   6    9.84    3.83
  -8  -3   6   14.96    3.42
  -3  -8  -6    6.39    3.38
  -8  11  -6    1.53    3.30
  11  -3  -6    9.61    3.53
   0   0  -7    1.46    1.32
   0   0   7    0.88    1.35
   0   0   7    0.34    1.35
   0   0   7    0.36    1.39
   1   0   7   14.95    2.26
  -1   1   7    9.44    1.87
  -1   0  -7   10.20    1.93
  -1   0  -7   12.81    1.98
   1   0   7    9.97    1.93
   0  -1   7   11.72    2.15
   0   1  -7    7.33    1.90
   0  -1   7    8.78    1.86
   1   0   7   12.05    2.10
  -1   1   7    8.82    2.02
   0  -1   7   11.15    1.71
  -1   1   7    8.91    1.72
   1  -1  -7    9.63    1.72
  -1   0   7   -0.23    1.15
   0  -1  -7    1.18    1.24
   1   0  -7   -1.42    1.28
   1  -1   7    0.13    1.27
  -1   1  -7    0.37    1.26
   1  -1   7   -1.97    1.21
  -1   0   7    0.38    1.26
  -1   0   7   -0.43    1.40
   1  -1   7   -1.24    1.26
   0   1   7    0.70    1.45
   0   1   7   -0.56    1.24
  -1   1  -7    1.67    1.43
   0   1   7    2.48    1.43
   2   0   7   21.45    2.80
  -2   0  -7   23.75    2.72
   0  -2   7   23.40    2.90
   2   0   7   20.24    2.63
   0   2  -7   22.61    2.90
   2  -2  -7   23.17    2.12
  -2   2   7   24.77    2.89
   0  -2   7   21.18    2.51
  -2   0  -7   17.70    2.42
   0  -2   7   20.70    1.82
  -2   2   7   22.74    2.23
  -2   2   7   27.71    2.46
   2   0   7   22.27    2.35
  -2   2   7   23.54    2.68
  -2   1   7   53.24    2.78
  -2   1   7   62.94    3.22
  -2   1   7   51.62    2.78
   1   1  -7   59.43    3.59
   1   1   7   52.88    3.43
   1  -2   7   59.23    3.47
  -2   1   7   56.39    3.58
   1  -2   7   57.03    3.40
   1  -2   7   56.02    2.89
  -2   1  -7   55.27    3.34
   1  -2  -7   58.61    2.65
   1   1   7   56.81    3.73
  -2   1  -7   51.85    3.35
  -1  -1  -7   54.73    3.05
   2  -1   7   54.73    3.03
  -1  -1   7   51.06    3.07
   2  -1   7   51.45    3.23
  -1   2  -7   52.53    3.56
  -1  -1  -7   58.20    3.38
   2  -1  -7   61.20    3.20
  -1  -1   7   56.05    2.49
  -1   2  -7   54.41    3.17
  -1  -1  -7   49.67    3.12
  -1   2   7   58.04    3.24
  -1  -1   7   51.05    3.47
  -1   2   7   62.48    3.63
  -1   2   7   49.58    3.48
   2  -1   7   51.25    3.29
   0   2   7   53.06    3.33
  -2   0   7   50.02    2.65
   0  -2  -7   53.69    2.69
  -2   2  -7   53.46    3.39
   2  -2   7   53.33    3.15
  -2   2  -7   54.06    3.46
   0   2   7   50.24    3.69
   2  -2   7   49.41    3.04
  -2   0   7   54.17    2.83
  -2   0   7   53.45    2.88
   2   0  -7   52.58    3.31
   0  -2  -7   60.81    3.60
   2  -2   7   51.15    3.36
  -2   0   7   48.10    3.97
   0   3  -7   85.44    4.77
   0  -3   7   68.76    4.04
  -3   3   7   73.52    3.36
  -3   0  -7   77.24    4.31
  -3   0  -7   70.67    3.98
  -3   3   7   71.93    4.10
  -3   3   7   75.76    4.32
   0  -3   7   72.56    4.44
   3  -3  -7   74.10    2.96
   3   0   7   71.62    4.42
  -3   0  -7   81.83    3.52
   3   0   7   80.88    4.24
   2  -3  -7   37.21    1.96
  -3   2   7   42.22    2.53
   2   1   7   41.04    3.71
   1  -3   7   41.72    3.66
   2  -3  -7   36.45    3.59
  -3   1  -7   43.31    3.65
  -3   1  -7   42.69    3.68
  -3   2   7   34.66    3.55
   1  -3   7   41.86    3.55
   1   2  -7   49.27    3.69
   2   1   7   40.93    3.57
  -3   2   7   39.22    2.43
  -3   2   7   39.85    3.34
   1  -3   7   40.06    2.33
   3  -1   7   39.66    2.53
  -2  -1  -7   45.97    2.96
  -2   3   7   40.58    2.85
  -2   3   7   36.90    3.45
   3  -1   7   37.92    3.42
   3  -2  -7   39.04    2.60
  -1  -2   7   46.74    4.05
  -1   3  -7   43.98    3.86
   3  -1   7   40.55    3.64
  -1  -2   7   45.40    3.11
  -2  -1  -7   36.32    3.34
  -2  -1  -7   41.68    2.98
  -3   1   7   59.16    4.08
   1   2   7   79.44    4.10
   2  -3   7   62.48    3.42
   1  -3  -7   69.42    2.51
   2  -3   7   71.53    3.80
   1   2   7   76.02    4.27
   2  -3   7   63.48    3.84
   1  -3  -7   64.36    4.01
  -3   2  -7   74.17    4.30
  -3   1   7   72.89    3.48
   2   1  -7   70.47    4.15
  -3   1   7   65.93    2.95
  -3   1   7   65.98    3.00
  -3   2  -7   62.55    3.85
  -2   3  -7   65.32    3.67
  -1  -2  -7   70.85    3.21
   3  -2   7   60.22    3.59
  -1   3   7   61.68    3.67
  -2  -1   7   65.91    2.44
  -2   3  -7   66.42    4.02
  -2  -1   7   59.60    3.90
  -1   3   7   71.90    4.35
  -2  -1   7   67.05    3.34
   3  -2   7   63.43    3.90
   3  -1  -7   73.11    3.65
   3  -2   7   66.10    3.14
  -1  -2  -7   61.78    3.71
   0   3   7    6.76    2.07
   3  -3   7    9.87    2.19
   0   3   7    6.90    2.19
  -3   0   7   11.59    1.70
   3  -3   7    7.32    1.68
  -3   3  -7   14.43    2.48
   3  -3   7   10.14    2.15
  -3   3  -7   11.26    2.47
  -3   0   7   10.51    1.70
   0  -3  -7    8.65    1.47
   3   0  -7   10.48    2.30
   0  -3  -7    8.20    2.11
  -3   0   7   10.56    2.22
   4  -4  -7   30.24    3.63
   4   0   7   39.79    4.15
   0  -4   7   28.88    3.54
  -4   4   7   30.55    3.61
  -4   0  -7   40.41    2.51
  -4   0  -7   34.55    3.69
   0  -4   7   29.82    3.34
  -4   4   7   37.72    2.56
   0   4  -7   34.68    3.88
  -4   0  -7   43.85    3.94
   3  -4  -7   46.75    4.27
   1  -4   7   42.82    3.99
  -4   3   7   43.05    2.41
  -4   1  -7   43.84    3.94
  -4   1  -7   41.90    2.39
  -4   3   7   47.74    4.20
   3   1   7   49.69    4.12
   1   3  -7   44.30    4.30
   3   1   7   38.65    3.98
  -4   3   7   47.43    3.46
   1  -4   7   40.31    3.76
  -4   1  -7   51.50    4.26
  -3  -1  -7   44.94    3.31
  -3   4   7   46.64    3.06
  -3  -1  -7   48.19    4.04
  -1   4  -7   42.51    4.08
  -1  -3   7   46.58    4.26
   4  -1   7   49.45    3.54
  -3  -1  -7   50.18    3.14
   4  -1   7   52.57    3.93
   4  -3  -7   50.39    2.90
  -3   4   7   54.11    4.01
  -1  -3   7   51.78    3.48
  -4   2   7   22.40    1.96
   2   2   7   21.87    2.88
  -4   2  -7   20.13    2.88
   2   2  -7   24.46    3.31
   2  -4   7   25.49    2.99
   2  -4   7   21.56    2.91
  -4   2  -7   22.49    3.17
  -4   2   7   24.38    3.18
   2   2   7   19.53    2.96
  -4   2   7   22.67    1.95
   2  -4  -7   25.80    3.29
   2  -4   7   24.05    2.37
  -4   2   7   26.24    2.79
   4  -2   7   23.07    2.95
  -2   4  -7   17.83    2.87
  -2  -2   7   16.80    2.84
  -2   4   7   22.44    2.74
  -2   4   7   17.24    2.84
  -2  -2  -7   20.53    2.80
  -2  -2  -7   20.62    2.45
   4  -2   7   22.77    3.12
   4  -2  -7   27.74    2.79
   4  -2   7   23.24    2.01
  -2  -2  -7   24.64    2.89
  -2  -2   7   21.67    2.57
  -4   1   7   51.86    2.59
   3  -4   7   57.00    3.46
   1   3   7   46.96    4.38
  -4   1   7   52.67    4.44
  -4   3  -7   52.42    4.53
   1  -4  -7   47.76    4.26
   3   1  -7   49.64    4.34
  -4   1   7   54.14    3.02
  -4   3  -7   52.63    3.66
   3  -4   7   50.77    3.35
   3  -4   7   51.76    3.68
   1   3   7   48.69    3.61
  -4   1   7   48.87    2.51
  -1  -3  -7   52.79    2.83
  -3   4  -7   54.53    4.10
   4  -1  -7   47.32    3.43
  -3  -1   7   53.23    4.53
   4  -3   7   57.32    2.80
  -3  -1   7   47.60    2.92
  -1   4   7   55.20    4.17
  -1  -3  -7   48.83    3.67
  -3   4  -7   51.97    3.72
  -1   4   7   54.19    3.56
   4  -3   7   55.47    3.69
   4  -3   7   51.39    3.85
   4  -4   7   42.48    2.79
   4   0  -7   43.73    4.10
  -4   4  -7   42.83    4.06
   4  -4   7   44.51    3.79
   0   4   7   48.88    4.13
  -4   4  -7   38.26    4.09
  -4   0   7   38.56    3.86
   0   4   7   43.68    4.37
   0  -4  -7   42.08    4.06
  -4   0   7   35.10    2.51
  -5   0  -7    6.18    2.22
   0   5  -7    4.98    2.41
  -5   5   7    5.47    2.33
  -5   0  -7    0.81    2.03
   0  -5   7    7.63    2.46
   5  -5  -7    4.32    2.31
  -5   5   7    4.57    1.60
   5   0   7    5.89    2.49
  -5   1  -7    6.57    2.27
   1   4  -7    2.91    2.35
   1  -5   7    2.46    2.16
  -5   4   7    5.53    2.26
  -5   4   7    2.12    1.83
  -5   4   7    3.79    1.40
  -5   1  -7    6.43    2.27
   4  -5  -7    5.02    2.16
   1  -5   7    9.61    2.58
   4   1   7    6.02    2.59
  -4   5   7    9.97    2.63
  -4   5   7    5.22    1.71
  -1   5  -7    6.82    2.35
  -1  -4   7    5.30    2.13
  -1  -4   7    2.47    2.07
  -4  -1  -7    5.57    2.12
   5  -4  -7    8.21    2.59
  -4  -1  -7    8.16    1.85
   5  -1   7    5.98    2.65
  -4  -1  -7    5.17    2.20
   3   2   7   10.88    2.51
   2   3  -7   13.16    3.02
   2  -5   7    5.96    2.06
   3  -5  -7    8.93    2.44
  -5   3   7   11.18    1.49
  -5   2  -7    4.61    2.06
  -5   3   7   12.95    2.47
   3   2   7   15.38    3.04
   2  -5   7   11.08    2.53
  -5   3   7   12.71    2.71
  -5   2  -7    6.37    2.42
  -5   3   7    9.75    1.50
   5  -2   7    4.87    2.31
  -3  -2  -7    5.80    1.90
  -2  -3   7    4.27    1.94
  -2   5  -7    7.16    2.52
  -3   5   7    4.55    2.28
  -3  -2  -7    7.88    2.19
  -3   5   7   10.31    2.17
   5  -3  -7    4.39    1.79
  -3  -2  -7    8.28    2.36
  -2  -3   7    7.65    2.32
  -5   3  -7   27.65    3.65
   2   3   7   20.35    3.36
   3  -5   7   19.27    2.75
  -5   2   7   25.03    1.80
  -5   3  -7   24.43    3.41
   3  -5   7   22.46    2.63
   2  -5  -7   22.62    3.51
  -5   2   7   19.79    3.08
   3  -5   7   24.05    3.03
   3   2  -7   23.41    3.33
  -5   2   7   27.57    2.93
  -5   2   7   25.71    1.93
   2   3   7   20.21    3.09
  -2   5   7   28.89    3.26
   5  -2  -7   29.09    3.10
  -2  -3  -7   23.08    3.08
   5  -3   7   30.05    3.71
  -3  -2   7   29.45    3.66
  -3   5  -7   25.16    3.48
  -2  -3  -7   26.64    2.59
  -2   5   7   18.00    3.10
  -3  -2   7   24.20    2.78
   4  -5   7  115.57    5.17
  -5   1   7  110.79    3.66
  -5   4  -7  108.22    5.86
   1   4   7  110.14    5.50
  -5   1   7   99.23    4.25
   1  -5  -7  112.97    5.80
  -5   4  -7  123.32    5.61
   1   4   7  101.53    5.88
   4   1  -7  106.55    5.71
  -5   1   7  107.74    5.58
   4  -5   7  106.85    4.64
  -4  -1   7  103.85    5.56
   5  -1  -7  109.61    5.28
  -1   5   7  112.29    5.39
  -4   5  -7  115.71    5.65
  -4  -1   7  116.63    4.46
  -4   5  -7  107.96    5.77
   5  -4   7  105.35    5.45
  -1  -4  -7  115.72    5.62
  -1   5   7  115.52    6.01
   0  -5  -7   39.91    4.31
   5   0  -7   41.07    4.27
   5  -5   7   41.17    4.06
  -5   5  -7   45.66    4.31
  -5   5  -7   49.71    4.92
   0   5   7   35.19    4.15
   0   5   7   44.33    4.28
  -5   0   7   41.89    4.29
  -5   0   7   45.38    2.73
  -6   6   7    3.82    1.64
  -6   0  -7    4.80    2.43
   0  -6   7    4.69    2.63
   6  -6  -7    5.33    2.42
  -6   6   7    5.92    2.66
   6   0   7    3.09    2.79
  -6   0  -7    1.91    2.41
   0   6  -7    7.16    2.72
   0  -6   7   13.55    3.05
  -6   1  -7   24.06    3.61
  -6   5   7   12.95    1.90
  -6   1  -7   20.85    3.51
   5   1   7   14.65    3.16
   1  -6   7   16.01    3.27
   1  -6   7   17.09    3.15
   5  -6  -7   12.88    3.15
  -6   5   7   15.09    3.13
   1   5  -7   17.30    3.32
  -5  -1  -7   17.78    3.29
  -5   6   7   16.26    3.34
   6  -1   7   15.39    3.33
   6  -5  -7   18.19    3.38
  -5   6   7   16.51    2.37
  -1  -5   7   18.25    3.09
  -5  -1  -7   15.63    3.05
  -1   6  -7   17.54    3.28
  -1  -5   7   15.33    3.19
  -6   4   7    7.34    2.30
   2   4  -7    5.38    2.67
  -6   2  -7    4.56    2.39
   2  -6   7    5.43    2.38
  -6   2  -7    5.14    2.43
   4  -6  -7    3.00    2.30
   2  -6   7    4.59    2.34
   4   2   7    4.99    2.59
  -6   4   7    5.87    1.27
  -6   4   7    5.60    2.38
  -4   6   7    1.50    1.72
  -4  -2  -7    7.82    1.99
  -2  -4   7    5.90    2.58
  -2  -4   7    5.80    2.21
  -2   6  -7    5.94    2.37
  -4   6   7    1.91    2.03
  -4  -2  -7    8.64    2.32
  -4  -2  -7    6.36    2.59
   6  -2   7    3.72    2.62
   3   3  -7   19.85    3.39
  -6   3  -7   20.58    3.48
  -6   3   7   20.90    1.54
  -6   3   7   16.64    2.73
  -6   3   7   14.79    1.48
   3  -6  -7   12.17    2.99
   3   3   7   16.74    3.36
  -6   3  -7   15.10    3.04
   3  -6   7   20.97    3.18
  -6   3   7   13.74    2.84
  -3   6  -7   13.70    2.90
  -3  -3   7   13.77    2.55
  -3  -3   7   10.85    2.75
   6  -3  -7   10.51    2.34
  -3  -3  -7   15.06    2.55
  -3   6   7   12.40    2.55
   6  -3   7   15.14    3.30
  -3   6   7   14.76    3.22
  -3  -3  -7   20.36    3.07
  -6   2   7   42.27    4.26
  -6   4  -7   48.66    4.78
   4   2  -7   51.62    4.94
   2  -6  -7   42.24    4.57
   2   4   7   44.09    4.65
  -6   2   7   42.51    2.08
  -6   2   7   46.20    2.12
   4  -6   7   51.62    3.77
  -6   4  -7   40.22    4.26
  -6   2   7   45.19    3.81
   2   4   7   45.21    4.51
   4  -6   7   43.20    3.89
  -4   6  -7   42.72    4.62
   6  -4   7   48.68    4.72
  -4  -2   7   43.58    3.57
  -2   6   7   36.16    4.24
  -2   6   7   46.70    4.23
  -4  -2   7   50.67    4.83
   6  -2  -7   46.84    4.17
  -2  -4  -7   46.76    4.36
   1   5   7   69.46    4.94
   5  -6   7   65.70    4.37
   1   5   7   73.19    5.31
  -6   1   7   66.64    2.90
  -6   1   7   69.19    4.85
  -6   5  -7   70.61    4.86
   1  -6  -7   60.22    5.54
   5   1  -7   71.04    5.10
  -6   5  -7   64.23    5.61
  -5  -1   7   73.25    3.75
  -1   6   7   75.87    4.95
  -5  -1   7   76.04    5.12
  -5   6  -7   73.97    5.41
  -1  -5  -7   83.06    5.27
   6  -1  -7   76.02    4.93
  -1   6   7   75.57    5.19
  -5   6  -7   77.45    4.99
   6  -5   7   71.58    4.95
  -6   0   7    2.09    1.52
  -6   6  -7    0.35    2.21
   0   6   7    0.97    2.14
   6  -6   7   -0.80    2.08
  -6   6  -7    0.51    2.15
  -6   0   7   -3.36    1.72
   0  -6  -7    0.86    2.33
   0   6   7   -2.63    1.75
   6   0  -7    0.04    1.95
   0  -7   7    6.73    2.79
   7  -7  -7    1.33    2.43
   0   7  -7    7.07    3.03
  -7   0  -7    5.69    2.61
  -7   0  -7    3.46    2.65
   0  -7   7    2.13    2.43
  -7   7   7    3.87    2.82
   7   0   7    3.05    2.98
  -7   7   7    2.31    1.84
  -7   1  -7    3.41    2.46
   1  -7   7    7.28    2.84
   1  -7   7    3.95    2.53
  -7   6   7    5.01    1.69
  -7   6   7    6.69    2.79
   6   1   7    3.93    2.98
   1   6  -7    7.45    3.06
  -7   1  -7   11.74    3.11
   6  -7  -7    9.27    3.04
  -1  -6   7    6.23    2.50
  -6   7   7    7.03    2.09
   7  -6  -7    5.27    2.51
  -6  -1  -7    4.81    2.79
  -6  -1  -7    4.87    2.50
  -1   7  -7    4.03    2.52
  -1  -6   7    6.30    2.79
   7  -1   7    3.38    2.90
  -6   7   7   10.03    3.00
  -7   5   7   30.51    2.16
   2   5  -7   35.51    4.60
   5  -7  -7   37.33    4.58
   5   2   7   33.25    4.49
  -7   5   7   37.09    4.27
  -7   2  -7   36.81    4.36
   2  -7   7   32.10    4.09
  -7   2  -7   36.81    4.53
  -2   7  -7   32.85    4.41
   7  -2   7   43.16    5.19
  -5  -2  -7   39.07    4.19
  -5  -2  -7   36.72    4.38
  -2  -5   7   38.58    4.65
   7  -5  -7   33.35    4.14
  -5   7   7   31.42    4.24
  -5   7   7   31.32    3.42
  -2  -5   7   35.11    4.09
   4   3   7   16.81    3.50
  -7   4   7   19.71    1.51
  -7   3  -7   12.64    3.06
   3  -7   7   18.48    3.25
   4  -7  -7   17.05    3.44
  -7   4   7   12.73    2.96
  -7   3  -7   19.22    3.40
  -7   4   7   10.43    2.87
   3   4  -7   11.85    3.03
   7  -4  -7   21.28    3.06
  -4  -3  -7   21.66    3.15
  -3  -4   7   14.35    3.15
  -4   7   7   19.47    3.00
  -3  -4   7   18.71    2.96
   7  -3   7   18.83    3.70
  -4   7   7   17.42    3.43
  -3   7  -7   21.48    3.54
  -7   4  -7   45.75    4.63
   4   3  -7   43.05    4.83
  -7   4  -7   52.93    5.28
   3  -7  -7   47.98    5.10
  -7   3   7   50.91    4.81
   4  -7   7   43.67    4.26
  -7   3   7   40.50    4.02
   3   4   7   40.36    4.71
  -4  -3   7   36.91    4.50
  -3  -4  -7   48.67    4.56
   7  -3  -7   39.08    4.14
  -3   7   7   40.58    4.26
  -4   7  -7   38.21    4.41
  -3   7   7   40.71    4.75
   7  -4   7   44.23    4.76
  -4  -3   7   38.35    3.74
  -7   5  -7   69.31    5.25
  -7   2   7   64.85    4.74
   2  -7  -7   68.99    6.17
   5   2  -7   70.97    5.22
  -7   2   7   67.85    2.56
  -7   5  -7   64.68    5.44
   2   5   7   64.36    5.83
   5  -7   7   76.25    4.73
  -5  -2   7   71.26    4.20
  -2  -5  -7   68.16    5.03
   7  -5   7   69.72    5.88
   7  -2  -7   61.60    4.56
  -2   7   7   58.47    5.51
  -5   7  -7   68.53    5.97
  -5  -2   7   54.67    5.20
  -2   7   7   67.25    4.89
  -7   1   7   36.84    4.29
   6   1  -7   25.72    4.14
  -7   6  -7   27.02    4.20
  -7   1   7   33.46    2.36
   1   6   7   35.59    4.52
   1  -7  -7   29.75    4.42
   6  -7   7   39.78    4.25
  -7   6  -7   36.29    4.34
   7  -1  -7   32.14    4.18
  -1  -6  -7   34.01    4.44
   7  -6   7   31.06    4.24
  -6  -1   7   31.99    3.13
  -1   7   7   33.82    4.54
  -6  -1   7   35.15    4.34
  -6   7  -7   40.74    4.53
  -6   7  -7   40.61    4.96
  -1   7   7   31.26    4.11
   7   0  -7   12.86    3.39
  -7   7  -7   18.69    3.88
   7  -7   7   18.18    3.39
  -7   7  -7   14.84    3.33
  -7   0   7   15.66    3.20
   0  -7  -7   15.94    3.68
   0   7   7   12.18    3.39
  -8   0  -7    7.14    3.08
   8  -8  -7    8.89    3.22
   0  -8   7   14.72    3.72
   8   0   7    9.45    3.44
  -8   0  -7   13.49    3.71
  -8   8   7   12.11    3.59
   0   8  -7   14.68    3.70
  -8   8   7   18.75    2.93
   1  -8   7    2.84    2.70
  -8   7   7    2.14    2.65
  -8   7   7    5.17    1.96
  -8   1  -7    2.08    2.66
   7   1   7    3.08    3.07
   7  -8  -7   -3.14    2.24
  -8   1  -7    5.05    2.78
   1   7  -7    5.95    2.91
   8  -1   7    3.00    2.94
  -7  -1  -7    0.23    2.48
  -7  -1  -7    5.69    2.92
  -1  -7   7    3.16    2.47
  -7   8   7    1.52    2.07
  -1   8  -7    4.51    2.95
  -1  -7   7    5.53    2.97
  -7   8   7    0.44    2.51
   8  -7  -7    1.83    2.62
  -8   6   7   10.86    1.81
  -8   6   7   16.53    3.55
  -8   2  -7   12.07    3.34
   2   6  -7   11.32    3.29
   6  -8  -7   17.31    3.79
  -8   2  -7   11.62    3.20
   2  -8   7    9.11    2.96
   6   2   7    6.93    3.22
  -2   8  -7   11.87    3.44
  -6   8   7   14.17    2.92
  -2  -6   7   11.78    3.37
  -6  -2  -7   13.26    3.51
  -6   8   7    8.37    3.12
   8  -2   7    8.69    3.28
  -2  -6   7   12.44    3.29
  -6  -2  -7    8.43    2.80
   8  -6  -7    9.71    3.02
   3   5  -7   20.12    3.82
   5  -8  -7   15.51    3.57
   3  -8   7   23.25    3.90
   5   3   7   25.21    4.09
  -8   3  -7   26.26    3.93
  -8   5   7   23.27    1.78
  -8   3  -7   20.98    3.99
  -8   5   7   26.81    3.93
  -3   8  -7   26.64    4.26
  -5   8   7   22.76    4.16
  -3  -5   7   26.30    3.61
  -5  -3  -7   23.93    3.76
   8  -5  -7   30.67    4.17
  -3  -5   7   17.00    3.63
   8  -3   7   20.30    4.03
  -5   8   7   28.97    3.72
  -8   4   7   16.58    3.25
   4  -8  -7   10.96    3.54
  -8   4  -7   19.79    3.91
   4  -8   7   20.43    3.46
   4   4   7   12.92    3.48
   4   4  -7   16.72    3.60
  -8   4   7   20.39    3.33
  -8   4  -7   15.39    3.33
   8  -4   7   16.66    3.66
  -4  -4   7   13.33    2.81
  -4   8   7   15.85    3.19
   8  -4  -7   19.61    3.23
  -4  -4   7   13.52    3.28
  -4   8   7   16.46    3.66
  -4   8  -7   21.73    3.92
   3   5   7   38.83    4.89
  -8   5  -7   37.71    4.54
  -8   5  -7   34.90    4.54
   3  -8  -7   33.19    4.74
  -8   3   7   31.18    4.10
   5   3  -7   29.68    4.28
   8  -3  -7   29.90    3.91
  -3  -5  -7   39.66    4.58
  -5  -3   7   37.62    4.68
  -5   8  -7   31.38    4.43
  -3   8   7   38.22    4.87
  -3   8   7   31.50    4.26
  -5  -3   7   30.29    3.63
   8  -5   7   38.06    4.62
   6   2  -7   21.65    4.18
   2  -8  -7   24.84    4.37
  -8   2   7   30.05    4.07
  -8   6  -7   33.45    4.79
  -8   6  -7   25.65    3.90
   6  -8   7   28.62    3.99
   2   6   7   28.25    4.26
  -2   8   7   25.10    4.12
  -2   8   7   28.39    4.23
  -6   8  -7   27.45    4.46
  -6  -2   7   20.50    2.99
   8  -2  -7   26.06    3.99
  -2  -6  -7   19.41    3.78
   8  -6   7   31.22    4.55
  -6  -2   7   27.06    4.05
   7   1  -7   38.71    4.97
   1   7   7   31.59    4.64
   7  -8   7   34.54    4.41
   1  -8  -7   30.56    4.76
  -8   1   7   33.19    2.67
  -8   7  -7   33.70    4.73
  -8   7  -7   34.31    4.51
  -1   8   7   38.08    4.87
  -7  -1   7   42.07    4.85
  -1  -7  -7   28.86    4.66
  -1   8   7   38.74    4.86
   8  -1  -7   46.14    5.10
  -7   8  -7   36.13    4.88
   8  -7   7   40.49    4.93
  -8   8  -7   28.12    4.56
  -8   0   7   25.56    2.81
   0  -8  -7   22.23    4.44
   8  -8   7   20.94    4.01
  -8   8  -7   21.46    4.06
  -8   0   7   14.97    3.43
   8   0  -7   28.80    4.54
   0   8   7   17.73    3.93
   0   9  -7    1.21    2.97
  -9   9   7    1.58    3.03
  -9   9   7    1.36    2.25
   0  -9   7    0.05    2.76
  -9   0  -7   -1.97    2.55
   9  -9  -7   -2.65    2.47
  -9   0  -7   -1.83    2.64
   9   0   7   -4.72    2.68
   1  -9   7    5.86    3.41
  -9   1  -7    8.24    3.47
  -9   1  -7    3.66    3.10
  -9   8   7    8.86    3.25
   8  -9  -7    5.45    3.02
  -9   8   7   10.17    2.46
   1   8  -7    9.93    3.44
   8   1   7    4.16    3.38
  -1  -8   7    5.98    3.20
  -8   9   7    9.54    3.57
   9  -1   7    5.10    3.62
  -8   9   7   10.32    2.80
   9  -8  -7    7.78    3.25
  -1   9  -7    5.75    3.05
  -8  -1  -7    4.95    3.14
  -8  -1  -7    6.09    3.13
   7   2   7    6.84    3.41
  -9   7   7    7.16    2.03
   2   7  -7    5.33    2.96
   7  -9  -7    3.72    3.03
  -9   7   7    8.41    3.32
  -9   2  -7    7.83    3.00
   2  -9   7    9.26    3.48
  -9   2  -7    3.88    2.70
   9  -7  -7    9.41    3.08
  -2   9  -7   13.39    3.80
  -7   9   7    6.94    3.32
  -2  -7   7    9.39    3.32
  -7  -2  -7    7.76    3.09
   9  -2   7    3.57    3.27
  -2  -7   7    7.87    3.08
  -7   9   7    3.84    2.35
  -9   3  -7   11.02    3.32
  -9   3  -7   15.58    3.61
   6   3   7    7.93    3.38
   3   6  -7   14.54    3.50
   6  -9  -7    8.40    3.55
   3  -9   7   13.54    3.59
  -9   6   7   11.96    1.78
  -9   6   7    8.13    3.16
  -6   9   7   10.87    2.89
   9  -6  -7    7.25    2.91
  -3   9  -7   11.17    3.49
   9  -3   7   11.02    3.73
  -6   9   7    7.56    2.94
  -3  -6   7   10.52    3.13
  -3  -6   7   12.18    3.31
  -6  -3  -7   18.59    3.60
   5  -9  -7   19.28    4.04
   4  -9   7   23.86    4.06
   4   5  -7   17.67    3.95
  -9   4  -7   13.49    3.75
   5   4   7   17.62    3.89
  -9   5   7   19.89    3.69
  -9   4  -7   28.32    4.09
  -4  -5   7   22.32    3.59
   9  -4   7   20.33    4.32
  -5   9   7   20.67    3.72
  -4  -5   7   15.57    3.62
  -5   9   7   17.96    3.89
  -4   9  -7   25.02    4.26
   9  -5  -7   20.90    3.68
   4   5   7   16.68    3.76
   4  -9  -7   12.77    3.49
  -9   5  -7   16.87    3.60
  -9   4   7   13.60    3.19
  -9   5  -7   14.56    3.79
   5   4  -7    8.08    3.11
  -5  -4   7   13.60    2.89
  -5   9  -7   18.72    3.91
  -4   9   7   12.33    3.35
   9  -4  -7   15.70    3.20
  -4   9   7   14.25    3.83
  -5  -4   7   12.81    3.42
   9  -5   7   15.37    3.81
   3  -9  -7   11.47    3.63
  -9   6  -7    7.43    3.26
   3   6   7   16.03    3.78
   6   3  -7   13.77    3.88
  -9   3   7   10.84    2.96
  -9   6  -7   15.00    3.45
  -3  -6  -7   12.42    3.43
  -6  -3   7   11.15    2.71
   9  -6   7    9.07    3.37
  -6  -3   7   11.20    3.22
   9  -3  -7    9.69    3.00
  -6   9  -7   11.11    3.57
  -3   9   7    5.23    2.90
  -3   9   7   14.14    3.77
  -9   2   7   25.93    2.20
   2  -9  -7   23.97    4.67
   2   7   7   20.36    4.11
  -9   7  -7   26.76    4.45
  -9   7  -7   27.38    4.27
  -9   2   7   30.68    4.24
   7   2  -7   22.24    4.33
  -7  -2   7   29.68    4.42
  -7   9  -7   23.86    4.38
   9  -2  -7   28.22    4.40
  -2   9   7   34.15    5.05
  -2   9   7   27.64    4.67
  -7  -2   7   27.20    3.40
   9  -7   7   28.01    4.62
  -2  -7  -7   40.10    5.18
  -9   8  -7   35.83    4.71
  -9   8  -7   31.77    4.93
  -9   1   7   35.78    3.02
   8  -9   7   32.06    4.74
   8   1  -7   39.83    5.42
  -9   1   7   43.45    5.06
   1   8   7   25.50    4.54
   1  -9  -7   25.62    4.78
  -8  -1   7   29.63    3.39
   9  -1  -7   26.47    4.54
   9  -8   7   31.22    4.80
  -8   9  -7   27.77    4.63
  -1  -8  -7   28.29    4.81
  -8  -1   7   30.78    4.45
  -1   9   7   27.34    4.66
  -9   0   7   19.44    2.77
   9   0  -7   24.87    4.65
   9  -9   7   28.25    4.65
   0   9   7   18.32    4.18
  -9   9  -7   26.05    4.69
   0  -9  -7   24.72    4.96
  -9   9  -7   19.95    4.09
   1 -10   7    5.50    3.53
 -10   1  -7    4.28    3.34
 -10   9   7    3.96    3.31
   1   9  -7    3.52    3.35
 -10   1  -7    7.48    3.68
   9 -10  -7    2.95    3.26
 -10   9   7    5.70    2.22
   9   1   7    6.51    3.53
  -1  -9   7    0.02    3.18
  -9  10   7    2.82    3.23
  -1  10  -7    5.18    3.43
  -9  -1  -7   -2.42    2.74
  -9  10   7    3.02    2.55
  10  -1   7   -1.76    3.28
   8 -10  -7   13.18    4.00
 -10   2  -7   12.07    3.94
   8   2   7   12.57    4.10
 -10   8   7    5.54    2.22
 -10   8   7   14.57    3.97
   2 -10   7    4.69    3.24
 -10   2  -7   13.39    3.92
   2   8  -7    9.62    3.45
  -2  -8   7   14.13    4.20
  -8  10   7    8.26    3.74
  -2  10  -7   11.89    3.76
  -8  10   7    8.84    3.18
  10  -2   7    3.69    3.16
  -8  -2  -7   11.27    3.83
 -10   7   7    6.32    3.20
   3   7  -7    2.49    3.11
   7   3   7   -0.83    2.99
   3 -10   7    5.27    3.16
   7 -10  -7    6.64    3.48
 -10   3  -7    5.20    3.24
 -10   7   7    5.82    1.80
 -10   3  -7    2.82    2.86
  -3  -7   7    5.08    3.13
  10  -3   7    6.61    3.86
  -7  10   7    1.39    2.95
  -3  -7   7   12.00    3.55
  -7  10   7    7.65    3.13
  -3  10  -7    4.94    3.26
 -10   4  -7   12.62    3.51
   6   4   7    5.54    3.11
   6 -10  -7   13.02    3.86
 -10   4  -7    5.96    3.22
   4 -10   7   14.29    3.76
 -10   6   7   11.92    3.47
   4   6  -7    5.12    3.23
  -4  -6   7   11.21    3.62
  10  -4   7   10.63    3.99
  -4  -6   7   10.84    3.17
  -4  10  -7    8.01    3.39
  -6  10   7   12.84    3.93
  -6  10   7   18.93    3.94
   5   5  -7    6.24    3.35
   5 -10  -7    7.65    3.69
 -10   5  -7   13.12    3.91
   5   5   7   11.41    3.70
 -10   5  -7   13.02    3.39
  -5  10   7   10.13    3.50
  -5  10   7    9.94    3.66
  -5  -5   7    8.34    2.90
  -5  10  -7   10.15    3.59
  10  -5   7   10.33    3.62
  -5  -5   7    7.17    3.03
 -10   6  -7    3.84    2.83
 -10   6  -7   11.13    3.63
   4   6   7    4.28    3.17
   6   4  -7    3.88    3.19
   4 -10  -7    3.09    2.85
  -4  10   7    5.47    3.36
  10  -6   7   -0.45    2.86
  -6  -4   7    8.30    2.99
  -4  10   7    8.17    3.51
  -6  10  -7    7.02    3.37
  -6  -4   7    3.91    2.83
   7   3  -7    8.84    3.61
   3 -10  -7    3.60    3.19
   3   7   7    9.02    3.40
 -10   7  -7    6.66    3.43
 -10   7  -7    7.89    3.20
  10  -7   7   17.80    4.26
  -7  10  -7    8.47    3.59
  -3  -7  -7   11.14    3.49
  -3  10   7   13.08    3.89
  -3  10   7   16.01    4.25
  -7  -3   7    5.05    3.04
  10  -3  -7   10.74    3.60
  -7  -3   7   11.67    3.02
   8   2  -7   13.22    4.10
 -10   8  -7   12.27    3.47
   2 -10  -7   13.20    4.18
   2   8   7    9.78    3.56
 -10   2   7    8.03    1.89
 -10   8  -7    8.69    3.63
  -2  10   7   14.62    4.18
  -8  10  -7    7.40    3.53
  10  -2  -7    8.47    3.61
  -2  -8  -7   20.68    4.52
  10  -8   7   16.07    4.11
  -8  -2   7   10.87    3.47
 -10   9  -7    9.30    3.37
   9   1  -7    4.94    3.29
   1   9   7   10.54    3.61
   9 -10   7    9.06    3.64
 -10   1   7   11.83    2.31
   1 -10  -7   12.54    4.36
 -10   9  -7    5.53    3.24
  10  -9   7   15.05    3.99
  -9  10  -7   13.53    3.90
  10  -1  -7   14.27    3.96
  -9  -1   7    9.00    2.65
  -1  10   7   14.17    3.98
  -1  -9  -7    7.28    3.73
 -11   4  -7    1.63    3.20
   4 -11   7    1.94    3.30
   7 -11  -7    1.33    3.30
   4   7  -7    0.97    3.18
 -11   7   7   -3.10    2.52
 -11   4  -7    2.68    2.88
   7   4   7    3.44    3.14
  -4  -7   7    1.67    2.90
  -7  11   7    3.15    3.38
  11  -4   7   -0.49    3.35
  -7  11   7    2.66    3.09
  -4  -7   7    3.60    3.20
  -4  11  -7    7.13    3.69
 -11   5  -7    5.07    3.34
   6   5   7   11.75    3.88
   5   6  -7    7.42    3.58
 -11   5  -7   12.74    3.85
   6 -11  -7    5.60    3.35
  -5  11  -7    9.11    3.66
  11  -5   7   10.96    4.12
  -5  -6   7    8.18    3.47
  -6  11   7   14.13    4.17
  -6  11   7   13.57    3.83
  -5  -6   7   11.87    3.49
   5   6   7    0.55    2.98
 -11   6  -7    9.28    3.53
 -11   6  -7    4.48    3.30
   5 -11  -7    2.20    3.66
   6   5  -7    9.33    3.87
  -5  11   7    9.60    3.94
  -6  -5   7    6.06    3.13
  -5  11   7   13.26    4.14
  -6  11  -7   13.12    3.85
  -6  -5   7   10.83    3.44
  11  -6   7   12.40    4.15
   4   7   7   20.43    4.37
   4 -11  -7    8.25    4.03
   7   4  -7    9.22    3.55
 -11   7  -7   11.57    3.75
 -11   7  -7   11.62    4.02
  -4  11   7    9.76    3.90
  -4  11   7   17.74    4.37
  -7  11  -7   11.53    3.86
  -7  -4   7    9.77    3.46
  -7  -4   7   11.87    3.29
  11  -7   7    8.28    3.91
   0   0   8    1.48    1.46
   0   0   8   -1.52    1.31
   0   0  -8   -1.78    1.18
   0   0   8   -1.93    1.35
  -1   0  -8   42.56    3.06
   1   0   8   39.37    3.41
   0   1  -8   37.48    3.48
   0  -1   8   47.69    3.92
   1   0   8   39.33    3.43
   1  -1  -8   37.93    2.78
  -1   1   8   44.33    3.94
   0  -1   8   40.62    2.84
   0  -1   8   30.81    3.07
  -1   1   8   40.39    2.83
  -1   1   8   38.77    3.27
   1   0   8   40.44    3.53
   0   1   8   -1.52    1.47
   1  -1   8    0.84    1.58
  -1   1  -8    1.85    1.63
   1  -1   8    1.06    1.49
  -1   0   8   -1.60    1.25
  -1   0   8    0.04    1.41
   0   1   8   -0.73    1.39
   1   0  -8   -0.93    1.40
   1  -1   8    1.40    1.58
   0   1   8    0.15    1.50
  -1   0   8    1.54    1.49
   0  -1  -8    0.73    1.30
   2   0   8   23.68    2.89
  -2   0  -8   20.98    2.78
   0  -2   8   19.65    2.70
   2   0   8   25.60    2.71
   0  -2   8   23.35    3.11
   0  -2   8   24.72    2.21
   0   2  -8   23.89    3.00
   2  -2  -8   26.99    2.52
  -2   2   8   22.94    2.81
  -2   2   8   23.16    2.53
  -2   2   8   24.05    3.21
   2   0   8   22.10    2.96
   1  -2   8   26.04    2.98
   1  -2   8   22.22    2.85
   1   1   8   25.23    3.16
  -2   1   8   29.46    2.85
   1  -2   8   31.42    2.67
  -2   1  -8   21.20    2.89
   1   1  -8   21.73    2.93
   1   1   8   23.67    2.91
  -2   1   8   30.13    3.38
  -2   1   8   30.26    2.73
   1  -2  -8   26.41    2.28
  -1  -1  -8   25.31    2.71
  -1   2   8   28.23    2.93
  -1   2   8   24.89    3.03
   2  -1   8   32.11    2.95
   2  -1   8   28.52    3.11
  -1   2   8   33.20    3.50
   2  -1   8   29.79    3.07
  -1   2  -8   25.31    3.02
  -1  -1  -8   27.06    2.94
  -1  -1   8   28.35    2.14
  -1  -1   8   26.64    3.25
  -1  -1   8   27.89    2.88
   2  -1  -8   29.99    2.90
   0  -2  -8    2.93    1.95
   2   0  -8   -0.48    1.52
   2  -2   8    0.35    1.48
   0   2   8    1.05    1.55
   2  -2   8    0.13    1.34
  -2   0   8    0.88    1.38
  -2   0   8   -0.93    1.52
   0   2   8    0.93    1.85
  -2   0   8   -0.56    1.13
   0  -2  -8    0.78    1.29
  -2   2  -8    0.61    1.53
   2  -2   8    0.70    1.45
  -3   0  -8   69.88    3.61
   3   0   8   74.72    4.45
   0  -3   8   71.61    4.24
  -3   3   8   87.54    4.84
  -3   0  -8   69.70    4.18
   3   0   8   79.03    4.57
  -3   3   8   75.06    4.50
  -3   0  -8   70.50    4.28
   0  -3   8   68.24    4.39
  -3   3   8   73.06    3.65
   0   3  -8   71.61    4.76
   1  -3   8   21.09    2.95
  -3   1  -8   26.60    3.29
  -3   2   8   20.54    3.10
   2   1   8   20.31    2.77
   1  -3   8   25.12    2.27
  -3   1  -8   24.52    3.09
   1   2  -8   23.49    3.29
  -3   2   8   21.64    2.34
   2  -3  -8   18.23    3.01
   2   1   8   21.90    3.05
  -3   2   8   22.57    2.84
   1  -3   8   23.60    3.03
   3  -2  -8   25.00    2.55
  -2  -1  -8   23.21    2.72
  -1  -2   8   25.66    2.96
  -1  -2   8   19.34    3.05
  -2   3   8   23.49    3.09
   3  -1   8   14.56    2.64
  -2   3   8   23.44    2.68
  -1   3  -8   23.33    3.31
   3  -1   8   26.02    2.53
   3  -1   8   22.62    3.13
  -2  -1  -8   20.49    2.67
   2   1  -8    5.84    2.00
  -3   2  -8    5.82    2.18
   1   2   8    6.61    2.29
   2  -3   8    2.91    1.69
  -3   2  -8    1.48    1.78
  -3   1   8    6.54    2.14
  -3   1   8    4.96    1.50
   1   2   8    9.34    2.31
   1  -3  -8    4.93    2.18
  -3   1   8    5.71    1.68
   2  -3   8    2.82    1.87
   2  -3   8    4.85    1.79
   3  -2   8    4.04    1.61
  -2  -1   8    6.31    1.81
   3  -2   8    6.08    2.19
  -1  -2  -8    8.93    1.75
  -1   3   8    3.77    1.98
   3  -1  -8    8.95    2.02
  -2  -1   8    6.58    2.38
  -1  -2  -8    5.31    1.97
   3  -2   8    4.81    2.17
  -2   3  -8    3.84    2.06
  -1   3   8    0.34    1.81
  -3   0   8   21.38    3.28
  -3   3  -8   19.83    3.03
   3  -3   8   18.63    2.90
  -3   0   8   23.80    2.51
   3  -3   8   20.61    2.80
   0   3   8   22.85    3.06
   0  -3  -8   21.88    3.21
   3   0  -8   22.18    3.08
   0   3   8   28.01    3.68
  -3   0   8   22.98    2.19
   3  -3   8   21.42    2.52
  -4   0  -8   30.18    3.61
  -4   4   8   33.03    3.75
   4   0   8   37.14    4.21
   0  -4   8   30.02    3.75
  -4   0  -8   28.88    3.52
  -4   4   8   29.24    2.76
   0   4  -8   32.36    3.95
   4  -4  -8   35.03    4.14
   0  -4   8   38.80    3.98
  -4   3   8   48.83    4.55
   1  -4   8   48.74    4.38
   1  -4   8   47.58    4.18
   3   1   8   49.03    4.35
  -4   1  -8   48.16    4.38
  -4   3   8   49.63    2.89
   1   3  -8   52.42    4.68
  -4   1  -8   55.24    4.66
  -4   3   8   43.17    3.93
   3  -4  -8   63.52    4.62
   3   1   8   54.36    4.72
  -3   4   8   56.41    3.47
   4  -3  -8   49.63    2.90
  -1   4  -8   57.53    5.02
  -1  -3   8   60.96    4.57
  -3  -1  -8   52.30    3.72
   4  -1   8   49.96    4.61
  -3  -1  -8   51.00    3.45
  -1  -3   8   42.32    3.80
  -3   4   8   55.79    4.22
   2  -4   8   13.60    2.61
   2   2  -8   13.93    3.02
   2  -4   8   11.50    2.47
  -4   2  -8   16.10    2.92
  -4   2   8   11.64    2.38
   2   2   8   14.29    2.73
   2  -4   8   12.05    2.05
   2  -4  -8   16.67    3.01
   2   2   8   13.83    2.94
  -4   2   8   14.01    2.77
  -4   2  -8    9.58    2.48
  -4   2   8   13.42    1.86
   4  -2   8   14.21    2.82
   4  -2  -8   12.73    2.21
  -2  -2   8   13.54    3.00
  -2  -2  -8   15.00    2.28
  -2   4   8   14.80    2.76
  -2   4   8   13.84    2.47
  -2  -2  -8   14.64    2.63
  -2   4  -8    8.62    2.43
  -2  -2   8   13.65    2.40
   3  -4   8    3.08    1.76
   3  -4   8    0.09    1.72
   3   1  -8    1.40    1.97
  -4   1   8    2.48    1.56
  -4   3  -8    0.64    1.87
  -4   1   8    3.23    2.14
   1   3   8    5.68    2.20
   1   3   8    1.95    2.32
   1  -4  -8    3.20    2.11
   3  -4   8    4.97    2.17
  -4   1   8    0.38    1.32
  -4   3  -8    1.30    1.93
   4  -3   8    6.81    1.74
  -1   4   8    4.04    2.28
  -3  -1   8    1.55    1.49
   4  -1  -8    3.69    1.86
   4  -3   8    7.15    2.40
  -1  -3  -8    1.79    1.95
  -3   4  -8    6.21    2.23
  -3  -1   8    3.83    2.21
  -1   4   8    5.37    2.06
   0   4   8   19.71    3.04
   4  -4   8   22.61    3.16
   0  -4  -8   24.18    3.32
  -4   4  -8   20.28    3.17
   4  -4   8   19.16    2.44
  -4   0   8   23.73    3.48
   0   4   8   15.83    3.34
  -4   0   8   19.97    2.34
   4   0  -8   21.01    3.15
  -4   4  -8   17.15    3.16
   5   0   8  134.75    6.93
  -5   0  -8  132.85    6.63
   0  -5   8  131.83    6.62
   0   5  -8  122.90    6.66
  -5   0  -8  126.36    6.20
   5  -5  -8  135.59    6.99
   0  -5   8  135.77    6.30
  -5   5   8  141.20    6.71
  -5   1  -8   63.05    4.60
  -5   1  -8   70.31    4.94
   1   4  -8   59.97    5.32
  -5   4   8   67.98    4.75
  -5   4   8   69.75    4.57
   4  -5  -8   56.90    5.13
   4   1   8   64.74    5.51
   1  -5   8   68.90    4.71
  -5   4   8   63.57    3.23
   1  -5   8   70.20    4.89
  -4   5   8   69.38    3.95
  -4   5   8   72.10    4.93
  -1  -4   8   56.65    4.20
   5  -4  -8   68.70    4.94
   5  -1   8   68.75    4.95
  -4  -1  -8   63.37    4.30
  -1   5  -8   63.28    5.58
  -1  -4   8   56.53    5.08
   2   3  -8   40.08    4.49
   3   2   8   42.37    4.52
  -5   3   8   47.70    4.15
   3  -5  -8   40.74    4.53
  -5   3   8   45.31    2.59
  -5   2  -8   38.66    4.09
  -5   3   8   52.18    4.75
   2  -5   8   47.83    4.38
  -5   2  -8   44.10    4.37
   2  -5   8   47.66    4.40
  -3  -2  -8   45.86    3.48
  -2  -3   8   41.39    3.76
  -2   5  -8   49.15    4.77
   5  -2   8   50.81    4.92
  -3  -2  -8   46.71    3.90
  -3   5   8   40.78    4.29
  -3   5   8   47.90    3.42
  -2  -3   8   41.96    4.58
   5  -3  -8   44.81    3.12
  -5   2   8   38.84    4.21
   3  -5   8   35.67    3.64
   3  -5   8   37.77    3.97
   3  -5   8   33.85    3.23
   2   3   8   39.13    4.39
   2   3   8   37.44    4.06
   2  -5  -8   33.99    4.20
  -5   2   8   34.84    2.32
   3   2  -8   37.37    4.29
  -5   3  -8   39.20    4.28
  -5   3  -8   38.20    4.04
  -5   2   8   39.15    3.42
  -3  -2   8   37.00    3.45
  -2  -3  -8   36.92    3.88
  -3  -2   8   41.59    4.46
   5  -2  -8   37.45    3.58
   5  -3   8   35.14    4.16
  -2   5   8   37.61    3.79
  -3   5  -8   29.99    3.88
  -2   5   8   38.84    4.24
   4  -5   8   24.76    3.26
   4   1  -8   10.96    2.91
  -5   4  -8   19.69    3.30
  -5   1   8   20.21    3.28
   4  -5   8   21.46    2.81
   1   4   8   17.37    3.42
  -5   4  -8   21.03    3.41
   1   4   8   15.34    3.04
   1  -5  -8   15.37    3.25
  -5   1   8   21.23    2.15
   5  -1  -8   22.96    3.22
  -1  -4  -8   24.74    3.53
   5  -4   8   21.92    3.46
  -4   5  -8   16.80    3.15
  -1   5   8   17.40    3.04
  -1   5   8   16.79    3.24
  -4  -1   8   21.46    3.50
  -4  -1   8   18.22    2.47
   0  -5  -8    3.08    2.42
  -5   0   8    3.81    1.53
   0   5   8   -1.28    1.87
   0   5   8    4.74    2.61
  -5   0   8   -0.04    1.87
   5   0  -8    2.08    2.02
   5  -5   8    3.28    2.31
  -5   5  -8    0.19    2.22
  -6   6   8   91.77    6.02
  -6   0  -8   78.79    5.70
  -6   6   8   92.16    4.25
  -6   0  -8   81.73    5.56
   6   0   8   71.45    6.30
   0  -6   8   72.10    6.29
   0  -6   8   84.39    5.48
   0   6  -8   90.85    6.05
   6  -6  -8   86.76    5.74
   5   1   8   94.23    6.05
   1  -6   8  103.23    5.90
   1   5  -8   75.71    5.47
   1  -6   8   90.46    5.60
  -6   1  -8   82.56    5.51
   5  -6  -8   75.79    5.45
  -6   5   8   84.73    5.47
  -6   1  -8   86.56    5.68
   6  -1   8   87.21    5.89
  -5   6   8   94.00    5.98
  -1   6  -8   83.29    5.68
   6  -5  -8   96.01    6.01
  -1  -5   8   90.02    5.80
  -5  -1  -8   91.85    5.43
  -5   6   8   90.94    4.52
  -1  -5   8   87.57    5.38
   2   4  -8   16.80    3.61
  -6   2  -8   20.15    3.37
   2  -6   8   16.57    3.30
   2  -6   8   24.44    3.59
  -6   4   8   25.32    3.55
  -6   4   8   23.74    3.62
  -6   2  -8   19.71    3.54
   4  -6  -8   17.72    3.40
  -6   4   8   17.06    2.01
   4   2   8   20.69    3.66
  -2  -4   8   19.21    3.53
  -4   6   8   23.47    3.61
   6  -2   8   19.66    3.84
  -4   6   8   16.13    2.67
  -2   6  -8   16.28    3.49
  -2  -4   8   22.43    3.36
  -4  -2  -8   23.09    3.28
  -6   3  -8   22.17    3.58
   3  -6   8   22.34    3.34
  -6   3   8   18.29    1.85
  -6   3   8   19.51    3.05
   3   3   8   23.10    3.77
  -6   3   8   23.22    3.48
   3  -6  -8   18.25    3.40
   3   3  -8   18.90    3.40
  -6   3  -8   15.59    3.40
  -3  -3   8   21.20    2.99
  -3  -3   8   18.44    3.39
  -3  -3  -8   21.28    3.15
  -3   6  -8   17.92    3.43
   6  -3  -8   20.97    2.97
   6  -3   8   15.82    3.36
  -3   6   8   18.41    2.94
  -3   6   8   16.12    3.46
  -6   2   8   16.98    1.91
  -6   4  -8   19.00    3.49
   2  -6  -8   19.58    3.62
   4   2  -8   12.79    3.28
  -6   4  -8   19.65    3.57
  -6   2   8   20.00    3.41
   2   4   8   13.56    3.33
   4  -6   8   17.12    2.94
  -4   6  -8   13.76    3.20
   6  -4   8   21.24    3.75
   6  -2  -8   22.69    3.21
  -2   6   8   20.56    3.65
  -2  -4  -8   22.27    3.36
  -2   6   8   18.13    3.20
  -4  -2   8   18.15    2.71
  -4  -2   8   13.98    3.07
  -6   5  -8    5.46    2.72
  -6   5  -8    9.46    2.95
  -6   1   8   10.04    2.82
  -6   1   8   10.70    1.83
   5  -6   8    7.12    2.60
   1   5   8   11.00    2.99
   1  -6  -8    8.66    2.91
   5   1  -8   11.87    2.95
   1   5   8   11.62    3.10
   6  -1  -8    8.19    2.74
  -1  -5  -8    8.06    2.84
  -1   6   8   11.09    2.95
  -5   6  -8   11.14    3.32
   6  -5   8   15.06    3.30
  -1   6   8    9.87    2.88
  -5  -1   8   13.54    3.05
  -5  -1   8   10.35    2.20
   0   6   8    3.15    2.48
   0  -6  -8    3.22    2.47
  -6   0   8    1.01    1.51
  -6   0   8    0.35    2.17
   6  -6   8    2.49    2.33
  -6   6  -8   -1.30    1.96
   6   0  -8    3.25    2.60
   0   6   8   -0.03    2.31
  -7   0  -8   87.29    6.11
  -7   7   8   71.64    4.15
   7  -7  -8   68.73    6.33
  -7   7   8   72.37    6.53
   7   0   8   76.50    7.03
   0   7  -8   68.75    6.55
   0  -7   8   76.58    5.68
   0  -7   8   64.47    6.31
  -7   0  -8   68.37    6.02
   6   1   8   74.44    6.67
  -7   6   8   57.05    3.33
   6  -7  -8   57.15    5.79
  -7   1  -8   66.07    5.78
   1   6  -8   55.91    5.76
  -7   1  -8   56.58    5.56
  -7   6   8   67.57    5.90
   1  -7   8   71.97    5.32
   1  -7   8   56.79    5.80
  -6   7   8   52.91    3.88
  -1   7  -8   63.98    6.08
   7  -1   8   63.52    6.31
  -6  -1  -8   61.97    5.50
  -6   7   8   61.44    5.93
  -1  -6   8   63.73    5.63
   7  -6  -8   67.86    6.01
  -1  -6   8   62.88    6.07
   2  -7   8   40.44    4.66
  -7   2  -8   33.51    4.43
   5   2   8   36.33    4.67
  -7   5   8   35.30    4.37
   2   5  -8   28.50    4.37
  -7   5   8   37.14    2.54
  -7   2  -8   34.01    4.59
   5  -7  -8   33.87    4.54
  -2  -5   8   33.83    3.96
  -5   7   8   23.05    4.07
   7  -2   8   37.59    5.13
  -5   7   8   28.75    3.46
  -2  -5   8   29.41    4.19
  -2   7  -8   33.42    4.63
   7  -5  -8   32.82    4.36
  -5  -2  -8   33.26    4.10
   3   4  -8   11.00    3.20
   4   3   8   10.41    3.38
  -7   3  -8   15.19    3.27
  -7   4   8   16.85    1.73
  -7   4   8   17.14    3.44
  -7   3  -8   14.65    3.51
   4  -7  -8    9.51    3.00
   3  -7   8   14.48    3.23
  -7   4   8   15.31    3.09
  -3  -4   8   12.77    3.25
   7  -3   8   12.79    3.43
  -3  -4   8   17.01    3.11
  -3   7  -8   19.47    3.64
  -4   7   8   13.79    3.41
  -7   4  -8   14.57    3.29
   3  -7  -8   25.18    4.08
   3   4   8   22.70    3.98
  -7   3   8   23.85    1.87
   4  -7   8   25.48    3.56
  -7   3   8   24.68    3.34
   4   3  -8   23.46    3.87
  -7   4  -8   25.99    4.07
  -7   3   8   22.03    3.68
  -3   7   8   22.51    3.92
  -4   7  -8   17.12    3.49
  -4  -3   8   19.59    3.12
   7  -3  -8   22.42    3.31
   7  -4   8   26.42    4.39
  -3   7   8   23.27    3.58
  -4  -3   8   19.95    3.82
  -3  -4  -8   25.71    3.71
   2   5   8    8.97    3.23
  -7   5  -8   11.08    3.02
  -7   5  -8    5.40    2.85
   2  -7  -8    9.43    3.32
  -7   2   8    8.48    2.70
  -7   2   8    6.44    1.48
   5   2  -8    9.61    3.06
   7  -5   8   10.36    3.21
  -2   7   8    5.54    2.72
  -2   7   8    3.43    2.53
  -5  -2   8    7.08    2.93
  -5  -2   8    7.86    2.21
  -5   7  -8    9.41    3.19
  -2  -5  -8    7.96    2.95
   7  -2  -8    4.90    2.31
   6   1  -8    7.66    3.03
   6  -7   8    5.08    2.68
  -7   1   8   11.55    3.00
  -7   6  -8    8.10    3.10
   1  -7  -8    4.71    2.93
  -7   6  -8    8.90    2.96
  -7   1   8    7.48    1.73
  -6  -1   8    7.66    2.08
  -1   7   8   10.21    3.21
  -6  -1   8   10.80    2.92
   7  -6   8    3.50    2.54
   7  -1  -8    7.98    2.92
  -6   7  -8    9.72    3.32
  -1   7   8    0.44    2.46
  -1  -6  -8    6.23    3.07
  -7   0   8    5.02    2.71
   7  -7   8   10.55    3.05
  -7   7  -8    4.87    2.92
  -7   0   8    5.13    1.83
   0   7   8   11.12    3.43
   0  -7  -8    9.45    3.21
   7   0  -8    2.40    2.70
  -8   8   8   15.65    2.90
  -8   8   8   29.47    4.83
   0  -8   8   16.75    4.12
   0   8  -8   24.47    4.66
  -8   0  -8   24.27    4.36
   8   0   8   22.68    4.61
   8  -8  -8   27.28    4.68
   1   7  -8   39.70    5.41
   7  -8  -8   41.12    5.34
   7   1   8   41.23    5.58
   1  -8   8   42.45    5.46
  -8   7   8   45.20    5.38
  -8   1  -8   43.36    5.34
  -8   1  -8   48.29    5.49
  -8   7   8   42.17    3.48
  -1  -7   8   46.09    5.22
  -7   8   8   50.72    5.90
  -7  -1  -8   51.32    5.57
  -1  -7   8   43.09    5.53
   8  -7  -8   52.35    5.68
   8  -1   8   50.90    5.97
  -1   8  -8   48.74    5.73
  -7   8   8   41.83    4.11
   2  -8   8   23.44    4.21
  -8   2  -8   28.17    4.64
   6  -8  -8   30.85    4.59
   6   2   8   27.19    4.44
  -8   6   8   31.38    4.42
  -8   6   8   31.35    2.64
  -8   2  -8   25.95    4.29
   2   6  -8   26.74    4.47
  -6  -2  -8   36.01    4.68
  -6   8   8   34.11    4.88
   8  -6  -8   36.09    4.81
   8  -2   8   28.94    4.87
  -2  -6   8   33.44    4.27
  -2  -6   8   36.10    4.85
  -2   8  -8   43.55    5.37
  -6   8   8   43.51    4.28
   5   3   8   31.35    4.69
  -8   5   8   28.14    2.02
   3   5  -8   28.48    4.40
   3  -8   8   19.61    3.73
  -8   3  -8   23.73    4.24
   5  -8  -8   27.42    4.60
  -8   5   8   32.14    4.28
  -8   3  -8   33.94    4.72
  -3  -5   8   31.93    4.03
  -3   8  -8   25.97    4.20
  -5   8   8   22.57    3.52
   8  -3   8   28.32    4.56
   8  -5  -8   29.06    4.25
  -5   8   8   31.99    4.68
  -3  -5   8   30.39    4.50
   4  -8   8   19.19    3.61
   4   4  -8    9.77    3.33
  -8   4  -8   16.04    3.73
  -8   4   8   14.44    3.22
   4   4   8   12.85    3.52
  -8   4  -8   16.66    3.68
  -8   4   8   15.47    3.32
   4  -8  -8   20.25    4.12
   8  -4   8   18.77    4.05
  -4   8   8   11.49    3.41
  -4  -4   8    8.76    2.81
  -4   8   8   17.32    3.51
  -4   8  -8   21.01    4.02
  -4  -4   8   16.15    3.63
   3  -8  -8   15.51    3.78
  -8   3   8   22.83    3.77
   5   3  -8   13.82    3.50
  -8   5  -8   18.07    3.91
  -8   5  -8   20.51    3.83
  -5  -3   8   12.18    3.15
  -3   8   8   12.69    3.51
  -3   8   8   14.08    3.45
  -5   8  -8   12.66    3.36
   8  -3  -8   13.89    3.26
  -5  -3   8   15.62    3.00
   8  -5   8   10.33    3.22
  -3  -5  -8   19.14    3.72
   2   6   8    3.30    2.65
  -8   6  -8   -1.23    2.44
   6   2  -8   -0.70    2.34
  -8   6  -8    1.26    2.43
  -8   2   8   -1.72    2.05
  -8   2   8    2.16    1.39
   2  -8  -8   -0.14    2.51
  -2   8   8    1.71    2.51
  -2  -6  -8    0.70    2.50
  -2   8   8    0.94    2.71
  -6   8  -8   -0.42    2.65
   8  -2  -8    0.97    2.33
  -6  -2   8    2.59    2.03
  -6  -2   8   -1.17    2.23
   8  -6   8    3.26    2.78
   7   1  -8    4.14    2.97
   1  -8  -8   -3.61    2.10
  -8   7  -8    3.31    2.81
  -8   7  -8   -1.90    2.54
  -8   1   8    1.25    1.60
  -8   1   8    4.03    2.56
   7  -8   8   -0.85    2.46
   1   7   8    1.97    2.38
  -7   8  -8    1.62    2.84
  -1   8   8    4.86    2.79
   8  -7   8    1.28    2.82
  -1  -7  -8    5.06    3.15
  -7  -1   8    0.71    1.78
   8  -1  -8    2.64    2.69
  -7  -1   8    2.26    2.54
  -8   0   8   -2.00    1.62
   0   8   8    0.29    2.65
   8  -8   8    2.07    2.72
  -8   8  -8   -0.46    2.74
   8   0  -8   -2.73    2.44
   0  -8  -8   -1.67    2.95
  -8   0   8    4.44    2.76
   9   0   8   10.59    4.01
  -9   9   8   12.82    2.99
  -9   9   8   12.55    3.84
   0  -9   8   11.94    3.87
   9  -9  -8   13.87    3.98
  -9   0  -8    8.83    3.53
   0   9  -8   15.47    4.18
  -9   8   8   14.99    4.00
  -9   1  -8    9.18    3.65
   8  -9  -8   12.37    3.89
   1  -9   8   22.38    4.61
   8   1   8    6.75    3.69
   1   8  -8    7.87    3.64
  -9   8   8   15.27    2.68
  -9   1  -8   16.30    4.18
  -8   9   8   11.80    3.92
  -8  -1  -8    3.86    3.19
   9  -1   8    8.03    4.02
  -1   9  -8   11.79    4.03
   9  -8  -8    7.18    3.39
  -1  -8   8   10.30    3.92
  -8   9   8   16.03    3.22
  -9   2  -8   17.08    4.08
   2   7  -8   14.19    3.94
  -9   2  -8   10.79    3.58
  -9   7   8   17.69    4.06
   7  -9  -8    9.76    3.68
  -9   7   8    9.54    2.20
   2  -9   8   13.48    3.75
   7   2   8    7.00    3.43
  -7   9   8    5.84    3.07
   9  -7  -8    9.06    3.54
   9  -2   8   16.52    4.28
  -2  -7   8   13.01    3.90
  -2   9  -8    7.78    3.44
  -7  -2  -8   15.64    3.59
  -7   9   8   12.21    2.90
  -2  -7   8   12.11    3.35
  -9   6   8   19.80    3.92
   3  -9   8   14.54    3.73
  -9   3  -8   15.20    3.88
  -9   6   8   13.40    1.92
   6   3   8   20.06    4.38
   6  -9  -8    8.22    3.34
   3   6  -8   12.78    3.64
  -9   3  -8   13.34    3.74
  -6   9   8   15.33    4.09
  -3  -6   8    7.04    2.95
  -3  -6   8   12.45    3.48
  -6   9   8   13.55    3.19
   9  -6  -8   13.62    3.68
  -3   9  -8   14.06    3.65
   9  -3   8   10.81    3.90
  -9   4  -8   26.27    4.35
  -9   4  -8   18.94    4.13
   5   4   8   23.53    4.24
   4  -9   8   24.60    4.14
   4   5  -8   21.44    4.34
  -9   5   8   31.94    4.46
   5  -9  -8   22.65    4.49
  -4  -5   8   18.97    4.02
   9  -4   8   23.43    4.60
  -5   9   8   18.20    4.00
   9  -5  -8   17.68    3.74
  -4   9  -8   23.35    4.37
  -5   9   8   19.20    3.79
  -4  -5   8   14.30    3.32
   4  -9  -8   12.96    3.56
   4   5   8   11.42    3.68
   5   4  -8    4.08    3.30
  -9   4   8    9.13    3.23
  -9   5  -8    7.37    3.27
  -9   5  -8    7.96    3.34
  -5  -4   8    9.08    2.76
  -4   9   8   15.14    3.46
  -5   9  -8    4.54    2.88
  -4   9   8    6.65    3.33
   9  -5   8    4.90    3.08
  -5  -4   8    7.36    3.31
   3   6   8    1.53    2.41
   6   3  -8   -0.16    2.74
  -9   3   8    1.44    2.47
  -9   6  -8   -2.92    2.55
  -9   6  -8    0.08    2.65
   3  -9  -8    0.14    2.86
  -6   9  -8    2.59    3.00
  -3   9   8   -0.28    2.54
   9  -6   8    3.56    3.17
  -6  -3   8    0.69    2.54
   9  -3  -8    0.46    2.48
  -3  -6  -8    1.93    2.78
  -3   9   8    0.66    2.83
  -6  -3   8    1.41    2.23
   2  -9  -8   -2.04    2.60
  -9   7  -8   -4.63    2.52
   7   2  -8   -0.99    2.74
  -9   2   8    0.46    1.42
  -9   2   8   -0.63    2.35
   2   7   8    0.71    2.53
  -9   7  -8   -1.55    2.56
  -2   9   8    3.40    3.10
  -7  -2   8    1.58    2.33
  -2  -7  -8   -2.67    2.63
  -7  -2   8    1.06    1.94
   9  -7   8    0.42    2.69
  -2   9   8   -0.92    2.42
   9  -2  -8   -1.80    2.34
  -7   9  -8    0.59    2.72
  -9   1   8    2.53    1.69
   1   8   8    3.99    3.00
  -9   1   8    2.94    2.91
   1  -9  -8    2.91    3.33
  -9   8  -8   -0.63    2.78
   8   1  -8    1.56    3.10
  -8  -1   8    3.37    2.23
  -1  -8  -8    1.58    3.00
  -8   9  -8    4.55    3.13
  -8  -1   8    3.65    2.95
   9  -8   8    0.91    3.06
   9  -1  -8    4.93    3.03
  -1   9   8    1.72    3.11
  -9   0   8    6.77    2.25
   0   9   8    1.63    3.00
  -9   9  -8    6.58    3.47
   0  -9  -8   11.07    3.88
   9   0  -8    0.76    3.17
   9  -9   8    2.67    3.24
  -9   0   8    4.37    2.99
 -10   8   8   13.43    2.59
 -10   2  -8   11.13    3.79
   2 -10   8   12.40    4.13
   2   8  -8    5.61    3.67
 -10   2  -8   14.24    3.91
 -10   8   8   21.83    4.55
   8   2   8   16.03    4.41
   8 -10  -8   11.21    4.13
  10  -2   8   16.61    4.76
  -8  10   8   15.15    3.53
  -2  10  -8   18.19    4.46
  -2  -8   8    5.28    3.48
  -8  10   8    7.08    3.72
 -10   7   8   11.48    3.62
 -10   3  -8    5.41    3.33
   3   7  -8    6.34    3.65
   7 -10  -8    9.65    3.91
   7   3   8    7.86    3.71
   3 -10   8    1.81    3.09
 -10   7   8    8.96    2.11
 -10   3  -8   10.02    3.79
  -7  10   8   10.05    3.15
  -3  10  -8    6.89    3.41
  -3  -7   8    6.81    3.40
  10  -3   8   14.18    4.31
  -3  -7   8   14.50    4.10
  -7  10   8    8.82    3.81
   6   4   8   14.65    4.11
   4 -10   8    7.78    3.43
 -10   4  -8    7.25    3.45
   4   6  -8    4.65    3.01
 -10   4  -8   10.19    3.43
   6 -10  -8    0.14    3.16
 -10   6   8   10.67    3.24
  10  -4   8   11.55    3.77
  -4  -6   8    9.70    3.17
  -4  10  -8    7.98    3.48
  -6  10   8   14.66    4.13
  -4  -6   8    6.51    3.36
  -6  10   8    9.89    3.33
 -10   5  -8    9.24    3.63
   5   5   8   12.49    3.95
   5 -10  -8   12.73    4.10
 -10   5  -8    7.23    3.35
   5   5  -8    8.09    3.61
  -5  10   8    8.99    3.79
  -5  -5   8   10.84    3.15
  -5  10   8   14.65    3.86
  10  -5   8    5.94    3.72
  -5  10  -8   12.61    3.93
  -5  -5   8    8.38    3.40
 -10   6  -8    1.48    3.04
   6   4  -8    2.08    3.05
 -10   6  -8   -1.69    2.79
   4   6   8    3.25    3.31
  10  -6   8    1.11    3.10
  -6  -4   8   -4.31    2.09
  -6  10  -8   -0.02    2.83
  -6  -4   8    4.09    2.55
  -4  10   8   -0.80    2.49
  -4  10   8    2.88    3.10
 -10   7  -8    0.42    2.82
   3   7   8    3.00    3.26
   7   3  -8   -2.72    2.89
   3 -10  -8    1.89    3.02
 -10   7  -8    2.87    3.17
  -7  -3   8   -0.22    2.18
  -7  10  -8    1.09    2.98
  -3  10   8    1.03    2.78
  10  -7   8   -0.42    2.92
  -3  10   8    5.46    3.18
  10  -3  -8   -4.83    2.30
  -7  -3   8    0.02    2.36
   2 -10  -8    5.65    3.72
 -10   8  -8   -0.15    2.99
 -10   2   8    2.35    1.52
   8   2  -8   -1.29    2.82
   2   8   8    3.13    3.22
  -2  10   8   -5.60    2.57
  10  -2  -8    0.39    2.94
  -8  -2   8    0.01    2.20
  -2  -8  -8    6.13    3.45
  -8  -2   8    2.30    3.06
  10  -8   8   -0.86    3.06
  -8  10  -8   -1.04    2.86
   0   0   9    6.76    1.98
   0   0   9    9.56    2.28
   0   0   9   10.35    2.27
  -1   1   9   61.54    3.69
   0  -1   9   64.12    3.87
  -1   1   9   56.49    3.73
   1   0   9   57.36    3.75
   1  -1  -9   56.50    3.44
   0  -1   9   61.90    4.26
  -1   1   9   54.51    4.15
   1   0   9   51.66    3.74
   0   1  -9   62.26    4.06
   0  -1   9   59.34    3.47
   1   0   9   68.44    4.08
  -1   0  -9   64.82    3.89
   0   1   9   25.19    3.18
  -1   0   9   27.08    2.95
   1   0  -9   26.56    3.08
   1  -1   9   29.44    3.23
  -1   1  -9   24.23    3.07
   1  -1   9   25.03    2.92
  -1   0   9   31.25    2.97
   0  -1  -9   28.17    2.86
   0   1   9   26.61    3.19
   1  -1   9   25.97    3.12
   0   1   9   27.88    3.28
  -1   0   9   23.27    3.28
  -2   2   9   92.50    4.63
   2   0   9   83.73    4.28
   0   2  -9   91.50    5.06
   0  -2   9   82.30    4.91
   2  -2  -9   91.65    3.95
   2   0   9   92.44    4.99
   2   0   9   85.93    4.83
  -2   2   9   94.87    4.43
  -2   2   9   81.29    5.03
   0  -2   9   84.76    4.58
  -2   0  -9   90.58    4.66
   1  -2   9  131.79    4.87
   1   1   9  122.74    5.67
  -2   1   9  131.05    5.11
   1   1   9  135.92    5.95
  -2   1   9  125.64    5.11
  -2   1   9  128.31    5.97
   1  -2   9  124.79    5.61
  -2   1  -9  123.28    5.58
   1   1  -9  128.55    5.81
   1  -2  -9  130.01    4.63
   1  -2   9  128.67    5.73
  -1  -1   9  134.02    6.07
   2  -1   9  133.99    5.77
  -1   2   9  125.74    5.77
  -1   2   9  131.09    5.50
  -1  -1   9  133.31    5.38
  -1  -1  -9  130.66    5.17
  -1  -1  -9  127.41    5.54
  -1   2   9  130.18    5.87
  -1   2  -9  123.37    5.85
   2  -1   9  121.55    5.14
   2  -1   9  122.45    5.41
   2  -1  -9  128.20    5.14
  -1  -1   9  130.61    4.45
  -2   0   9    8.60    1.86
  -2   0   9   15.15    2.34
   0  -2  -9   10.76    2.07
   2   0  -9   17.09    2.78
  -2   0   9   12.61    2.63
   0   2   9   13.95    2.84
   2  -2   9   10.64    2.34
   2  -2   9   15.22    2.75
   0   2   9    8.96    2.30
   0  -2  -9   11.72    2.63
   2  -2   9   10.22    2.27
  -2   2  -9   10.55    2.45
  -3   0  -9   33.17    3.60
  -3   0  -9   30.70    3.15
  -3   3   9   29.46    3.53
  -3   3   9   33.61    3.18
   0  -3   9   39.31    3.94
  -3   3   9   25.86    3.56
   3   0   9   33.22    3.92
   0  -3   9   30.51    3.73
   3   0   9   30.21    3.71
   0   3  -9   31.68    3.92
   2   1   9  104.87    5.68
   2  -3  -9  113.41    5.97
  -3   2   9  109.88    5.75
   1  -3   9  113.81    5.47
   2   1   9  115.55    5.60
   1  -3   9  107.35    5.45
   1   2  -9  107.40    5.75
  -3   2   9  110.79    5.10
  -3   1  -9  100.34    5.15
  -3   2   9  114.95    4.60
  -2   3   9  100.39    5.23
   3  -1   9   98.64    4.46
   3  -2  -9   99.40    4.42
  -1  -2   9  105.50    5.04
   3  -1   9  105.35    5.38
   3  -1   9  110.77    5.51
  -2  -1  -9  106.24    4.83
  -1  -2   9  108.64    5.79
  -2  -1  -9  104.10    4.97
  -2   3   9  102.41    4.81
  -1   3  -9   99.93    5.50
   1   2   9  100.24    5.77
  -3   2  -9  108.08    5.64
  -3   1   9  107.62    5.72
   2  -3   9  113.86    4.75
   1   2   9  106.26    5.45
   2  -3   9  108.10    5.19
  -3   1   9  109.84    4.64
   2  -3   9  111.73    5.44
   2   1  -9  106.87    5.47
  -3   1   9  111.20    4.48
   1  -3  -9   98.46    5.43
   3  -1  -9  119.38    5.18
   3  -2   9  112.02    4.72
  -1   3   9  104.57    5.49
   3  -2   9  116.40    5.36
   3  -2   9  111.04    5.46
  -2  -1   9  114.67    5.87
  -1  -2  -9  115.45    4.68
  -2  -1   9  111.36    4.96
  -1   3   9  109.45    5.22
  -2   3  -9  115.67    5.86
  -1  -2  -9  105.56    5.29
   3  -3   9   31.94    3.68
  -3   0   9   26.13    2.84
   3  -3   9   26.44    3.05
   3  -3   9   26.33    3.20
   3   0  -9   37.24    3.79
   0   3   9   29.66    3.74
   0  -3  -9   28.69    3.62
  -3   3  -9   29.98    3.83
   0   3   9   23.91    3.27
  -3   0   9   26.67    3.66
   4  -4  -9    1.95    2.21
  -4   0  -9    2.02    2.16
   0   4  -9    1.24    2.39
   4   0   9    4.79    2.50
   0  -4   9    4.29    2.29
   0  -4   9    3.37    2.38
  -4   4   9    1.78    1.62
  -4   4   9    5.76    2.44
   1  -4   9   34.86    4.02
  -4   1  -9   37.64    4.14
   3   1   9   35.81    4.18
  -4   3   9   44.95    2.99
   3   1   9   39.45    4.22
   1  -4   9   31.99    3.89
  -4   3   9   36.65    4.25
  -4   3   9   40.72    4.00
   1   3  -9   36.32    4.44
   3  -4  -9   41.06    4.44
  -3   4   9   28.81    3.70
  -1  -3   9   27.65    3.87
  -1   4  -9   30.14    4.03
   4  -1   9   25.02    3.72
  -3   4   9   33.40    3.40
  -3  -1  -9   38.69    3.74
  -3  -1  -9   34.50    3.39
  -1  -3   9   30.81    3.66
   2  -4   9   53.75    4.02
  -4   2   9   47.92    3.14
  -4   2  -9   52.77    4.73
  -4   2   9   46.36    3.87
   2   2   9   46.18    4.67
   2  -4  -9   51.87    4.87
   2   2   9   54.66    4.86
   2   2  -9   44.49    4.58
  -4   2   9   41.19    4.43
   2  -4   9   51.81    4.61
   4  -2   9   51.74    4.68
  -2  -2  -9   47.42    3.82
  -2   4   9   52.33    4.35
  -2  -2   9   43.95    3.87
  -2  -2   9   42.13    4.55
  -2   4  -9   43.39    4.57
  -2   4   9   40.73    4.27
  -2  -2  -9   49.62    4.24
   4  -2  -9   44.98    3.78
   3  -4   9   58.96    3.98
   3  -4   9   65.47    3.98
   1  -4  -9   57.15    5.09
  -4   1   9   61.45    5.33
   3   1  -9   61.86    4.37
   3  -4   9   61.83    4.42
  -4   3  -9   55.58    5.19
  -4   1   9   64.15    3.42
   1   3   9   61.96    5.39
  -1   4   9   62.78    4.77
   4  -1  -9   56.91    4.05
  -3  -1   9   64.02    3.86
  -1   4   9   58.47    4.29
   4  -3   9   61.10    4.41
  -1  -3  -9   64.25    4.47
  -3  -1   9   64.33    4.86
  -3   4  -9   62.80    4.72
   0  -4  -9   14.24    2.96
   4   0  -9   12.18    2.76
  -4   0   9   11.74    2.18
  -4   0   9    8.36    2.74
  -4   4  -9   12.77    3.21
   4  -4   9   14.01    2.86
   0   4   9   11.29    2.75
   0   4   9   20.06    3.48
   0  -5   9   11.98    3.22
  -5   0  -9    7.65    2.82
  -5   5   9    9.34    2.22
   0   5  -9    7.15    3.12
   0  -5   9    7.90    2.71
   5   0   9    3.54    2.71
  -5   5   9   11.32    3.04
   5  -5  -9    6.38    2.69
   4   1   9    6.84    2.82
  -5   4   9   11.41    2.08
   1   4  -9   14.90    3.46
   1  -5   9   10.44    2.91
  -5   4   9   13.50    2.83
  -5   1  -9   11.51    2.89
   4  -5  -9    8.25    2.85
  -5   4   9   19.51    3.53
   1  -5   9   16.06    3.02
   5  -4  -9   15.73    3.14
  -1  -4   9   19.05    3.35
  -1  -4   9    9.71    2.86
  -4   5   9   17.99    3.27
   5  -1   9   12.34    3.04
  -1   5  -9    6.93    2.89
  -4   5   9   11.28    2.47
  -4  -1  -9   13.45    2.82
  -5   3   9   39.77    2.75
   2   3  -9   41.44    4.69
   2  -5   9   44.13    4.48
   2  -5   9   38.64    4.21
   3  -5  -9   33.20    4.37
   3   2   9   43.48    4.79
  -5   3   9   41.31    4.67
  -5   2  -9   36.40    4.40
  -5   3   9   44.66    4.17
  -3  -2  -9   40.53    3.95
  -2  -3   9   43.38    4.00
  -3  -2  -9   42.16    3.84
  -2   5  -9   32.31    4.32
   5  -2   9   37.06    4.44
  -3   5   9   34.50    3.66
  -2  -3   9   41.73    4.72
  -3   5   9   39.30    4.45
   3   2  -9   46.13    4.73
   2   3   9   45.80    5.11
  -5   2   9   48.25    2.94
   2   3   9   43.99    4.60
   2  -5  -9   31.93    4.20
   3  -5   9   44.34    4.18
  -5   3  -9   46.60    4.91
  -5   2   9   51.98    5.02
  -2  -3  -9   55.43    4.67
  -2   5   9   48.23    4.49
  -2   5   9   39.74    4.63
  -3  -2   9   49.07    4.91
   5  -3   9   46.13    4.84
  -3   5  -9   45.70    4.73
   5  -2  -9   41.91    3.94
  -3  -2   9   44.41    3.95
  -5   4  -9   29.68    4.10
  -5   1   9   21.03    3.55
  -5   1   9   29.74    2.71
   4  -5   9   33.27    3.68
   1  -5  -9   27.17    3.93
   4   1  -9   29.28    3.98
   1   4   9   23.91    4.08
   1   4   9   27.40    3.83
  -1   5   9   41.89    4.82
   5  -1  -9   38.98    4.12
  -1  -4  -9   31.32    4.03
   5  -4   9   38.51    4.38
  -4  -1   9   37.63    3.45
  -1   5   9   34.81    4.04
  -4  -1   9   40.11    4.51
  -4   5  -9   24.85    3.85
  -5   5  -9    8.31    2.90
  -5   0   9    7.68    2.82
   0  -5  -9    2.95    2.19
   0   5   9    9.00    2.89
   5   0  -9    7.15    2.74
   0   5   9    8.31    2.94
  -5   0   9    6.23    1.90
   5  -5   9    5.38    2.50
   6  -6  -9    2.07    2.43
  -6   6   9    4.77    1.97
   0  -6   9    3.55    2.85
  -6   6   9    4.89    2.80
  -6   0  -9    2.16    2.70
   0   6  -9    1.37    2.61
   6   0   9    7.48    3.19
   0  -6   9    8.87    3.07
  -6   1  -9    7.92    2.89
  -6   5   9    9.77    2.95
  -6   5   9    6.81    2.01
   5   1   9   10.10    3.08
   1   5  -9    9.29    3.11
   1  -6   9   11.68    3.16
   1  -6   9   10.43    3.27
   5  -6  -9   10.89    3.15
  -5  -1  -9    6.60    2.55
  -5   6   9    3.82    2.62
   6  -1   9    5.57    2.86
  -5   6   9    8.19    2.31
  -1   6  -9    8.49    2.85
  -1  -5   9   10.11    3.04
  -1  -5   9    8.09    2.74
   6  -5  -9    5.77    2.83
  -6   4   9   15.99    2.17
   4  -6  -9   24.17    4.01
   2   4  -9   14.81    3.42
   4   2   9   20.16    3.68
   2  -6   9   15.02    3.31
  -6   4   9   18.04    3.57
  -6   2  -9   15.64    3.42
  -6   4   9   16.50    3.17
   2  -6   9   13.26    3.07
  -4   6   9   22.58    3.76
   6  -2   9   23.21    4.15
  -2   6  -9   23.27    3.81
  -4   6   9   13.92    2.80
  -4  -2  -9   23.78    3.42
  -2  -4   9   24.96    3.95
  -2  -4   9   16.08    3.04
  -6   3  -9   23.47    3.72
   3   3  -9   23.93    3.79
   3   3   9   23.59    3.99
   3  -6   9   22.59    3.52
  -6   3   9   22.36    3.65
  -6   3   9   24.66    3.33
   3  -6  -9   23.44    4.11
  -6   3   9   22.90    2.35
  -3   6  -9   20.42    3.67
  -3   6   9   19.74    3.87
   6  -3   9   23.06    4.08
  -3  -3   9   19.45    3.05
  -3  -3   9   21.67    3.65
  -3   6   9   24.98    3.34
  -3  -3  -9   18.40    3.16
  -6   4  -9   30.60    4.41
   4   2  -9   18.80    3.70
   2  -6  -9   17.84    3.69
   4  -6   9   20.81    3.28
  -6   2   9   23.43    3.82
  -6   2   9   24.43    2.41
   2   4   9   20.91    3.79
  -2   6   9   25.79    4.02
   6  -4   9   24.92    3.98
  -2   6   9   23.57    3.59
   6  -2  -9   22.12    3.30
  -2  -4  -9   31.91    4.03
  -4   6  -9   19.74    3.69
  -4  -2   9   22.22    3.06
  -4  -2   9   22.13    3.78
   1   5   9    3.51    2.56
  -6   5  -9    2.64    2.68
  -6   1   9    0.62    1.97
   1  -6  -9   -3.55    1.83
   1   5   9    0.59    2.42
   5   1  -9    2.52    2.48
   5  -6   9    0.58    2.24
  -6   1   9   -0.47    1.39
  -1  -5  -9   -0.57    2.14
  -5  -1   9    2.40    1.74
   6  -1  -9    5.62    2.53
  -5  -1   9    2.33    2.22
  -5   6  -9   -0.39    2.38
   6  -5   9    2.12    2.58
  -1   6   9    1.53    2.36
  -1   6   9    0.34    2.04
   0   6   9   -0.57    2.36
   0  -6  -9   -1.42    2.22
   6   0  -9    2.65    2.39
   6  -6   9   -1.26    2.34
  -6   0   9   -1.73    1.99
  -6   6  -9   -1.08    2.13
   0   6   9    1.21    2.42
  -6   0   9    3.15    1.76
   0  -7   9    1.82    2.55
   0   7  -9   -2.56    2.13
  -7   7   9   -1.82    1.63
  -7   0  -9   -0.22    2.61
   7  -7  -9    1.10    2.51
   7   0   9    0.71    2.91
   0  -7   9    1.44    2.79
  -7   7   9    4.34    2.76
  -7   6   9    3.98    1.78
  -7   1  -9    1.59    2.59
   6  -7  -9    2.54    2.78
   1  -7   9   -1.05    2.40
  -7   6   9    0.57    2.62
   1   6  -9   -3.21    2.31
   6   1   9   -2.03    2.60
  -6   7   9    3.18    2.08
   7  -1   9    2.26    2.90
  -1  -6   9    6.11    3.04
   7  -6  -9    1.66    2.49
  -1  -6   9    3.97    2.62
  -6   7   9    0.48    2.62
  -6  -1  -9    2.62    2.44
  -1   7  -9    2.37    2.77
  -7   5   9   21.42    2.41
  -7   2  -9   17.07    3.87
   5   2   9   18.03    3.68
   2  -7   9   15.59    3.45
   5  -7  -9   21.52    3.99
  -7   5   9   12.45    3.21
   2   5  -9   21.08    4.04
  -5   7   9   17.72    3.76
   7  -5  -9   18.43    3.84
  -5   7   9   19.76    3.23
  -2  -5   9   22.51    4.12
  -2   7  -9   18.82    4.00
  -2  -5   9   17.83    3.48
   7  -2   9   17.09    3.83
   3   4  -9   23.74    4.15
  -7   3  -9   18.88    3.69
   3  -7   9   16.87    3.42
  -7   4   9   27.79    3.75
   4  -7  -9   17.48    3.67
   4   3   9   14.35    3.54
  -7   4   9   21.45    2.15
  -7   4   9   23.32    4.06
  -3   7  -9   14.79    3.43
  -4   7   9   17.89    3.80
  -3  -4   9   22.57    4.07
  -4   7   9   24.21    3.57
  -3  -4   9   16.31    3.24
   7  -3   9   25.33    4.40
   3   4   9   13.09    3.49
   4  -7   9   14.85    3.08
  -7   3   9   13.71    1.80
  -7   3   9   15.66    3.33
  -7   4  -9   12.62    3.59
   3  -7  -9   23.33    4.10
   4   3  -9   12.04    3.56
  -3   7   9   12.80    3.46
  -3   7   9   16.55    3.24
  -4  -3   9   16.21    3.59
  -4  -3   9   15.37    2.96
  -4   7  -9   11.50    3.28
  -3  -4  -9   16.97    3.45
   7  -4   9   11.85    3.49
   5   2  -9    1.93    2.65
  -7   2   9    5.02    1.64
   2   5   9    9.81    3.35
  -7   2   9    6.26    2.63
   2  -7  -9   11.46    3.39
  -7   5  -9    2.95    2.85
  -5  -2   9    5.08    2.12
  -5  -2   9    2.24    2.56
  -2   7   9    1.20    2.59
   7  -5   9    6.00    2.92
  -2  -5  -9    7.11    3.01
  -5   7  -9    6.61    3.09
   7  -2  -9   11.46    2.99
  -2   7   9    7.72    2.96
  -7   6  -9    0.18    2.46
   1   6   9   -3.68    2.44
   6   1  -9   -2.64    2.34
  -7   1   9    1.17    1.50
  -7   1   9    2.24    2.50
   1  -7  -9   -0.46    2.13
  -6   7  -9    2.22    2.79
   7  -6   9   -2.08    2.29
  -1  -6  -9    0.48    2.48
  -6  -1   9   -2.40    2.24
   7  -1  -9   -0.15    2.12
  -1   7   9   -3.51    1.83
  -1   7   9   -1.88    2.28
  -6  -1   9    1.13    1.80
   0  -7  -9   -2.36    2.58
   7   0  -9    0.40    2.58
   7  -7   9    1.56    2.72
  -7   0   9    2.62    1.81
  -7   0   9    0.52    2.38
   0   7   9    3.36    2.99
  -7   7  -9   -1.28    2.62
  -8   0  -9    4.81    3.06
  -8   8   9   10.10    3.66
   8  -8  -9    7.91    3.25
  -8   8   9    0.25    2.04
   0   8  -9    3.08    3.19
   0  -8   9    4.89    3.11
   8   0   9    3.56    3.31
   1  -8   9    6.93    3.29
  -8   7   9    2.43    2.82
  -8   7   9    6.22    2.13
   1   7  -9    7.05    3.23
   7  -8  -9   -0.21    2.62
   7   1   9    3.64    3.13
  -8   1  -9    8.38    3.37
  -7   8   9    0.75    2.92
  -1   8  -9    6.60    3.25
  -1  -7   9   10.52    3.69
   8  -7  -9    4.56    3.01
  -7  -1  -9    3.39    3.00
  -7   8   9    7.87    2.54
   8  -1   9    4.72    3.44
  -1  -7   9    5.59    3.16
  -8   2  -9    7.39    3.35
  -8   6   9    5.46    1.76
   6   2   9    6.25    3.59
   2  -8   9   -2.23    2.31
   2   6  -9    4.40    2.99
  -8   6   9    4.47    2.96
   6  -8  -9    4.00    2.89
   8  -2   9   -0.25    2.97
  -2  -6   9    3.33    2.58
  -2   8  -9    3.26    3.01
  -2  -6   9    9.14    3.03
  -6   8   9    9.69    2.70
  -6   8   9    5.14    3.20
   8  -6  -9    6.08    3.21
   3  -8   9    6.32    2.73
   3   5  -9    2.18    2.72
  -8   5   9    5.42    2.89
   5  -8  -9    6.00    2.92
  -8   3  -9    4.43    2.67
   5   3   9    6.68    3.13
  -8   5   9    9.11    1.76
   8  -3   9   -2.40    2.69
  -3  -5   9    1.85    2.80
  -5   8   9    4.19    2.61
  -5   8   9    1.39    2.41
  -3  -5   9    6.49    2.89
  -3   8  -9    8.15    3.24
   8  -5  -9    5.67    2.77
  -8   4  -9   16.33    3.83
   4  -8  -9   20.54    4.15
   4   4   9   14.88    3.91
   4  -8   9   19.04    3.64
  -8   4   9   15.41    1.82
  -8   4   9   13.03    3.47
   4   4  -9    7.59    3.47
  -4   8  -9   18.41    3.97
  -4  -4   9   20.15    3.30
   8  -4   9   15.54    3.92
  -4   8   9   17.18    3.30
  -4   8   9   11.88    3.44
  -4  -4   9   11.67    3.34
  -8   3   9   14.29    3.53
   5   3  -9    6.23    3.21
  -8   3   9   16.21    1.91
   3   5   9   19.37    4.12
   3  -8  -9   12.56    3.81
  -8   5  -9   10.42    3.54
  -5  -3   9   17.21    3.78
  -5   8  -9   13.43    3.62
  -3   8   9    8.81    3.26
   8  -5   9   12.54    3.68
  -5  -3   9   11.08    2.80
  -3   8   9   12.74    3.69
   6   2  -9    7.69    3.34
   2   6   9    7.24    3.38
  -8   6  -9    7.94    3.02
  -8   2   9    4.69    1.57
  -8   2   9    4.78    2.81
   2  -8  -9    1.10    2.68
  -6  -2   9    3.94    2.82
   8  -6   9    6.13    3.36
  -2   8   9    6.98    3.21
  -2   8   9    3.88    3.03
  -6  -2   9    3.14    2.22
  -2  -6  -9    3.18    2.84
   8  -2  -9    3.16    2.61
  -6   8  -9    6.80    3.40
  -8   7  -9    1.12    2.76
   7   1  -9   -2.03    2.69
  -8   1   9    1.19    1.73
   1   7   9    0.89    2.64
   1  -8  -9    2.03    2.95
  -8   1   9    1.49    2.32
  -7  -1   9    3.12    2.08
  -1   8   9   -3.31    2.05
   8  -1  -9   -0.25    2.51
   8  -7   9    3.28    2.92
  -7   8  -9    1.88    2.71
  -7  -1   9   -1.59    2.29
  -1  -7  -9   -4.44    2.52
  -8   0   9    0.71    1.83
   0   8   9    0.91    2.83
   8  -8   9   -1.01    2.54
   0  -8  -9    2.77    3.13
   8   0  -9   -1.04    2.70
  -8   8  -9   -0.12    2.86
  -8   0   9   -1.88    2.46
  -9   1  -9    2.00    2.86
   8  -9  -9   -4.18    2.56
   1   8  -9    0.70    2.78
   1  -9   9    4.74    3.45
  -9   8   9    2.48    2.19
  -9   8   9    1.35    3.03
   8   1   9    0.39    2.98
   9  -1   9    5.32    3.43
   9  -8  -9   -0.66    2.75
  -8  -1  -9    1.27    3.04
  -8   9   9   -0.89    2.93
  -8   9   9    1.38    2.36
  -1  -8   9    3.95    3.22
  -1   9  -9    4.08    3.37
  -9   7   9    1.72    2.75
   7  -9  -9   -0.89    2.85
   2  -9   9   -1.26    2.34
  -9   2  -9    5.19    3.32
   2   7  -9    5.02    3.38
   7   2   9   -0.74    3.21
  -9   7   9    1.47    1.73
  -2   9  -9    6.39    3.45
  -7   9   9   -2.63    2.56
  -2  -7   9    1.97    2.94
   9  -2   9    0.90    3.32
  -7   9   9    3.26    2.60
  -2  -7   9    4.08    2.90
   9  -7  -9    0.98    2.86
  -9   6   9    4.39    2.92
   6   3   9    6.33    3.53
   3  -9   9    3.39    3.06
   3   6  -9    0.78    2.78
   6  -9  -9    0.85    2.96
  -9   3  -9   -1.25    2.54
  -9   6   9    2.25    1.46
  -3   9  -9    3.05    2.91
   9  -3   9    0.30    3.01
  -6   9   9   -2.54    2.32
  -6   9   9    0.48    2.52
  -3  -6   9    3.28    2.90
  -3  -6   9   -1.18    2.55
   9  -6  -9   -1.26    2.71
  -9   5   9    2.53    1.24
   4   5  -9    1.93    3.02
   5  -9  -9    2.43    3.19
  -9   4  -9    1.95    2.82
   5   4   9   -0.26    2.68
   4  -9   9   -0.36    2.56
  -4   9  -9    3.21    3.09
  -5   9   9    4.92    2.59
  -4  -5   9    1.58    2.54
   9  -5  -9    0.11    2.62
  -5   9   9    5.31    3.17
  -4  -5   9    3.45    2.76
   9  -4   9    6.58    3.60
  -9   4   9    6.74    2.95
  -9   5  -9   10.77    3.80
   5   4  -9    7.22    3.45
   4   5   9    0.91    2.96
   4  -9  -9    6.75    3.46
  -4   9   9    6.80    3.10
  -5  -4   9    4.36    2.40
  -5   9  -9    6.16    3.42
  -4   9   9    4.29    3.16
   9  -5   9    2.78    3.30
  -9   3   9    2.62    2.90
   3  -9  -9   -0.20    2.74
   6   3  -9    1.73    3.17
   3   6   9    4.31    2.76
  -9   6  -9    0.50    2.58
  -9   3   9    1.05    1.26
   9  -6   9    2.05    3.08
  -6  -3   9    5.84    2.65
  -6  -3   9    3.43    2.87
  -3   9   9    3.01    3.13
  -3   9   9   -1.57    2.71
  -6   9  -9    2.03    2.67
  -9   7  -9    0.20    2.86
  -9   2   9    3.56    1.54
   7   2  -9    2.01    3.05
  -9   2   9   -1.67    2.35
   2   7   9    5.53    3.26
   2  -9  -9    1.56    2.80
   9  -7   9    0.32    2.94
  -7   9  -9   -1.23    2.82
  -2   9   9   -1.71    2.70
   9  -2  -9    8.05    3.27
  -2  -7  -9    5.58    3.38
  -7  -2   9    0.66    2.37
  -7  -2   9    7.38    2.93
  -9   1   9    2.12    1.74
   8   1  -9   -0.68    3.06
  -9   1   9    0.76    2.58
  -9   8  -9   -1.69    2.88
   1  -9  -9   -1.47    2.96
   1   8   9    5.14    3.38
   9  -8   9   -1.42    2.54
  -8  -1   9    1.35    2.82
   9  -1  -9    0.83    3.12
  -8  -1   9    1.19    2.12
  -8   9  -9    1.00    3.06
  -1  -8  -9    2.10    3.33
  -1   9   9    2.02    3.13
 -10   4  -9    0.25    2.86
   4   6  -9    0.63    2.79
   6 -10  -9    8.46    3.71
   6   4   9    5.74    3.36
  -4  10  -9   -0.43    2.95
  10  -4   9    3.24    3.61
  -6  10   9    2.37    3.33
  10  -6  -9    2.63    3.01
  -4  -6   9    6.28    3.39
  -6  10   9    8.69    3.42
  -4  -6   9    6.81    2.96
   5 -10  -9    6.66    3.65
   5   5  -9    4.32    3.08
   5   5   9    1.98    3.34
 -10   5  -9   -0.79    2.68
  10  -5   9    4.77    3.60
  -5  10   9    4.85    3.36
  -5  -5   9    7.09    3.37
  -5  -5   9   10.97    3.32
  -5  10   9    4.71    3.10
  -5  10  -9    9.18    3.54
   4 -10  -9   -0.02    2.77
 -10   6  -9    6.83    3.56
   4   6   9   -0.75    2.93
   6   4  -9    2.86    3.16
  -6  10  -9    1.06    2.96
  -4  10   9   10.71    3.63
  -6  -4   9    3.71    3.05
  10  -6   9    6.60    3.38
  -4  10   9    5.97    3.47
  -6  -4   9    5.37    3.13
   0   0 -10   -0.27    1.65
   0   0  10   -0.02    1.74
   0   0  10   -1.70    1.61
   0   0  10   -2.31    1.55
  -1   1  10   35.69    4.05
   1  -1 -10   46.97    3.45
   0  -1  10   45.27    3.35
  -1   1  10   47.59    4.00
  -1   1  10   48.48    4.09
   1   0  10   47.97    4.26
  -1   0 -10   48.32    3.65
   1   0  10   46.33    4.21
   0   1 -10   47.63    4.35
   1   0  10   44.93    4.10
   0  -1  10   42.80    4.28
   0  -1  10   43.26    4.04
   1  -1  10   35.59    3.73
  -1   0  10   36.96    3.38
   0   1  10   34.12    3.73
  -1   1 -10   34.32    3.75
  -1   0  10   36.61    3.68
  -1   0  10   28.71    3.60
   0   1  10   33.87    3.73
   0   1  10   40.72    4.10
   1  -1  10   33.62    3.67
   1  -1  10   31.71    3.32
   1   0 -10   38.69    3.85
   0  -1 -10   36.79    3.48
  -2   0 -10    4.46    1.92
  -2   2  10    2.90    2.16
   0  -2  10    4.59    2.32
  -2   2  10    1.64    1.88
   0  -2  10    1.25    1.92
   2   0  10    3.45    2.37
  -2   2  10    1.67    1.85
   0   2 -10    1.04    2.11
   2   0  10    4.97    1.98
   2   0  10    5.19    2.40
  -2   0 -10    9.08    2.44
   1   1  10   13.12    2.91
   1   1 -10   10.68    2.72
   1  -2  10   19.02    3.07
  -2   1  10   11.67    2.83
  -2   1  10   15.84    2.59
   1  -2 -10   11.95    2.78
   1  -2  10   15.13    2.86
  -2   1  10   13.91    2.44
   1   1  10   12.93    2.76
  -2   1 -10   16.47    2.99
   1  -2  10   17.28    2.49
  -1  -1  10   12.82    2.63
  -1   2 -10   12.27    2.81
  -1   2  10   12.37    2.66
  -1  -1 -10   15.19    2.77
  -1   2  10   15.08    2.93
   2  -1  10   14.01    2.90
  -1   2  10   11.43    2.77
   2  -1  10    7.09    2.28
   2  -1 -10   20.90    2.87
   2  -1  10   13.67    2.68
  -1  -1  10    6.84    2.43
  -1  -1 -10   13.06    2.54
   0  -2 -10   67.56    4.86
  -2   2 -10   88.45    5.24
   0   2  10   98.13    5.37
   2   0 -10   83.90    4.87
   2  -2  10   84.20    5.05
  -2   0  10   88.56    4.52
   2  -2  10   84.27    4.70
  -2   0  10   80.62    5.24
   0   2  10   79.93    5.09
   2  -2  10   88.96    4.49
   3  -3 -10    2.47    2.17
  -3   3  10   -0.65    1.63
   0   3 -10    4.64    2.50
   3   0  10   -0.54    1.82
   3   0  10   -2.48    1.86
   0  -3  10   -0.47    1.93
  -3   3  10    1.48    2.22
  -3   3  10   -1.28    1.84
  -3   0 -10   -0.35    1.65
   0  -3  10   -0.57    2.02
  -3   0 -10   -1.77    1.83
   2  -3 -10    8.00    2.76
  -3   2  10    5.40    1.92
   2   1  10   13.63    3.06
  -3   2  10    5.58    2.16
   1  -3  10   10.89    2.72
  -3   2  10    7.14    2.68
   1   2 -10    7.22    2.73
   2   1  10   10.31    2.74
  -3   1 -10    9.70    2.70
   1  -3  10   10.12    2.68
   3  -1  10    5.99    2.44
   3  -1  10    6.94    2.04
  -1  -2  10    3.53    2.30
  -2   3  10    5.24    2.24
  -2   3  10    7.91    2.47
  -2  -1 -10   12.27    2.61
  -2  -1 -10    6.60    2.19
   3  -1  10    1.91    2.23
  -1  -2  10    5.03    2.28
  -1   3 -10    5.19    2.41
   1   2  10   29.15    3.91
   2   1 -10   33.57    4.04
  -3   1  10   27.38    3.16
   2  -3  10   29.47    3.55
   1   2  10   31.15    3.86
   1  -3 -10   25.89    3.70
   2  -3  10   31.06    3.81
  -3   2 -10   29.64    3.91
  -3   1  10   23.93    3.66
  -1   3  10   31.84    3.92
  -2  -1  10   31.25    3.45
  -1  -2 -10   25.73    3.48
   3  -1 -10   38.59    3.82
   3  -2  10   24.00    3.35
  -2  -1  10   30.71    3.98
  -2   3 -10   27.11    3.73
   3  -2  10   30.46    3.29
  -1   3  10   27.21    3.47
   3  -2  10   38.52    4.19
   3  -3  10   52.11    4.34
   3  -3  10   48.62    4.67
   0   3  10   51.09    5.00
   3  -3  10   48.48    4.10
  -3   3 -10   49.55    4.77
   3   0 -10   45.49    4.39
  -3   0  10   52.13    3.59
  -3   0  10   49.25    5.02
   0  -3 -10   48.11    4.66
   0   3  10   46.64    4.57
   0  -4  10    0.85    2.32
  -4   0 -10   -0.49    2.09
   4  -4 -10    4.62    2.61
  -4   4  10    4.12    1.89
   4   0  10    7.20    2.82
   0  -4  10    2.22    2.35
   0   4 -10    2.56    2.38
  -4   4  10    1.53    2.16
  -4   3  10    0.26    2.11
  -4   1 -10   -0.31    2.02
   3   1  10   -2.39    2.15
   1  -4  10    1.46    2.29
   3  -4 -10    0.45    2.25
  -4   3  10    1.73    1.69
  -4   3  10    0.61    2.03
   1   3 -10    1.00    2.19
   1  -4  10    1.88    2.04
  -1  -3  10    3.18    2.44
  -3   4  10    4.07    2.09
  -3  -1 -10    2.11    2.01
   4  -1  10   -0.42    2.15
  -3  -1 -10   -2.61    1.81
  -1   4 -10    2.87    2.48
  -1  -3  10    0.54    1.84
  -3   4  10   -1.09    2.01
  -4   2  10    0.51    1.92
   2  -4  10    2.52    2.04
   2   2  10    3.87    2.52
  -4   2  10    3.44    1.71
   2   2  10    3.80    2.61
   2   2 -10    3.65    2.46
  -4   2 -10   -1.13    2.08
  -4   2  10    5.52    2.57
   2  -4 -10    2.25    2.46
   2  -4  10    4.33    2.42
   4  -2 -10   -0.28    1.80
  -2   4  10    1.29    2.11
  -2  -2  10    2.96    2.03
  -2  -2 -10    3.27    2.27
  -2   4  10    5.38    2.38
  -2   4 -10    0.02    2.24
  -2  -2  10    1.00    2.03
   4  -2  10    3.53    2.38
   1  -4 -10   16.83    3.38
   1   3  10   12.68    2.95
   3  -4  10    9.28    2.50
  -4   3 -10   13.70    3.14
  -4   1  10   11.42    2.21
  -4   1  10   16.81    3.45
   3   1 -10   13.36    3.08
   1   3  10   19.52    3.61
  -3   4 -10   16.29    3.41
  -1   4  10   19.92    3.58
  -3  -1  10   14.83    3.34
   4  -1 -10   18.28    3.06
   4  -3  10   17.91    3.17
  -1  -3 -10   16.92    3.16
  -3  -1  10   17.97    2.79
  -1   4  10   20.69    3.32
   0   4  10   11.19    2.84
  -4   0  10   12.69    2.36
   0   4  10   10.75    3.09
   0  -4 -10   13.56    3.06
   4   0 -10   12.93    3.08
  -4   0  10   11.77    3.20
   4  -4  10   23.00    3.36
  -4   4 -10   11.54    3.26
  -5   5  10   -2.28    1.69
   0   5 -10   -1.93    2.39
   5   0  10   -0.05    2.50
  -5   0 -10    0.85    2.31
   5  -5 -10    3.75    2.65
   0  -5  10    1.88    2.29
   0  -5  10    1.17    2.39
  -5   5  10    0.90    2.33
  -5   4  10    7.60    2.89
   1  -5  10    4.09    2.65
   4   1  10    4.64    2.79
   1  -5  10    5.32    2.63
  -5   4  10    8.18    2.14
  -5   1 -10    5.81    2.60
   1   4 -10    5.13    2.68
   4  -5 -10    8.20    3.18
   5  -1  10   10.11    3.25
  -1  -4  10    7.87    2.92
   5  -4 -10    6.98    2.86
  -4   5  10    4.67    2.49
  -4  -1 -10    3.87    2.45
  -4   5  10    1.63    2.09
  -1  -4  10    5.77    2.69
  -1   5 -10    7.30    2.88
  -5   2 -10   10.65    3.03
  -5   3  10    9.27    2.85
   2  -5  10    9.69    2.90
   3  -5 -10    7.68    2.80
   2  -5  10    7.67    2.64
  -5   3  10   11.58    2.16
  -5   3  10   11.75    2.80
   2   3 -10    7.48    2.91
   3   2  10    9.81    3.03
   5  -2  10   11.79    3.26
  -2   5 -10    6.57    2.81
  -3   5  10    9.69    2.53
  -3   5  10    7.98    2.90
  -2  -3  10    6.77    2.85
  -2  -3  10    9.75    2.76
   3  -5  10   26.56    3.72
  -5   3 -10   25.98    4.11
   2  -5 -10   19.27    3.72
  -5   2  10   21.04    3.78
   3   2 -10   25.66    4.09
  -5   2  10   25.19    2.77
   2   3  10   28.48    4.32
  -3  -2  10   23.85    3.25
   5  -3  10   33.77    4.22
  -2   5  10   22.49    3.44
   5  -2 -10   28.62    3.44
  -3  -2  10   24.85    3.93
  -3   5 -10   29.65    4.30
  -2   5  10   28.37    4.04
  -2  -3 -10   20.11    3.27
  -5   4 -10   25.61    4.12
   1   4  10   25.73    4.22
   1   4  10   38.83    4.55
  -5   1  10   26.20    3.98
   1  -5 -10   22.94    4.05
   4   1 -10   22.03    3.69
   5  -1 -10   33.68    4.05
  -1   5  10   33.20    4.20
   5  -4  10   29.31    4.02
  -4  -1  10   34.56    4.62
  -4  -1  10   31.89    3.52
  -1  -4 -10   32.70    4.23
  -1   5  10   36.75    4.82
  -4   5 -10   28.39    4.17
   0   5  10   49.21    5.07
   0  -5 -10   48.80    5.05
   5   0 -10   45.84    4.89
  -5   5 -10   42.03    5.19
  -5   0  10   47.96    5.27
  -5   0  10   48.26    3.57
   5  -5  10   58.21    5.31
   0   5  10   49.99    5.55
  -6   6  10   -0.32    1.80
   0  -6  10   -1.24    2.27
   0  -6  10    0.75    2.57
   0   6 -10   -0.09    2.37
   6   0  10   -0.21    2.47
  -6   6  10    2.52    2.68
   6  -6 -10   -1.62    1.93
  -6   0 -10    2.70    2.62
   5   1  10    6.45    3.11
   1  -6  10    7.63    2.94
   1   5 -10    8.08    3.18
   1  -6  10   10.60    3.22
  -6   1 -10    3.43    2.60
   5  -6 -10    2.69    2.89
  -6   5  10    6.51    2.06
  -6   5  10    9.80    3.18
  -5   6  10    9.08    2.46
   6  -1  10   11.08    3.24
   6  -5 -10    9.36    3.35
  -1   6 -10    7.14    3.29
  -5   6  10    1.84    2.42
  -5  -1 -10   10.75    3.17
  -1  -5  10   12.88    3.31
  -1  -5  10    4.01    2.88
   2   4 -10   14.03    3.69
   4  -6 -10    8.14    3.21
  -6   4  10    3.87    2.56
  -6   2 -10    8.27    3.04
  -6   4  10    5.43    2.93
   2  -6  10    7.27    2.80
  -6   4  10    6.12    1.92
   4   2  10    5.83    2.81
   6  -4 -10    5.69    2.81
   6  -2  10   14.35    3.58
  -4   6  10   12.30    3.21
  -2  -4  10   13.69    2.96
  -2   6 -10    5.75    2.97
  -4   6  10   10.74    2.72
  -2  -4  10    7.21    2.75
   3  -6  10   14.03    3.14
  -6   3 -10   14.06    3.24
   3   3 -10   18.88    3.73
  -6   3  10   18.94    2.38
   3  -6 -10   12.93    3.38
  -6   3  10   11.74    3.34
  -3   6  10   12.47    3.12
  -3   6 -10   14.59    3.51
   6  -3  10   15.97    3.76
  -3  -3  10    8.35    3.18
  -3   6  10   15.90    3.66
  -3  -3  10   17.23    3.10
  -6   2  10   25.34    2.72
   2   4  10   24.51    4.33
  -6   4 -10   18.09    3.80
  -6   2  10   25.80    4.09
   2  -6 -10   29.45    4.55
   4   2 -10   28.89    4.26
  -4  -2  10   17.46    2.93
   6  -4  10   21.38    3.88
   6  -2 -10   20.04    3.29
  -2   6  10   19.52    3.53
  -2  -4 -10   26.36    4.08
  -4   6 -10   18.61    3.90
  -4  -2  10   18.13    3.64
  -2   6  10   26.40    4.15
   1   5  10   53.06    5.85
   5   1 -10   44.59    5.21
  -6   5 -10   50.78    5.59
  -6   1  10   45.64    3.28
   1  -6 -10   50.09    5.46
  -6   1  10   44.69    5.10
  -1  -5 -10   55.01    5.53
   6  -1 -10   56.40    5.33
  -5   6 -10   42.39    5.33
  -5  -1  10   45.28    3.91
  -1   6  10   52.04    5.25
   6  -5  10   61.82    5.66
  -5  -1  10   54.50    5.62
  -1   6  10   55.52    5.80
   6   0 -10   47.82    5.24
  -6   6 -10   39.62    5.36
   0   6  10   40.32    5.03
  -6   0  10   42.89    3.65
   0  -6 -10   46.21    5.43
   6  -6  10   45.34    5.11
  -6   0  10   49.25    5.41
   0   6  10   42.88    5.29
   0  -7  10    3.52    2.83
   7  -7 -10    2.73    2.69
  -7   7  10   -0.13    1.88
   0  -7  10   -0.24    2.61
   0   7 -10    1.60    2.72
  -7   0 -10    2.94    3.01
   7   0  10    3.32    3.03
  -7   7  10    2.99    2.91
  -7   1 -10    1.62    2.56
  -7   6  10   -2.28    2.33
   1   6 -10    2.60    2.85
   6   1  10   -1.36    2.76
   1  -7  10    5.37    3.13
  -7   6  10    3.20    1.94
   6  -7 -10   -4.16    2.24
   7  -6 -10    1.25    2.73
  -1  -6  10   -0.39    2.60
  -6   7  10    2.15    2.12
  -1  -6  10   -1.43    2.53
   7  -1  10    2.41    3.17
  -6  -1 -10    3.72    2.76
  -1   7 -10    3.61    3.07
  -6   7  10    4.44    2.94
   2   5 -10   11.40    3.66
   2  -7  10   13.62    3.48
  -7   5  10   15.10    3.36
   5  -7 -10    8.23    3.46
  -7   2 -10   18.92    3.93
   5   2  10   13.43    3.54
  -7   5  10    8.58    2.09
  -5   7  10   17.01    3.14
  -2  -5  10   17.68    3.48
  -2  -5  10    9.14    3.22
  -5   7  10   15.58    3.69
   7  -2  10   21.99    4.42
  -2   7 -10   11.55    3.64
   7  -5 -10   14.77    3.79
   4  -7 -10   12.08    3.34
   3  -7  10   17.00    3.56
   3   4 -10   16.59    3.79
  -7   4  10   12.30    3.33
  -7   4  10   14.23    2.13
  -7   3 -10    9.87    3.34
   4   3  10   15.04    3.54
  -4   7  10   17.37    3.43
  -3  -4  10   12.60    3.64
   7  -3  10   16.55    3.91
  -3  -4  10   14.03    3.14
  -4   7  10   16.59    3.73
  -3   7 -10   12.61    3.61
   3  -7 -10   29.40    4.75
  -7   3  10   23.92    2.54
   3   4  10   27.27    4.54
  -7   3  10   24.90    4.27
  -7   4 -10   23.87    4.24
   4   3 -10   26.32    4.44
   7  -4  10   36.50    5.04
  -3   7  10   29.96    4.43
  -4   7 -10   22.40    4.35
  -4  -3  10   15.93    3.20
  -4  -3  10   19.79    4.02
  -3   7  10   23.68    3.90
  -7   5 -10   30.19    4.69
   5   2 -10   47.84    5.54
   2   5  10   43.94    5.43
   2  -7 -10   40.98    5.23
  -7   2  10   41.11    5.14
  -7   2  10   50.69    3.07
  -2  -5 -10   43.86    4.96
  -2   7  10   38.41    4.84
  -2   7  10   39.26    5.19
   7  -5  10   39.53    5.19
  -5  -2  10   38.28    4.12
  -5  -2  10   45.96    5.36
  -5   7 -10   35.79    5.07
   7  -2 -10   47.98    4.93
   1   6  10   48.99    5.88
  -7   1  10   39.84    5.13
   6   1 -10   43.85    5.47
   1  -7 -10   50.39    5.82
  -7   6 -10   46.98    5.61
  -7   1  10   42.58    3.58
   7  -6  10   40.21    5.19
  -1  -6 -10   42.84    5.26
  -6  -1  10   41.84    3.90
   7  -1 -10   54.23    5.34
  -6   7 -10   36.94    5.35
  -1   7  10   53.64    6.07
  -1   7  10   50.53    5.62
  -6  -1  10   55.75    6.03
  -7   0  10   26.03    4.26
  -7   7 -10   23.81    4.61
   7   0 -10   22.94    4.28
   0  -7 -10   21.15    4.33
  -7   0  10   31.54    3.32
   0   7  10   31.91    5.01
   8   0  10    1.97    3.31
  -8   8  10    0.20    2.12
   0   8 -10   -1.61    2.87
  -8   0 -10    3.37    3.09
   0  -8  10    0.79    3.05
  -8   8  10   -2.46    2.58
   8  -8 -10    2.06    3.48
  -8   7  10    1.26    1.86
   1   7 -10    3.39    3.44
   7   1  10    1.74    3.19
   7  -8 -10    0.68    3.15
   1  -8  10    2.73    2.89
  -8   7  10    5.59    3.13
  -8   1 -10    2.32    2.87
  -7   8  10    0.85    2.28
  -1  -7  10    2.03    2.73
   8  -1  10   -0.66    3.20
   8  -7 -10    1.77    3.06
  -7   8  10   -3.83    2.40
  -1  -7  10   -0.02    2.96
  -1   8 -10    2.37    3.32
   6  -8 -10   -4.04    2.47
   2  -8  10    1.76    2.77
  -8   6  10   -4.85    2.23
  -8   6  10   -0.03    1.61
   2   6 -10   -0.89    2.73
   6   2  10   -3.60    2.68
  -8   2 -10   -0.46    2.34
  -6   8  10    4.04    2.84
  -2   8 -10   -0.55    2.86
  -2  -6  10   -1.59    2.60
   8  -2  10    2.30    3.12
   8  -6 -10    3.91    3.03
  -2  -6  10    3.21    2.92
   3  -8  10   10.70    3.42
   3   5 -10    6.73    3.44
   5   3  10   11.89    3.65
  -8   3 -10    3.91    3.21
   5  -8 -10    9.89    3.70
  -8   5  10    9.42    2.01
  -3   8 -10    8.13    3.34
  -5   8  10   17.73    3.97
   8  -3  10    3.30    3.27
   8  -5 -10   12.09    3.54
  -3  -5  10    8.42    3.09
  -3  -5  10    9.04    3.59
  -5   8  10    9.38    2.99
  -8   4  10    4.73    2.89
  -8   4 -10   13.48    3.87
  -8   4  10    7.73    1.70
   4  -8 -10    6.01    3.25
   4   4  10    3.50    3.26
   4   4 -10    6.59    3.35
  -4  -4  10    4.30    2.73
  -4  -4  10   10.73    3.41
   8  -4  10   18.29    4.32
  -4   8  10   13.69    3.84
  -4   8 -10    6.77    3.14
  -4   8  10    9.18    3.07
   3  -8 -10   22.79    4.67
   3   5  10   20.42    4.52
  -8   5 -10   22.57    4.47
  -8   3  10   22.34    2.33
  -8   3  10   23.84    4.28
   5   3 -10   15.84    3.97
  -5   8 -10   13.97    3.95
  -5  -3  10   17.70    3.91
  -3   8  10   23.60    4.54
  -3   8  10   21.32    4.05
  -5  -3  10   13.41    3.02
   8  -5  10   19.85    4.47
  -8   6 -10   23.75    4.60
   2  -8 -10   30.61    4.98
   2   6  10   19.02    4.18
  -8   2  10   27.10    2.73
  -8   2  10   26.21    4.44
   6   2 -10   28.02    4.71
  -6  -2  10   16.81    3.14
  -2   8  10   16.98    4.23
  -6   8 -10   23.93    4.75
  -2   8  10   27.63    4.69
  -6  -2  10   19.30    4.04
   8  -6  10   24.48    4.54
  -2  -6 -10   24.39    4.46
  -8   1  10   32.77    3.21
   1  -8 -10   31.59    5.02
   1   7  10   34.69    5.24
  -8   7 -10   26.43    4.82
   7   1 -10   30.93    5.02
  -8   1  10   28.52    4.69
   8  -1 -10   31.94    4.80
  -7  -1  10   32.50    4.88
  -7   8 -10   26.70    4.82
  -1  -7 -10   28.52    4.78
  -7  -1  10   35.40    3.82
  -1   8  10   37.75    5.34
   8  -7  10   30.31    4.89
   8   0 -10   30.22    4.90
  -8   8 -10   23.33    4.53
   0  -8 -10   31.88    5.27
  -8   0  10   26.70    4.64
  -8   0  10   28.21    3.29
   0   8  10   30.37    5.21
  -9   7  10   -0.65    1.84
   7   2  10   -1.02    3.11
   2   7 -10   -4.29    2.75
  -9   7  10    2.52    3.33
   7  -9 -10    6.57    3.42
  -9   2 -10    1.75    2.97
   2  -9  10   -0.99    2.96
  -2  -7  10    1.49    3.07
  -2  -7  10    1.16    2.66
   9  -7 -10   -1.77    2.69
   9  -2  10    0.15    3.32
  -7   9  10    4.90    2.70
  -7   9  10   -0.73    2.94
  -2   9 -10    1.86    3.28
  -9   6  10    1.11    1.54
   3   6 -10    1.58    2.81
   6  -9 -10   -3.01    2.43
   6   3  10   -0.62    3.06
   3  -9  10    7.03    3.17
  -9   3 -10    3.71    3.05
   9  -6 -10    3.04    2.93
  -3  -6  10    1.08    2.70
  -3   9 -10   -1.06    2.55
   9  -3  10   -4.01    2.77
  -6   9  10    2.45    2.50
  -3  -6  10    2.31    3.06
  -6   9  10   -1.66    2.82
   5   4  10    6.34    3.34
   5  -9 -10    2.23    3.14
  -9   5  10    5.76    1.71
   4   5 -10    8.14    3.69
  -9   4 -10    4.18    3.34
   9  -4  10    0.25    2.81
  -5   9  10    2.36    2.72
  -5   9  10    5.78    3.39
  -4   9 -10    3.34    3.07
  -4  -5  10    2.41    2.85
   9  -5 -10    6.12    3.29
  -4  -5  10    1.16    2.57
  -9   4  10    9.31    3.24
  -9   4  10    8.02    1.53
   4   5  10    9.55    3.70
   5   4 -10    7.70    3.54
   4  -9 -10    4.92    3.37
  -9   5 -10   12.57    4.07
  -5  -4  10    1.80    3.02
  -4   9  10    5.80    3.10
  -5   9 -10    2.76    3.17
   9  -5  10    4.75    3.57
  -5  -4  10    5.47    2.74
  -4   9  10    7.76    3.47
   6   3 -10   11.68    4.02
   3  -9 -10    8.27    3.66
  -9   3  10   12.44    1.90
  -9   6 -10   14.69    4.02
   3   6  10   14.36    4.21
  -9   3  10   21.43    4.23
  -3   9  10   14.51    4.35
  -6  -3  10   14.97    3.76
  -6  -3  10    8.41    2.93
  -6   9 -10    7.55    3.62
  -3   9  10   10.81    3.67
   9  -6  10    4.91    3.47
   7   2 -10    6.51    3.50
  -9   2  10   11.27    3.65
  -9   7 -10    4.81    3.18
   2  -9 -10   13.32    4.15
  -9   2  10    8.17    1.96
   2   7  10   11.07    3.85
  -2   9  10   11.54    4.13
   9  -7  10   16.96    4.39
  -7   9 -10    8.99    3.92
  -7  -2  10    9.73    3.48
  -7  -2  10    4.31    2.47
  -2  -7 -10    8.11    3.64
   0   0  11    0.09    1.93
   0   0  11   -3.71    1.59
   0   0 -11   -0.39    1.68
   0   0  11    3.68    2.30
  -1   0 -11    6.60    2.53
   1   0  11    3.40    2.27
  -1   1  11    6.22    2.67
   0  -1  11    8.50    2.47
   0  -1  11    4.51    2.37
  -1   1  11    6.45    2.42
  -1   1  11    4.12    2.23
   1   0  11    9.00    2.70
   0   1 -11    8.23    2.61
   1  -1 -11    9.46    2.38
   1   0  11    4.99    2.29
  -1   0  11   22.90    3.48
  -1   1 -11   15.19    2.90
   0   1  11   18.06    3.26
   0   1  11   16.62    3.05
   0  -1 -11   25.01    3.08
   1  -1  11   25.84    3.31
   1   0 -11   24.01    3.36
   0   1  11   18.15    3.07
  -1   0  11   21.36    3.13
   1  -1  11   16.16    3.05
   1  -1  11   25.01    3.49
  -2   0 -11   -0.76    1.64
  -2   0 -11    2.75    1.95
  -2   2  11    0.39    2.19
   2   0  11    3.16    2.23
   0  -2  11   -3.54    1.76
   0   2 -11   -2.26    2.00
   0  -2  11   -0.04    1.86
  -2   2  11   -0.86    1.73
   2   0  11    0.65    2.27
  -2   2  11   -0.44    1.70
  -2   1  11   13.59    3.14
   1  -2 -11   15.13    3.13
   1   1 -11   15.26    3.10
  -2   1  11   13.19    2.66
  -2   1 -11   14.28    3.06
  -2   1  11   15.45    2.75
   1  -2  11   14.89    3.06
   1   1  11   23.27    3.53
   1   1  11   13.09    3.05
   1  -2  11   14.01    3.15
  -1  -1  11   20.91    3.15
  -1  -1 -11   19.00    3.25
  -1   2  11   12.82    3.15
  -1   2  11   17.95    3.22
  -1  -1  11   19.08    3.56
   2  -1  11   10.24    2.79
   2  -1 -11   13.32    2.77
  -1   2  11   17.79    3.14
  -1   2 -11   21.97    3.50
  -1  -1 -11   24.56    3.16
   2  -1  11   17.20    3.26
   2  -1  11   10.97    2.61
   2   0 -11   20.36    3.30
  -2   0  11   15.24    2.85
   2  -2  11   18.37    2.89
   2  -2  11   17.80    2.95
   2  -2  11   15.92    3.08
   0   2  11   17.14    3.33
  -2   2 -11   18.62    3.48
   0  -2 -11   20.11    3.50
  -2   0  11   20.76    3.68
   0   2  11   21.44    3.47
   0  -3  11    1.55    2.14
   3   0  11    2.09    2.47
   0  -3  11    3.10    2.30
  -3   3  11    5.12    2.44
  -3   0 -11    1.30    2.22
   3  -3 -11    3.71    2.55
  -3   3  11    6.84    2.26
   0   3 -11    2.82    2.55
  -3   3  11    0.59    2.32
   2  -3 -11   18.17    3.57
   1  -3  11   22.74    3.53
  -3   1 -11   22.86    3.52
  -3   2  11   22.79    3.07
   1   2 -11   22.87    3.79
  -3   2  11   15.34    3.52
   2   1  11   22.33    3.67
  -3   2  11   17.02    3.06
   1  -3  11   17.50    3.23
   2   1  11   17.58    3.32
   3  -1  11   17.40    3.21
  -2  -1 -11   23.31    3.34
  -2  -1 -11   25.24    3.28
  -1  -2  11   22.66    3.77
  -1   3 -11   20.34    3.59
  -2   3  11   22.69    3.61
  -2   3  11   22.18    3.43
  -1  -2  11   25.76    3.52
   2   1 -11   11.65    3.03
   1   2  11   10.08    2.97
   1  -3 -11    4.63    2.59
  -3   1  11   11.18    2.52
   2  -3  11   12.44    3.05
  -3   1  11    5.87    2.52
   1   2  11   11.99    3.08
   2  -3  11   11.38    2.72
  -3   2 -11    9.38    2.87
   3  -1 -11   11.00    2.72
   3  -2  11    5.22    2.46
  -2  -1  11   13.86    3.42
  -1   3  11   11.45    2.98
  -2   3 -11   10.88    3.06
  -1  -2 -11   10.45    2.82
  -2  -1  11   10.84    2.64
  -1   3  11   11.33    2.95
   3  -3  11   12.43    2.65
   0  -3 -11    9.32    2.84
   3  -3  11    8.50    2.55
   0   3  11    9.87    2.91
  -3   0  11   16.84    2.85
  -3   0  11    8.27    3.06
   0   3  11   11.65    2.97
  -3   3 -11   16.96    3.54
   3   0 -11    8.66    2.71
  -4   0 -11   20.65    3.45
   0  -4  11   21.47    3.84
   4   0  11   22.88    3.89
  -4   4  11   25.05    3.82
   0  -4  11   21.98    3.70
   0   4 -11   16.60    3.80
  -4   4  11   16.19    2.81
  -4   1 -11   46.08    4.89
  -4   3  11   48.24    4.12
   3   1  11   50.50    5.20
   1   3 -11   45.81    5.14
   1  -4  11   47.59    4.94
   3  -4 -11   47.92    5.47
  -4   3  11   49.78    4.72
   1  -4  11   48.20    4.88
  -4   3  11   44.59    5.15
   4  -1  11   46.02    4.91
  -1  -3  11   41.42    4.59
  -3   4  11   47.87    4.94
  -3   4  11   49.07    4.58
  -1  -3  11   47.86    5.21
  -1   4 -11   43.86    5.18
  -4   2  11   32.20    4.50
  -4   2 -11   33.24    4.23
   2  -4  11   32.86    4.10
   2  -4  11   32.12    4.33
  -4   2  11   32.47    3.43
   2   2  11   33.01    4.49
   2   2  11   30.54    4.30
   2  -4 -11   28.07    4.29
   2   2 -11   25.99    4.09
  -2  -2  11   31.25    3.85
  -2   4  11   32.45    3.98
   4  -2  11   36.42    4.39
  -2  -2  11   33.02    4.46
  -2   4 -11   32.09    4.42
  -2  -2 -11   37.60    4.19
  -2   4  11   26.93    4.03
  -4   3 -11   13.73    3.37
   1  -4 -11   18.53    3.60
   1   3  11   19.36    3.82
  -4   1  11   15.58    3.48
   1   3  11   14.65    3.47
  -4   1  11   11.60    2.32
   3   1 -11   15.44    3.32
   3  -4  11   12.78    2.99
  -3  -1  11   18.12    3.76
  -3   4 -11   12.62    3.31
  -1   4  11   20.57    3.81
  -3  -1  11   14.32    2.83
  -1   4  11   20.93    3.63
   4  -3  11   17.71    3.41
   4  -1 -11   21.74    3.45
  -1  -3 -11   19.91    3.55
  -4   4 -11   13.57    3.35
   0   4  11   18.31    3.80
   0   4  11   23.83    3.84
   4   0 -11   20.04    3.64
   0  -4 -11   15.38    3.44
  -4   0  11   17.11    3.62
  -4   0  11   16.49    2.84
  -5   5  11   15.27    2.84
   0  -5  11   11.67    3.14
   0  -5  11    7.61    3.11
   0   5 -11   11.05    3.62
   5   0  11   15.68    3.64
   5  -5 -11   14.28    3.68
  -5   0 -11   10.95    3.17
  -5   5  11   14.45    3.41
  -5   1 -11   20.76    3.83
   1  -5  11   31.93    4.30
   4  -5 -11   28.62    4.63
  -5   4  11   23.04    3.72
  -5   4  11   27.57    3.24
   1  -5  11   36.90    4.71
   4   1  11   34.90    4.53
   1   4 -11   29.01    4.55
  -4   5  11   27.19    4.08
   5  -1  11   36.02    4.68
  -1  -4  11   23.73    3.75
  -4   5  11   23.74    3.46
   5  -4 -11   19.85    3.94
  -1  -4  11   18.29    3.89
  -1   5 -11   20.04    3.98
   2   3 -11   30.58    4.45
   3   2  11   29.68    4.53
   2  -5  11   33.79    4.27
   3  -5 -11   23.81    4.00
  -5   2 -11   20.21    3.75
  -5   3  11   30.70    3.21
  -5   3  11   35.34    4.55
  -2   5 -11   24.38    4.26
  -3   5  11   19.69    3.92
  -2  -3  11   27.61    3.78
  -3   5  11   24.44    3.62
  -2  -3  11   27.25    4.49
   5  -2  11   32.46    4.51
  -5   3 -11   15.65    3.65
   2  -5 -11    9.10    3.24
   2   3  11   14.93    3.73
  -5   2  11   15.81    2.58
   3  -5  11   18.77    3.36
   3   2 -11   14.90    3.44
  -5   2  11   13.30    3.51
  -3  -2  11   14.91    2.96
   5  -3  11   22.46    3.86
  -3  -2  11   18.58    3.83
  -2  -3 -11   16.35    3.31
  -2   5  11   14.85    3.51
  -2   5  11   16.96    3.26
  -3   5 -11   12.38    3.51
  -5   4 -11   17.33    3.75
   4   1 -11   15.22    3.49
   1   4  11    8.17    3.15
   1  -5 -11   13.70    3.37
  -5   1  11   13.39    3.41
  -5   1  11   18.02    2.74
   1   4  11   21.33    4.16
  -4  -1  11   17.25    2.95
  -1   5  11   12.19    3.31
  -4   5 -11   23.65    4.36
   5  -4  11   13.90    3.31
  -1  -4 -11   15.35    3.51
   5  -1 -11   17.43    3.50
  -1   5  11   17.97    3.72
  -4  -1  11    7.31    3.09
  -5   0  11    2.64    2.70
  -5   0  11    2.27    2.07
   0  -5 -11    3.52    2.83
   0   5  11    8.72    3.12
   0   5  11    2.94    2.70
   5   0 -11    7.65    2.84
  -5   5 -11    5.32    2.81
   6  -6 -11   11.29    3.43
   0   6 -11    9.86    3.52
   6   0  11   10.84    3.79
   0  -6  11    9.62    3.31
  -6   6  11    8.15    2.45
   0  -6  11   14.60    3.79
  -6   6  11   11.05    3.52
  -6   0 -11    9.47    3.30
  -6   1 -11   16.64    3.53
   1   5 -11   27.52    4.54
   1  -6  11   24.98    4.26
  -6   5  11   16.84    2.86
   5   1  11   24.88    4.37
   1  -6  11   17.25    3.80
  -6   5  11   24.81    4.26
   5  -6 -11   24.00    4.59
  -1  -5  11   22.85    4.02
  -5   6  11   25.99    4.36
  -5   6  11   19.23    3.27
  -1   6 -11   17.98    4.42
   6  -5 -11   27.63    4.49
   6  -1  11   14.88    3.94
  -1  -5  11   25.27    4.13
   4   2  11   12.16    3.57
  -6   2 -11   18.99    3.92
  -6   4  11   17.27    3.63
  -6   4  11   15.00    2.50
   2   4 -11   16.40    4.00
   2  -6  11   18.25    3.59
   4  -6 -11   14.68    3.70
  -2  -4  11   17.65    3.88
  -2   6 -11   15.42    3.82
   6  -2  11   16.52    3.97
  -2  -4  11   14.50    3.40
  -4   6  11   13.80    3.09
  -4   6  11   12.24    3.42
   6  -4 -11   14.08    3.62
   3  -6 -11   13.50    3.60
  -6   3 -11    9.76    3.14
   3   3 -11    9.25    3.26
   3  -6  11   12.64    3.15
  -6   3  11    8.52    2.11
   3   3  11   11.80    3.56
  -6   3  11   11.03    3.17
   6  -3  11   13.52    3.54
  -3  -3  11    6.81    2.65
  -3   6  11   12.50    3.19
  -3   6  11   14.81    3.75
  -3   6 -11   13.80    3.54
  -3  -3  11    8.68    3.27
  -6   2  11    5.62    1.92
  -6   2  11    0.18    2.66
   2   4  11    5.84    3.21
   2  -6 -11    0.74    2.73
  -6   4 -11    6.84    3.18
   4   2 -11    3.57    2.82
  -4   6 -11   10.56    3.55
  -2   6  11    3.83    2.60
   6  -4  11    5.91    2.98
  -2   6  11    5.50    2.94
  -4  -2  11    4.59    2.43
  -2  -4 -11    2.01    2.54
  -4  -2  11    7.03    2.85
   1   5  11    5.10    3.05
  -6   1  11    3.02    1.96
  -6   5 -11    0.83    2.43
  -6   1  11    0.01    2.30
   1  -6 -11    5.77    3.13
   5   1 -11    5.75    3.11
  -5  -1  11    5.93    2.39
  -1   6  11    4.01    2.81
  -1  -5 -11    5.18    2.95
  -5   6 -11    3.47    2.84
   6  -5  11   10.48    3.52
   6  -1 -11    6.74    2.87
  -5  -1  11    3.49    2.87
  -1   6  11    3.87    2.93
  -6   0  11    7.42    3.22
   0   6  11   -1.90    2.57
  -6   0  11    0.21    1.86
   0  -6 -11    0.41    2.75
  -6   6 -11    0.80    2.72
   6   0 -11    1.09    2.77
  -7   7  11   20.24    3.21
   7   0  11   19.99    4.49
   0  -7  11   23.86    4.85
   7  -7 -11   17.98    4.31
  -7   0 -11   24.39    4.41
  -7   7  11   20.69    4.39
   0   7 -11   17.08    4.29
   6   1  11   18.95    4.43
  -7   6  11   18.96    4.12
   1  -7  11   12.14    3.68
  -7   6  11   17.84    2.89
  -7   1 -11   15.21    3.78
   1   6 -11   14.48    4.13
   6  -7 -11   16.72    4.28
  -1  -6  11   19.76    4.33
  -1   7 -11   21.05    4.46
   7  -1  11   16.75    4.24
  -6   7  11    9.48    2.73
   7  -6 -11   14.55    4.09
  -1  -6  11   16.03    3.94
  -6   7  11    8.89    3.49
  -7   5  11   20.84    2.80
   5   2  11   23.81    4.54
  -7   2 -11   21.53    4.23
   5  -7 -11   20.21    4.39
   2  -7  11   25.61    4.39
   2   5 -11   16.65    4.06
  -2   7 -11   20.02    4.36
  -2  -5  11   21.11    4.26
   7  -2  11   28.50    5.00
  -5   7  11   33.03    4.87
  -5   7  11   24.98    3.80
  -2  -5  11   29.72    4.31
   7  -5 -11   18.90    4.35
  -7   4  11   14.28    3.80
   4   3  11   10.16    3.55
   4  -7 -11   14.04    3.85
  -7   4  11    8.55    2.12
   3  -7  11   10.75    3.21
   3   4 -11   13.58    3.82
  -7   3 -11   14.55    3.64
  -3  -4  11   17.81    3.66
  -3   7 -11    9.14    3.22
  -4   7  11    8.53    3.05
  -4   7  11   17.60    3.99
   7  -4 -11   14.86    3.60
   7  -3  11   16.35    3.92
  -3  -4  11   16.52    3.76
  -7   3  11    2.02    1.81
   3   4  11    5.24    3.02
   3  -7 -11    6.40    3.33
   4   3 -11    7.50    3.38
  -7   3  11    7.72    3.05
  -7   4 -11    4.39    2.86
  -3   7  11    0.11    2.65
  -4  -3  11    3.23    2.54
   7  -4  11    1.24    2.83
  -4   7 -11    5.49    3.26
  -3   7  11    0.56    2.50
  -4  -3  11   -0.38    2.35
  -7   2  11    8.31    3.41
   5   2 -11    6.40    3.21
   2  -7 -11    0.45    2.62
   2   5  11    8.15    3.19
  -7   2  11    3.45    1.82
  -7   5 -11    8.51    3.61
  -2   7  11    8.61    3.13
  -5  -2  11    2.73    2.38
  -5   7 -11   14.82    3.86
   7  -5  11    7.33    3.27
  -2  -5 -11    4.91    2.90
  -2   7  11    2.54    2.87
  -5  -2  11    5.49    3.02
  -7   1  11    0.98    2.49
  -7   1  11   -0.71    1.83
   1   6  11   -2.26    2.86
  -7   6 -11    0.46    2.60
   6   1 -11    3.31    3.05
   1  -7 -11    0.56    2.98
  -1   7  11   -0.32    2.69
  -1   7  11   -1.07    3.04
   7  -1 -11   -1.40    2.57
  -6  -1  11    0.10    2.09
  -6   7 -11    3.50    3.16
  -1  -6 -11   -0.43    2.59
   7  -6  11    2.71    3.13
  -6  -1  11    3.45    2.94
  -7   0  11   -2.52    1.79
   0  -7 -11    1.83    2.96
  -7   0  11   -4.43    2.22
   7   0 -11    1.24    2.89
   0   7  11   -0.54    2.83
  -7   7 -11    1.14    3.16
  -8   1 -11   17.06    4.23
   1  -8  11   22.54    4.58
  -8   7  11   22.10    3.22
   1   7 -11    9.82    3.82
  -8   7  11   24.31    4.69
   7  -8 -11   21.90    4.68
   7   1  11   20.85    4.80
  -1  -7  11   14.53    4.10
  -1  -7  11   24.34    4.45
   8  -7 -11   22.19    4.69
  -7   8  11   20.62    3.52
  -1   8 -11   24.21    5.08
  -7   8  11   20.38    4.55
   8  -1  11   28.43    5.31
   6  -8 -11    2.28    3.28
  -8   6  11    7.38    2.14
   2   6 -11    2.29    3.08
  -8   2 -11    2.20    3.06
   6   2  11    3.99    3.42
   2  -8  11    3.02    2.99
  -6   8  11    0.12    2.97
  -2  -6  11    3.99    3.22
   8  -6 -11    6.52    3.47
  -6   8  11    5.95    2.81
   8  -2  11    0.32    2.97
  -2   8 -11    2.58    3.41
  -2  -6  11    1.33    2.94
   3   5 -11   14.63    4.20
  -8   3 -11   14.85    4.07
   5  -8 -11   16.29    4.21
  -8   5  11   13.44    2.34
   3  -8  11   17.35    3.88
   5   3  11   11.88    3.73
  -5   8  11    9.89    3.36
  -3  -5  11   10.82    3.84
   8  -5 -11   16.02    4.23
  -3   8 -11   12.93    4.27
   8  -3  11   15.45    4.33
  -5   8  11   17.14    3.66
  -3  -5  11   18.79    3.71
   4   4  11   13.07    3.89
   4   4 -11    7.17    3.35
   4  -8 -11    9.95    3.73
  -8   4  11   11.99    2.13
  -8   4  11    7.90    3.39
  -8   4 -11   10.59    3.73
  -4   8  11    9.35    3.67
  -4   8  11    9.68    3.28
   8  -4  11    9.04    3.65
  -4  -4  11    7.15    2.87
  -4  -4  11    8.53    3.52
  -4   8 -11   14.22    4.21
   8  -4 -11    4.20    2.73
  -8   3  11    7.79    1.98
  -8   3  11    5.44    3.22
   3   5  11    7.09    3.65
  -8   5 -11   13.79    3.76
   5   3 -11    4.67    3.40
   3  -8 -11   11.50    3.74
  -3   8  11    3.27    3.48
   8  -5  11    5.51    3.43
  -5  -3  11    7.39    3.26
  -3   8  11    4.00    3.06
  -5   8 -11   11.55    4.10
  -5  -3  11    8.64    2.78
  -8   2  11    6.97    2.11
   2  -8 -11   12.20    4.10
   2   6  11   19.57    4.38
   6   2 -11    7.47    3.66
  -8   6 -11    7.87    3.67
  -8   2  11   16.93    4.18
  -2   8  11   17.34    4.27
  -6  -2  11   10.60    3.43
   8  -6  11   10.47    4.13
  -2   8  11    5.22    3.27
  -6  -2  11    4.85    2.41
  -6   8 -11    9.48    3.87
   1  -8 -11    0.49    3.05
   7   1 -11    3.26    3.37
  -8   1  11    1.51    1.92
  -8   1  11    1.96    2.78
  -8   7 -11   -0.55    2.91
   1   7  11    1.40    3.01
   8  -1 -11    1.78    3.23
  -7  -1  11    0.91    2.08
  -7   8 -11   -0.84    2.83
  -7  -1  11    8.63    3.57
  -1  -7 -11    5.28    3.36
  -1   8  11   -1.70    2.97
   0   0  12   90.68    5.06
   0   0 -12  106.66    5.72
   0   0  12  105.54    6.04
   0   0  12  102.82    5.75
   0  -1  12   82.67    5.44
  -1   0 -12   84.44    5.28
   1   0  12   86.58    5.19
   1   0  12   71.97    5.21
  -1   1  12   67.75    4.73
   0  -1  12   78.01    5.12
  -1   1  12   77.48    5.04
   1   0  12   77.11    5.13
   0   1 -12   84.99    5.49
  -1   1  12   74.67    5.52
   1   0 -12   58.42    5.13
  -1   0  12   58.85    5.59
   0   1  12   54.53    5.17
  -1   0  12   54.31    4.78
   1  -1  12   47.50    4.87
   0   1  12   60.04    5.14
  -1   1 -12   64.08    5.41
   1  -1  12   62.42    5.38
   0   1  12   57.24    5.26
  -2   0 -12   65.42    5.36
   2   0  12   73.73    5.36
  -2   2  12   61.48    5.15
   0  -2  12   61.72    5.70
  -2   2  12   68.58    4.80
  -2   0 -12   69.81    4.78
  -2   2  12   54.77    5.68
   0  -2  12   57.30    5.24
   2   0  12   70.47    5.01
   0   2 -12   69.00    5.96
  -2   1 -12   49.59    4.93
   1   1  12   50.00    5.13
  -2   1  12   47.36    4.54
   1  -2  12   37.17    4.43
   1   1  12   55.77    5.27
   1   1 -12   48.77    5.03
  -2   1  12   51.31    5.37
   1  -2  12   48.54    5.02
   1  -2 -12   48.07    5.10
   2  -1  12   55.18    4.90
   2  -1  12   49.41    5.00
  -1   2 -12   50.17    5.05
  -1  -1  12   44.24    4.46
   2  -1  12   44.50    4.51
  -1   2  12   49.64    4.83
  -1  -1 -12   49.26    4.93
  -1   2  12   48.16    4.80
  -1  -1  12   47.35    5.18
   2  -2  12   33.16    4.23
   0   2  12   29.24    4.07
  -2   0  12   32.84    4.53
   0  -2 -12   31.59    4.38
   2   0 -12   35.05    4.27
  -2   0  12   38.61    4.14
  -2   2 -12   40.43    4.68
   2  -2  12   38.49    4.36
   0   2  12   36.83    4.44
   3   0  12   39.92    4.73
   0  -3  12   42.25    4.70
   0   3 -12   41.27    5.10
  -3   0 -12   47.01    4.86
   0  -3  12   30.77    4.38
  -3   3  12   43.51    4.39
  -3   3  12   48.89    4.87
   3  -3 -12   43.42    5.31
   1  -3  12   23.98    3.89
   2   1  12   24.01    3.92
   1   2 -12   28.36    4.18
  -3   1 -12   24.40    3.79
   2  -3 -12   22.45    3.98
  -3   2  12   20.06    3.80
   2   1  12   20.04    3.75
   1  -3  12   29.13    4.08
  -3   2  12   22.63    3.26
  -2  -1 -12   24.73    3.68
  -1  -2  12   22.13    3.56
  -2   3  12   22.96    3.65
   3  -1  12   25.21    3.88
  -2   3  12   20.42    3.59
  -1  -2  12   23.67    4.13
   1   2  12   35.47    4.65
   1  -3 -12   37.42    4.74
  -3   1  12   32.55    3.77
   2  -3  12   39.01    4.72
  -3   2 -12   37.01    4.70
   2   1 -12   37.29    4.53
   1   2  12   24.43    3.98
  -3   1  12   38.81    5.07
   2  -3  12   34.06    4.25
  -1   3  12   30.73    4.33
  -1   3  12   33.44    4.37
  -2   3 -12   32.77    4.46
  -2  -1  12   39.19    5.06
  -2  -1  12   40.57    4.30
  -1  -2 -12   45.38    4.88
   3  -2  12   34.27    4.08
   0   3  12   15.26    3.52
   0  -3 -12   23.09    3.85
   3   0 -12   27.87    3.99
   0   3  12   19.35    3.85
  -3   0  12   16.82    3.78
  -3   3 -12   19.31    3.83
  -3   0  12   23.60    3.36
   4  -4 -12   13.61    3.85
   0  -4  12   10.30    3.08
   0  -4  12   13.40    3.36
   4   0  12   15.05    3.59
  -4   0 -12    8.42    3.00
   0   4 -12   18.50    3.88
  -4   4  12    9.90    2.62
  -4   4  12   16.09    3.42
   3  -4 -12    5.44    2.93
  -4   3  12    3.03    2.10
   3   1  12    7.57    3.01
   1  -4  12    2.48    2.47
   1  -4  12    4.72    2.72
  -4   3  12    9.72    3.23
  -4   1 -12    9.12    2.97
   1   3 -12    9.28    3.15
  -1  -3  12    8.78    3.19
  -3   4  12   -0.41    2.20
   4  -1  12    4.40    2.67
  -3   4  12    5.25    2.53
  -1  -3  12    7.53    2.88
  -1   4 -12    1.43    2.78
  -4   2 -12    9.27    3.03
  -4   2  12    8.27    2.54
   2  -4  12   10.39    2.89
   2   2  12    3.27    2.63
   2   2 -12    7.81    3.10
   2  -4 -12    7.26    3.02
   2  -4  12    1.34    2.50
  -4   2  12    2.07    2.58
   4  -2  12    7.37    2.97
  -2  -2  12    6.33    3.02
  -2   4  12    5.85    2.75
  -2   4  12    3.44    2.63
  -2   4 -12    5.64    2.97
  -2  -2  12    3.92    2.46
  -2  -2 -12    3.31    2.56
   1   3  12   35.50    4.64
   1  -4 -12   30.96    4.57
  -4   1  12   37.68    4.94
  -4   3 -12   25.51    4.25
   3   1 -12   42.95    4.93
  -4   1  12   35.16    3.80
   1   3  12   34.16    4.70
  -1  -3 -12   33.88    4.41
   4  -3  12   42.55    4.65
  -1   4  12   35.49    4.62
  -3  -1  12   40.15    4.21
  -3   4 -12   33.62    4.85
  -3  -1  12   36.31    5.00
  -1   4  12   34.44    4.66
  -4   0  12   20.32    4.03
   0   4  12   18.26    3.70
  -4   4 -12   22.50    4.11
   0   4  12   20.15    4.07
   0  -4 -12   28.14    4.28
   4   0 -12   23.43    4.01
  -4   0  12   20.62    3.21
  -5   5  12   17.75    3.27
  -5   5  12   22.33    4.17
   0  -5  12   15.79    3.86
   5  -5 -12   20.52    4.41
   0   5 -12   27.95    4.93
   0  -5  12   16.79    3.76
   5   0  12   23.82    4.41
   4   1  12    7.84    3.34
   1  -5  12    3.89    2.81
  -5   1 -12   11.34    3.25
   4  -5 -12   10.12    3.48
   1  -5  12   10.32    3.29
   1   4 -12   14.34    3.78
  -5   4  12   11.76    2.56
  -1  -4  12    8.49    3.25
  -1  -4  12    6.80    2.82
  -4   5  12    8.46    2.89
  -4   5  12    8.76    3.20
  -1   5 -12    3.26    2.99
   5  -4 -12    8.29    3.11
   5  -1  12    5.89    3.17
  -5   2 -12    3.78    2.80
  -5   3  12   13.43    3.69
   3   2  12    1.46    2.74
   3  -5 -12    4.23    2.83
   2   3 -12   10.95    3.50
   2  -5  12    1.10    2.25
  -5   3  12    7.26    2.39
  -2   5 -12    9.57    3.38
  -3   5  12    7.55    3.13
  -2  -3  12    7.16    2.98
  -3   5  12    8.78    2.91
  -2  -3  12    4.36    2.94
   5  -2  12    5.80    3.08
  -5   2  12    2.64    1.98
  -5   3 -12    5.95    2.76
   2  -5 -12    2.57    2.58
   2   3  12    3.49    2.88
   3   2 -12    4.20    3.01
  -5   2  12    2.04    2.59
  -3  -2  12   -0.43    2.65
  -3  -2  12    5.64    2.43
  -2  -3 -12    1.63    2.42
   5  -3  12    2.59    2.77
  -2   5  12    4.15    2.58
  -2   5  12    4.25    2.87
  -3   5 -12    4.91    2.94
   1   4  12   16.33    3.98
   4   1 -12   11.34    3.56
   1  -5 -12   19.12    4.12
  -5   1  12   14.16    2.70
  -5   4 -12   14.53    3.76
  -5   1  12   13.31    3.64
  -4  -1  12   14.15    3.03
  -1   5  12   12.77    3.61
  -4  -1  12   17.21    3.75
  -1   5  12   12.51    3.46
  -1  -4 -12   17.51    3.69
  -4   5 -12   12.90    3.66
   5   0 -12    4.75    3.04
  -5   5 -12    1.27    2.68
   0   5  12   -0.35    2.89
  -5   0  12    2.83    2.11
  -5   0  12    1.19    2.66
   0   5  12    2.63    2.64
   0  -5 -12    0.21    2.59
   6  -6 -12   -1.21    2.35
  -6   6  12    1.45    2.91
   0   6 -12    3.89    3.48
   0  -6  12   -3.81    2.24
   0  -6  12    0.70    2.82
   6   0  12    1.14    3.06
   5   1  12   -2.06    2.73
   1  -6  12    4.55    2.93
   5  -6 -12   -0.33    2.49
  -6   5  12    4.20    2.18
  -6   1 -12    5.96    2.84
   1   5 -12    5.39    3.20
  -1  -5  12   -0.49    2.36
   6  -5 -12    0.17    2.78
  -1  -5  12   -3.95    2.52
   6  -1  12    2.37    3.03
  -5   6  12    1.11    2.14
  -5   6  12    2.67    2.76
  -1   6 -12    1.34    3.09
   2   4 -12   -0.29    2.58
   4  -6 -12    3.28    3.08
  -6   2 -12    0.86    2.65
  -6   4  12    5.64    2.21
   4   2  12    8.10    3.45
   2  -6  12    4.46    2.98
   6  -4 -12    6.46    3.23
  -2  -4  12    4.37    2.78
   6  -2  12    3.72    3.09
  -4   6  12    4.01    2.88
  -2  -4  12    2.24    2.91
  -2   6 -12   -2.21    2.32
  -4   6  12   -0.90    2.34
  -6   3  12   -0.60    2.52
  -6   3 -12    7.40    3.14
   3   3 -12    3.81    2.89
   3   3  12    3.47    2.77
  -6   3  12    3.44    1.94
   3  -6 -12    5.42    3.17
   6  -3  12    0.63    3.06
  -3   6  12    3.96    2.68
  -3  -3  12    7.28    3.20
  -3   6  12   11.92    3.52
  -3  -3  12    3.83    2.59
  -3   6 -12    2.99    2.75
  -6   2  12   -0.61    1.78
   2  -6 -12    0.25    2.51
   2   4  12    3.68    3.06
   4   2 -12    4.24    2.94
  -6   2  12   -0.27    2.53
  -6   4 -12   -1.97    2.58
  -2   6  12    0.93    2.59
  -4   6 -12   -2.58    2.12
   6  -4  12   -0.94    2.68
  -2   6  12   -1.62    2.55
  -4  -2  12    4.17    3.04
  -4  -2  12    3.05    2.30
   1   5  12    0.56    2.56
   1  -6 -12    3.64    3.02
   5   1 -12    0.00    2.63
  -6   1  12   -2.86    1.71
  -6   1  12   -2.40    2.38
  -6   5 -12    1.96    2.80
  -5   6 -12    0.25    2.97
  -1  -5 -12    5.71    2.90
  -1   6  12   -2.22    2.55
  -5  -1  12    1.33    2.79
  -1   6  12    1.32    2.86
  -5  -1  12    3.87    2.40
  -6   0  12    0.62    2.07
   0   6  12    3.19    3.18
   0  -6 -12    0.63    2.97
   6   0 -12   -0.54    2.58
  -6   6 -12    0.94    3.00
  -6   0  12    0.08    2.70
  -7   6  12   -0.28    2.02
   1  -7  12    3.31    3.01
  -7   1 -12    0.31    2.85
   1   6 -12   -1.62    3.09
   6  -7 -12   -0.26    3.10
   6   1  12    1.05    2.82
   7  -1  12    4.08    3.14
  -6   7  12    5.11    3.29
  -6   7  12    0.25    2.24
  -1   7 -12    2.91    3.49
  -1  -6  12    5.96    3.46
   7  -6 -12   -0.50    2.63
  -1  -6  12   -0.17    2.64
  -7   5  12    4.13    2.14
   5   2  12   -0.03    3.02
   2  -7  12    5.55    2.97
   5  -7 -12    3.63    3.24
  -7   2 -12   11.14    3.55
   2   5 -12    3.83    3.43
   7  -2  12    4.92    3.49
  -5   7  12    5.45    2.90
   7  -5 -12    4.98    3.18
  -2  -5  12    2.67    2.79
  -5   7  12   -2.55    2.58
  -2  -5  12    0.47    3.00
  -2   7 -12    7.48    3.88
   3   4 -12    9.90    3.70
   4   3  12   10.82    3.77
  -7   3 -12    5.40    3.39
  -7   4  12    6.21    2.20
   4  -7 -12    9.69    3.56
  -7   4  12    2.32    3.11
   7  -3  12    5.64    3.38
  -3  -4  12    0.44    2.62
  -3  -4  12    9.30    3.28
  -4   7  12    4.02    2.82
   7  -4 -12    5.58    3.15
  -3   7 -12    6.71    3.56
  -4   7  12    4.52    3.22
   4   3 -12    9.43    3.56
  -7   3  12    4.48    2.11
  -7   3  12    4.34    3.22
   3  -7 -12    0.26    2.89
  -7   4 -12    3.39    3.08
   3   4  12    8.06    3.70
   7  -4  12    7.78    3.36
  -3   7  12    6.28    3.04
  -4  -3  12    2.56    2.85
  -4   7 -12    2.18    3.38
  -3   7  12    7.73    3.37
  -4  -3  12    7.33    2.96
  -7   2  12   -1.11    2.50
  -7   2  12    2.14    1.98
   2  -7 -12    0.32    2.76
  -7   5 -12    1.89    3.06
   2   5  12    3.11    3.26
   5   2 -12   -0.29    2.69
  -2   7  12    6.64    3.14
  -5   7 -12    5.47    3.55
   7  -5  12   -2.35    3.12
  -5  -2  12    0.49    2.94
  -5  -2  12    2.05    2.38
  -2   7  12    0.35    2.69
  -7   1  12    2.40    2.70
   6   1 -12    1.27    2.87
  -7   1  12   -0.69    1.96
   1  -7 -12    4.40    3.20
  -7   6 -12   -2.77    2.75
   1   6  12    0.89    2.73
  -6  -1  12   -1.55    1.80
  -6   7 -12    2.49    3.35
  -1   7  12   -0.92    2.81
  -1  -6 -12    2.14    3.07
  -6  -1  12    1.48    2.86
  -8   4  12    3.11    2.85
   4  -8 -12   -2.33    2.99
  -8   4  12    4.84    1.99
   4   4 -12   -0.08    3.19
   4   4  12   -0.24    2.97
  -4   8  12    5.55    3.50
  -4  -4  12   -1.46    2.55
  -4  -4  12    2.73    2.75
   8  -4  12    3.74    3.58
   8  -4 -12   -3.31    2.59
   0   0  13   -3.18    1.94
   0   0  13    2.03    2.38
  -1   1  13    1.77    2.31
   1   0  13    6.03    2.66
  -1   1  13    5.46    2.73
   1   0  13    1.95    2.29
   1   0  13    1.57    2.66
   0   1 -13    3.08    2.56
   0  -1  13    3.10    2.51
   0  -1  13    2.70    2.47
   1  -1  13    5.53    2.78
   0  -1 -13   -0.51    2.12
   0   1  13    2.65    2.48
  -1   0  13    3.54    2.83
  -1   1 -13    5.79    2.85
  -1   0  13    5.08    2.56
   1  -1  13    0.57    2.39
   0   1  13   -0.50    2.17
   0   1  13   -1.17    2.45
   2  -2 -13   12.78    3.52
   0  -2  13   18.32    3.75
   0   2 -13   19.32    3.83
  -2   2  13   15.78    3.53
   0  -2  13   17.50    3.68
   2   0  13   14.79    3.55
  -2   2  13   17.17    3.34
   1   1 -13    0.83    2.56
   1  -2  13    3.29    2.48
  -2   1  13    5.50    2.52
   1  -2  13    4.95    2.84
  -2   1 -13    5.55    2.99
   1  -2 -13    1.84    2.66
  -2   1  13    4.32    2.85
   1   1  13    1.29    2.45
   1   1  13   -0.56    2.54
  -1   2 -13    0.06    2.44
  -1  -1  13   -0.98    2.20
  -1   2  13    4.24    2.64
  -1   2  13    5.58    2.51
   2  -1  13    3.61    2.55
   2  -1  13    5.08    2.99
  -1  -1 -13    3.69    2.76
  -1  -1  13    3.28    2.55
  -2   0  13   10.36    3.01
  -2   0  13   12.10    3.35
   2  -2  13   19.45    3.64
   0   2  13   18.87    3.67
   0  -2 -13   11.94    3.48
   2  -2  13   11.07    3.33
  -2   2 -13   12.84    3.42
   0   2  13   15.71    3.72
   0  -3  13   -1.95    2.49
   3   0  13    5.33    2.75
  -3   3  13    6.28    2.69
   3  -3 -13    3.39    2.68
   0  -3  13    4.33    2.61
  -3   2  13    9.27    2.82
  -3   1 -13    7.65    3.06
   1  -3  13   12.12    3.33
   2  -3 -13   14.65    3.57
  -3   2  13   13.29    3.60
   1   2 -13   12.50    3.75
   2   1  13    9.84    3.22
   1  -3  13   20.68    3.92
  -2   3  13   12.96    3.18
  -1  -2  13   12.78    3.16
  -1  -2  13   11.76    3.53
  -1   3 -13    8.83    3.31
   3  -1  13    7.74    2.92
  -2   3  13   11.86    3.19
  -3   2 -13    4.28    2.81
  -3   1  13    6.55    3.06
   2  -3  13    6.78    2.71
   1   2  13    5.21    2.84
   1  -3 -13    9.33    3.37
   2   1 -13    8.47    3.02
   1   2  13    8.19    3.31
  -3   1  13    8.99    2.72
  -2  -1  13    7.81    2.88
  -1   3  13    9.63    3.13
  -2   3 -13   12.30    3.53
  -1  -2 -13   11.80    3.08
  -1   3  13    3.72    2.45
  -2  -1  13   13.76    3.79
  -3   0  13   17.63    3.89
   0  -3 -13   10.62    3.40
  -3   0  13   13.41    3.09
   0   3  13    9.41    3.28
   0   3  13   15.90    3.63
  -3   3 -13   17.23    3.69
   4   0  13    6.29    3.23
   0  -4  13    5.96    3.15
   0   4 -13    2.78    3.15
  -4   4  13    4.94    2.67
   4  -4 -13    9.64    3.65
   0  -4  13    2.31    2.95
   1   3 -13    3.16    3.08
   1  -4  13   11.28    3.37
  -4   3  13    6.12    2.76
   1  -4  13    4.03    2.96
   3   1  13    3.49    2.94
  -4   1 -13    4.83    2.89
   3  -4 -13    4.45    3.02
  -4   3  13    4.96    2.99
   4  -3 -13    9.29    3.39
  -1  -3  13    6.54    2.86
  -3   4  13    4.63    2.84
  -1  -3  13    1.02    2.70
  -1   4 -13    6.46    3.33
   4  -1  13    5.62    2.98
  -3   4  13    3.08    2.58
   2   2 -13   20.28    4.16
   2   2  13   22.69    4.24
  -4   2  13   26.78    4.62
  -4   2  13   26.23    3.71
  -4   2 -13   22.40    4.07
   2  -4  13   20.91    3.88
   2  -4 -13   21.21    4.35
  -2  -2  13   19.60    3.78
  -2   4  13   19.78    3.70
  -2   4  13   20.95    3.85
   4  -2  13   25.20    4.13
  -2  -2  13   22.16    4.36
  -2   4 -13   15.81    3.92
   3   1 -13   16.38    3.67
   1  -4 -13    8.89    3.45
   1   3  13   11.57    3.53
  -4   1  13    2.98    2.39
  -4   3 -13    9.22    3.25
  -4   1  13   10.88    3.76
  -1   4  13    3.14    2.91
  -3   4 -13   10.65    3.70
  -3  -1  13   13.53    3.12
  -3  -1  13   10.97    3.72
  -1   4  13    9.15    3.31
  -1  -3 -13   10.58    3.23
   0  -4 -13    3.89    2.76
   0   4  13   -1.22    2.57
  -4   0  13    2.30    2.89
  -4   0  13    6.37    2.50
   0   4  13    8.99    3.43
  -4   4 -13    3.12    3.14
   0   5 -13    5.95    3.56
   0  -5  13    8.73    3.33
   5   0  13    8.46    3.44
   5  -5 -13    2.03    3.06
   0  -5  13   11.07    3.61
  -5   5  13    7.56    2.70
   1   4 -13    5.85    3.48
   4   1  13    4.68    3.07
  -5   4  13    3.88    2.37
   4  -5 -13    4.45    3.15
  -5   1 -13    1.45    2.71
   1  -5  13    4.14    2.87
  -1  -4  13    5.02    3.13
   5  -1  13    6.94    3.30
  -4   5  13    0.98    2.49
  -4   5  13    5.12    3.00
   5  -4 -13    0.69    2.67
  -1   5 -13   -0.41    2.92
  -1  -4  13    3.96    2.89
   3   2  13   12.24    3.53
   3  -5 -13    7.87    3.62
  -5   3  13   11.00    2.70
   2  -5  13   19.73    3.79
  -5   3  13   10.24    3.72
  -5   2 -13    9.07    3.38
   2   3 -13   16.55    4.07
  -2  -3  13   10.17    3.16
   5  -2  13   10.75    3.61
  -3   5  13    8.07    2.98
  -2   5 -13    1.74    2.91
  -2  -3  13    5.84    3.33
  -3   5  13    9.61    3.45
  -5   3 -13   17.28    3.95
  -5   2  13   15.30    3.09
   2  -5 -13   14.55    4.02
   3   2 -13   17.86    4.06
  -5   2  13   14.82    4.19
   2   3  13   12.00    3.75
  -2   5  13   16.05    3.84
  -2   5  13   17.72    3.86
  -3  -2  13   20.04    4.19
   5  -3  13   22.67    4.22
  -3   5 -13   10.88    3.90
  -3  -2  13   13.77    3.29
  -5   1  13    7.64    2.65
   1   4  13    8.62    3.46
  -5   4 -13   11.05    3.55
   4   1 -13    6.60    3.26
   1  -5 -13    9.65    3.45
  -1  -4 -13    9.19    3.25
  -1   5  13    1.91    3.07
  -4  -1  13   12.50    3.08
  -4   5 -13   11.74    3.76
  -1   5  13    5.14    3.04
  -5   0  13    6.17    3.34
  -5   5 -13    5.13    3.08
  -5   0  13    2.24    2.37
   0  -5 -13    3.52    2.82
   0   5  13    3.06    3.13
   6  -6 -13    4.45    3.25
   0   6 -13    5.56    3.58
   0  -6  13    3.25    3.22
   6   0  13    8.70    3.70
   5   1  13    0.80    3.15
   5  -6 -13    2.15    3.00
   1   5 -13    3.66    3.34
  -6   5  13   -1.27    2.21
   1  -6  13   -0.44    2.70
  -1  -5  13    5.31    3.18
   6  -5 -13    2.45    3.17
  -1   6 -13   -3.01    2.85
  -5   6  13    8.67    3.05
  -1  -5  13   -4.49    2.39
   6  -1  13    0.86    3.04
  -5   6  13   -1.39    2.54
   2  -6  13    2.58    2.72
   4  -6 -13   -1.79    2.73
  -6   2 -13   -2.00    2.46
   4   2  13   -1.13    2.53
  -6   4  13   -1.25    1.92
   2   4 -13    4.34    3.35
  -4   6  13    1.91    2.67
   6  -2  13    0.74    2.94
  -2   6 -13   -4.21    2.51
  -4   6  13    1.23    2.74
  -2  -4  13   -0.85    2.57
   6  -4 -13    6.55    3.42
  -2  -4  13    3.45    2.99
  -6   3  13    5.09    3.36
  -6   3  13    4.78    2.37
  -6   3 -13    5.17    3.20
   3   3  13    8.20    3.58
   3  -6 -13    5.62    3.41
   3   3 -13    5.34    3.43
  -3   6  13    2.13    3.03
   6  -3  13    2.23    3.43
  -3  -3  13    2.54    3.19
  -3  -3  13   12.94    3.41
  -3   6 -13    3.94    3.30
  -3   6  13    5.08    3.13
   4   2 -13   17.54    4.31
  -6   4 -13   14.44    4.06
  -6   2  13   15.11    3.03
   2   4  13   16.19    4.15
   2  -6 -13   15.73    4.16
  -6   2  13   20.40    4.27
  -4   6 -13   18.48    4.66
  -2   6  13   19.01    4.34
  -2   6  13   23.88    4.51
  -4  -2  13   13.32    4.13
  -4  -2  13   20.17    3.79
  -6   5 -13    8.12    3.45
   5   1 -13    6.59    3.34
  -6   1  13    1.40    2.78
   1  -6 -13    2.61    3.22
   1   5  13   15.31    4.05
  -6   1  13    5.11    2.49
  -5   6 -13    5.26    3.16
  -5  -1  13   10.18    3.63
  -1   6  13    7.31    3.43
  -1   6  13    5.59    3.26
  -5  -1  13    9.28    2.94
  -1  -5 -13    5.98    3.34
  -6   0  13    0.85    2.94
   0   6  13    4.49    3.24
   0  -6 -13    5.85    3.24
  -6   0  13    0.59    2.26
  -6   6 -13    7.77    3.48
   0   0  14    1.42    2.65
   0   0  14    0.68    2.49
  -1   0 -14    2.88    2.57
   1   0  14    2.69    2.75
  -1   1  14   -1.25    2.27
   0  -1  14   -2.02    2.36
   0   1 -14    1.14    2.54
  -1   1  14   -4.08    1.85
   1   0  14   -0.93    2.74
   0  -1  14    0.32    2.66
  -1   0  14    2.78    2.54
  -1   0  14    1.69    2.81
   0   1  14    2.27    2.70
   0  -1 -14    6.14    2.93
   1  -1  14   -0.99    2.40
   1  -1  14    2.72    2.99
   0  -2  14    1.54    2.67
   0  -2  14    2.79    2.71
   2  -2 -14   -4.65    1.85
   2   0  14    2.07    2.53
  -2   2  14    0.62    2.86
   0   2 -14   -2.06    2.40
  -2   2  14   -0.05    2.63
   1   1  14   -0.35    2.41
   1   1  14    4.85    3.05
  -2   1  14   -4.07    2.04
   1  -2 -14   -1.25    2.47
   1  -2  14   -4.99    2.21
   1  -2  14   -0.54    2.73
  -2   1  14   -4.55    1.93
  -1   2 -14   -0.55    2.60
  -1  -1  14   -0.32    2.41
  -1   2  14   -2.71    2.36
  -1  -1  14    1.52    2.62
  -1  -1 -14    3.23    2.78
   0   2  14    2.00    2.59
  -2   0  14    1.98    2.62
   0   2  14    1.08    2.53
  -2   2 -14    0.07    2.60
  -2   0  14   -0.57    2.87
   0  -2 -14    0.27    2.64
   0  -3  14   12.81    3.67
   0   3 -14   15.00    3.90
  -3   3  14   14.69    3.41
   3   0  14    7.42    3.28
   3  -3 -14   18.36    4.34
   0  -3  14    9.04    3.50
   2  -3 -14   12.58    3.91
   1   2 -14   11.15    3.52
  -3   2  14   12.99    3.21
   1  -3  14   11.16    3.36
   2   1  14   11.57    3.71
   1  -3  14    3.83    3.07
  -3   2  14    7.40    3.35
  -1  -2  14    8.15    3.33
  -1   3 -14   10.59    3.56
  -2   3  14   10.54    3.36
  -1  -2  14    8.06    3.03
  -3   1  14    1.47    2.91
  -3   2 -14    1.30    2.49
   1   2  14   -0.17    2.64
   2   1 -14    3.03    3.01
  -3   1  14   -2.07    2.11
   1  -3 -14   -2.41    2.54
  -1   3  14    3.30    2.77
  -2  -1  14    5.88    3.04
  -1   3  14   -3.35    2.33
  -2  -1  14    1.76    2.54
  -2   3 -14    5.04    3.11
  -1  -2 -14    1.89    2.52
   0  -3 -14   -0.52    2.51
  -3   0  14   -0.17    2.36
  -3   3 -14    0.97    2.82
   0   3  14   -1.42    2.31
  -3   0  14    0.28    2.80
   0   3  14   -0.25    2.79
   4  -4 -14   10.52    4.02
   4   0  14   15.73    3.90
  -4   4  14   16.90    3.74
   0  -4  14   12.40    3.60
   0  -4  14   13.34    3.72
   0   4 -14   12.24    4.05
   1  -4  14   12.56    3.59
  -4   3  14   18.33    3.55
   3   1  14   16.50    3.90
   1   3 -14    9.24    3.71
   3  -4 -14   12.65    4.07
   4  -1  14   18.73    4.05
  -1  -3  14   11.67    3.59
   4  -3 -14    9.63    3.57
  -3   4  14    8.71    3.24
  -1   4 -14    8.68    3.48
  -1  -3  14    7.82    3.12
  -4   2  14    5.76    2.78
   2  -4 -14    7.99    3.15
  -4   2  14   10.25    3.64
   2   2  14    6.53    3.13
  -4   2 -14   13.35    3.68
   2   2 -14   10.55    3.38
  -2   4  14    3.16    2.85
  -2  -2  14    6.39    3.21
  -2   4 -14   11.49    3.65
  -2  -2  14    8.37    3.24
  -2   4  14   10.61    3.56
  -4   1  14    0.62    2.59
  -4   1  14    3.98    2.91
  -4   3 -14    1.87    2.87
   1  -4 -14    5.08    3.07
   3   1 -14    4.90    3.16
   1   3  14    3.39    3.06
  -3   4 -14    4.51    3.22
  -3  -1  14    4.99    2.79
  -1   4  14    7.97    3.29
  -1  -3 -14    5.92    3.05
  -3  -1  14    4.44    3.28
  -1   4  14    5.95    3.00
   0   4  14   -3.62    2.32
  -4   0  14    0.16    2.58
   0  -4 -14    1.54    2.70
  -4   4 -14    4.39    3.08
  -4   0  14    4.55    3.51
   4   1  14    9.91    3.83
   4  -5 -14    5.60    3.47
  -5   4  14    7.59    2.80
   1  -5  14    7.71    3.58
   1   4 -14   11.73    4.07
  -1  -4  14    4.10    3.34
   5  -1  14    5.63    3.34
  -1   5 -14    4.67    3.70
   5  -4 -14    7.36    3.64
  -1  -4  14    4.02    3.07
  -4   5  14    4.86    2.89
  -5   3  14   10.32    3.97
   3  -5 -14    5.45    3.68
  -5   3  14   16.23    3.31
   3   2  14    6.39    3.33
   2   3 -14    5.34    3.27
  -5   2 -14    5.10    3.15
  -2  -3  14    8.81    3.36
  -2   5 -14   12.26    3.99
   5  -3 -14    8.81    3.51
  -2  -3  14    9.37    3.79
   5  -2  14   12.75    3.78
  -3   5  14   14.68    3.92
  -3   5  14    9.71    3.32
  -5   2  14    8.43    2.74
   2   3  14    4.15    3.18
  -5   2  14    4.67    3.22
  -5   3 -14    7.54    3.42
   3   2 -14    5.33    3.40
   2  -5 -14   15.42    4.18
  -2   5  14   -1.63    2.62
  -3  -2  14   10.45    3.88
  -2   5  14    0.27    2.63
  -3  -2  14    5.12    2.97
  -3   5 -14    6.94    3.47
  -5   4 -14    0.27    2.86
  -5   1  14    0.72    2.32
   1  -5 -14   -1.56    2.79
   1   4  14    3.48    3.06
  -5   1  14    6.91    3.58
  -4  -1  14    3.82    2.65
  -4  -1  14    1.04    3.09
  -4   5 -14    1.80    3.19
  -1   5  14    3.14    3.32
  -1   5  14    3.07    2.91
   0   0  15   16.44    4.00
   0   0  15   20.48    4.28
  -1   1  15   17.74    3.89
   0  -1  15   15.22    3.81
   1  -1 -15   15.11    3.98
  -1   1  15    8.73    3.51
  -1   0 -15   19.72    4.03
   0  -1  15   20.10    4.18
  -1   0  15   11.77    3.65
   0  -1 -15    5.74    3.45
   0   1  15    9.58    3.67
  -1   0  15   12.74    3.92
   0  -2  15   28.57    4.87
  -2   2  15   24.66    4.51
   2  -2 -15   33.41    5.32
   0  -2  15   36.27    5.08
   0   2 -15   21.03    4.44
  -2   1  15   20.08    4.07
  -2   1  15   23.70    4.74
   1  -2 -15   14.11    4.07
   1  -2  15   23.06    4.22
  -1   2  15   22.60    4.34
  -1   2 -15   14.87    3.90
  -1  -1  15   22.64    4.29
  -1  -1  15   10.84    3.86
  -2   0  15   23.36    4.29
  -2   2 -15   15.70    4.26
   0  -2 -15   22.53    4.42
   0   2  15   17.05    4.34
  -2   0  15   19.28    4.49
   3  -3 -15   17.19    4.41
  -3   3  15   11.60    3.43
   0  -3  15   13.17    3.99
   0  -3  15   14.51    4.13
   0   3 -15    9.97    3.98
   2   1  15   17.00    3.96
   2  -3 -15   15.14    4.29
  -3   2  15   16.31    3.81
   1   2 -15   13.68    4.05
  -3   2  15   19.72    4.57
   1  -3  15   18.14    4.26
  -1   3 -15   20.44    4.47
  -2   3  15   16.51    4.12
  -1  -2  15   16.00    4.10
  -1  -2  15   13.54    3.64
   3  -2 -15   12.20    3.86
  -3   1  15   18.79    3.83
  -3   1  15   14.04    4.20
   1   2  15   16.44    4.14
   1  -3 -15   14.32    3.81
  -1   3  15   10.66    3.65
  -2  -1  15   11.50    3.42
  -2  -1  15   21.64    4.49
  -2   3 -15   17.49    4.36
   0   3  15    8.25    3.80
   0   3  15    3.55    3.10
  -3   0  15    3.37    2.77
  -3   3 -15    2.07    3.44
   0  -3 -15   11.19    3.71
  -3   0  15    0.95    3.27
   0   0   0    0.00    0.00
;
_shelx_hkl_checksum              21622
loop_
_space_group_symop_operation_xyz
'x, y, z'
'-y, x-y, z+1/3'
'-x+y, -x, z+2/3'
'y, x, -z'
'x-y, -y, -z+2/3'
'-x, -x+y, -z+1/3'
loop_
_atom_site_label
_atom_site_type_symbol
_atom_site_fract_x
_atom_site_fract_y
_atom_site_fract_z
_atom_site_U_iso_or_equiv
_atom_site_adp_type
_atom_site_occupancy
_atom_site_site_symmetry_order
_atom_site_calc_flag
_atom_site_refinement_flags_posn
_atom_site_refinement_flags_adp
_atom_site_refinement_flags_occupancy
_atom_site_disorder_assembly
_atom_site_disorder_group
Fe1 Fe 0.95363(8) 1.0000 0.3333 0.01675(15) Uani 1 2 d S T P . .
O1 O 0.8890(3) 0.8890(3) 0.5000 0.0198(7) Uani 1 2 d S T P . .
C1 C 0.7344(6) 0.7344(6) 0.5000 0.0224(11) Uani 1 2 d S T P . .
C2 C 0.6301(5) 0.6845(5) 0.3956(3) 0.0276(8) Uani 1 1 d . . . . .
O2 O 0.6949(4) 0.8030(4) 0.3020(3) 0.0346(7) Uani 1 1 d . . . . .
H2 H 0.645(15) 0.769(16) 0.247(10) 0.06(4) Uiso 0.5 1 d . . P . .
C3 C 0.4718(6) 0.5253(5) 0.3946(4) 0.0314(10) Uani 1 1 d . . . . .
H3 H 0.400(9) 0.488(9) 0.329(6) 0.08(2) Uiso 1 1 d . . . . .
C4 C 0.4211(6) 0.4211(6) 0.5000 0.0297(13) Uani 1 2 d S T P . .
C5 C 0.2517(6) 0.2517(6) 0.5000 0.0249(12) Uani 1 2 d S T P . .
O5 O 0.2001(3) 0.1678(3) 0.3999(2) 0.0298(7) Uani 1 1 d . . . . .
O1W O 0.5372(12) 0.6994(16) 0.0950(9) 0.062(3) Uiso 0.50(2) 1 d . U . A 1
O2W O 0.434(3) 0.846(2) 0.2362(15) 0.093(6) Uiso 0.308(12) 1 d . U . B 1
O3W O 0.451(4) 0.731(4) 0.141(2) 0.072(6) Uiso 0.175(13) 1 d . U . C 2
O4W O 0.539(4) 0.790(6) 0.099(3) 0.069(6) Uiso 0.177(18) 1 d . U . D 3
O5W O 0.468(5) 0.676(5) 0.005(3) 0.078(6) Uiso 0.142(10) 1 d . U . E 4
O6W O 0.550(5) 0.499(5) -0.058(4) 0.108(12) Uiso 0.19(2) 1 d . U . F -4
O7W O 0.569(11) 0.577(11) 0.121(8) 0.076(9) Uiso 0.070(14) 1 d . U . G 5
O8W O 0.639(19) 0.639(19) 0.0000 0.080(8) Uiso 0.049(15) 2 d S U . H 3
loop_
_atom_site_aniso_label
_atom_site_aniso_U_11
_atom_site_aniso_U_22
_atom_site_aniso_U_33
_atom_site_aniso_U_23
_atom_site_aniso_U_13
_atom_site_aniso_U_12
Fe1 0.0195(3) 0.0137(3) 0.0152(2) 0.0022(3) 0.00111(14) 0.00685(16)
O1 0.0162(11) 0.0162(11) 0.0170(14) 0.0015(8) -0.0015(8) 0.0005(15)
C1 0.0161(16) 0.0161(16) 0.022(2) 0.0022(11) -0.0022(11) -0.002(2)
C2 0.0248(19) 0.026(2) 0.0211(17) 0.0047(15) -0.0044(15) 0.0041(16)
O2 0.0308(15) 0.0301(16) 0.0207(13) 0.0095(13) -0.0082(12) -0.0015(13)
C3 0.026(2) 0.025(2) 0.0241(18) 0.0045(15) -0.0096(15) -0.0020(18)
C4 0.0218(17) 0.0218(17) 0.026(3) 0.0024(13) -0.0024(13) -0.004(2)
C5 0.0191(18) 0.0191(18) 0.028(3) 0.0020(12) -0.0020(12) 0.003(2)
O5 0.0221(13) 0.0263(15) 0.0255(13) -0.0041(11) 0.0027(11) 0.0004(11)
loop_
_atom_type_symbol
_atom_type_description
_atom_type_scat_dispersion_real
_atom_type_scat_dispersion_imag
_atom_type_scat_source
C C 0.0033 0.0016 'International Tables Vol C Tables 4.2.6.8 and 6.1.1.4'
H H 0.0000 0.0000 'International Tables Vol C Tables 4.2.6.8 and 6.1.1.4'
O O 0.0106 0.0060 'International Tables Vol C Tables 4.2.6.8 and 6.1.1.4'
Fe Fe 0.3463 0.8444 'International Tables Vol C Tables 4.2.6.8 and 6.1.1.4'
loop_
_geom_angle_atom_site_label_1
_geom_angle_atom_site_label_2
_geom_angle_atom_site_label_3
_geom_angle
_geom_angle_site_symmetry_1
_geom_angle_site_symmetry_3
O1 Fe1 O1 175.45(9) . 3_674
O1 Fe1 O5 87.97(11) . 1_665
O1 Fe1 O5 95.20(8) 3_674 1_665
O1 Fe1 O5 95.20(8) . 5_665
O1 Fe1 O5 87.97(10) 3_674 5_665
O5 Fe1 O5 91.67(16) 1_665 5_665
O1 Fe1 O2 97.14(8) . 5_675
O1 Fe1 O2 79.75(11) 3_674 5_675
O5 Fe1 O2 87.94(13) 1_665 5_675
O5 Fe1 O2 167.63(10) 5_665 5_675
O1 Fe1 O2 79.75(11) . .
O1 Fe1 O2 97.14(8) 3_674 .
O5 Fe1 O2 167.62(10) 1_665 .
O5 Fe1 O2 87.94(13) 5_665 .
O2 Fe1 O2 95.1(2) 5_675 .
C1 O1 Fe1 112.47(8) . 2_765
C1 O1 Fe1 112.47(8) . .
Fe1 O1 Fe1 135.06(16) 2_765 .
O1 C1 C2 119.0(2) . .
O1 C1 C2 119.0(2) . 4_556
C2 C1 C2 122.0(5) . 4_556
O2 C2 C1 114.9(3) . .
O2 C2 C3 125.8(4) . .
C1 C2 C3 119.3(4) . .
C2 O2 Fe1 112.0(2) . .
C2 O2 H2 112(10) . .
Fe1 O2 H2 132(9) . .
C2 C3 C4 118.7(4) . .
C2 C3 H3 122(4) . .
C4 C3 H3 119(4) . .
C3 C4 C3 122.0(5) . 4_556
C3 C4 C5 119.0(3) . .
C3 C4 C5 119.0(3) 4_556 .
O5 C5 O5 124.3(5) . 4_556
O5 C5 C4 117.8(2) . .
O5 C5 C4 117.8(2) 4_556 .
C5 O5 Fe1 131.7(3) . 1_445
loop_
_geom_bond_atom_site_label_1
_geom_bond_atom_site_label_2
_geom_bond_distance
_geom_bond_site_symmetry_2
Fe1 O1 2.0085(12) .
Fe1 O1 2.0086(12) 3_674
Fe1 O5 2.041(3) 1_665
Fe1 O5 2.041(3) 5_665
Fe1 O2 2.075(3) 5_675
Fe1 O2 2.075(3) .
O1 C1 1.353(6) .
O1 Fe1 2.0085(12) 2_765
C1 C2 1.388(4) .
C1 C2 1.388(4) 4_556
C2 O2 1.361(5) .
C2 C3 1.388(5) .
O2 H2 0.71(11) .
C3 C4 1.396(4) .
C3 H3 0.90(6) .
C4 C3 1.397(4) 4_556
C4 C5 1.482(7) .
C5 O5 1.269(4) .
C5 O5 1.269(4) 4_556
O5 Fe1 2.041(3) 1_445
loop_
_geom_hbond_atom_site_label_D
_geom_hbond_atom_site_label_H
_geom_hbond_atom_site_label_A
_geom_hbond_distance_DH
_geom_hbond_distance_HA
_geom_hbond_distance_DA
_geom_hbond_angle_DHA
O2 H2 O1W 0.71(11) 1.86(11) 2.569(10) 173(13)
O2 H2 O3W 0.71(11) 1.94(11) 2.59(2) 151(13)
O2 H2 O4W 0.71(11) 1.92(11) 2.58(3) 153(14)
O2 H2 O7W 0.71(11) 2.01(14) 2.62(9) 144(13)
loop_
_geom_torsion_atom_site_label_1
_geom_torsion_atom_site_label_2
_geom_torsion_atom_site_label_3
_geom_torsion_atom_site_label_4
_geom_torsion
_geom_torsion_site_symmetry_1
_geom_torsion_site_symmetry_4
Fe1 O1 C1 C2 171.1(2) 2_765 .
Fe1 O1 C1 C2 -8.9(2) . .
Fe1 O1 C1 C2 -8.9(2) 2_765 4_556
Fe1 O1 C1 C2 171.1(2) . 4_556
O1 C1 C2 O2 -1.6(4) . .
C2 C1 C2 O2 178.4(4) 4_556 .
O1 C1 C2 C3 179.5(3) . .
C2 C1 C2 C3 -0.5(3) 4_556 .
C1 C2 O2 Fe1 11.0(4) . .
C3 C2 O2 Fe1 -170.2(4) . .
O2 C2 C3 C4 -177.8(4) . .
C1 C2 C3 C4 1.0(6) . .
C2 C3 C4 C3 -0.5(3) . 4_556
C2 C3 C4 C5 179.5(3) . .
C3 C4 C5 O5 32.0(3) . .
C3 C4 C5 O5 -148.0(3) 4_556 .
C3 C4 C5 O5 -148.0(3) . 4_556
C3 C4 C5 O5 32.0(3) 4_556 4_556
O5 C5 O5 Fe1 29.10(19) 4_556 1_445
C4 C5 O5 Fe1 -150.90(19) . 1_445
