#------------------------------------------------------------------------------
#$Date: 2019-11-08 05:41:14 +0200 (Fri, 08 Nov 2019) $
#$Revision: 225386 $
#$URL: file:///home/coder/svn-repositories/cod/cif/1/55/23/1552369.cif $
#------------------------------------------------------------------------------
#
# This file is available in the Crystallography Open Database (COD),
# http://www.crystallography.net/
#
# All data on this site have been placed in the public domain by the
# contributors.
#
data_1552369
loop_
_publ_author_name
'Sharif, Muhammad'
'Razzaq, Rauf'
'Jackstell, Ralf'
'Spannenberg, Anke'
_publ_section_title
;
 3-Bromopyridine-2-carbonitrile
;
_journal_issue                   10
_journal_name_full               IUCrData
_journal_page_first              x191326
_journal_paper_doi               10.1107/S2414314619013269
_journal_volume                  4
_journal_year                    2019
_chemical_formula_iupac          'C6 H3 Br N2'
_chemical_formula_moiety         'C6 H3 Br N2'
_chemical_formula_sum            'C6 H3 Br N2'
_chemical_formula_weight         183.01
_chemical_name_common
;
3-Bromo-2-cyanopyridine
;
_chemical_name_systematic
;
3-Bromopyridine-2-carbonitrile
;
_space_group_crystal_system      monoclinic
_space_group_IT_number           14
_space_group_name_Hall           '-P 2ybc'
_space_group_name_H-M_alt        'P 1 21/c 1'
_symmetry_space_group_name_Hall  '-P 2ybc'
_symmetry_space_group_name_H-M   'P 1 21/c 1'
_atom_sites_solution_hydrogens   geom
_audit_creation_method           SHELXL-2014/7
_cell_angle_alpha                90
_cell_angle_beta                 113.9060(10)
_cell_angle_gamma                90
_cell_formula_units_Z            4
_cell_length_a                   7.8821(2)
_cell_length_b                   11.7480(3)
_cell_length_c                   7.4169(2)
_cell_measurement_reflns_used    9981
_cell_measurement_temperature    150(2)
_cell_measurement_theta_max      28.83
_cell_measurement_theta_min      2.83
_cell_volume                     627.88(3)
_computing_cell_refinement
;
SAINT (Bruker, 2013)
;
_computing_data_collection
;
APEX2 (Bruker, 2014)
;
_computing_data_reduction
;
SAINT (Bruker, 2013)
;
_computing_molecular_graphics
;
XP in SHELXTL (Sheldrick, 2008) and Mercury (Macrae <i>et al.</i>,
2006)
;
_computing_publication_material
;
publCIF (Westrip, 2010) and PLATON (Spek, 2009)
;
_computing_structure_refinement
;
SHELXL2014 (Sheldrick, 2015)
;
_computing_structure_solution
;
SHELXS97 (Sheldrick, 2008)
;
_diffrn_ambient_temperature      150(2)
_diffrn_detector_area_resol_mean 8.3333
_diffrn_measured_fraction_theta_full 0.999
_diffrn_measured_fraction_theta_max 0.999
_diffrn_measurement_device_type  'Bruker Kappa APEXII DUO'
_diffrn_measurement_method       'omega and phi scans'
_diffrn_radiation_monochromator  'curved graphite'
_diffrn_radiation_source         'fine-focus sealed tube'
_diffrn_radiation_type           MoK\a
_diffrn_radiation_wavelength     0.71073
_diffrn_reflns_av_R_equivalents  0.0204
_diffrn_reflns_av_unetI/netI     0.0088
_diffrn_reflns_limit_h_max       10
_diffrn_reflns_limit_h_min       -10
_diffrn_reflns_limit_k_max       15
_diffrn_reflns_limit_k_min       -15
_diffrn_reflns_limit_l_max       8
_diffrn_reflns_limit_l_min       -10
_diffrn_reflns_number            18621
_diffrn_reflns_theta_full        25.242
_diffrn_reflns_theta_max         28.832
_diffrn_reflns_theta_min         3.317
_exptl_absorpt_coefficient_mu    6.441
_exptl_absorpt_correction_T_max  0.34
_exptl_absorpt_correction_T_min  0.17
_exptl_absorpt_correction_type   multi-scan
_exptl_absorpt_process_details
;
(SADABS; Bruker, 2014)
;
_exptl_crystal_colour            colourless
_exptl_crystal_density_diffrn    1.936
_exptl_crystal_description       'part of a needle'
_exptl_crystal_F_000             352
_exptl_crystal_size_max          0.434
_exptl_crystal_size_mid          0.393
_exptl_crystal_size_min          0.216
_refine_diff_density_max         0.382
_refine_diff_density_min         -0.373
_refine_ls_extinction_method     none
_refine_ls_goodness_of_fit_ref   1.156
_refine_ls_hydrogen_treatment    constr
_refine_ls_matrix_type           full
_refine_ls_number_parameters     82
_refine_ls_number_reflns         1637
_refine_ls_number_restraints     0
_refine_ls_restrained_S_all      1.156
_refine_ls_R_factor_all          0.0169
_refine_ls_R_factor_gt           0.0160
_refine_ls_shift/su_max          0.001
_refine_ls_shift/su_mean         0.000
_refine_ls_structure_factor_coef Fsqd
_refine_ls_weighting_details
'w=1/[\s^2^(Fo^2^)+(0.0198P)^2^+0.3045P] where P=(Fo^2^+2Fc^2^)/3'
_refine_ls_weighting_scheme      calc
_refine_ls_wR_factor_gt          0.0416
_refine_ls_wR_factor_ref         0.0422
_reflns_number_gt                1577
_reflns_number_total             1637
_reflns_threshold_expression     'I > 2\s(I)'
_cod_data_source_file            rz4033sup1.cif
_cod_data_source_block           I
_cod_depositor_comments          'Adding full bibliography for 1552369.cif.'
_cod_database_code               1552369
_cod_database_fobs_code          1552369
_shelx_space_group_comment
;
The symmetry employed for this shelxl refinement is uniquely defined
by the following loop, which should always be used as a source of
symmetry information in preference to the above space-group names.
They are only intended as comments.
;
_shelx_hkl_file
;
   0   0  -2  984.61   21.71
   0   0  -2  944.46   22.48
   0   0  -2  969.83   20.10
   0   0   2  955.56   22.07
   0   0   2 1000.00   23.91
   0   0   2  928.76   22.49
   0   0   2  964.87   22.51
   0   0   2  921.56   22.14
   0   0  -3   -0.01    0.12
   0   0   3    0.00    0.08
   0   0   4    4.59    0.23
   0   0  -4    3.99    0.19
   0   0  -4    4.38    0.33
   0   0  -5    0.05    0.11
   0   0   5    0.01    0.14
   0   0  -6   36.55    1.18
   0   0  -6   36.93    0.95
   0   0  -6   37.43    1.00
   0   0  -6   37.86    0.92
   0   0   6   37.44    1.07
   0   0  -7    0.18    0.20
   0   0  -7   -0.31    0.23
   0   0  -7    0.35    0.24
   0   0  -7    0.00    0.21
   0   0  -7    0.08    0.32
   0   0  -8   24.47    0.82
   0   0  -8   24.88    1.08
   0   0  -8   22.94    0.86
   0   0  -8   22.51    0.70
   0   0  -8   23.22    0.77
   0   0  -8   23.01    0.81
   0   0  -9   -0.08    0.37
   0   0  -9   -0.15    0.32
   0   0  -9    0.15    0.33
   0   0  -9    0.09    0.37
   0   0  -9   -0.29    0.24
   0   1   0   -0.01    0.03
   0   1   0    0.04    0.03
   0  -1   0    0.13    0.03
   0  -1   0   -0.01    0.03
   0  -1   0    0.00    0.03
   0   1   1    3.79    0.14
   0   1  -1    3.88    0.14
   0   1   1    4.07    0.14
   0   1   1    3.88    0.13
   0   1  -1    3.58    0.11
   0   1   1    3.72    0.14
   0  -1  -1    3.72    0.14
   0  -1  -1    3.76    0.14
   0  -1  -1    3.86    0.12
   0  -1   1    4.26    0.12
   0  -1   1    3.64    0.11
   0  -1  -1    3.93    0.13
   0   1   2  845.59   20.59
   0   1  -2  907.28   20.31
   0   1   2  883.27   20.50
   0   1  -2  894.49   18.65
   0   1   2  930.22   20.95
   0   1   2  925.82   20.59
   0   1   2  846.63   20.91
   0  -1  -2  910.60   18.71
   0  -1   2  924.21   22.17
   0  -1  -2  830.33   20.90
   0  -1  -2  912.28   20.62
   0  -1  -2  844.99   20.53
   0  -1  -2  879.02   20.22
   0  -1  -2  928.37   18.76
   0   1   3   47.07    1.15
   0   1   3   46.64    1.12
   0   1   3   47.27    1.17
   0   1  -3   47.20    1.03
   0   1   3   47.94    1.15
   0  -1  -3   46.20    1.12
   0  -1  -3   47.28    1.02
   0  -1  -3   45.30    1.21
   0  -1   3   47.53    1.21
   0  -1  -3   46.64    1.17
   0  -1  -3   47.20    1.15
   0   1   4  284.25    6.55
   0   1   4  290.50    7.09
   0   1   4  297.07    6.59
   0   1  -4  274.41    5.95
   0   1   4  271.08    6.68
   0   1   4  297.29    6.70
   0  -1  -4  277.80    6.55
   0  -1  -4  279.33    5.97
   0  -1   4  285.21    7.07
   0  -1  -4  277.42    6.59
   0  -1  -4  283.60    6.57
   0   1   5   65.20    1.65
   0   1   5   61.89    1.50
   0   1   5   61.76    1.48
   0   1  -5   60.33    1.38
   0  -1   5   60.96    1.62
   0  -1  -5   61.72    1.40
   0  -1  -5   58.96    1.66
   0  -1  -5   62.73    1.46
   0   1  -6   34.15    0.84
   0   1  -6   33.44    0.92
   0   1  -6   32.88    1.10
   0   1   6   35.00    1.01
   0   1  -6   33.85    0.87
   0   1  -6   34.16    0.88
   0  -1  -6   33.56    0.86
   0  -1  -6   34.80    0.96
   0  -1  -6   33.21    1.11
   0  -1  -6   34.74    0.91
   0   1  -7   18.05    0.62
   0   1  -7   17.45    0.61
   0   1  -7   16.98    0.61
   0   1  -7   16.91    0.65
   0   1  -7   18.07    0.83
   0   1  -7   16.82    0.55
   0  -1  -7   17.23    0.84
   0  -1  -7   17.64    0.63
   0  -1  -7   18.11    0.58
   0  -1  -7   17.97    0.68
   0  -1  -7   16.93    0.53
   0  -1  -7   17.81    0.64
   0   1  -8    3.86    0.39
   0   1  -8    3.41    0.51
   0   1  -8    3.91    0.40
   0   1  -8    3.57    0.36
   0   1  -8    3.44    0.31
   0   1  -8    3.92    0.39
   0  -1  -8    3.03    0.40
   0  -1  -8    2.64    0.50
   0  -1  -8    3.38    0.32
   0  -1  -8    2.88    0.33
   0  -1  -8    3.73    0.40
   0  -1  -8    3.34    0.43
   0   1  -9    0.38    0.27
   0   1  -9    0.46    0.34
   0   1  -9    0.43    0.36
   0   1  -9    0.23    0.36
   0   1  -9    0.41    0.33
   0  -1  -9    0.54    0.34
   0  -1  -9    0.41    0.32
   0  -1  -9    0.15    0.37
   0  -1  -9    0.76    0.43
   0  -1  -9    0.37    0.28
   0   2   0   83.73    1.99
   0   2   0   81.50    2.02
   0   2   0   81.80    1.98
   0  -2   0   83.25    2.12
   0  -2   0   83.14    1.98
   0  -2   0   81.72    1.67
   0   2  -1  225.10    5.23
   0   2  -1  228.78    5.21
   0   2   1  221.44    5.24
   0   2  -1  225.35    5.31
   0   2  -1  221.84    5.22
   0   2  -1  237.37    5.13
   0  -2   1  219.29    5.22
   0  -2  -1  220.87    4.42
   0  -2   1  234.71    5.59
   0  -2   1  222.47    5.31
   0  -2  -1  210.95    5.34
   0  -2  -1  227.66    5.25
   0  -2  -1  216.98    4.77
   0  -2  -1  241.60    5.62
   0  -2   1  228.77    5.21
   0  -2   1  213.71    5.31
   0  -2  -1  224.04    5.24
   0   2  -2    1.10    0.06
   0   2   2    0.87    0.11
   0   2   2    0.95    0.12
   0   2   2    1.08    0.11
   0   2   2    1.03    0.12
   0   2   2    1.17    0.11
   0  -2  -2    1.02    0.12
   0  -2  -2    0.90    0.11
   0  -2  -2    1.23    0.10
   0  -2  -2    1.34    0.13
   0  -2   2    1.12    0.09
   0  -2  -2    1.03    0.09
   0  -2  -2    1.07    0.11
   0   2   3   79.70    2.03
   0   2   3   87.15    2.01
   0   2   3   83.35    1.97
   0   2   3   80.33    2.00
   0   2  -3   82.00    2.00
   0  -2  -3   81.77    1.99
   0  -2  -3   78.17    2.00
   0  -2  -3   78.86    2.03
   0  -2  -3   82.63    1.97
   0  -2   3   85.88    2.09
   0  -2  -3   84.17    1.79
   0  -2  -3   83.94    1.78
   0   2  -4   22.69    0.55
   0   2   4   22.61    0.60
   0   2   4   22.26    0.63
   0   2   4   22.28    0.64
   0   2  -4   22.26    0.71
   0  -2  -4   22.04    0.57
   0  -2  -4   23.65    0.63
   0  -2  -4   21.94    0.60
   0  -2  -4   23.19    0.55
   0  -2   4   23.53    0.64
   0  -2  -4   21.78    0.73
   0   2   5    0.21    0.12
   0   2   5    0.24    0.13
   0   2  -5    0.07    0.11
   0   2  -5    0.14    0.22
   0   2  -5    0.04    0.13
   0  -2  -5    0.31    0.13
   0  -2  -5    0.15    0.23
   0  -2   5    0.19    0.13
   0  -2  -5    0.04    0.09
   0   2  -6    2.58    0.25
   0   2  -6    2.35    0.19
   0   2   6    2.73    0.22
   0   2  -6    2.88    0.35
   0   2   6    2.77    0.28
   0   2  -6    2.38    0.23
   0   2  -6    2.70    0.27
   0   2   6    2.10    0.17
   0  -2  -6    2.25    0.35
   0  -2  -6    2.35    0.29
   0  -2  -6    2.60    0.18
   0  -2  -6    2.67    0.23
   0   2  -7   23.20    0.72
   0   2  -7   23.87    0.67
   0   2  -7   23.24    0.76
   0   2  -7   25.17    0.98
   0   2  -7   24.25    0.75
   0   2  -7   23.43    0.89
   0   2  -7   22.92    0.73
   0  -2  -7   25.05    0.80
   0  -2  -7   24.57    0.72
   0  -2  -7   25.47    0.78
   0  -2  -7   23.95    0.67
   0  -2  -7   23.04    0.98
   0  -2  -7   24.61    0.84
   0   2  -8    0.09    0.21
   0   2  -8    0.23    0.29
   0   2  -8    0.32    0.41
   0   2  -8    0.13    0.26
   0   2  -8    0.22    0.28
   0   2  -8   -0.15    0.35
   0   2  -8    0.15    0.26
   0  -2  -8    0.29    0.35
   0  -2  -8   -0.03    0.27
   0  -2  -8    0.18    0.41
   0  -2  -8    0.54    0.23
   0  -2  -8    0.11    0.25
   0  -2  -8    0.42    0.33
   0   2  -9   21.12    0.87
   0   2  -9   21.14    0.81
   0   2  -9   19.57    0.71
   0   2  -9   19.45    0.83
   0   2  -9   21.31    0.82
   0  -2  -9   21.51    0.79
   0  -2  -9   19.98    0.70
   0  -2  -9   20.83    0.94
   0  -2  -9   19.85    0.82
   0  -2  -9   19.87    0.89
   0   3   0    0.00    0.07
   0   3   0    0.03    0.07
   0   3   0   -0.01    0.07
   0   3   0   -0.04    0.07
   0  -3   0   -0.01    0.06
   0  -3   0    0.04    0.08
   0  -3   0   -0.06    0.07
   0  -3   0   -0.01    0.06
   0   3  -1   36.65    0.97
   0   3  -1   39.30    0.96
   0   3  -1   40.54    0.93
   0   3   1   38.34    0.99
   0   3  -1   37.65    0.96
   0   3   1   38.30    0.99
   0   3   1   38.05    1.01
   0   3  -1   38.65    0.96
   0   3   1   40.21    0.99
   0  -3   1   37.94    0.96
   0  -3  -1   38.42    1.01
   0  -3   1   39.59    1.01
   0  -3   1   37.24    0.98
   0  -3   1   38.57    0.98
   0  -3  -1   41.36    1.05
   0  -3  -1   38.81    0.83
   0  -3   1   38.81    0.96
   0  -3  -1   38.91    0.99
   0   3   2  113.58    2.75
   0   3  -2  115.18    2.70
   0   3  -2  119.84    2.70
   0   3   2  116.53    2.77
   0   3   2  116.15    2.82
   0   3  -2  115.70    2.69
   0   3  -2  116.98    2.74
   0   3  -2  117.22    2.70
   0  -3   2  118.05    2.89
   0  -3  -2  110.06    2.69
   0  -3  -2  113.10    2.75
   0  -3  -2  111.93    2.81
   0  -3   2  112.95    2.70
   0  -3  -2  116.47    2.76
   0  -3  -2  114.06    2.50
   0  -3   2  113.03    2.75
   0  -3   2  120.11    2.69
   0   3   3  143.62    3.40
   0   3   3  143.32    3.35
   0   3  -3  140.55    3.28
   0   3   3  140.55    3.31
   0  -3  -3  139.31    2.98
   0  -3  -3  141.56    3.01
   0  -3  -3  136.02    3.31
   0  -3   3  141.78    3.50
   0  -3  -3  132.84    3.28
   0  -3  -3  141.13    3.33
   0  -3  -3  133.42    3.39
   0   3   4  146.98    3.63
   0   3   4  149.29    3.56
   0   3   4  145.15    3.57
   0   3  -4  148.68    3.56
   0   3  -4  148.92    3.17
   0  -3   4  152.91    3.76
   0  -3  -4  150.19    3.53
   0  -3  -4  159.55    3.22
   0  -3  -4  145.89    3.21
   0  -3  -4  145.89    3.57
   0   3   5  102.12    2.46
   0   3  -5  101.57    2.53
   0   3  -5  101.32    2.18
   0   3   5  102.24    2.50
   0   3  -5   96.78    2.22
   0  -3  -5   98.22    2.41
   0  -3  -5  103.63    2.20
   0  -3  -5   99.99    2.23
   0  -3  -5  103.06    2.32
   0  -3  -5   97.66    2.53
   0   3  -6   52.41    1.51
   0   3  -6   53.09    1.29
   0   3   6   54.99    1.49
   0   3   6   51.52    1.34
   0   3  -6   50.79    1.26
   0   3  -6   52.29    1.22
   0   3   6   52.08    1.36
   0  -3  -6   55.85    1.38
   0  -3  -6   52.56    1.27
   0  -3  -6   49.58    1.51
   0  -3  -6   52.65    1.31
   0  -3  -6   52.36    1.27
   0   3   7   26.02    0.91
   0   3  -7   26.22    0.76
   0   3  -7   25.43    0.97
   0   3  -7   26.17    0.75
   0   3  -7   27.48    0.79
   0   3  -7   25.77    0.81
   0   3  -7   26.93    1.03
   0   3  -7   26.30    0.83
   0  -3  -7   28.44    0.84
   0  -3  -7   28.06    0.87
   0  -3  -7   27.73    0.92
   0  -3  -7   26.39    1.04
   0  -3  -7   27.29    0.79
   0   3  -8    5.22    0.40
   0   3  -8    4.88    0.57
   0   3  -8    5.06    0.41
   0   3  -8    5.21    0.42
   0   3  -8    4.84    0.43
   0   3  -8    4.67    0.35
   0   3  -8    5.08    0.56
   0  -3  -8    4.35    0.46
   0  -3  -8    4.63    0.36
   0  -3  -8    5.63    0.62
   0  -3  -8    5.32    0.43
   0  -3  -8    5.00    0.51
   0  -3  -8    4.95    0.43
   0   4   0  842.76   20.74
   0   4   0  867.48   20.43
   0   4   0  894.45   20.11
   0   4   0  847.31   20.20
   0  -4   0  864.52   21.82
   0  -4   0  865.48   20.18
   0  -4   0  894.33   20.27
   0  -4   0  877.42   18.40
   0  -4   0  870.48   17.03
   0   4  -1  166.03    3.96
   0   4   1  164.47    3.98
   0   4  -1  163.45    3.96
   0   4  -1  168.85    3.95
   0   4  -1  175.00    3.84
   0   4  -1  165.30    4.03
   0  -4  -1  165.41    4.06
   0  -4  -1  168.07    3.98
   0  -4   1  168.24    3.34
   0  -4  -1  172.19    4.27
   0  -4  -1  165.81    3.62
   0  -4   1  165.68    3.96
   0  -4   1  166.19    4.03
   0  -4   1  166.75    3.60
   0  -4   1  170.11    4.23
   0  -4  -1  175.10    3.99
   0   4  -2  357.46    8.48
   0   4   2  349.60    8.38
   0   4  -2  359.63    8.35
   0   4  -2  350.12    8.33
   0   4  -2  374.86    8.33
   0   4  -2  359.42    8.19
   0  -4  -2  357.94    8.39
   0  -4  -2  373.81    9.00
   0  -4   2  349.06    8.49
   0  -4   2  363.99    8.94
   0  -4   2  348.76    8.33
   0  -4  -2  358.37    8.55
   0  -4  -2  375.74    8.40
   0  -4  -2  362.17    8.19
   0  -4  -2  350.91    7.63
   0   4   3   11.14    0.44
   0   4   3   11.14    0.41
   0   4  -3   11.31    0.33
   0   4  -3   11.18    0.31
   0   4  -3   10.86    0.31
   0   4   3   10.85    0.43
   0   4  -3   11.30    0.41
   0  -4  -3   11.78    0.42
   0  -4  -3   11.53    0.43
   0  -4   3   11.09    0.36
   0  -4  -3   11.34    0.38
   0  -4  -3   10.88    0.43
   0  -4   3   11.36    0.33
   0  -4  -3   10.73    0.41
   0   4  -4    5.82    0.35
   0   4   4    5.57    0.35
   0   4  -4    5.61    0.22
   0   4   4    5.86    0.34
   0  -4  -4    5.94    0.28
   0  -4  -4    5.94    0.31
   0  -4  -4    6.37    0.38
   0  -4   4    5.54    0.26
   0  -4  -4    6.29    0.29
   0   4   5    0.19    0.18
   0   4  -5    0.01    0.22
   0   4   5   -0.01    0.17
   0   4  -5   -0.13    0.11
   0  -4  -5    0.17    0.16
   0  -4  -5   -0.11    0.23
   0  -4  -5    0.07    0.13
   0  -4  -5    0.05    0.21
   0  -4  -5    0.07    0.14
   0   4  -6   26.00    0.76
   0   4   6   26.00    0.80
   0   4  -6   26.95    0.71
   0   4  -6   27.39    0.76
   0   4   6   25.85    0.79
   0   4  -6   25.38    0.92
   0  -4  -6   25.35    0.94
   0  -4  -6   25.64    0.74
   0  -4  -6   25.29    0.74
   0  -4  -6   26.80    0.76
   0  -4  -6   26.70    0.86
   0   4  -7    0.38    0.25
   0   4  -7    0.31    0.24
   0   4  -7    0.20    0.25
   0   4  -7    0.13    0.21
   0   4  -7    0.02    0.21
   0   4   7   -0.01    0.27
   0   4  -7    0.30    0.32
   0   4  -7   -0.18    0.34
   0  -4  -7    0.08    0.24
   0  -4  -7    0.06    0.20
   0  -4  -7   -0.05    0.20
   0  -4  -7    0.57    0.36
   0  -4  -7   -0.18    0.31
   0   4  -8   27.71    0.90
   0   4  -8   28.83    1.12
   0   4  -8   27.70    0.89
   0   4  -8   24.07    1.04
   0   4  -8   28.10    0.84
   0   4  -8   26.46    0.80
   0   4  -8   27.22    0.88
   0  -4  -8   27.68    1.16
   0  -4  -8   27.54    1.01
   0  -4  -8   25.39    0.91
   0  -4  -8   28.57    0.97
   0  -4  -8   25.15    0.79
   0   5   0    0.86    0.13
   0   5   0    0.75    0.13
   0   5   0    0.66    0.13
   0  -5   0    0.47    0.13
   0   5  -1    3.30    0.22
   0   5  -1    3.87    0.21
   0   5   1    3.57    0.24
   0   5   1    3.34    0.24
   0   5  -1    3.47    0.22
   0   5  -1    3.64    0.22
   0   5  -1    3.37    0.16
   0   5   1    3.10    0.24
   0  -5  -1    3.33    0.25
   0  -5  -1    3.14    0.22
   0  -5   1    3.46    0.23
   0  -5   1    3.53    0.20
   0  -5  -1    3.00    0.25
   0  -5   1    3.35    0.22
   0  -5   1    3.24    0.23
   0   5  -2  159.65    3.79
   0   5  -2  152.80    3.79
   0   5   2  158.78    3.92
   0   5  -2  152.19    3.85
   0   5   2  160.60    3.86
   0   5   2  166.26    3.85
   0   5  -2  157.42    3.80
   0  -5  -2  161.40    3.85
   0  -5  -2  158.37    3.50
   0  -5   2  159.35    3.46
   0  -5  -2  166.65    4.12
   0  -5   2  164.52    4.05
   0  -5   2  161.37    3.80
   0  -5  -2  167.58    3.71
   0   5   3    7.39    0.39
   0   5  -3    6.67    0.25
   0   5  -3    6.87    0.27
   0   5   3    7.04    0.36
   0   5  -3    6.23    0.32
   0   5   3    7.47    0.39
   0  -5   3    7.06    0.29
   0  -5  -3    6.80    0.32
   0  -5   3    6.64    0.26
   0  -5  -3    6.47    0.35
   0  -5  -3    7.12    0.33
   0   5  -4  164.61    3.86
   0   5   4  159.99    4.00
   0   5   4  162.62    3.94
   0   5  -4  165.50    3.46
   0  -5   4  162.20    4.10
   0  -5  -4  167.73    3.86
   0  -5  -4  157.43    3.90
   0  -5  -4  160.70    3.55
   0   5   5   37.81    1.12
   0   5   5   37.29    1.14
   0   5  -5   41.10    0.99
   0   5  -5   38.20    1.14
   0  -5  -5   39.29    1.15
   0  -5  -5   39.42    0.98
   0  -5  -5   39.05    1.02
   0  -5  -5   39.47    1.08
   0  -5  -5   39.46    1.08
   0   5  -6   47.41    1.16
   0   5  -6   45.62    1.39
   0   5  -6   47.08    1.10
   0   5   6   44.62    1.28
   0   5  -6   46.03    1.17
   0   5   6   46.15    1.31
   0   5  -6   45.69    1.37
   0  -5  -6   48.12    1.39
   0  -5  -6   44.90    1.28
   0  -5  -6   46.26    1.24
   0  -5  -6   46.33    1.23
   0  -5  -6   48.70    1.20
   0  -5  -6   47.87    1.14
   0   5  -7   12.72    0.71
   0   5   7   12.20    0.64
   0   5  -7   13.12    0.55
   0   5  -7   12.18    0.50
   0   5   7   12.37    0.56
   0   5  -7   12.43    0.53
   0   5  -7   12.64    0.72
   0   5  -7   12.54    0.51
   0   5  -7   13.14    0.54
   0   5   7   12.45    0.55
   0  -5  -7   13.33    0.74
   0  -5  -7   11.86    0.49
   0  -5  -7   12.36    0.54
   0  -5  -7   12.98    0.57
   0  -5  -7   12.98    0.69
   0   5  -8    4.39    0.57
   0   5  -8    4.42    0.39
   0   5  -8    4.87    0.55
   0   5  -8    4.75    0.44
   0   5  -8    5.03    0.44
   0  -5  -8    4.97    0.51
   0  -5  -8    4.61    0.33
   0  -5  -8    4.75    0.45
   0  -5  -8    3.80    0.51
   0  -5  -8    5.26    0.58
   0   6   0   18.73    0.60
   0  -6   0   19.01    0.62
   0  -6   0   18.81    0.60
   0  -6   0   18.36    0.54
   0  -6   0   19.16    0.63
   0   6   1  213.81    5.18
   0   6  -1  207.18    5.05
   0   6   1  218.20    5.09
   0   6   1  211.29    5.09
   0   6  -1  211.13    5.14
   0   6  -1  221.29    5.05
   0   6  -1  212.75    5.06
   0  -6  -1  219.20    5.09
   0  -6   1  211.81    5.41
   0  -6   1  212.99    4.60
   0  -6  -1  207.50    5.44
   0  -6  -1  215.29    4.62
   0  -6   1  214.83    5.06
   0  -6   1  210.44    5.15
   0  -6  -1  218.32    5.19
   0   6  -2    7.12    0.32
   0   6   2    7.95    0.38
   0   6  -2    7.01    0.32
   0   6   2    7.42    0.39
   0   6  -2    7.10    0.32
   0   6  -2    6.30    0.32
   0   6   2    7.34    0.38
   0  -6  -2    7.23    0.27
   0  -6  -2    7.97    0.40
   0  -6   2    7.10    0.33
   0  -6   2    7.71    0.33
   0  -6   2    7.75    0.30
   0  -6  -2    7.01    0.34
   0  -6  -2    8.04    0.39
   0  -6  -2    7.14    0.38
   0   6   3  141.15    3.45
   0   6  -3  137.53    3.37
   0   6  -3  141.89    3.33
   0  -6  -3  143.29    3.32
   0  -6  -3  145.59    3.53
   0  -6   3  141.19    3.60
   0  -6  -3  141.76    3.45
   0  -6  -3  141.08    3.14
   0   6  -4    0.30    0.10
   0   6   4    0.08    0.21
   0   6  -4    0.08    0.18
   0   6  -4    0.13    0.15
   0   6   4   -0.08    0.20
   0   6  -4    0.08    0.11
   0  -6  -4   -0.11    0.17
   0  -6  -4    0.05    0.18
   0  -6  -4    0.21    0.19
   0  -6  -4    0.04    0.18
   0   6   5    4.99    0.44
   0   6  -5    5.24    0.33
   0   6   5    4.81    0.39
   0   6  -5    5.40    0.42
   0  -6  -5    5.29    0.41
   0  -6  -5    5.14    0.34
   0  -6  -5    5.36    0.43
   0  -6  -5    5.40    0.39
   0  -6  -5    4.90    0.37
   0   6  -6    0.85    0.25
   0   6  -6    0.85    0.30
   0   6   6    0.99    0.28
   0   6   6    0.46    0.26
   0   6  -6    0.94    0.34
   0   6  -6    0.87    0.21
   0  -6  -6    0.82    0.25
   0  -6  -6    0.76    0.31
   0  -6  -6    0.90    0.22
   0  -6  -6    0.92    0.32
   0  -6  -6    0.99    0.24
   0  -6  -6    1.10    0.26
   0   6   7   14.50    0.67
   0   6  -7   14.87    0.65
   0   6  -7   15.47    0.63
   0   6  -7   17.34    0.84
   0   6  -7   16.33    0.58
   0   6   7   16.68    0.67
   0   6  -7   16.70    0.79
   0  -6  -7   16.75    0.81
   0  -6  -7   15.96    0.68
   0  -6  -7   15.94    0.76
   0  -6  -7   16.09    0.66
   0  -6  -7   15.87    0.58
   0  -6  -7   15.55    0.59
   0   6  -8    0.56    0.32
   0   6  -8    0.17    0.33
   0   6  -8   -0.13    0.46
   0   6  -8    0.69    0.42
   0   6  -8    0.67    0.28
   0  -6  -8    0.25    0.43
   0  -6  -8    0.76    0.44
   0  -6  -8    0.33    0.26
   0  -6  -8    0.40    0.31
   0  -6  -8    0.47    0.37
   0   7   0    0.00    0.14
   0   7   0    0.18    0.14
   0   7   0    0.01    0.13
   0  -7   0    0.16    0.13
   0  -7   0   -0.07    0.16
   0  -7   0    0.19    0.16
   0  -7   0    0.01    0.15
   0   7   1    6.83    0.38
   0   7   1    6.85    0.38
   0   7  -1    7.28    0.36
   0   7   1    7.42    0.39
   0  -7  -1    8.41    0.40
   0  -7   1    7.22    0.38
   0  -7   1    7.06    0.33
   0  -7  -1    6.87    0.39
   0  -7  -1    6.88    0.40
   0  -7   1    8.15    0.38
   0  -7   1    6.86    0.37
   0  -7  -1    8.16    0.36
   0   7  -2   29.99    0.88
   0   7   2   32.23    0.95
   0   7   2   32.83    0.97
   0   7  -2   30.33    0.89
   0   7   2   31.56    0.94
   0   7  -2   30.45    0.88
   0  -7   2   32.07    0.94
   0  -7  -2   32.36    0.97
   0  -7  -2   31.72    0.94
   0  -7  -2   29.49    0.99
   0  -7  -2   31.58    0.86
   0  -7   2   31.43    0.89
   0   7   3   83.08    2.12
   0   7  -3   78.44    2.03
   0   7  -3   83.58    2.01
   0  -7  -3   84.35    2.17
   0  -7  -3   81.34    1.93
   0  -7   3   81.35    2.16
   0  -7  -3   84.60    2.12
   0   7  -4   38.52    1.08
   0   7   4   40.41    1.16
   0   7  -4   37.60    0.92
   0   7  -4   40.81    0.99
   0   7   4   39.32    1.17
   0   7  -4   38.16    1.01
   0  -7  -4   39.18    1.05
   0  -7  -4   37.72    1.13
   0  -7  -4   38.59    1.06
   0  -7  -4   37.65    1.04
   0   7   5  115.98    2.85
   0   7   5  115.09    2.89
   0   7  -5  110.04    2.75
   0   7  -5  113.32    2.49
   0  -7  -5  105.78    2.55
   0  -7  -5  108.10    2.59
   0  -7  -5  111.71    2.25
   0  -7  -5  108.84    2.58
   0  -7   5  113.42    2.17
   0   7   6   14.96    0.70
   0   7   6   16.47    0.63
   0   7  -6   16.00    0.58
   0   7  -6   15.62    0.59
   0   7  -6   17.39    0.76
   0   7   6   15.06    0.70
   0   7  -6   16.45    0.71
   0  -7  -6   15.65    0.62
   0  -7  -6   15.67    0.65
   0  -7  -6   16.38    0.71
   0  -7  -6   15.91    0.64
   0  -7  -6   16.92    0.57
   0  -7  -6   16.83    0.59
   0   7  -7   32.11    1.16
   0   7  -7   30.85    1.12
   0   7  -7   32.44    0.96
   0   7  -7   29.13    0.90
   0  -7  -7   30.35    0.91
   0  -7  -7   32.21    0.87
   0  -7  -7   29.35    1.06
   0  -7  -7   31.24    0.99
   0  -7  -7   30.25    0.98
   0   7  -8    1.26    0.50
   0   7  -8    1.20    0.37
   0   7  -8    1.66    0.34
   0  -7  -8    1.61    0.39
   0  -7  -8    1.01    0.30
   0  -7  -8    1.35    0.39
   0  -7  -8    2.47    0.48
   0  -7  -8    2.17    0.50
   0   8   0  238.04    5.69
   0   8   0  237.54    5.78
   0   8   0  240.24    5.69
   0  -8   0  240.17    6.09
   0  -8   0  245.43    5.70
   0  -8   0  233.37    5.17
   0  -8   0  235.37    5.79
   0   8   1   17.57    0.65
   0   8   1   17.92    0.64
   0   8  -1   18.09    0.61
   0   8  -1   17.37    0.61
   0   8   1   17.39    0.64
   0   8  -1   17.94    0.62
   0  -8  -1   17.86    0.65
   0  -8  -1   18.09    0.66
   0  -8   1   17.73    0.64
   0  -8   1   17.34    0.56
   0  -8  -1   18.40    0.59
   0  -8  -1   17.61    0.68
   0  -8   1   17.79    0.63
   0   8   2  112.39    2.81
   0   8   2  112.11    2.75
   0   8   2  109.51    2.75
   0   8  -2  109.28    2.70
   0  -8  -2  105.19    2.94
   0  -8  -2  105.24    2.74
   0  -8  -2  109.27    2.80
   0  -8   2  112.79    2.88
   0  -8  -2  109.13    2.50
   0   8   3   15.39    0.65
   0   8   3   15.63    0.66
   0   8   3   15.62    0.62
   0   8  -3   15.15    0.54
   0  -8  -3   15.09    0.62
   0  -8  -3   14.99    0.58
   0  -8  -3   16.50    0.67
   0   8  -4    3.74    0.28
   0   8   4    3.93    0.37
   0   8   4    3.66    0.36
   0   8  -4    4.13    0.36
   0  -8  -4    4.03    0.32
   0  -8  -4    4.54    0.35
   0  -8  -4    5.47    0.40
   0  -8  -4    4.21    0.36
   0   8   5    0.67    0.30
   0   8  -5    0.25    0.23
   0   8   5    0.66    0.30
   0   8  -5    0.57    0.21
   0   8   5    0.59    0.26
   0   8  -5    0.88    0.32
   0   8  -5    1.58    0.29
   0  -8  -5    1.67    0.31
   0  -8  -5    0.79    0.26
   0  -8  -5    1.00    0.24
   0  -8  -5    0.86    0.28
   0  -8  -5    0.24    0.25
   0  -8   5    0.20    0.22
   0   8   6    9.71    0.55
   0   8  -6    8.25    0.51
   0   8  -6    9.51    0.65
   0   8  -6    9.89    0.61
   0   8   6    8.25    0.60
   0   8   6    9.16    0.60
   0   8  -6    9.32    0.47
   0  -8  -6    9.94    0.51
   0  -8  -6    8.42    0.60
   0  -8  -6    9.61    0.49
   0  -8  -6    8.74    0.55
   0  -8  -6    7.98    0.52
   0   8   7    1.15    0.36
   0   8  -7    1.38    0.35
   0   8  -7    1.51    0.48
   0   8  -7    0.98    0.29
   0   8  -7    1.11    0.38
   0  -8  -7    1.58    0.32
   0  -8  -7    1.42    0.32
   0  -8  -7    1.34    0.37
   0  -8  -7    1.37    0.43
   0  -8  -7    1.15    0.34
   0   9   0    0.38    0.19
   0   9   0   -0.01    0.17
   0   9   0    0.03    0.18
   0  -9   0    0.18    0.18
   0  -9   0    0.35    0.20
   0  -9   0    0.06    0.21
   0  -9   0   -0.06    0.20
   0   9   1    7.53    0.45
   0   9  -1    7.53    0.41
   0   9   1    7.90    0.46
   0   9   1    8.40    0.47
   0   9  -1    7.77    0.43
   0   9  -1    8.01    0.43
   0  -9   1    8.16    0.45
   0  -9  -1    8.53    0.43
   0  -9   1    8.35    0.43
   0  -9   1    8.69    0.46
   0  -9  -1    8.25    0.48
   0  -9  -1    7.85    0.49
   0  -9  -1    8.35    0.48
   0   9   2   60.30    1.66
   0   9  -2   59.32    1.60
   0   9   2   60.03    1.68
   0   9   2   60.67    1.66
   0  -9  -2   61.90    1.70
   0  -9  -2   62.62    1.52
   0  -9  -2   60.60    1.66
   0  -9  -2   61.16    1.52
   0  -9  -2   60.36    1.78
   0  -9   2   59.80    1.70
   0   9   3   24.62    0.88
   0   9  -3   25.25    0.79
   0   9   3   24.76    0.90
   0   9   3   25.72    0.87
   0  -9  -3   24.95    0.90
   0  -9  -3   25.86    0.88
   0  -9  -3   24.33    0.80
   0  -9  -3   26.56    0.81
   0   9   4   80.97    2.09
   0   9  -4   72.11    1.93
   0   9   4   81.13    2.12
   0   9   4   75.88    1.70
   0   9  -4   79.13    1.81
   0  -9  -4   76.43    1.85
   0  -9  -4   75.85    1.87
   0  -9  -4   76.77    1.64
   0  -9  -4   72.46    1.90
   0  -9   4   78.11    1.59
   0   9  -5   11.19    0.49
   0   9   5   10.09    0.53
   0   9   5   10.24    0.65
   0   9  -5   11.30    0.61
   0   9   5   10.24    0.66
   0   9  -5   10.11    0.47
   0  -9  -5   11.75    0.58
   0  -9  -5   11.58    0.59
   0  -9  -5   12.16    0.55
   0  -9  -5   10.32    0.59
   0  -9   5   11.35    0.49
   0  -9   5    9.78    0.46
   0  -9  -5   11.24    0.51
   0   9  -6   33.22    0.99
   0   9   6   33.89    1.00
   0   9  -6   33.42    1.19
   0  -9  -6   35.17    0.94
   0  -9  -6   34.38    1.11
   0  -9  -6   34.26    1.05
   0  -9  -6   35.22    1.11
   0  -9  -6   34.85    1.05
   0   9   7    1.52    0.41
   0   9  -7    1.24    0.48
   0   9  -7    1.76    0.34
   0  -9  -7    2.06    0.34
   0  -9  -7    1.65    0.41
   0  -9  -7    1.61    0.40
   0  -9  -7    2.11    0.47
   0  10   0   50.45    1.39
   0  10   0   49.25    1.37
   0  10   0   48.31    1.38
   0 -10   0   49.58    1.46
   0 -10   0   45.87    1.24
   0 -10   0   49.44    1.05
   0 -10   0   48.54    1.40
   0 -10   0   47.29    1.38
   0 -10   0   48.43    1.23
   0  10   1  170.91    4.21
   0  10  -1  169.54    4.18
   0  10   1  169.42    4.28
   0  10   1  169.85    4.21
   0 -10  -1  170.00    4.29
   0 -10  -1  171.22    4.21
   0 -10  -1  174.79    3.83
   0 -10  -1  168.73    3.83
   0 -10   1  177.78    4.47
   0 -10  -1  175.60    4.52
   0 -10   1  171.46    3.23
   0 -10  -1  173.21    3.21
   0  10   2   20.11    0.78
   0  10   2   20.43    0.79
   0  10   2   21.31    0.78
   0  10  -2   20.28    0.72
   0 -10  -2   20.90    0.72
   0 -10  -2   20.80    0.70
   0 -10  -2   20.72    0.80
   0 -10   2   20.60    0.75
   0 -10  -2   20.77    0.55
   0 -10   2   20.02    0.59
   0 -10  -2   20.86    0.77
   0 -10  -2   20.53    0.84
   0  10  -3   27.29    0.86
   0  10   3   27.03    0.96
   0  10   3   26.36    0.77
   0  10   3   26.04    0.92
   0  10  -3   26.12    0.82
   0  10   3   27.64    0.96
   0 -10  -3   27.53    0.98
   0 -10  -3   26.75    0.74
   0 -10   3   26.74    0.72
   0 -10  -3   26.17    0.87
   0 -10  -3   28.10    0.87
   0  10  -4    1.49    0.28
   0  10  -4    1.76    0.29
   0  10   4    1.92    0.31
   0  10  -4    2.08    0.22
   0  10  -4    1.01    0.31
   0  10   4    1.70    0.37
   0  10   4    1.28    0.34
   0 -10  -4    1.43    0.27
   0 -10   4    1.70    0.27
   0 -10  -4    2.07    0.36
   0 -10   4    1.59    0.27
   0 -10  -4    1.67    0.30
   0 -10  -4    1.96    0.32
   0  10   5    2.37    0.41
   0  10  -5    3.19    0.35
   0  10   5    3.15    0.40
   0  10   5    2.72    0.43
   0  10  -5    2.75    0.43
   0  10  -5    2.81    0.24
   0  10  -5    2.71    0.32
   0 -10  -5    3.00    0.34
   0 -10   5    3.29    0.33
   0 -10  -5    2.60    0.35
   0 -10  -5    2.90    0.38
   0 -10   5    2.74    0.32
   0 -10  -5    2.70    0.41
   0  10  -6    0.19    0.41
   0  10   6    0.63    0.36
   0  10  -6    0.02    0.29
   0  10  -6   -0.19    0.26
   0 -10  -6    0.01    0.31
   0 -10  -6    0.35    0.31
   0 -10  -6    0.34    0.37
   0 -10  -6    0.20    0.38
   0 -10  -6    0.07    0.33
   0  10  -7   14.80    0.68
   0  10   7   15.25    0.75
   0  10  -7   15.67    0.90
   0 -10  -7   16.22    0.71
   0 -10  -7   14.46    0.80
   0 -10  -7   14.08    0.72
   0 -10  -7   16.69    0.84
   0  11   0   -0.29    0.22
   0  11   0    0.03    0.24
   0  11   0    0.20    0.22
   0 -11   0    0.05    0.21
   0 -11   0   -0.06    0.21
   0 -11   0   -0.13    0.24
   0 -11   0    0.16    0.20
   0  11   1   25.38    0.89
   0  11  -1   24.94    0.69
   0  11   1   25.15    0.90
   0  11   1   26.00    0.89
   0 -11  -1   25.93    0.81
   0 -11  -1   24.49    0.92
   0 -11  -1   24.27    0.65
   0 -11  -1   25.85    0.90
   0 -11   1   25.51    0.70
   0 -11  -1   25.21    0.95
   0 -11   1   24.63    0.89
   0 -11  -1   25.18    0.82
   0  11  -2    0.84    0.20
   0  11  -2    0.71    0.25
   0  11   2    0.91    0.29
   0  11   2    1.04    0.29
   0  11   2    1.18    0.27
   0  11   2    0.97    0.25
   0 -11  -2    0.58    0.30
   0 -11   2    1.07    0.25
   0 -11  -2    0.87    0.21
   0 -11   2    0.72    0.23
   0 -11  -2    1.08    0.28
   0 -11  -2    0.77    0.31
   0 -11  -2    1.53    0.28
   0 -11  -2    1.36    0.30
   0  11  -3   96.70    2.31
   0  11   3   99.96    2.12
   0  11  -3  100.66    2.02
   0  11   3  100.31    2.66
   0  11  -3   91.50    2.34
   0  11   3  101.08    2.63
   0 -11   3  100.06    1.95
   0 -11  -3   99.68    2.37
   0 -11  -3   97.42    2.07
   0 -11   3  101.15    2.01
   0 -11  -3  100.73    2.39
   0  11  -4    8.35    0.53
   0  11   4    7.84    0.50
   0  11   4    8.18    0.63
   0  11  -4    7.92    0.47
   0  11  -4    8.24    0.40
   0  11   4    7.91    0.62
   0  11  -4    7.51    0.48
   0 -11  -4    8.43    0.59
   0 -11   4    8.55    0.48
   0 -11   4    8.44    0.47
   0 -11  -4    8.24    0.58
   0 -11  -4    8.60    0.54
   0 -11  -4    8.31    0.46
   0  11  -5   58.25    1.51
   0  11  -5   57.20    1.69
   0  11   5   56.34    1.41
   0  11  -5   54.89    1.49
   0  11  -5   58.67    1.25
   0 -11  -5   57.23    1.60
   0 -11  -5   56.92    1.57
   0 -11  -5   57.14    1.37
   0 -11   5   58.31    1.31
   0 -11   5   57.32    1.28
   0 -11  -5   60.03    1.57
   0  11  -6    5.59    0.60
   0  11   6    5.66    0.50
   0  11  -6    5.39    0.48
   0  11  -6    6.40    0.48
   0 -11   6    6.86    0.45
   0 -11  -6    6.07    0.46
   0 -11  -6    6.73    0.52
   0 -11  -6    5.66    0.53
   0 -11  -6    4.97    0.55
   0  12   0   56.99    1.29
   0  12   0   59.66    1.32
   0  12   0   58.08    1.50
   0 -12   0   57.01    1.26
   0 -12   0   56.97    1.72
   0 -12   0   57.36    1.47
   0 -12   0   58.50    1.24
   0  12   1   45.21    1.08
   0  12  -1   44.40    1.05
   0  12   1   45.43    1.24
   0  12   1   47.28    1.36
   0  12   1   47.20    1.39
   0  12  -1   45.10    1.23
   0  12   1   44.10    1.08
   0 -12  -1   43.62    1.23
   0 -12  -1   44.63    1.01
   0 -12  -1   43.32    1.22
   0 -12  -1   45.87    1.45
   0 -12   1   42.65    1.38
   0 -12  -1   45.45    1.02
   0 -12   1   43.69    1.02
   0 -12  -1   44.67    1.36
   0 -12   1   43.90    1.05
   0  12   2   45.14    1.37
   0  12   2   45.96    1.40
   0  12  -2   45.61    1.05
   0  12  -2   44.37    1.25
   0  12   2   43.55    1.06
   0  12   2   44.09    1.10
   0 -12  -2   44.33    1.47
   0 -12  -2   44.72    1.08
   0 -12  -2   44.08    1.01
   0 -12  -2   46.94    1.26
   0 -12   2   43.39    1.06
   0 -12  -2   43.98    1.26
   0 -12  -2   45.09    1.02
   0 -12  -2   45.09    1.02
   0 -12   2   43.38    1.02
   0  12   3    7.04    0.60
   0  12  -3    6.37    0.49
   0  12  -3    6.20    0.40
   0  12  -3    7.06    0.49
   0  12   3    5.65    0.42
   0  12   3    6.30    0.50
   0 -12  -3    7.05    0.42
   0 -12  -3    6.56    0.54
   0 -12  -3    6.64    0.49
   0 -12   3    6.10    0.42
   0 -12   3    6.16    0.40
   0 -12  -3    6.39    0.47
   0  12  -4   10.96    0.64
   0  12  -4   10.78    0.58
   0  12  -4    9.99    0.45
   0  12   4    9.76    0.60
   0  12  -4    9.51    0.54
   0 -12  -4   10.05    0.64
   0 -12  -4   10.20    0.53
   0 -12  -4   10.28    0.65
   0 -12   4    9.28    0.52
   0 -12   4   10.66    0.55
   0  12  -5    0.27    0.39
   0  12  -5    0.49    0.34
   0  12   5    0.75    0.37
   0  12  -5    0.73    0.32
   0  12  -5    0.75    0.24
   0 -12   5    0.31    0.31
   0 -12  -5    0.56    0.38
   0 -12   5    0.83    0.31
   0 -12  -5    0.51    0.35
   0 -12  -5    0.76    0.33
   0 -12  -5    0.84    0.40
   0  12   6    2.00    0.43
   0 -12   6    1.80    0.38
   0 -12   6    1.84    0.36
   0 -12   6    1.62    0.35
   0 -12  -6    1.99    0.38
   0  13   0    0.66    0.30
   0  13   0   -0.09    0.22
   0  13   0    0.44    0.23
   0 -13   0   -0.05    0.29
   0 -13   0    0.01    0.27
   0 -13   0    0.33    0.23
   0 -13   0    0.31    0.24
   0  13   1    0.32    0.24
   0  13  -1   -0.19    0.22
   0  13  -1   -0.03    0.22
   0  13  -1    0.28    0.27
   0  13   1    0.14    0.30
   0  13   1   -0.29    0.25
   0 -13  -1    0.34    0.25
   0 -13  -1    0.57    0.30
   0 -13  -1    0.05    0.22
   0 -13   1    0.30    0.25
   0 -13  -1    0.60    0.28
   0 -13   1   -0.03    0.25
   0 -13  -1   -0.22    0.31
   0  13   2   13.47    0.76
   0  13   2   12.41    0.62
   0  13  -2   15.67    0.68
   0  13   2   13.86    0.74
   0  13   2   13.45    0.61
   0  13   2   13.81    0.56
   0  13  -2   15.59    0.54
   0 -13  -2   13.43    0.59
   0 -13  -2   13.50    0.54
   0 -13   2   14.31    0.59
   0 -13   2   14.38    0.55
   0 -13  -2   14.17    0.52
   0 -13  -2   13.51    0.79
   0 -13  -2   14.12    0.69
   0 -13  -2   13.61    0.52
   0 -13  -2   14.45    0.67
   0  13  -3    1.57    0.27
   0  13   3    1.64    0.33
   0  13  -3    1.45    0.36
   0 -13  -3    0.95    0.28
   0 -13  -3    1.57    0.32
   0 -13  -3    1.37    0.34
   0 -13   3    1.21    0.30
   0 -13   3    1.35    0.32
   0 -13  -3    1.25    0.37
   0  13  -4   29.13    1.03
   0  13   4   31.36    0.95
   0  13  -4   31.20    0.84
   0  13  -4   30.28    1.06
   0 -13   4   32.98    0.89
   0 -13  -4   30.40    0.92
   0 -13   4   30.70    0.90
   0 -13  -4   32.33    1.09
   0 -13  -4   32.87    1.07
   0  13  -5    1.85    0.45
   0  13  -5    1.86    0.29
   0  13  -5    1.95    0.43
   0  13  -5    1.73    0.39
   0  13   5    2.03    0.41
   0 -13   5    2.03    0.37
   0 -13  -5    3.08    0.50
   0 -13  -5    2.42    0.43
   0 -13   5    2.12    0.37
   0 -13  -5    1.51    0.35
   0  14   0   19.13    0.64
   0  14   0   19.01    0.65
   0  14   0   19.31    0.75
   0 -14   0   19.45    0.63
   0 -14   0   19.38    0.65
   0 -14   0   17.98    0.85
   0  14   1   39.38    1.01
   0  14  -1   37.51    1.16
   0  14   1   38.30    1.17
   0  14  -1   38.22    0.98
   0  14  -1   38.37    0.99
   0  14   1   39.42    1.03
   0 -14  -1   38.04    0.96
   0 -14   1   38.08    0.96
   0 -14   1   38.67    0.99
   0 -14  -1   36.87    1.12
   0 -14  -1   37.13    0.96
   0 -14  -1   37.42    0.95
   0  14   2    9.06    0.61
   0  14  -2    8.75    0.50
   0  14   2    8.88    0.52
   0  14   2    9.62    0.57
   0  14  -2    9.19    0.56
   0 -14   2    8.54    0.50
   0 -14  -2    8.86    0.47
   0 -14  -2    9.68    0.60
   0 -14  -2    8.41    0.50
   0 -14   2    8.93    0.54
   0 -14  -2    9.98    0.64
   0 -14  -2    9.55    0.48
   0 -14  -2    8.75    0.51
   0  14   3    9.86    0.63
   0  14  -3   11.30    0.67
   0  14  -3    9.53    0.53
   0 -14  -3   10.40    0.55
   0 -14   3   10.20    0.58
   0 -14   3    9.06    0.58
   0 -14  -3   10.56    0.69
   0 -14  -3   10.71    0.54
   0 -14  -3   11.10    0.69
   0  14  -4    0.44    0.27
   0  14  -4    0.34    0.38
   0  14  -4    0.80    0.36
   0  14   4   -0.09    0.34
   0 -14  -4    0.53    0.32
   0 -14  -4    0.22    0.36
   0 -14  -4    0.32    0.42
   0 -14   4    0.44    0.33
   0 -14   4    0.58    0.33
   0  15   0   -0.08    0.28
   0  15   0    0.14    0.33
   0  15   0   -0.08    0.28
   0 -15   0    0.76    0.30
   0 -15   0    0.28    0.31
   0 -15   0    0.02    0.29
   0  15  -1    5.74    0.40
   0  15   1    5.15    0.40
   0  15   1    4.82    0.41
   0  15  -1    4.87    0.49
   0  15   1    4.56    0.47
   0  15  -1    4.58    0.40
   0 -15  -1    4.48    0.37
   0 -15  -1    4.89    0.38
   0 -15   1    5.45    0.42
   0 -15   1    5.22    0.41
   0 -15   1    4.74    0.41
   0 -15  -1    5.23    0.50
   0 -15  -1    4.93    0.40
   0  15  -2    1.14    0.32
   0  15  -2    1.13    0.36
   0  15   2    1.71    0.33
   0  15   2    1.08    0.36
   0  15   2    1.58    0.40
   0 -15  -2    1.23    0.33
   0 -15  -2    1.12    0.31
   0 -15   2    1.65    0.35
   0 -15   2    1.36    0.35
   0 -15  -2    1.15    0.39
   0 -15  -2    1.59    0.32
   0 -15  -2    2.10    0.40
   0  15   3   31.71    1.02
   0  15  -3   32.12    0.92
   0 -15  -3   30.16    0.95
   0 -15  -3   33.61    0.92
   0 -15   3   32.31    0.93
   0 -15   3   31.00    0.91
   0 -15  -3   32.27    1.11
   1   0  -9    0.33    0.33
   1   0  -9   -0.21    0.30
   1   0  -9    0.27    0.35
   1   0  -9    0.03    0.30
   1   0  -8    1.98    0.29
   1   0  -8    1.74    0.32
   1   0  -8    1.70    0.28
   1   0  -8    1.51    0.26
   1   0  -8    2.00    0.45
   1   0  -8    1.91    0.27
   1   0  -8    1.64    0.33
   1   0  -8    1.32    0.31
   1   0  -7    0.15    0.19
  -1   0   7    0.04    0.21
   1   0  -7    0.35    0.20
   1   0  -7    0.22    0.18
   1   0  -7   -0.28    0.29
   1   0  -7    0.54    0.24
   1   0  -6  304.22    6.48
   1   0  -6  300.95    7.31
  -1   0   6  323.49    7.83
   1   0  -6  314.62    6.59
   1   0  -6  314.21    6.66
  -1   0   5    0.05    0.15
   1   0  -5    0.25    0.11
  -1   0   5    0.02    0.11
   1   0  -4  983.01   22.86
   1   0  -4  974.29   22.56
  -1   0   4  987.40   24.25
   1   0  -4  957.92   20.49
  -1   0   4  948.54   22.88
  -1   0   4  979.28   22.48
   1   0  -4  993.21   22.44
  -1   0   3    0.17    0.05
  -1   0   3    0.02    0.05
   1   0  -3    0.20    0.05
   1   0  -3   -0.04    0.04
  -1   0   3    0.04    0.08
  -1   0   3    0.01    0.05
   1   0  -3    0.21    0.05
  -1   0   2  220.46    5.59
  -1   0   2  219.17    5.28
   1   0  -2  229.84    5.19
  -1   0   2  237.09    5.19
  -1   0   2  226.43    5.19
   1   0  -2  220.41    5.28
   1   0  -2  221.95    4.70
   1   0  -2  222.40    5.22
  -1   0   1   -0.03    0.02
   1   0  -1    0.10    0.03
  -1   0   1    0.00    0.03
   1   0  -1    0.05    0.03
  -1   0   1    0.00    0.02
   1   0  -1    0.00    0.02
  -1   0   0   19.45    0.52
   1   0   0   18.84    0.48
  -1   0   0   19.36    0.48
  -1   0   0   19.43    0.48
  -1   0   0   19.60    0.41
   1   0   1   -0.40    0.04
   1   0   1   -0.10    0.07
  -1   0  -1   -0.29    0.04
   1   0   1   -0.37    0.04
   1   0   1   -0.37    0.04
  -1   0  -1   -0.05    0.10
   1   0   1   -0.19    0.04
  -1   0  -1   -0.15    0.05
   1   0   2   15.92    0.39
  -1   0  -2   15.96    0.34
  -1   0  -2   15.44    0.49
  -1   0  -2   15.60    0.40
   1   0   2   16.30    0.39
  -1   0  -2   15.70    0.37
   1   0   2   15.53    0.40
   1   0   2   15.69    0.40
  -1   0  -2   15.86    0.39
  -1   0  -2   15.30    0.37
   1   0   3    0.16    0.05
   1   0   3    0.04    0.05
  -1   0  -3    0.04    0.14
   1   0   3    0.01    0.07
  -1   0  -4  122.19    2.68
   1   0   4  130.00    3.18
  -1   0  -4  123.62    3.06
  -1   0  -5   -0.03    0.18
  -1   0  -5    0.11    0.12
   1   0   5    0.02    0.15
  -1   0  -5    0.05    0.17
  -1   0  -5    0.02    0.24
  -1   0  -6  106.97    2.47
  -1   0  -6  107.48    2.79
  -1   0  -6  107.01    2.34
  -1   0  -7    0.37    0.29
  -1   0  -7    0.27    0.26
  -1   0  -7    0.05    0.21
  -1   0  -7    0.56    0.37
  -1   0  -7   -0.09    0.26
  -1   0  -8   17.13    0.73
  -1   0  -8   17.82    0.63
  -1   0  -8   17.44    0.99
  -1   0  -8   18.98    0.74
  -1   0  -8   17.06    0.77
  -1   0  -8   16.87    0.66
   1   1  -9    7.64    0.56
   1   1  -9    8.01    0.60
   1   1  -9    8.40    0.55
   1   1  -9    7.79    0.56
   1  -1  -9    7.84    0.53
   1  -1  -9    8.81    0.60
   1  -1  -9    7.68    0.52
   1  -1  -9    8.67    0.66
   1   1  -8   74.50    1.81
   1   1  -8   72.11    2.08
   1   1  -8   69.11    1.72
   1   1  -8   74.23    1.71
   1   1  -8   71.08    1.65
   1   1  -8   70.28    1.69
   1   1  -8   70.39    1.79
   1  -1  -8   73.98    1.81
   1  -1  -8   70.15    1.73
   1  -1  -8   72.58    1.70
   1  -1  -8   70.32    1.70
   1  -1  -8   71.74    2.09
   1  -1  -8   76.53    1.73
   1  -1  -8   69.87    1.82
   1   1  -7   22.63    0.90
   1   1  -7   20.78    0.67
   1   1  -7   22.25    0.69
  -1   1   7   22.13    0.76
   1   1  -7   21.54    0.72
   1   1  -7   22.25    0.64
   1   1  -7   21.44    0.67
   1  -1  -7   20.91    0.64
   1  -1  -7   21.75    0.69
   1  -1  -7   22.64    0.65
   1  -1  -7   20.74    0.89
   1  -1  -7   20.83    0.74
  -1   1   6   75.92    1.96
   1   1  -6   81.17    1.79
  -1   1   6   75.58    1.93
   1   1  -6   80.78    2.10
   1   1  -6   80.25    1.86
   1   1  -6   81.25    1.79
  -1   1   6   83.02    2.13
   1  -1  -6   78.27    2.11
   1  -1  -6   83.30    1.80
   1  -1  -6   77.92    1.88
  -1  -1   6   81.99    2.10
   1  -1  -6   80.74    1.88
   1  -1  -6   77.38    1.80
   1   1  -5   26.46    0.66
  -1   1   5   27.52    0.80
  -1   1   5   25.17    0.74
   1  -1  -5   27.57    0.68
   1  -1  -5   27.16    0.68
  -1  -1   5   28.03    0.79
   1  -1  -5   26.09    0.86
  -1   1   4   65.43    1.67
  -1   1   4   63.49    1.54
   1   1  -4   61.90    1.40
  -1   1   4   63.06    1.51
  -1  -1   4   63.24    1.66
   1  -1  -4   63.25    1.57
   1  -1  -4   60.93    1.40
  -1  -1   4   65.43    1.52
  -1  -1   4   65.58    1.49
   1  -1  -4   63.74    1.51
   1  -1  -4   64.04    1.54
  -1   1   3    3.95    0.14
   1   1  -3    3.05    0.11
   1   1  -3    3.33    0.11
   1   1  -3    3.19    0.11
  -1   1   3    3.65    0.14
  -1   1   3    3.39    0.18
  -1  -1   3    3.24    0.12
   1  -1  -3    3.88    0.14
  -1  -1   3    3.44    0.12
  -1  -1   3    2.94    0.17
   1  -1  -3    3.10    0.15
   1  -1  -3    3.24    0.15
  -1  -1   3    3.10    0.11
  -1  -1   3    3.18    0.12
  -1   1   2  700.70   16.14
   1   1  -2  701.33   16.15
  -1   1   2  686.61   16.14
  -1   1   2  724.11   17.48
   1   1  -2  691.85   16.14
   1   1  -2  701.12   14.65
  -1   1   2  685.10   16.45
   1   1  -2  693.09   16.43
   1  -1  -2  733.85   16.19
   1  -1  -2  652.55   16.43
  -1  -1   2  723.26   16.13
  -1  -1   2  694.24   16.15
  -1  -1   2  689.26   16.11
  -1  -1   2  696.44   16.42
   1  -1  -2  673.95   16.16
  -1  -1   2  695.97   17.39
  -1   1   1   88.84    1.74
   1   1  -1   88.08    2.09
   1   1  -1   88.64    2.06
   1   1  -1   86.85    2.06
  -1   1   1   86.61    2.06
   1   1  -1   89.16    2.06
  -1   1   1   88.40    2.22
  -1  -1   1   88.40    2.06
  -1  -1   1   87.91    2.22
  -1  -1   1   88.48    2.06
   1  -1  -1   88.66    2.06
   1  -1  -1   84.96    2.10
   1  -1  -1   87.11    2.06
  -1  -1   1   92.23    2.06
  -1  -1   1   92.17    2.10
  -1   1   0  282.38    7.11
   1   1   0  279.46    6.65
  -1   1   0  290.61    6.67
  -1   1   0  291.96    6.66
  -1   1   0  281.79    5.62
  -1  -1   0  285.78    6.65
   1  -1   0  281.78    6.65
  -1  -1   0  281.01    7.14
  -1  -1   0  288.04    6.05
  -1  -1   0  291.80    6.63
  -1  -1   0  285.52    5.60
  -1   1  -1  222.88    4.27
   1   1   1  214.02    5.07
   1   1   1  216.57    5.08
   1   1   1  215.71    5.06
  -1   1  -1  227.88    5.08
  -1   1  -1  224.21    5.08
   1   1   1  215.08    5.16
  -1  -1  -1  217.50    5.46
   1  -1   1  221.23    5.15
   1  -1   1  223.59    5.05
  -1  -1  -1  222.47    5.06
  -1  -1  -1  220.23    4.27
  -1  -1  -1  205.12    5.00
  -1  -1  -1  217.03    5.07
  -1  -1  -1  221.42    4.61
   1   1   2  145.64    3.44
   1   1   2  149.48    3.45
   1   1   2  147.08    3.51
   1   1   2  150.75    3.53
   1   1   2  149.38    3.46
   1  -1   2  148.36    3.68
  -1  -1  -2  149.55    3.46
  -1  -1  -2  140.62    3.45
  -1  -1  -2  146.55    3.44
  -1  -1  -2  153.52    3.15
  -1  -1  -2  153.00    2.92
  -1  -1  -2  144.02    3.13
   1   1   3   72.73    1.68
   1   1   3   64.51    1.68
   1   1   3   67.08    1.71
   1   1   3   73.06    1.66
  -1   1  -3   72.57    1.50
  -1  -1  -3   70.98    1.75
  -1  -1  -3   65.97    1.68
  -1  -1  -3   69.00    1.42
  -1  -1  -3   68.09    1.53
  -1  -1  -3   72.50    1.65
   1  -1   3   71.50    1.77
   1   1   4   60.56    1.41
  -1   1  -4   57.17    1.29
   1   1   4   59.94    1.43
  -1  -1  -4   60.68    1.42
  -1  -1  -4   60.43    1.29
  -1  -1  -4   58.04    1.31
   1  -1   4   56.98    1.52
  -1  -1  -4   56.12    1.56
  -1   1  -5    1.57    0.22
  -1   1  -5    2.06    0.16
   1   1   5    2.17    0.22
  -1   1  -5    1.91    0.21
  -1  -1  -5    1.39    0.30
  -1  -1  -5    2.12    0.18
  -1   1  -6    0.11    0.22
  -1   1  -6    0.12    0.20
  -1   1  -6   -0.11    0.30
  -1  -1  -6    0.71    0.32
  -1  -1  -6   -0.04    0.22
  -1  -1  -6   -0.02    0.24
  -1   1  -7    7.67    0.48
  -1   1  -7    7.47    0.45
  -1   1  -7    5.94    0.40
  -1   1  -7    5.48    0.36
  -1   1  -7    5.71    0.55
  -1   1  -7    6.23    0.44
  -1  -1  -7    5.39    0.44
  -1  -1  -7    4.66    0.53
  -1  -1  -7    5.46    0.40
  -1  -1  -7    5.04    0.33
  -1  -1  -7    6.00    0.46
  -1   1  -8    8.14    0.71
  -1   1  -8    7.45    0.57
  -1   1  -8    7.63    0.54
  -1   1  -8    7.94    0.54
  -1   1  -8    8.11    0.53
  -1   1  -8    8.03    0.44
  -1  -1  -8    7.49    0.61
  -1  -1  -8    8.02    0.57
  -1  -1  -8    7.13    0.42
  -1  -1  -8    7.89    0.52
  -1  -1  -8    7.54    0.70
   1   2  -9    0.94    0.34
   1   2  -9    0.55    0.32
   1   2  -9    1.10    0.36
   1   2  -9    0.79    0.35
   1  -2  -9   -0.15    0.38
   1  -2  -9    0.86    0.36
   1  -2  -9    0.99    0.41
   1   2  -8    1.45    0.25
   1   2  -8    1.67    0.31
   1   2  -8    1.62    0.30
   1   2  -8    0.56    0.26
   1   2  -8    1.61    0.31
   1   2  -8    1.21    0.29
   1   2  -8    1.83    0.43
   1   2  -8    1.20    0.38
   1  -2  -8    0.87    0.25
   1  -2  -8    1.20    0.31
   1  -2  -8    1.54    0.28
   1  -2  -8    1.32    0.37
   1  -2  -8    1.79    0.28
   1  -2  -8    1.78    0.43
   1   2  -7    7.58    0.42
   1   2  -7    7.95    0.41
   1   2  -7    8.66    0.38
   1   2  -7    7.10    0.38
   1   2  -7    7.86    0.39
  -1   2   7    8.60    0.49
   1   2  -7    8.43    0.60
   1  -2  -7    7.28    0.60
   1  -2  -7    8.49    0.50
   1  -2  -7    8.35    0.42
   1  -2  -7    8.24    0.41
   1  -2  -7    7.85    0.37
  -1   2   6    4.81    0.32
   1   2  -6    5.31    0.44
   1   2  -6    4.63    0.31
  -1   2   6    5.05    0.31
   1   2  -6    5.50    0.30
   1   2  -6    4.87    0.27
  -1   2   6    5.28    0.37
  -1  -2   6    5.44    0.34
   1  -2  -6    5.49    0.49
   1  -2  -6    5.15    0.23
   1  -2  -6    5.13    0.31
   1  -2  -6    5.07    0.38
  -1   2   5   94.94    2.46
   1   2  -5  101.74    2.49
  -1   2   5  103.07    2.60
   1   2  -5  100.50    2.17
   1  -2  -5   98.35    2.18
   1  -2  -5   98.36    2.50
  -1  -2   5  102.68    2.56
   1  -2  -5   97.22    2.36
  -1   2   4   12.31    0.42
  -1   2   4   10.90    0.34
   1   2  -4   11.67    0.46
  -1   2   4   11.31    0.39
  -1   2   4   11.16    0.35
   1   2  -4   10.57    0.32
   1  -2  -4   11.01    0.38
  -1  -2   4   11.35    0.38
   1  -2  -4   11.36    0.34
   1  -2  -4   11.01    0.34
   1  -2  -4   10.98    0.38
  -1   2   3  339.67    7.99
   1   2  -3  341.91    7.80
  -1   2   3  336.70    7.84
   1   2  -3  341.01    7.81
   1   2  -3  338.43    7.95
  -1  -2   3  343.23    7.83
   1  -2  -3  347.58    7.86
   1  -2  -3  336.98    7.84
   1  -2  -3  331.52    7.10
  -1  -2   3  343.94    7.96
  -1  -2   3  339.02    7.81
  -1  -2   3  333.00    8.42
   1  -2  -3  329.65    8.00
  -1   2   2   35.91    0.89
  -1   2   2   35.60    0.88
   1   2  -2   36.54    0.86
   1   2  -2   36.08    0.86
   1   2  -2   36.49    0.86
   1   2  -2   36.23    0.79
   1   2  -2   36.43    0.87
   1  -2  -2   33.96    0.90
  -1  -2   2   35.68    0.94
  -1  -2   2   35.21    0.86
   1  -2  -2   34.19    0.88
   1  -2  -2   35.74    0.89
  -1  -2   2   37.13    0.88
  -1  -2   2   36.16    0.86
  -1  -2   2   37.12    0.86
   1   2  -1  305.34    6.83
  -1   2   1  302.12    6.84
   1   2  -1  295.97    6.85
   1   2  -1  295.61    6.91
   1   2  -1  292.14    6.99
  -1   2   1  299.09    6.84
  -1  -2   1  292.65    6.21
   1  -2  -1  293.34    6.17
  -1  -2   1  296.08    7.35
   1  -2  -1  287.97    6.83
  -1  -2   1  297.29    6.83
   1  -2  -1  278.26    6.98
  -1  -2   1  296.35    6.91
  -1  -2   1  302.17    6.96
   1  -2  -1  300.31    6.84
  -1  -2   1  295.64    5.76
   1   2   0   58.39    1.37
  -1   2   0   58.43    1.36
  -1   2   0   58.25    1.36
   1   2   0   55.21    1.38
   1   2   0   57.84    1.37
  -1  -2   0   57.33    1.37
  -1  -2   0   56.52    1.16
  -1  -2   0   56.33    1.25
   1  -2   0   58.08    1.36
  -1  -2   0   55.93    1.49
   1   2   1   -0.11    0.08
  -1   2  -1    0.02    0.05
   1   2   1   -0.10    0.07
   1   2   1   -0.05    0.08
  -1   2  -1    0.01    0.07
   1   2   1   -0.22    0.07
  -1   2  -1   -0.08    0.10
  -1  -2  -1   -0.07    0.08
  -1  -2  -1   -0.18    0.07
  -1  -2  -1   -0.19    0.07
   1  -2   1   -0.09    0.05
  -1  -2  -1   -0.16    0.10
  -1  -2  -1    0.19    0.10
  -1  -2  -1   -0.01    0.07
   1   2   2    1.68    0.16
   1   2   2    1.83    0.16
   1   2   2    1.65    0.14
   1   2   2    1.61    0.14
   1  -2   2    1.37    0.09
  -1  -2  -2    1.16    0.11
   1  -2   2    1.43    0.08
  -1  -2  -2    1.42    0.15
  -1  -2  -2    1.46    0.16
  -1  -2  -2    1.27    0.11
  -1  -2  -2    1.86    0.16
  -1  -2  -2    1.50    0.13
   1   2   3  116.18    2.91
   1   2   3  128.56    2.94
   1   2   3  118.17    2.97
  -1   2  -3  121.98    2.92
   1   2   3  128.86    2.89
  -1   2  -3  122.90    2.58
  -1  -2  -3  120.37    2.46
  -1  -2  -3  116.54    2.92
  -1  -2  -3  119.38    2.92
  -1  -2  -3  126.54    2.88
   1  -2   3  127.22    3.06
  -1  -2  -3  119.19    2.65
   1   2   4    3.67    0.20
  -1   2  -4    3.35    0.30
   1   2   4    3.61    0.21
   1  -2   4    3.39    0.19
  -1  -2  -4    3.32    0.21
  -1  -2  -4    2.84    0.21
  -1  -2  -4    3.37    0.31
  -1  -2  -4    3.00    0.22
  -1   2  -5  138.90    3.40
  -1   2  -5  134.51    2.87
   1   2   5  143.77    3.30
  -1   2  -5  135.39    3.04
   1   2   5  142.33    3.25
  -1  -2  -5  138.49    3.00
  -1  -2  -5  141.22    2.96
  -1  -2  -5  139.40    3.13
  -1  -2  -5  129.30    3.39
  -1  -2  -5  137.04    3.25
  -1  -2  -5  135.15    2.94
  -1   2  -6    0.83    0.33
  -1   2  -6    0.89    0.23
  -1   2  -6    0.74    0.24
  -1   2  -6    1.14    0.21
  -1  -2  -6    0.67    0.33
  -1  -2  -6    0.77    0.19
  -1  -2  -6    0.59    0.24
  -1  -2  -6    1.10    0.20
  -1  -2  -6    0.94    0.23
  -1  -2  -6    0.91    0.27
  -1   2  -7   51.28    1.56
  -1   2  -7   51.47    1.29
  -1   2  -7   54.69    1.38
  -1   2  -7   50.90    1.26
  -1   2  -7   53.23    1.63
  -1   2  -7   51.39    1.37
  -1   2  -7   51.52    1.32
  -1  -2  -7   50.00    1.43
  -1  -2  -7   54.98    1.40
  -1  -2  -7   50.65    1.63
  -1  -2  -7   53.13    1.27
  -1  -2  -7   51.21    1.35
  -1   2  -8    0.56    0.45
  -1   2  -8    0.55    0.46
  -1   2  -8    0.69    0.32
  -1   2  -8    0.30    0.24
  -1   2  -8    0.17    0.30
  -1   2  -8    0.32    0.32
  -1   2  -8    0.26    0.34
  -1  -2  -8    0.39    0.26
  -1  -2  -8   -0.02    0.36
  -1  -2  -8    1.09    0.46
  -1  -2  -8    0.09    0.31
  -1  -2  -8   -0.06    0.38
   1   3  -9   12.64    0.79
   1   3  -9   13.56    0.67
   1   3  -9   12.81    0.67
   1   3  -9   12.73    0.63
   1   3  -9   12.31    0.55
   1   3  -9   13.23    0.61
   1  -3  -9   12.14    0.72
   1  -3  -9   12.07    0.63
   1  -3  -9   12.98    0.77
   1  -3  -9   14.00    0.67
   1   3  -8   20.72    0.74
   1   3  -8   19.39    0.72
   1   3  -8   19.72    0.68
   1   3  -8   19.81    0.92
   1   3  -8   19.44    0.70
  -1   3   8   20.03    0.82
   1   3  -8   18.96    0.62
   1   3  -8   19.58    0.88
   1  -3  -8   20.77    0.66
   1  -3  -8   19.74    0.72
   1  -3  -8   19.00    0.95
   1  -3  -8   19.48    0.83
   1  -3  -8   21.03    0.71
   1   3  -7   34.81    0.96
   1   3  -7   35.93    0.99
   1   3  -7   34.85    0.95
   1   3  -7   36.20    0.90
   1   3  -7   35.11    1.17
  -1   3   7   33.65    0.98
  -1   3   7   33.07    0.97
  -1   3   7   35.75    1.10
   1   3  -7   33.42    1.10
   1   3  -7   36.09    0.92
   1  -3  -7   36.22    0.95
   1  -3  -7   36.83    0.99
   1  -3  -7   33.76    1.19
   1  -3  -7   34.90    1.05
  -1   3   6   16.18    0.60
   1   3  -6   16.64    0.51
  -1   3   6   15.68    0.59
   1   3  -6   16.65    0.49
   1   3  -6   16.23    0.53
   1   3  -6   17.35    0.55
  -1   3   6   17.81    0.65
   1   3  -6   17.88    0.71
  -1  -3   6   16.96    0.59
   1  -3  -6   16.50    0.50
   1  -3  -6   15.74    0.71
   1  -3  -6   17.02    0.53
   1  -3  -6   17.42    0.64
   1   3  -5   22.25    0.58
   1   3  -5   22.99    0.75
  -1   3   5   22.27    0.71
  -1   3   5   20.98    0.69
   1  -3  -5   22.30    0.62
   1  -3  -5   22.73    0.61
  -1  -3   5   23.13    0.68
   1  -3  -5   22.22    0.78
   1   3  -4    1.24    0.19
  -1   3   4    1.02    0.16
   1   3  -4    1.14    0.11
  -1   3   4    1.23    0.13
  -1  -3   4    1.10    0.14
   1  -3  -4    1.01    0.16
  -1  -3   4    1.63    0.11
   1  -3  -4    1.18    0.16
   1  -3  -4    1.26    0.14
   1  -3  -4    1.13    0.13
  -1   3   3   21.69    0.57
   1   3  -3   19.90    0.50
   1   3  -3   20.06    0.52
   1   3  -3   20.40    0.52
   1   3  -3   19.89    0.60
   1   3  -3   20.25    0.51
   1   3  -3   20.68    0.53
  -1   3   3   19.70    0.60
  -1  -3   3   20.95    0.53
   1  -3  -3   19.54    0.59
   1  -3  -3   21.58    0.57
  -1  -3   3   22.04    0.54
   1  -3  -3   22.43    0.52
  -1  -3   3   19.80    0.59
  -1  -3   3   21.75    0.53
   1  -3  -3   20.70    0.59
   1   3  -2  151.29    3.63
   1   3  -2  156.92    3.56
   1   3  -2  149.37    3.57
   1   3  -2  150.65    3.56
  -1   3   2  153.80    3.59
  -1  -3   2  152.41    3.84
  -1  -3   2  154.68    3.63
   1  -3  -2  147.08    3.66
   1  -3  -2  158.59    3.24
   1  -3  -2  150.45    3.59
   1  -3  -2  156.42    3.59
   1  -3  -2  155.15    3.27
  -1  -3   2  151.51    3.56
  -1  -3   2  153.49    3.57
   1   3  -1  286.42    6.82
  -1   3   1  298.72    6.81
   1   3  -1  288.29    6.93
   1   3  -1  294.66    6.80
  -1   3   1  296.12    6.81
   1   3  -1  295.84    6.80
   1  -3  -1  295.68    6.20
   1  -3  -1  292.29    6.81
  -1  -3   1  299.40    5.73
   1  -3  -1  283.57    6.94
   1  -3  -1  298.34    6.81
  -1  -3   1  285.10    7.31
  -1  -3   1  294.05    6.80
   1  -3  -1  296.03    6.14
  -1  -3   1  298.79    6.19
   1   3   0  377.81    9.06
   1   3   0  379.99    9.20
  -1   3   0  394.82    9.03
   1   3   0  389.19    9.03
   1   3   0  400.39    9.03
  -1   3   0  387.71    9.16
  -1  -3   0  394.48    8.22
  -1  -3   0  392.29    7.61
  -1  -3   0  401.94    9.03
  -1  -3   0  379.66    9.72
   1  -3   0  392.96    8.21
   1  -3   0  378.38    9.06
  -1  -3   0  392.78    9.06
   1  -3   0  399.68    9.72
  -1   3  -1  403.05    9.79
  -1   3  -1  390.29    9.15
  -1   3  -1  393.67    9.14
   1   3   1  400.48    9.16
  -1   3  -1  377.18    8.98
   1  -3   1  395.20    9.13
  -1  -3  -1  404.14    7.73
  -1  -3  -1  400.53    9.16
  -1  -3  -1  411.83    9.16
   1  -3   1  395.55    9.30
  -1  -3  -1  399.48    8.34
   1  -3   1  395.75    9.12
   1  -3   1  391.95    9.79
  -1  -3  -1  392.26    8.96
  -1  -3  -1  375.66    9.86
  -1   3  -2  191.99    4.37
   1   3   2  188.35    4.52
  -1   3  -2  184.06    4.46
  -1   3  -2  188.84    4.38
  -1   3  -2  189.05    4.38
   1   3   2  187.87    4.45
   1   3   2  184.24    4.45
  -1   3  -2  193.98    3.68
  -1  -3  -2  190.78    4.43
   1  -3   2  192.14    4.47
  -1  -3  -2  183.51    4.36
  -1  -3  -2  187.61    3.75
  -1  -3  -2  184.99    4.05
  -1  -3  -2  195.94    4.78
   1  -3   2  196.18    4.37
  -1  -3  -2  182.66    4.45
   1   3   3  158.47    3.77
   1   3   3  150.01    3.72
  -1   3  -3  159.36    3.29
  -1   3  -3  150.86    3.69
   1   3   3  160.51    3.71
  -1  -3  -3  159.70    3.14
  -1  -3  -3  161.54    3.40
   1  -3   3  154.12    3.90
  -1  -3  -3  150.04    3.72
  -1  -3  -3  158.94    3.69
  -1  -3  -3  156.09    3.69
   1   3   4   44.72    1.16
  -1   3  -4   44.70    1.24
   1   3   4   44.94    1.15
  -1  -3  -4   43.95    1.24
  -1  -3  -4   46.16    1.07
  -1  -3  -4   44.10    1.17
   1   3   5   18.44    0.57
  -1   3  -5   18.05    0.72
  -1   3  -5   17.91    0.57
  -1   3  -5   17.80    0.55
   1   3   5   18.34    0.56
  -1   3  -5   17.81    0.54
  -1  -3  -5   18.36    0.57
  -1  -3  -5   18.77    0.61
  -1  -3  -5   18.79    0.52
  -1  -3  -5   19.25    0.56
  -1  -3  -5   18.23    0.74
  -1  -3  -5   18.46    0.64
   1   3   6    1.89    0.19
  -1   3  -6    1.89    0.26
   1   3   6    2.28    0.20
  -1   3  -6    2.39    0.27
  -1   3  -6    2.03    0.36
  -1   3  -6    2.09    0.24
  -1   3  -6    1.86    0.24
  -1  -3  -6    2.78    0.22
  -1  -3  -6    2.21    0.19
  -1  -3  -6    2.10    0.30
  -1  -3  -6    2.23    0.24
  -1  -3  -6    2.03    0.37
  -1  -3  -6    2.10    0.33
  -1  -3  -6    2.07    0.28
  -1   3  -7    1.36    0.28
  -1   3  -7    1.55    0.42
  -1   3  -7    0.74    0.26
  -1   3  -7    1.20    0.24
  -1   3  -7    1.10    0.29
  -1   3  -7    1.81    0.30
  -1   3  -7    0.48    0.37
  -1  -3  -7    1.04    0.29
  -1  -3  -7    1.90    0.37
  -1  -3  -7    1.67    0.43
  -1  -3  -7    1.10    0.24
  -1  -3  -7    1.49    0.37
  -1   3  -8    4.93    0.43
  -1   3  -8    4.53    0.43
  -1   3  -8    4.75    0.44
  -1   3  -8    4.34    0.54
  -1   3  -8    4.83    0.67
  -1   3  -8    5.46    0.46
  -1   3  -8    4.71    0.39
  -1  -3  -8    4.62    0.38
  -1  -3  -8    4.54    0.54
  -1  -3  -8    4.30    0.45
  -1  -3  -8    4.38    0.49
  -1  -3  -8    5.44    0.64
   1   4  -9    0.20    0.35
   1   4  -9   -0.09    0.36
   1   4  -9    0.25    0.32
   1   4  -9   -0.12    0.32
   1   4  -9    0.35    0.45
   1   4  -9    0.20    0.27
   1  -4  -9   -0.15    0.30
   1  -4  -9    0.46    0.43
   1  -4  -9    0.21    0.34
   1  -4  -9   -0.05    0.44
   1   4  -8    4.09    0.38
   1   4  -8    3.41    0.31
   1   4  -8    3.21    0.45
   1   4  -8    3.31    0.38
   1   4  -8    3.87    0.34
   1   4  -8    3.46    0.38
  -1   4   8    3.09    0.38
   1   4  -8    3.20    0.48
   1  -4  -8    3.31    0.50
   1  -4  -8    3.19    0.37
   1  -4  -8    3.24    0.25
   1  -4  -8    3.35    0.47
   1  -4  -8    3.53    0.34
   1  -4  -8    3.35    0.34
   1   4  -7    4.26    0.35
  -1   4   7    4.80    0.39
  -1   4   7    3.91    0.36
   1   4  -7    4.52    0.34
   1   4  -7    5.55    0.40
   1   4  -7    4.05    0.44
   1   4  -7    3.87    0.30
   1   4  -7    4.07    0.34
   1   4  -7    4.57    0.45
  -1   4   7    4.23    0.33
   1  -4  -7    3.97    0.27
   1  -4  -7    4.46    0.33
   1  -4  -7    4.06    0.32
   1  -4  -7    4.02    0.41
   1  -4  -7    4.60    0.27
   1  -4  -7    4.08    0.47
   1  -4  -7    3.62    0.32
   1   4  -6  107.11    2.33
  -1   4   6  104.37    2.68
  -1   4   6  104.24    2.81
   1   4  -6  105.63    2.24
   1   4  -6  107.01    2.36
   1   4  -6  106.10    2.67
  -1   4   6  105.15    2.64
   1   4  -6  105.85    2.37
   1  -4  -6  109.05    2.50
   1  -4  -6  104.12    2.70
   1  -4  -6  105.36    2.39
   1  -4  -6  106.79    2.56
   1  -4  -6  106.30    2.37
   1   4  -5   38.72    1.09
  -1   4   5   36.64    1.09
   1   4  -5   38.29    0.95
   1   4  -5   37.77    0.90
  -1   4   5   37.55    1.08
   1  -4  -5   36.55    1.00
  -1  -4   5   38.49    1.06
   1  -4  -5   37.05    0.93
   1  -4  -5   38.25    1.12
   1  -4  -5   39.80    1.05
   1   4  -4  334.34    7.68
  -1   4   4  333.76    7.97
   1   4  -4  332.13    7.73
  -1   4   4  330.42    7.78
   1   4  -4  337.90    7.01
  -1  -4   4  338.85    8.33
   1  -4  -4  342.85    7.08
   1  -4  -4  324.61    7.77
   1  -4  -4  328.88    7.97
   1  -4  -4  331.83    7.04
   1   4  -3   44.71    1.13
  -1   4   3   48.00    1.17
   1   4  -3   46.17    1.12
  -1   4   3   43.95    1.20
   1   4  -3   45.39    1.15
   1   4  -3   45.78    1.11
   1   4  -3   45.46    1.10
   1  -4  -3   45.09    1.21
  -1  -4   3   45.09    1.13
   1  -4  -3   44.34    1.16
  -1  -4   3   45.20    1.12
  -1  -4   3   46.64    1.21
   1  -4  -3   47.18    1.19
  -1  -4   3   45.84    1.14
   1  -4  -3   45.47    1.06
  -1   4   2  263.74    5.92
   1   4  -2  248.64    5.89
   1   4  -2  249.76    5.78
  -1   4   2  247.78    6.03
   1   4  -2  253.42    5.99
   1   4  -2  252.47    5.90
   1   4  -2  258.29    5.88
   1  -4  -2  250.61    5.38
   1  -4  -2  260.62    5.93
   1  -4  -2  252.32    5.33
  -1  -4   2  254.35    6.00
  -1  -4   2  253.50    5.89
  -1  -4   2  252.74    5.91
  -1  -4   2  247.88    5.36
  -1  -4   2  252.19    4.97
   1  -4  -2  249.96    6.04
   1  -4  -2  253.68    5.92
  -1  -4   2  254.29    6.33
   1   4  -1    5.03    0.22
   1   4  -1    5.30    0.22
  -1   4   1    5.38    0.24
   1   4  -1    5.03    0.22
  -1   4   1    4.71    0.22
   1   4  -1    4.74    0.21
  -1   4   1    5.20    0.23
  -1  -4   1    5.26    0.22
   1  -4  -1    5.18    0.21
  -1  -4   1    5.27    0.20
  -1  -4   1    5.24    0.24
  -1  -4   1    5.11    0.18
   1  -4  -1    5.14    0.24
  -1   4   0    7.65    0.27
   1   4   0    6.81    0.28
  -1   4   0    7.91    0.27
   1   4   0    7.51    0.29
   1   4   0    6.83    0.29
   1   4   0    7.50    0.28
  -1   4   0    6.90    0.27
  -1  -4   0    7.49    0.28
  -1  -4   0    7.15    0.33
  -1  -4   0    7.13    0.23
   1  -4   0    7.33    0.28
   1  -4   0    6.99    0.27
  -1  -4   0    7.12    0.25
  -1   4  -1    2.01    0.14
   1   4   1    1.78    0.17
  -1   4  -1    1.76    0.14
  -1   4  -1    1.84    0.14
   1  -4   1    1.67    0.15
  -1  -4  -1    1.85    0.13
  -1  -4  -1    1.94    0.18
  -1  -4  -1    2.00    0.17
  -1  -4  -1    1.97    0.19
   1  -4   1    2.10    0.15
   1  -4   1    1.99    0.13
  -1  -4  -1    1.82    0.16
   1  -4   1    1.77    0.16
  -1  -4  -1    1.90    0.21
   1   4   2   52.23    1.34
  -1   4  -2   51.49    1.25
  -1   4  -2   52.27    1.28
   1   4   2   53.39    1.36
  -1   4  -2   51.56    1.31
   1   4   2   51.13    1.35
  -1   4  -2   51.67    1.30
   1  -4   2   52.25    1.26
  -1  -4  -2   50.28    1.35
   1  -4   2   51.91    1.34
  -1  -4  -2   51.46    1.23
   1  -4   2   53.58    1.31
  -1  -4  -2   51.74    1.14
  -1  -4  -2   53.48    1.29
  -1  -4  -2   53.22    1.45
  -1  -4  -2   54.24    1.33
   1   4   3    0.51    0.15
  -1   4  -3    0.41    0.18
  -1   4  -3    0.73    0.08
   1   4   3    1.08    0.17
   1   4   3    1.04    0.16
  -1  -4  -3    0.55    0.14
  -1  -4  -3    0.77    0.18
  -1  -4  -3    0.64    0.14
  -1  -4  -3    0.62    0.17
  -1  -4  -3    0.67    0.16
   1  -4   3    0.37    0.10
  -1  -4  -3    0.66    0.14
   1  -4   3    0.60    0.09
   1   4   4  125.78    2.93
   1   4   4  124.90    2.98
  -1   4  -4  118.89    2.94
  -1  -4  -4  123.97    2.95
  -1  -4  -4  118.65    2.68
  -1  -4  -4  112.44    2.94
  -1   4  -5    1.58    0.22
   1   4   5    1.26    0.20
  -1   4  -5    1.37    0.20
  -1   4  -5    1.53    0.20
  -1   4  -5    1.71    0.31
   1   4   5    1.40    0.20
  -1  -4  -5    1.17    0.26
  -1  -4  -5    1.02    0.28
  -1  -4  -5    1.20    0.18
  -1  -4  -5    1.35    0.20
  -1  -4  -5    0.80    0.24
  -1  -4  -5    1.13    0.20
   1   4   6  100.15    2.49
  -1   4  -6  101.22    2.22
   1   4   6   99.28    2.45
  -1   4  -6   95.35    2.29
  -1   4  -6  101.91    2.62
  -1   4  -6   97.05    2.17
  -1   4  -6   99.42    2.60
  -1   4  -6   99.87    2.26
  -1  -4  -6  104.41    2.40
  -1  -4  -6  100.82    2.23
  -1  -4  -6  102.32    2.30
  -1  -4  -6  103.43    2.27
  -1  -4  -6   99.86    2.62
  -1  -4  -6   98.34    2.45
  -1  -4  -6  102.42    2.38
  -1   4  -7    3.40    0.32
  -1   4  -7    3.88    0.50
  -1   4  -7    3.55    0.51
  -1   4  -7    3.74    0.34
  -1   4  -7    3.53    0.35
  -1   4  -7    4.17    0.38
  -1   4  -7    3.47    0.35
  -1  -4  -7    4.07    0.30
  -1  -4  -7    3.61    0.34
  -1  -4  -7    3.49    0.38
  -1  -4  -7    3.60    0.43
  -1  -4  -7    4.08    0.46
  -1  -4  -7    3.83    0.48
  -1   4  -8   26.17    1.13
  -1   4  -8   27.64    0.88
  -1   4  -8   27.46    0.94
  -1   4  -8   26.85    0.92
  -1   4  -8   27.32    0.92
  -1   4  -8   27.93    0.86
  -1  -4  -8   29.31    1.07
  -1  -4  -8   25.68    0.82
  -1  -4  -8   27.74    0.97
  -1  -4  -8   28.72    1.19
  -1  -4  -8   27.92    1.01
   1   5  -9    3.15    0.45
   1   5  -9    3.19    0.37
   1   5  -9    2.52    0.57
   1   5  -9    3.16    0.45
   1  -5  -9    3.03    0.52
   1  -5  -9    2.63    0.52
   1  -5  -9    3.15    0.44
   1   5  -8   36.15    1.08
   1   5  -8   39.04    1.31
   1   5  -8   36.25    1.02
   1   5  -8   37.57    1.13
   1   5  -8   37.11    1.33
   1  -5  -8   36.96    1.03
   1  -5  -8   38.07    0.90
   1  -5  -8   39.80    1.13
   1  -5  -8   38.39    1.25
   1  -5  -8   37.92    1.34
   1   5  -7    3.41    0.29
   1   5  -7    3.63    0.28
  -1   5   7    3.42    0.35
   1   5  -7    3.83    0.35
   1   5  -7    3.75    0.42
   1   5  -7    3.41    0.43
  -1   5   7    3.59    0.38
  -1   5   7    3.29    0.34
   1   5  -7    4.18    0.36
   1  -5  -7    3.49    0.42
   1  -5  -7    3.77    0.28
   1  -5  -7    4.02    0.33
   1  -5  -7    3.69    0.34
   1  -5  -7    4.10    0.46
   1  -5  -7    3.86    0.31
   1  -5  -7    4.05    0.35
   1   5  -6   46.26    1.01
   1   5  -6   41.50    1.06
  -1   5   6   39.89    1.20
  -1   5   6   40.94    1.19
   1   5  -6   39.95    1.21
   1  -5  -6   41.58    1.09
   1  -5  -6   40.17    1.11
   1  -5  -6   39.87    1.06
   1  -5  -6   41.16    1.25
   1  -5  -6   39.44    1.16
   1   5  -5   10.84    0.50
  -1   5   5   10.74    0.51
  -1   5   5   11.52    0.52
   1   5  -5   10.98    0.37
   1  -5  -5   10.78    0.44
  -1  -5   5   11.11    0.44
   1  -5  -5   10.93    0.43
   1  -5  -5   10.79    0.51
   1  -5  -5   11.23    0.53
   1  -5  -5   11.54    0.46
   1   5  -4    0.50    0.12
   1   5  -4    0.40    0.11
   1   5  -4    0.33    0.16
  -1   5   4    0.36    0.18
  -1   5   4    0.17    0.15
  -1  -5   4    0.26    0.14
   1  -5  -4    0.57    0.16
   1  -5  -4    0.29    0.14
   1  -5  -4    0.35    0.14
   1   5  -3   12.19    0.42
   1   5  -3   13.22    0.41
   1   5  -3   12.68    0.37
  -1   5   3   12.95    0.45
   1   5  -3   11.60    0.37
   1   5  -3   11.46    0.38
  -1  -5   3   13.29    0.42
  -1  -5   3   13.42    0.44
   1  -5  -3   12.83    0.45
  -1  -5   3   12.99    0.41
  -1  -5   3   13.24    0.42
   1  -5  -3   12.19    0.41
   1   5  -2  118.70    2.88
   1   5  -2  117.00    2.89
  -1   5   2  123.09    2.92
   1   5  -2  125.75    2.87
   1   5  -2  116.53    2.80
  -1   5   2  118.75    2.97
   1   5  -2  118.71    2.92
  -1  -5   2  123.70    2.44
  -1  -5   2  123.13    2.63
   1  -5  -2  122.60    2.92
  -1  -5   2  120.36    2.89
   1  -5  -2  122.67    2.66
  -1  -5   2  122.12    3.09
  -1   5   1   42.88    1.08
   1   5  -1   40.32    1.08
   1   5  -1   41.89    1.06
   1   5  -1   39.60    1.06
   1   5  -1   42.63    1.07
  -1  -5   1   40.46    1.14
   1  -5  -1   41.88    1.14
  -1  -5   1   41.15    1.07
   1  -5  -1   42.70    1.08
  -1  -5   1   42.37    0.90
   1  -5  -1   38.73    1.09
   1  -5  -1   40.80    0.98
  -1  -5   1   40.85    0.97
  -1   5   0  227.17    5.30
  -1   5   0  226.75    5.31
   1   5   0  226.46    5.32
  -1   5   0  216.72    5.40
  -1  -5   0  228.35    4.84
  -1  -5   0  223.76    5.73
   1  -5   0  226.43    5.68
  -1  -5   0  231.48    4.49
   1  -5   0  223.61    5.31
  -1  -5   0  234.18    5.32
   1  -5   0  221.54    4.83
   1   5   1  164.92    4.09
   1   5   1  161.87    4.15
   1   5   1  173.11    4.09
  -1   5  -1  165.79    4.11
  -1   5  -1  174.26    4.03
  -1   5  -1  176.29    4.04
   1  -5   1  175.34    4.32
  -1  -5  -1  173.65    4.08
  -1  -5  -1  166.31    4.39
  -1  -5  -1  168.22    3.90
   1  -5   1  171.13    4.03
   1  -5   1  171.95    4.12
  -1  -5  -1  177.12    3.45
  -1  -5  -1  170.70    3.71
   1  -5   1  177.02    3.67
  -1   5  -2  136.52    3.22
   1   5   2  141.18    3.32
  -1   5  -2  135.78    3.22
  -1   5  -2  141.74    3.25
  -1   5  -2  130.85    3.25
  -1   5  -2  130.92    3.30
   1  -5   2  131.48    3.22
   1  -5   2  141.47    3.31
  -1  -5  -2  137.32    3.02
  -1  -5  -2  139.61    3.18
  -1  -5  -2  137.29    3.56
  -1  -5  -2  137.48    2.80
  -1  -5  -2  135.32    3.32
   1  -5   2  139.20    3.46
  -1   5  -3   49.59    1.21
   1   5   3   48.41    1.34
   1   5   3   48.32    1.36
  -1   5  -3   51.67    1.02
  -1   5  -3   50.68    1.32
   1   5   3   51.58    1.35
  -1  -5  -3   52.19    1.45
   1  -5   3   47.76    1.26
  -1  -5  -3   52.44    1.30
  -1  -5  -3   51.13    1.14
  -1  -5  -3   50.86    1.23
  -1  -5  -3   50.21    1.35
  -1   5  -4   36.13    1.06
  -1   5  -4   37.29    0.90
   1   5   4   35.02    1.04
   1   5   4   35.55    1.03
  -1  -5  -4   37.84    1.05
  -1  -5  -4   35.97    1.04
  -1  -5  -4   35.26    0.98
  -1  -5  -4   35.76    0.94
  -1  -5  -4   35.94    0.95
  -1   5  -5    0.50    0.19
  -1   5  -5    0.53    0.27
  -1   5  -5    0.27    0.17
  -1   5  -5    0.49    0.18
   1   5   5    0.42    0.20
   1   5   5    0.35    0.21
  -1  -5  -5    0.32    0.19
  -1  -5  -5    0.33    0.25
  -1  -5  -5    0.45    0.19
  -1  -5  -5    0.22    0.25
  -1  -5  -5    0.27    0.24
  -1  -5  -5    0.21    0.18
  -1   5  -6    0.19    0.23
  -1   5  -6   -0.03    0.19
  -1   5  -6    0.12    0.22
  -1   5  -6   -0.25    0.32
  -1   5  -6    0.27    0.22
   1   5   6    0.35    0.21
   1   5   6   -0.05    0.21
  -1   5  -6    0.19    0.33
  -1  -5  -6    0.11    0.31
  -1  -5  -6    0.13    0.24
  -1  -5  -6    0.05    0.18
  -1  -5  -6   -0.13    0.21
  -1  -5  -6    0.22    0.27
  -1  -5  -6    0.19    0.21
  -1  -5  -6    0.32    0.30
  -1   5  -7    3.90    0.37
  -1   5  -7    3.71    0.34
  -1   5  -7    5.09    0.38
  -1   5  -7    4.65    0.53
  -1   5  -7    4.96    0.40
  -1   5  -7    4.46    0.53
  -1  -5  -7    4.35    0.51
  -1  -5  -7    4.14    0.48
  -1  -5  -7    4.26    0.33
  -1  -5  -7    4.05    0.38
  -1  -5  -7    3.82    0.41
  -1  -5  -7    4.99    0.47
  -1   5  -8   10.55    0.62
  -1   5  -8   11.46    0.56
  -1   5  -8   11.16    0.64
  -1   5  -8   11.45    0.84
  -1   5  -8   11.24    0.61
  -1  -5  -8   10.75    0.84
  -1  -5  -8   11.20    0.74
  -1  -5  -8    9.97    0.67
  -1  -5  -8   11.53    0.79
   1   6  -8   -0.45    0.31
   1   6  -8   -0.18    0.25
   1   6  -8   -0.10    0.40
   1   6  -8    0.53    0.33
   1   6  -8    0.08    0.36
   1  -6  -8    0.19    0.41
   1  -6  -8    0.14    0.31
   1  -6  -8   -0.06    0.24
   1  -6  -8   -0.12    0.30
   1  -6  -8    0.73    0.42
   1  -6  -8    0.27    0.27
   1   6  -7   11.76    0.53
   1   6  -7   12.06    0.49
  -1   6   7   11.50    0.62
   1   6  -7   12.20    0.68
   1   6  -7   12.28    0.57
   1   6  -7   12.12    0.48
  -1   6   7   10.74    0.63
  -1   6   7   10.56    0.60
   1   6  -7   13.54    0.70
   1  -6  -7   11.63    0.53
   1  -6  -7   12.30    0.51
   1  -6  -7   10.93    0.65
   1  -6  -7   11.50    0.49
   1  -6  -7   12.19    0.56
   1  -6  -7   13.17    0.71
   1   6  -6    3.87    0.29
   1   6  -6    4.32    0.38
   1   6  -6    4.51    0.45
  -1   6   6    4.09    0.36
   1   6  -6    3.97    0.32
  -1   6   6    4.19    0.37
   1  -6  -6    3.58    0.32
   1  -6  -6    3.51    0.39
   1  -6  -6    4.05    0.29
   1  -6  -6    4.51    0.41
   1  -6  -6    4.16    0.37
   1   6  -5   70.19    1.78
  -1   6   5   70.26    1.87
   1   6  -5   69.11    1.57
  -1   6   5   70.44    1.84
   1   6  -5   65.29    1.68
   1   6  -5   71.02    1.61
   1  -6  -5   68.84    1.69
   1  -6  -5   70.77    1.63
   1  -6  -5   64.83    1.70
   1  -6  -5   69.85    1.78
   1  -6  -5   71.04    1.81
  -1   6   4   11.39    0.47
   1   6  -4   11.30    0.45
   1   6  -4   12.01    0.38
   1   6  -4   12.01    0.41
   1  -6  -4   11.31    0.44
   1  -6  -4   11.45    0.52
   1  -6  -4   11.46    0.47
  -1  -6   4   11.33    0.45
  -1   6   3  278.52    6.60
   1   6  -3  268.86    6.28
   1   6  -3  267.72    6.42
  -1   6   3  278.25    6.46
  -1  -6   3  281.18    6.87
   1  -6  -3  272.53    6.46
   1  -6  -3  269.89    6.60
   1  -6  -3  271.06    5.88
   1   6  -2    7.64    0.32
  -1   6   2    6.99    0.36
  -1   6   2    7.96    0.37
   1   6  -2    7.28    0.33
   1   6  -2    7.22    0.31
   1   6  -2    8.05    0.32
   1   6  -2    7.55    0.26
   1  -6  -2    6.83    0.33
   1  -6  -2    7.34    0.38
   1  -6  -2    7.09    0.36
  -1  -6   2    7.27    0.28
  -1  -6   2    7.71    0.33
  -1  -6   2    7.25    0.34
  -1  -6   2    7.49    0.29
   1   6  -1  321.20    7.54
  -1   6   1  327.33    7.55
  -1   6   1  310.28    7.68
  -1  -6   1  322.50    8.08
   1  -6  -1  320.95    6.87
  -1  -6   1  323.84    7.53
   1  -6  -1  318.69    7.68
  -1  -6   1  322.36    6.35
   1  -6  -1  329.94    7.55
   1  -6  -1  328.01    8.08
  -1  -6   1  312.11    6.85
   1   6   0    0.24    0.13
   1   6   0    0.15    0.13
   1   6   0    0.39    0.15
  -1   6   0    0.23    0.13
  -1  -6   0    0.21    0.13
  -1  -6   0    0.24    0.12
   1  -6   0    0.37    0.14
   1  -6   0    0.25    0.14
   1  -6   0    0.24    0.12
  -1  -6   0    0.15    0.11
  -1  -6   0    0.36    0.17
   1   6   1    7.52    0.38
   1   6   1    9.07    0.40
  -1   6  -1    7.97    0.33
   1   6   1    6.93    0.38
  -1   6  -1    8.34    0.34
  -1   6  -1    9.16    0.35
   1  -6   1    7.60    0.34
   1  -6   1    8.70    0.37
  -1  -6  -1    8.73    0.39
   1  -6   1    7.84    0.34
  -1  -6  -1    8.55    0.43
  -1  -6  -1    8.06    0.35
  -1  -6  -1    8.31    0.33
   1  -6   1    8.15    0.31
   1   6   2    1.14    0.20
   1   6   2    1.09    0.21
  -1   6  -2    1.16    0.16
   1   6   2    0.98    0.20
  -1   6  -2    0.85    0.16
  -1   6  -2    1.26    0.18
  -1   6  -2    1.95    0.16
  -1  -6  -2    1.36    0.18
  -1  -6  -2    1.24    0.14
   1  -6   2    1.06    0.15
   1  -6   2    1.74    0.16
  -1  -6  -2    0.89    0.19
  -1  -6  -2    1.11    0.16
  -1  -6  -2    0.82    0.21
   1  -6   2    1.15    0.17
  -1   6  -3   69.11    1.76
  -1   6  -3   68.35    1.69
   1   6   3   71.12    1.83
  -1  -6  -3   70.43    1.82
  -1  -6  -3   71.51    1.66
  -1  -6  -3   69.92    1.96
   1  -6   3   69.37    1.76
  -1  -6  -3   71.86    1.73
  -1   6  -4    3.31    0.26
   1   6   4    3.26    0.31
  -1   6  -4    3.59    0.32
   1   6   4    3.86    0.33
  -1  -6  -4    3.28    0.28
  -1  -6  -4    3.00    0.27
  -1  -6  -4    3.23    0.30
  -1  -6  -4    3.14    0.31
  -1  -6  -4    3.01    0.29
  -1   6  -5   85.05    1.95
  -1   6  -5   87.60    2.22
  -1   6  -5   86.53    1.95
   1   6   5   87.96    2.19
  -1   6  -5   84.00    2.22
   1   6   5   88.65    2.23
  -1   6  -5   85.00    1.84
  -1  -6  -5   84.80    2.06
  -1  -6  -5   80.35    2.18
  -1  -6  -5   81.30    1.99
  -1  -6  -5   85.76    2.05
  -1  -6  -5   84.82    2.01
  -1  -6  -5   85.75    2.18
   1   6   6    4.15    0.35
   1   6   6    4.42    0.36
  -1   6  -6    4.62    0.33
  -1   6  -6    5.11    0.47
  -1   6  -6    4.38    0.35
  -1   6  -6    3.99    0.47
   1   6   6    4.29    0.36
  -1  -6  -6    4.54    0.40
  -1  -6  -6    4.07    0.36
  -1  -6  -6    3.90    0.41
  -1  -6  -6    5.36    0.35
  -1  -6  -6    5.00    0.46
  -1  -6  -6    4.15    0.43
  -1  -6  -6    4.07    0.32
  -1   6  -7   38.48    1.31
   1   6   7   35.54    1.11
  -1   6  -7   38.31    1.35
  -1   6  -7   37.74    1.08
  -1   6  -7   37.60    1.05
   1   6   7   35.32    1.10
  -1  -6  -7   39.65    1.24
  -1  -6  -7   39.08    1.16
  -1  -6  -7   39.59    1.11
  -1  -6  -7   38.79    0.97
  -1  -6  -7   38.45    1.18
  -1  -6  -7   38.33    1.02
  -1   6  -8    1.17    0.34
  -1   6  -8    1.11    0.35
  -1   6  -8    0.95    0.54
  -1  -6  -8    1.30    0.37
  -1  -6  -8    1.46    0.46
  -1  -6  -8    1.13    0.49
  -1  -6  -8    1.16    0.43
  -1  -6  -8    0.65    0.31
   1   7  -8    9.04    0.58
   1   7  -8    8.58    0.56
   1   7  -8    7.96    0.68
   1   7  -8    7.71    0.46
   1   7  -8    8.35    0.73
   1  -7  -8    9.12    0.59
   1  -7  -8    8.74    0.71
   1  -7  -8    8.53    0.58
   1  -7  -8    7.96    0.51
   1  -7  -8    8.58    0.50
   1   7  -7   16.57    0.69
   1   7  -7   18.18    0.79
  -1   7   7   17.06    0.75
   1   7  -7   16.75    0.60
   1   7  -7   16.21    0.82
  -1   7   7   17.62    0.77
   1   7  -7   16.70    0.61
   1   7  -7   17.06    0.66
   1  -7  -7   17.73    0.64
   1  -7  -7   16.17    0.59
   1  -7  -7   16.85    0.66
   1  -7  -7   16.22    0.78
   1  -7  -7   16.56    0.69
   1   7  -6    9.36    0.55
  -1   7   6   10.35    0.60
   1   7  -6    9.31    0.61
   1   7  -6    9.78    0.51
   1   7  -6    9.24    0.43
  -1   7   6   10.17    0.58
   1  -7  -6    9.49    0.53
   1  -7  -6    9.66    0.44
   1  -7  -6   10.28    0.57
   1  -7  -6    9.72    0.47
   1  -7  -6    9.10    0.45
  -1   7   5   14.62    0.64
   1   7  -5   13.16    0.45
  -1   7   5   13.88    0.64
   1   7  -5   13.04    0.45
   1   7  -5   14.05    0.57
   1  -7  -5   13.25    0.56
   1  -7  -5   14.71    0.61
   1  -7  -5   14.40    0.55
   1  -7  -5   13.69    0.57
   1  -7  -5   13.61    0.61
   1   7  -4    0.50    0.15
   1   7  -4    0.00    0.16
   1  -7  -4    0.14    0.20
   1  -7  -4    0.06    0.19
   1  -7  -4    0.28    0.22
  -1  -7   4    0.12    0.18
   1  -7  -4    0.07    0.22
  -1   7   3    2.57    0.27
  -1   7   3    2.81    0.28
   1   7  -3    3.55    0.27
   1   7  -3    2.92    0.23
  -1   7   3    2.72    0.29
  -1  -7   3    2.68    0.25
   1  -7  -3    2.69    0.27
   1  -7  -3    2.80    0.25
   1  -7  -3    2.53    0.28
   1   7  -2   18.86    0.52
   1   7  -2   19.93    0.64
   1   7  -2   18.51    0.62
   1   7  -2   18.82    0.61
   1   7  -2   19.34    0.63
  -1   7   2   19.65    0.67
  -1   7   2   19.33    0.66
   1  -7  -2   19.40    0.61
   1  -7  -2   18.30    0.67
  -1  -7   2   19.15    0.56
  -1  -7   2   19.71    0.66
  -1  -7   2   19.63    0.53
   1  -7  -2   18.51    0.66
  -1  -7   2   19.75    0.63
   1   7  -1  180.62    4.50
  -1   7   1  182.72    4.50
  -1   7   1  183.00    4.42
   1   7  -1  181.07    4.43
   1   7  -1  185.56    4.42
  -1  -7   1  182.11    3.72
   1  -7  -1  186.74    4.51
  -1  -7   1  183.29    4.02
  -1  -7   1  186.34    4.41
   1  -7  -1  177.61    4.42
  -1  -7   1  199.43    4.75
   1  -7  -1  192.09    4.73
   1  -7  -1  176.79    4.02
   1   7   0   54.52    1.50
   1   7   0   56.52    1.48
  -1   7   0   54.87    1.46
  -1   7   0   56.74    1.49
   1   7   0   55.22    1.48
   1  -7   0   55.99    1.50
  -1  -7   0   55.67    1.25
   1  -7   0   54.00    1.33
  -1  -7   0   55.92    1.34
  -1  -7   0   55.79    1.48
   1  -7   0   57.66    1.55
   1  -7   0   54.94    1.46
  -1  -7   0   58.91    1.59
  -1   7  -1  315.37    7.58
  -1   7  -1  314.99    7.46
   1   7   1  318.92    7.49
   1   7   1  317.43    7.51
  -1   7  -1  319.73    7.44
   1   7   1  317.86    7.63
  -1   7  -1  302.91    7.43
  -1  -7  -1  323.62    8.04
   1  -7   1  316.17    7.59
  -1  -7  -1  313.87    6.80
   1  -7   1  331.71    7.97
  -1  -7  -1  321.51    6.31
   1  -7   1  308.80    7.44
  -1  -7  -1  324.92    7.49
   1  -7   1  307.99    6.77
  -1   7  -2   46.56    1.23
   1   7   2   48.68    1.32
   1   7   2   48.68    1.36
   1   7   2   47.89    1.33
   1  -7   2   47.12    1.29
   1  -7   2   49.69    1.28
  -1  -7  -2   43.42    1.40
  -1  -7  -2   46.54    1.11
  -1  -7  -2   47.53    1.19
  -1  -7  -2   47.51    1.31
   1   7   3  121.02    2.99
  -1   7  -3  119.60    2.89
  -1   7  -3  118.72    2.87
  -1  -7  -3  115.69    3.21
  -1  -7  -3  121.36    2.72
  -1  -7  -3  125.02    3.00
   1  -7   3  119.47    2.95
  -1   7  -4    6.66    0.26
   1   7   4    6.22    0.47
   1   7   4    6.48    0.48
  -1   7  -4    6.64    0.22
  -1   7  -4    7.01    0.44
  -1   7  -4    6.96    0.36
  -1  -7  -4    7.08    0.45
  -1  -7  -4    6.92    0.41
  -1  -7  -4    7.01    0.43
   1  -7   4    6.90    0.36
  -1  -7  -4    5.91    0.39
   1   7   5   18.90    0.77
  -1   7  -5   20.76    0.79
  -1   7  -5   19.75    0.62
  -1   7  -5   19.39    0.76
  -1   7  -5   18.16    0.63
   1   7   5   18.87    0.76
   1   7   5   20.60    0.67
  -1  -7  -5   19.22    0.73
  -1  -7  -5   19.47    0.68
  -1  -7  -5   19.86    0.61
  -1  -7  -5   20.05    0.70
  -1  -7  -5   18.97    0.68
  -1   7  -6    1.75    0.37
  -1   7  -6    1.43    0.40
  -1   7  -6    1.15    0.29
   1   7   6    1.38    0.31
   1   7   6    1.21    0.29
   1   7   6    1.14    0.29
  -1   7  -6    1.38    0.28
  -1  -7  -6    0.90    0.27
  -1  -7  -6    1.03    0.27
  -1  -7  -6    1.45    0.32
  -1  -7  -6    1.26    0.34
  -1  -7  -6    1.30    0.31
  -1  -7  -6    1.26    0.36
   1   7   7    0.23    0.33
  -1   7  -7    0.26    0.32
  -1   7  -7    0.31    0.44
  -1   7  -7    0.71    0.40
  -1   7  -7    0.41    0.28
  -1  -7  -7    0.37    0.31
  -1  -7  -7    0.55    0.28
  -1  -7  -7    0.37    0.34
  -1  -7  -7    0.65    0.40
  -1  -7  -7    0.23    0.26
  -1  -7  -7    0.39    0.37
   1   8  -8    0.22    0.34
   1   8  -8    0.63    0.29
   1   8  -8    0.69    0.47
   1  -8  -8    0.16    0.34
   1  -8  -8    0.39    0.32
   1  -8  -8    1.12    0.47
   1  -8  -8    0.71    0.38
   1  -8  -8    0.54    0.34
  -1   8   7    1.91    0.36
   1   8  -7    2.13    0.43
   1   8  -7    2.11    0.31
   1   8  -7    1.94    0.34
   1   8  -7    2.12    0.33
   1  -8  -7    2.09    0.32
   1  -8  -7    1.88    0.38
   1  -8  -7    2.00    0.44
   1  -8  -7    2.52    0.35
   1  -8  -7    1.97    0.35
   1   8  -6   37.29    1.03
   1   8  -6   36.30    1.21
   1   8  -6   35.85    1.02
   1   8  -6   37.72    1.24
  -1   8   6   38.51    1.01
   1   8  -6   36.43    1.05
  -1   8   6   37.59    1.21
  -1   8   6   38.65    1.19
   1  -8  -6   39.15    1.07
   1  -8  -6   36.28    0.96
   1  -8  -6   37.49    1.13
   1  -8  -6   37.95    1.06
   1  -8  -6   38.06    1.14
  -1   8   5    5.46    0.44
  -1   8   5    6.33    0.52
   1   8  -5    6.29    0.33
   1   8  -5    5.72    0.46
   1   8  -5    5.59    0.33
   1  -8  -5    4.78    0.37
   1  -8  -5    6.02    0.40
   1  -8  -5    5.99    0.47
   1  -8  -5    5.25    0.42
  -1   8   4  122.47    3.04
   1   8  -4  126.26    2.94
  -1   8   4  124.86    3.09
   1  -8  -4  115.45    3.00
   1  -8  -4  118.34    2.77
   1  -8  -4  113.13    2.73
  -1  -8   4  120.83    3.15
  -1   8   3   22.05    0.77
  -1   8   3   22.73    0.79
  -1   8   3   22.98    0.80
   1   8  -3   21.90    0.71
   1  -8  -3   22.69    0.72
   1  -8  -3   21.47    0.78
   1  -8  -3   23.11    0.81
  -1  -8   3   23.63    0.77
  -1   8   2  107.55    2.76
   1   8  -2  108.25    2.73
  -1   8   2  112.77    2.83
  -1   8   2  111.72    2.78
   1  -8  -2  109.92    2.77
   1  -8  -2  107.74    2.52
   1  -8  -2  110.55    2.82
  -1  -8   2  115.04    2.92
  -1   8   1   16.03    0.61
   1   8  -1   16.41    0.60
  -1   8   1   15.84    0.60
   1   8  -1   16.68    0.61
   1   8  -1   16.98    0.60
  -1   8   1   16.19    0.62
   1  -8  -1   16.91    0.63
   1  -8  -1   16.67    0.63
  -1  -8   1   17.53    0.61
   1  -8  -1   15.71    0.63
   1  -8  -1   16.67    0.57
  -1  -8   1   16.54    0.51
  -1  -8   1   16.68    0.65
  -1  -8   1   15.53    0.54
  -1   8   0   17.61    0.61
   1   8   0   18.12    0.64
   1   8   0   17.53    0.63
   1   8   0   18.05    0.65
  -1   8   0   17.18    0.62
  -1   8   0   17.93    0.63
   1  -8   0   17.12    0.57
  -1  -8   0   18.02    0.64
  -1  -8   0   17.65    0.67
   1  -8   0   17.36    0.63
  -1  -8   0   17.63    0.58
   1  -8   0   17.98    0.64
  -1  -8   0   16.96    0.54
   1   8   1    0.34    0.20
   1   8   1    0.07    0.20
   1   8   1    0.46    0.19
  -1   8  -1    0.27    0.16
   1  -8   1    0.28    0.19
  -1  -8  -1    0.23    0.17
   1  -8   1    0.24    0.17
  -1  -8  -1    0.37    0.22
   1  -8   1    0.19    0.18
  -1  -8  -1    0.64    0.20
  -1  -8  -1    0.41    0.18
   1   8   2   22.34    0.79
  -1   8  -2   21.60    0.70
   1   8   2   21.95    0.81
   1   8   2   23.18    0.78
  -1  -8  -2   22.88    0.78
  -1  -8  -2   23.49    0.71
   1  -8   2   22.96    0.60
   1  -8   2   22.75    0.74
  -1  -8  -2   22.16    0.72
  -1  -8  -2   22.65    0.84
  -1   8  -3    3.89    0.30
  -1   8  -3    3.93    0.31
   1   8   3    3.82    0.36
   1   8   3    3.61    0.36
  -1   8  -3    3.83    0.28
  -1  -8  -3    3.78    0.31
   1  -8   3    3.20    0.27
  -1  -8  -3    3.18    0.38
  -1  -8  -3    3.60    0.33
  -1  -8  -3    3.56    0.33
   1   8   4   96.72    2.47
  -1   8  -4   95.42    1.92
  -1   8  -4   92.00    2.27
  -1   8  -4   94.62    2.12
   1   8   4   95.37    2.50
  -1   8  -4   95.50    2.36
  -1  -8  -4   92.19    2.22
   1  -8   4   91.91    1.87
  -1  -8  -4   94.44    1.95
  -1  -8  -4   94.95    2.21
  -1  -8  -4   93.49    2.24
  -1   8  -5    6.26    0.51
   1   8   5    6.09    0.55
  -1   8  -5    6.31    0.37
  -1   8  -5    7.10    0.52
  -1   8  -5    5.78    0.38
   1   8   5    6.98    0.55
   1   8   5    6.25    0.42
  -1  -8  -5    6.11    0.47
  -1  -8  -5    6.43    0.48
  -1  -8  -5    5.85    0.42
  -1  -8  -5    5.98    0.40
  -1  -8  -5    6.50    0.48
  -1   8  -6   56.66    1.70
   1   8   6   56.71    1.40
  -1   8  -6   60.07    1.68
  -1   8  -6   58.82    1.47
  -1   8  -6   58.28    1.44
  -1  -8  -6   56.20    1.48
  -1  -8  -6   55.08    1.49
  -1  -8  -6   57.22    1.55
  -1  -8  -6   56.98    1.54
  -1  -8  -6   56.53    1.57
  -1  -8  -6   57.87    1.32
  -1   8  -7   14.49    0.65
  -1   8  -7   16.74    0.72
  -1   8  -7   14.53    0.85
   1   8   7   14.98    0.72
  -1   8  -7   16.98    0.90
  -1  -8  -7   14.51    0.68
  -1  -8  -7   14.93    0.73
  -1  -8  -7   15.40    0.83
  -1  -8  -7   15.07    0.76
  -1  -8  -7   15.40    0.76
  -1  -8  -7   15.45    0.65
  -1   9   7   10.17    0.60
   1   9  -7    9.84    0.56
   1   9  -7   10.58    0.53
   1   9  -7   11.23    0.75
   1  -9  -7    9.44    0.66
   1  -9  -7   11.41    0.59
   1  -9  -7    9.74    0.56
   1  -9  -7   11.13    0.71
  -1   9   6   24.00    0.97
  -1   9   6   22.04    0.74
   1   9  -6   22.70    0.90
  -1   9   6   23.74    1.01
   1   9  -6   22.63    0.75
   1   9  -6   22.17    0.75
   1  -9  -6   19.87    0.84
   1  -9  -6   23.17    0.88
   1  -9  -6   22.74    0.77
  -1  -9   6   22.97    0.68
   1  -9  -6   23.78    0.73
   1   9  -5    3.27    0.30
   1   9  -5    2.41    0.28
  -1   9   5    2.17    0.36
   1   9  -5    2.40    0.30
  -1   9   5    2.54    0.33
  -1   9   5    2.15    0.33
   1   9  -5    2.88    0.40
   1  -9  -5    2.58    0.35
   1  -9  -5    2.32    0.33
   1  -9  -5    1.82    0.34
   1  -9  -5    2.70    0.30
  -1  -9   5    2.26    0.28
   1  -9  -5    3.72    0.32
   1   9  -4    0.12    0.17
  -1   9   4    0.35    0.27
  -1   9   4    0.19    0.28
   1  -9  -4   -0.25    0.24
   1  -9  -4    0.03    0.24
   1  -9  -4   -0.05    0.23
   1  -9  -4   -0.31    0.22
   1  -9  -4    0.07    0.25
  -1   9   3    4.92    0.43
  -1   9   3    5.09    0.45
  -1   9   3    5.44    0.44
   1   9  -3    5.52    0.37
   1  -9  -3    5.37    0.41
   1  -9  -3    6.12    0.47
  -1  -9   3    5.25    0.42
   1  -9  -3    5.67    0.46
   1  -9  -3    4.99    0.37
  -1   9   2   48.84    1.39
  -1   9   2   47.18    1.36
  -1   9   2   46.77    1.37
   1   9  -2   49.05    1.34
   1  -9  -2   47.75    1.40
  -1  -9   2   50.03    1.45
   1  -9  -2   48.47    1.38
   1  -9  -2   49.25    1.26
   1  -9  -2   48.46    1.25
  -1   9   1   22.77    0.79
  -1   9   1   23.68    0.78
   1   9  -1   24.52    0.80
   1   9  -1   22.46    0.77
  -1   9   1   23.70    0.80
   1   9  -1   23.13    0.78
  -1  -9   1   23.59    0.71
  -1  -9   1   21.98    0.66
   1  -9  -1   23.00    0.61
  -1  -9   1   23.28    0.78
   1  -9  -1   24.48    0.82
   1  -9  -1   24.82    0.74
   1  -9  -1   23.51    0.60
   1  -9  -1   24.58    0.83
   1  -9  -1   23.13    0.83
  -1  -9   1   23.01    0.83
  -1   9   0  145.87    3.56
   1   9   0  151.77    3.64
  -1   9   0  144.35    3.61
   1   9   0  150.50    3.58
  -1   9   0  145.10    3.56
   1   9   0  140.24    3.56
   1  -9   0  138.15    3.23
  -1  -9   0  144.22    3.56
  -1  -9   0  142.98    3.24
   1  -9   0  146.11    2.74
  -1  -9   0  141.96    3.01
   1  -9   0  144.07    3.57
   1  -9   0  151.99    3.79
  -1  -9   0  143.40    3.81
   1   9   1   37.01    1.10
  -1   9  -1   34.77    1.06
   1   9   1   37.81    1.14
   1   9   1   36.83    1.11
  -1  -9  -1   36.00    0.99
   1  -9   1   37.42    0.85
  -1  -9  -1   36.75    1.00
   1  -9   1   38.00    1.10
  -1  -9  -1   36.64    1.18
  -1  -9  -1   35.24    1.09
   1  -9   1   35.56    1.09
   1   9   2  149.49    3.67
   1   9   2  146.88    3.75
  -1   9  -2  146.82    3.61
   1   9   2  149.29    3.69
  -1  -9  -2  143.36    3.34
  -1  -9  -2  149.41    3.67
   1  -9   2  148.60    3.68
  -1  -9  -2  148.15    3.34
   1  -9   2  149.89    2.82
  -1  -9  -2  152.56    3.96
  -1   9  -3   14.21    0.52
   1   9   3   14.19    0.69
   1   9   3   13.58    0.68
  -1  -9  -3   14.52    0.62
  -1  -9  -3   13.04    0.69
   1  -9   3   14.76    0.51
  -1  -9  -3   14.89    0.65
  -1  -9  -3   15.00    0.61
   1   9   4   39.86    1.04
  -1   9  -4   41.31    1.08
  -1   9  -4   41.91    1.08
  -1   9  -4   42.34    0.92
   1   9   4   41.37    1.29
   1   9   4   40.19    1.30
  -1   9  -4   42.61    1.24
  -1   9  -4   40.74    1.09
  -1  -9  -4   40.51    1.17
   1  -9   4   41.64    0.98
  -1  -9  -4   42.70    1.16
  -1  -9  -4   40.12    1.00
  -1  -9  -4   37.49    1.16
   1  -9   4   40.10    0.98
  -1   9  -5    1.25    0.37
   1   9   5    1.09    0.34
  -1   9  -5    1.88    0.29
   1   9   5    1.68    0.34
  -1   9  -5    1.07    0.29
   1   9   5    1.02    0.35
   1  -9   5    1.36    0.28
  -1  -9  -5    0.99    0.26
  -1  -9  -5    0.79    0.31
  -1  -9  -5    1.11    0.32
   1  -9   5    1.59    0.27
  -1  -9  -5    1.20    0.30
  -1  -9  -5    0.66    0.32
  -1   9  -6    0.27    0.41
  -1   9  -6    0.45    0.27
   1   9   6    0.44    0.32
  -1   9  -6    0.12    0.30
  -1  -9  -6    0.58    0.39
  -1  -9  -6   -0.13    0.28
  -1  -9  -6    0.56    0.31
  -1  -9  -6    0.44    0.33
  -1  -9  -6    0.83    0.36
  -1  -9  -6    0.09    0.36
  -1   9  -7    4.67    0.47
  -1   9  -7    4.17    0.60
  -1   9  -7    4.74    0.45
   1   9   7    4.21    0.49
  -1  -9  -7    4.05    0.54
  -1  -9  -7    4.44    0.42
  -1  -9  -7    4.65    0.51
  -1  -9  -7    4.33    0.51
  -1  -9  -7    3.24    0.41
  -1  -9  -7    4.15    0.50
   1  10  -7    9.44    0.55
   1  10  -7    8.81    0.76
  -1  10   7   10.00    0.62
   1  10  -7    9.27    0.54
   1 -10  -7    9.76    0.61
   1 -10  -7   10.68    0.71
   1 -10  -7    8.40    0.68
   1 -10  -7   10.07    0.58
   1  10  -6    8.57    0.48
  -1  10   6    9.24    0.57
   1  10  -6    8.98    0.53
   1  10  -6    8.14    0.64
  -1 -10   6    8.59    0.46
  -1 -10   6    9.26    0.50
   1 -10  -6    8.46    0.53
   1 -10  -6    9.49    0.60
   1 -10  -6    8.66    0.64
   1 -10  -6    9.01    0.53
  -1  10   5   78.37    1.76
   1  10  -5   79.98    1.63
   1  10  -5   78.83    1.93
   1  10  -5   80.57    2.11
  -1  10   5   83.22    2.21
   1  10  -5   75.31    1.88
  -1  10   5   82.32    2.17
   1 -10  -5   78.56    1.98
   1 -10  -5   77.32    2.01
   1 -10  -5   74.62    1.94
   1 -10  -5   80.37    1.73
   1 -10  -5   79.72    1.95
  -1 -10   5   79.06    1.63
  -1  10   4   26.34    0.93
  -1  10   4   23.63    0.74
   1  10  -4   26.65    0.89
   1  10  -4   25.32    0.82
   1  10  -4   24.77    0.79
   1  10  -4   25.15    0.66
  -1  10   4   25.22    0.94
   1 -10  -4   23.34    0.84
  -1 -10   4   26.09    0.69
   1 -10  -4   24.76    0.74
   1 -10  -4   24.02    0.84
  -1  10   3  111.23    2.92
  -1  10   3  109.13    2.86
   1  10  -3  110.27    2.80
  -1  10   3  112.56    2.88
   1 -10  -3  111.52    2.62
   1 -10  -3  113.47    2.94
   1 -10  -3  115.13    2.64
  -1 -10   3  112.40    3.01
   1 -10  -3  113.02    2.88
  -1  10   2   18.21    0.73
   1  10  -2   17.67    0.67
  -1  10   2   17.77    0.70
  -1  10   2   18.50    0.73
   1 -10  -2   18.24    0.65
   1 -10  -2   18.52    0.74
   1 -10  -2   17.65    0.52
   1 -10  -2   18.12    0.53
   1 -10  -2   18.36    0.69
  -1 -10   2   17.70    0.73
   1 -10  -2   17.52    0.74
   1  10  -1   38.43    1.16
   1  10  -1   39.54    1.22
  -1  10   1   39.25    1.19
  -1  10   1   41.25    1.19
   1  10  -1   40.40    1.22
  -1  10   1   39.01    1.17
   1 -10  -1   39.58    1.09
  -1 -10   1   39.52    1.23
   1 -10  -1   39.60    1.25
   1 -10  -1   38.30    1.21
   1 -10  -1   38.41    1.06
   1 -10  -1   40.51    1.19
   1 -10  -1   38.03    0.89
   1 -10  -1   39.56    0.89
  -1  10   0    8.88    0.49
  -1  10   0    9.32    0.48
   1  10   0    9.78    0.52
   1  10   0    8.86    0.54
  -1  10   0    9.83    0.50
   1  10   0    9.44    0.50
  -1 -10   0    9.66    0.43
   1 -10   0    9.00    0.48
   1 -10   0    8.92    0.43
  -1 -10   0    8.75    0.55
   1 -10   0    9.75    0.54
  -1 -10   0    9.78    0.46
   1 -10   0    9.46    0.52
  -1 -10   0    9.53    0.50
   1 -10   0    9.49    0.39
   1  10   1    1.13    0.28
   1  10   1    1.28    0.26
  -1  10  -1    1.71    0.25
   1  10   1    1.25    0.28
  -1 -10  -1    1.41    0.27
   1 -10   1    0.97    0.25
  -1 -10  -1    1.18    0.25
  -1 -10  -1    0.84    0.23
  -1 -10  -1    1.12    0.28
   1 -10   1    1.10    0.21
   1 -10   1    1.22    0.26
   1  10   2    1.18    0.27
   1  10   2    1.03    0.30
  -1  10  -2    1.15    0.23
   1  10   2    0.67    0.29
  -1 -10  -2    0.91    0.31
  -1 -10  -2    1.11    0.27
  -1 -10  -2    1.20    0.28
   1 -10   2    1.07    0.23
   1 -10   2    1.03    0.26
  -1 -10  -2    0.67    0.24
  -1  10  -3   49.36    1.08
   1  10   3   51.52    1.48
   1  10   3   50.37    1.49
  -1  10  -3   47.99    1.25
   1  10   3   47.80    1.20
  -1 -10  -3   49.96    1.57
  -1 -10  -3   46.69    1.13
  -1 -10  -3   44.95    1.33
   1 -10   3   48.58    1.10
  -1 -10  -3   48.64    1.31
  -1  10  -4    5.56    0.40
   1  10   4    5.73    0.42
  -1  10  -4    5.44    0.34
   1  10   4    6.13    0.51
  -1  10  -4    5.62    0.31
  -1  10  -4    5.84    0.40
   1  10   4    5.95    0.50
  -1  10  -4    5.94    0.50
   1 -10   4    5.75    0.38
  -1 -10  -4    6.26    0.52
   1 -10   4    6.03    0.41
   1 -10   4    5.73    0.39
  -1 -10  -4    5.81    0.38
  -1 -10  -4    6.79    0.51
  -1 -10  -4    5.56    0.45
   1  10   5   47.65    1.23
  -1  10  -5   48.27    1.29
  -1  10  -5   47.30    1.46
   1 -10   5   46.79    1.14
   1 -10   5   48.18    1.14
  -1 -10  -5   44.70    1.37
  -1 -10  -5   47.71    1.16
  -1 -10  -5   47.38    1.39
  -1 -10  -5   49.36    1.34
  -1  10  -6    7.63    0.67
   1  10   6    7.26    0.55
  -1  10  -6    8.30    0.52
  -1 -10  -6    8.18    0.65
  -1 -10  -6    6.74    0.58
  -1 -10  -6    7.63    0.62
  -1 -10  -6    8.39    0.62
  -1 -10  -6    7.98    0.54
  -1 -10  -6    7.62    0.56
   1  11  -6    1.17    0.34
  -1  11   6    1.27    0.35
   1  11  -6    1.44    0.43
   1  11  -6    1.06    0.33
   1 -11  -6    1.32    0.41
   1 -11  -6    1.11    0.33
  -1 -11   6    0.93    0.31
   1 -11  -6    1.02    0.37
  -1 -11   6    0.87    0.32
  -1  11   5    7.31    0.53
   1  11  -5    6.69    0.47
   1  11  -5    6.65    0.38
   1  11  -5    6.64    0.53
   1  11  -5    6.56    0.48
   1 -11  -5    6.89    0.50
   1 -11  -5    6.68    0.47
   1 -11  -5    5.83    0.48
  -1 -11   5    6.85    0.48
   1 -11  -5    5.59    0.51
  -1  11   4    1.69    0.35
   1  11  -4    1.80    0.34
   1  11  -4    2.36    0.25
  -1  11   4    2.05    0.32
  -1  11   4    1.77    0.37
   1  11  -4    1.40    0.31
   1  11  -4    1.40    0.35
   1 -11  -4    1.52    0.33
   1 -11  -4    1.68    0.35
  -1 -11   4    2.41    0.29
   1 -11  -4    2.09    0.25
   1 -11  -4    2.53    0.31
  -1  11   3   23.00    0.86
  -1  11   3   21.86    0.69
  -1  11   3   23.35    0.88
  -1  11   3   21.62    0.84
   1  11  -3   22.08    0.78
   1  11  -3   21.42    0.63
   1 -11  -3   22.46    0.81
   1 -11  -3   22.20    0.88
  -1 -11   3   21.22    0.63
   1 -11  -3   20.88    0.61
   1 -11  -3   21.60    0.80
   1 -11  -3   21.79    0.68
   1  11  -2    1.30    0.22
  -1  11   2    0.91    0.24
  -1  11   2    1.43    0.29
   1  11  -2    1.10    0.28
  -1  11   2    1.46    0.31
  -1  11   2    0.99    0.30
   1 -11  -2    1.13    0.31
  -1 -11   2    1.41    0.30
   1 -11  -2    1.14    0.22
  -1 -11   2    1.48    0.24
   1 -11  -2    1.91    0.33
   1 -11  -2    1.03    0.28
   1 -11  -2    1.26    0.28
   1 -11  -2    1.28    0.23
  -1  11   1  104.39    2.67
   1  11  -1  103.43    2.10
  -1  11   1  104.16    2.71
  -1  11   1  103.84    2.67
   1 -11  -1  101.97    2.71
   1 -11  -1  108.23    2.45
   1 -11  -1  102.61    2.03
   1 -11  -1  101.65    2.05
   1 -11  -1  103.61    2.68
   1 -11  -1  101.75    2.40
   1 -11  -1  103.27    2.84
  -1 -11   1  102.00    2.81
   1  11   0   21.45    0.81
   1  11   0   21.39    0.83
  -1  11   0   21.50    0.62
   1  11   0   21.94    0.80
   1 -11   0   22.18    0.63
  -1 -11   0   20.91    0.79
  -1 -11   0   19.64    0.83
  -1 -11   0   22.83    0.75
  -1 -11   0   23.05    0.71
   1 -11   0   21.47    0.61
   1 -11   0   20.92    0.69
   1 -11   0   20.75    0.82
   1 -11   0   21.23    0.82
   1  11   1  115.85    2.88
   1  11   1  115.01    2.93
  -1  11  -1  112.47    2.25
   1  11   1  111.28    2.86
   1  11   1  109.89    2.58
  -1 -11  -1  108.65    3.06
  -1 -11  -1  110.89    2.61
   1 -11   1  109.99    2.15
  -1 -11  -1  110.88    2.59
  -1 -11  -1  111.57    2.86
   1 -11   1  110.08    2.19
   1 -11   1  110.93    2.87
   1  11   2   11.99    0.66
   1  11   2   12.46    0.70
  -1  11  -2   13.48    0.57
   1  11   2   12.48    0.64
  -1  11  -2   12.33    0.46
   1  11   2   13.35    0.55
   1 -11   2   12.96    0.62
   1 -11   2   12.97    0.52
  -1 -11  -2   13.43    0.58
  -1 -11  -2   12.80    0.71
  -1 -11  -2   12.30    0.52
  -1 -11  -2   12.64    0.60
   1 -11   2   12.62    0.48
  -1  11  -3   37.98    1.14
  -1  11  -3   42.78    1.15
   1  11   3   41.16    1.34
  -1  11  -3   41.72    0.98
   1  11   3   40.95    1.10
  -1  11  -3   43.18    1.23
   1  11   3   42.44    1.33
  -1 -11  -3   41.16    1.18
   1 -11   3   42.57    0.98
   1 -11   3   41.23    1.03
  -1 -11  -3   41.94    1.43
  -1 -11  -3   40.98    1.03
  -1 -11  -3   40.96    1.21
   1 -11   3   41.62    1.02
  -1  11  -4    0.33    0.34
  -1  11  -4   -0.08    0.19
  -1  11  -4    0.24    0.25
  -1  11  -4   -0.27    0.26
   1  11   4   -0.10    0.30
  -1 -11  -4   -0.16    0.33
  -1 -11  -4    0.36    0.28
   1 -11   4    0.15    0.28
  -1 -11  -4    0.16    0.26
   1 -11   4    0.11    0.27
   1 -11   4    0.00    0.26
  -1 -11  -4   -0.35    0.33
  -1  11  -5    1.42    0.36
   1  11   5    0.82    0.39
  -1  11  -5    1.02    0.39
  -1 -11  -5    1.30    0.38
   1 -11   5    1.46    0.33
  -1 -11  -5    1.59    0.40
  -1 -11  -5    1.48    0.32
  -1 -11  -5    1.26    0.35
   1 -11   5    1.49    0.33
   1  11   6    0.85    0.42
  -1  11  -6    1.08    0.46
  -1  11  -6    0.94    0.37
  -1 -11  -6    0.44    0.42
  -1 -11  -6    0.62    0.35
  -1 -11  -6    0.55    0.34
  -1 -11  -6    0.89    0.43
   1  12  -6    8.32    0.44
   1  12  -6    7.46    0.58
   1  12  -6    6.49    0.52
   1  12  -6    7.24    0.63
  -1  12   6    8.38    0.57
   1 -12  -6    8.08    0.59
  -1 -12   6    8.93    0.56
   1 -12  -6    8.20    0.58
  -1 -12   6    8.77    0.55
   1 -12  -6    9.36    0.72
   1  12  -5   23.54    0.94
   1  12  -5   24.85    0.70
   1  12  -5   22.38    0.87
  -1  12   5   23.12    0.79
   1  12  -5   22.27    0.85
   1 -12  -5   23.79    0.94
   1 -12  -5   23.40    0.79
  -1 -12   5   23.33    0.76
  -1 -12   5   24.62    0.76
   1 -12  -5   22.96    0.93
   1  12  -4   37.57    1.17
  -1  12   4   39.37    1.04
   1  12  -4   40.65    0.96
   1  12  -4   40.49    1.23
   1 -12  -4   39.17    1.19
   1 -12  -4   40.21    1.03
  -1 -12   4   37.66    0.96
   1 -12  -4   36.34    0.93
   1 -12  -4   39.75    1.21
  -1  12   3   23.03    0.74
   1  12  -3   22.93    0.84
  -1  12   3   24.25    0.76
   1  12  -3   24.10    0.69
  -1  12   3   24.73    0.93
  -1  12   3   23.30    0.94
   1 -12  -3   24.12    0.86
  -1 -12   3   22.74    0.68
   1 -12  -3   22.47    0.83
   1 -12  -3   23.76    0.74
   1 -12  -3   24.88    0.96
   1 -12  -3   23.17    0.69
   1  12  -2   72.05    1.58
  -1  12   2   72.83    1.65
  -1  12   2   73.73    2.03
  -1  12   2   72.93    1.60
  -1  12   2   75.91    2.07
   1  12  -2   74.01    1.86
   1 -12  -2   75.17    2.08
   1 -12  -2   75.54    1.56
   1 -12  -2   77.06    1.54
  -1 -12   2   73.63    1.53
   1 -12  -2   74.20    1.61
   1 -12  -2   75.74    1.87
   1 -12  -2   72.29    1.53
  -1 -12   2   72.45    2.11
   1 -12  -2   74.54    1.86
   1  12  -1    3.29    0.30
  -1  12   1    3.86    0.38
  -1  12   1    4.20    0.33
  -1  12   1    3.50    0.30
   1  12  -1    3.87    0.37
  -1  12   1    4.15    0.38
  -1  12   1    3.75    0.40
  -1 -12   1    3.98    0.41
   1 -12  -1    4.11    0.43
   1 -12  -1    3.82    0.31
   1 -12  -1    3.72    0.31
   1 -12  -1    3.85    0.31
   1 -12  -1    3.75    0.37
   1 -12  -1    3.53    0.36
  -1 -12   1    4.38    0.32
   1 -12  -1    4.01    0.42
   1  12   0   22.58    0.67
  -1  12   0   23.02    0.67
   1  12   0   22.75    0.66
  -1  12   0   22.39    0.76
   1  12   0   22.60    0.78
  -1  12   0   22.75    0.69
   1 -12   0   20.88    0.86
   1 -12   0   23.13    0.67
  -1 -12   0   22.33    0.79
   1 -12   0   22.42    0.87
   1 -12   0   21.42    0.75
  -1 -12   0   23.19    0.91
   1 -12   0   22.78    0.66
  -1 -12   0   23.12    0.64
  -1 -12   0   22.32    0.75
   1 -12   0   21.98    0.64
  -1  12  -1    0.90    0.23
   1  12   1    1.18    0.32
   1  12   1    0.90    0.27
   1  12   1    0.87    0.23
   1  12   1    0.71    0.32
  -1  12  -1    1.28    0.28
   1  12   1    1.19    0.31
  -1  12  -1    1.02    0.23
  -1 -12  -1    0.71    0.25
   1 -12   1    0.97    0.26
   1 -12   1    0.88    0.27
  -1 -12  -1    1.14    0.29
   1 -12   1    0.59    0.29
  -1 -12  -1    0.74    0.32
  -1 -12  -1    0.88    0.22
   1 -12   1    1.09    0.25
  -1 -12  -1    0.64    0.28
  -1 -12  -1    1.17    0.24
   1  12   2    8.89    0.62
  -1  12  -2    7.73    0.49
   1  12   2    8.75    0.53
  -1  12  -2    8.00    0.42
   1  12   2    8.21    0.45
   1  12   2    8.94    0.50
   1  12   2    8.59    0.63
   1 -12   2    8.67    0.49
  -1 -12  -2    8.46    0.56
   1 -12   2    8.94    0.45
   1 -12   2    7.88    0.46
  -1 -12  -2    8.72    0.53
  -1 -12  -2    7.99    0.44
  -1 -12  -2    8.25    0.66
  -1 -12  -2    8.67    0.44
   1  12   3    5.81    0.52
  -1  12  -3    6.37    0.47
   1  12   3    5.85    0.53
  -1  12  -3    5.78    0.47
   1  12   3    6.60    0.46
  -1  12  -3    6.00    0.45
  -1  12  -3    6.21    0.40
  -1 -12  -3    5.59    0.46
   1 -12   3    7.34    0.50
   1 -12   3    7.16    0.42
  -1 -12  -3    6.88    0.57
  -1 -12  -3    6.88    0.47
   1 -12   3    6.56    0.43
  -1  12  -4   34.08    1.15
   1  12   4   34.38    1.05
  -1  12  -4   29.50    1.00
  -1  12  -4   33.50    1.05
  -1  12  -4   35.57    0.87
   1 -12   4   37.09    0.96
  -1 -12  -4   33.98    0.96
  -1 -12  -4   34.85    1.10
   1 -12   4   34.79    0.95
  -1 -12  -4   35.08    1.15
   1 -12   4   34.39    0.89
  -1  12  -5    8.07    0.43
  -1  12  -5    7.65    0.54
  -1  12  -5    7.75    0.68
   1  12   5    8.31    0.58
  -1 -12  -5    8.07    0.65
  -1 -12  -5    6.93    0.60
  -1 -12  -5    6.36    0.47
   1 -12   5    8.24    0.56
   1 -12   5    7.37    0.47
   1 -12   5    8.43    0.60
  -1 -12  -5    8.58    0.67
   1  13  -5    0.56    0.26
   1  13  -5    1.23    0.43
   1  13  -5    0.88    0.36
  -1  13   5    0.87    0.37
   1 -13  -5    1.36    0.46
   1 -13  -5    0.64    0.34
  -1 -13   5    0.84    0.33
   1 -13  -5   -0.65    0.36
  -1 -13   5    0.68    0.32
   1  13  -4    1.66    0.28
   1  13  -4    1.60    0.39
   1  13  -4    0.51    0.35
  -1  13   4    0.76    0.34
   1 -13  -4    1.10    0.28
   1 -13  -4    1.76    0.34
  -1 -13   4    1.39    0.33
   1 -13  -4    1.20    0.38
  -1 -13   4    1.74    0.34
   1 -13  -4    2.01    0.43
   1  13  -3    0.13    0.24
  -1  13   3    0.64    0.36
  -1  13   3    0.46    0.33
   1  13  -3    0.47    0.33
  -1  13   3    0.37    0.28
   1 -13  -3    0.23    0.31
   1 -13  -3    0.39    0.29
   1 -13  -3    0.38    0.34
  -1 -13   3    0.63    0.28
   1 -13  -3    0.14    0.27
   1 -13  -3    1.13    0.39
  -1  13   2   12.66    0.58
   1  13  -2   12.92    0.64
  -1  13   2   12.90    0.56
   1  13  -2   11.94    0.52
  -1  13   2   13.28    0.71
  -1  13   2   11.75    0.67
   1 -13  -2   12.25    0.51
   1 -13  -2   13.17    0.65
  -1 -13   2   11.84    0.51
   1 -13  -2   12.55    0.54
   1 -13  -2   13.39    0.74
   1 -13  -2   12.87    0.52
   1 -13  -2   12.62    0.66
  -1  13   1    1.09    0.26
   1  13  -1    1.23    0.31
   1  13  -1    1.41    0.26
  -1  13   1    1.19    0.32
   1  13  -1    1.16    0.26
  -1  13   1    1.25    0.26
   1 -13  -1    1.69    0.27
  -1 -13   1    1.33    0.35
  -1 -13   1    0.84    0.27
   1 -13  -1    1.25    0.31
  -1 -13   1    0.63    0.26
   1 -13  -1    1.25    0.27
   1 -13  -1    0.89    0.36
   1 -13  -1    0.81    0.26
   1 -13  -1    1.23    0.36
   1  13   0   74.07    1.64
   1  13   0   73.94    1.86
  -1  13   0   74.83    1.85
  -1  13   0   73.20    1.63
  -1  13   0   72.40    1.60
   1  13   0   74.55    1.62
   1 -13   0   77.09    2.08
  -1 -13   0   74.64    2.17
  -1 -13   0   73.88    1.53
   1 -13   0   72.73    1.83
   1 -13   0   72.83    1.58
  -1 -13   0   73.54    1.55
  -1 -13   0   73.44    1.83
   1 -13   0   74.66    1.55
   1 -13   0   73.68    1.57
  -1  13  -1    4.28    0.40
   1  13   1    4.10    0.41
   1  13   1    3.36    0.42
   1  13   1    3.40    0.35
  -1  13  -1    3.94    0.32
   1  13   1    3.76    0.43
   1  13   1    4.36    0.34
  -1  13  -1    3.54    0.33
   1 -13   1    3.73    0.36
  -1 -13  -1    3.57    0.44
   1 -13   1    4.03    0.35
  -1 -13  -1    4.08    0.39
  -1 -13  -1    4.20    0.41
  -1 -13  -1    3.94    0.33
   1 -13   1    3.88    0.33
  -1 -13  -1    4.37    0.32
  -1  13  -2   71.19    1.87
   1  13   2   78.69    2.11
   1  13   2   74.22    1.69
   1  13   2   72.73    1.88
   1  13   2   80.04    2.14
   1  13   2   73.17    1.63
  -1  13  -2   75.15    1.61
  -1 -13  -2   75.35    1.90
  -1 -13  -2   74.31    1.65
   1 -13   2   73.95    1.63
   1 -13   2   75.40    1.61
   1 -13   2   71.11    1.56
  -1 -13  -2   73.78    1.53
  -1 -13  -2   70.97    1.88
  -1  13  -3    0.59    0.35
  -1  13  -3    0.48    0.25
  -1  13  -3    0.13    0.29
   1  13   3    0.74    0.36
  -1 -13  -3    0.59    0.32
  -1 -13  -3    1.30    0.30
   1 -13   3    0.04    0.28
   1 -13   3    0.71    0.31
  -1 -13  -3    0.51    0.37
   1 -13   3    0.71    0.29
  -1  13  -4   13.96    0.54
   1  13   4   14.21    0.74
  -1  13  -4   12.57    0.68
  -1  13  -4   12.28    0.69
  -1  13  -4   13.23    0.53
  -1  13  -4   11.32    0.63
  -1 -13  -4   15.26    0.78
  -1 -13  -4   14.44    0.72
   1 -13   4   12.97    0.61
   1 -13   4   13.54    0.64
   1 -13   4   13.39    0.65
  -1 -13  -4   12.69    0.64
  -1  14   4   10.60    0.63
   1  14  -4   11.83    0.68
   1  14  -4   10.93    0.53
   1 -14  -4   11.24    0.75
  -1 -14   4   11.09    0.58
   1 -14  -4   11.33    0.59
   1 -14  -4   10.61    0.57
   1 -14  -4   12.24    0.73
  -1 -14   4   11.43    0.61
   1  14  -3   29.17    0.84
   1  14  -3   30.59    1.05
  -1  14   3   28.72    0.90
   1 -14  -3   31.04    1.06
   1 -14  -3   30.26    1.03
  -1 -14   3   29.01    0.88
   1 -14  -3   30.54    0.86
  -1 -14   3   29.90    0.87
   1 -14  -3   28.97    0.90
  -1  14   2    9.20    0.58
   1  14  -2    9.12    0.57
  -1  14   2   10.79    0.56
  -1  14   2    9.59    0.56
   1  14  -2    9.01    0.51
   1 -14  -2    9.63    0.51
  -1 -14   2    9.12    0.52
  -1 -14   2    8.89    0.51
   1 -14  -2   10.45    0.62
   1 -14  -2    9.60    0.51
   1 -14  -2    9.43    0.53
   1 -14  -2    9.61    0.66
   1  14  -1   13.59    0.57
   1  14  -1   12.62    0.65
  -1  14   1   12.70    0.57
  -1  14   1   12.44    0.63
   1  14  -1   12.77    0.53
  -1  14   1   12.69    0.59
   1 -14  -1   13.33    0.54
  -1 -14   1   12.67    0.73
  -1 -14   1   12.59    0.58
  -1 -14   1   12.81    0.58
   1 -14  -1   12.77    0.57
   1 -14  -1   12.00    0.65
   1 -14  -1   13.12    0.57
  -1  14   0    2.33    0.36
   1  14   0    2.67    0.32
  -1  14   0    2.33    0.31
  -1  14   0    3.12    0.34
   1  14   0    2.38    0.37
   1  14   0    2.05    0.30
  -1 -14   0    2.32    0.30
  -1 -14   0    2.00    0.30
   1 -14   0    3.02    0.34
   1 -14   0    2.73    0.33
   1 -14   0    2.62    0.36
   1 -14   0    2.17    0.32
   1  14   1    1.84    0.34
   1  14   1    1.68    0.37
  -1  14  -1    2.29    0.38
  -1  14  -1    1.90    0.30
  -1  14  -1    2.05    0.31
   1  14   1    2.30    0.32
   1 -14   1    1.97    0.31
  -1 -14  -1    2.38    0.37
  -1 -14  -1    2.72    0.40
  -1 -14  -1    1.25    0.28
   1 -14   1    2.59    0.35
  -1 -14  -1    1.98    0.30
   1 -14   1    1.85    0.33
   1  14   2    0.74    0.37
   1  14   2    0.58    0.29
   1  14   2    0.90    0.32
  -1  14  -2    0.54    0.26
  -1  14  -2    1.32    0.36
   1 -14   2    0.58    0.33
   1 -14   2    0.88    0.30
  -1 -14  -2    0.56    0.37
  -1 -14  -2    0.91    0.34
   1 -14   2    0.90    0.30
  -1 -14  -2    0.38    0.30
  -1 -14  -2    1.20    0.29
   1  14   3   21.20    0.83
  -1  14  -3   18.67    0.78
  -1  14  -3   19.49    0.66
   1  14   3   18.69    0.81
   1 -14   3   19.84    0.75
   1 -14   3   19.20    0.72
  -1 -14  -3   22.10    0.88
  -1 -14  -3   19.00    0.74
  -1 -14  -3   21.44    0.86
   1 -14   3   20.32    0.75
   1  15  -3    4.75    0.40
   1  15  -3    4.93    0.53
  -1  15   3    5.32    0.48
   1 -15  -3    5.04    0.51
   1 -15  -3    4.77    0.45
  -1 -15   3    4.10    0.42
   1 -15  -3    5.12    0.42
  -1 -15   3    5.25    0.45
   1 -15  -3    5.23    0.54
   1  15  -2    0.61    0.30
   1  15  -2    0.64    0.38
  -1  15   2    1.16    0.32
  -1  15   2    0.66    0.33
  -1  15   2    0.35    0.36
  -1 -15   2    1.28    0.36
   1 -15  -2    1.03    0.39
   1 -15  -2    0.76    0.30
   1 -15  -2    1.19    0.32
  -1 -15   2    0.61    0.33
   1 -15  -2    0.65    0.33
  -1  15   1   43.87    1.31
  -1  15   1   45.85    1.16
   1  15  -1   43.21    1.31
   1  15  -1   43.61    1.13
  -1  15   1   45.30    1.15
  -1 -15   1   45.86    1.13
  -1 -15   1   43.68    1.12
   1 -15  -1   44.58    1.12
   1 -15  -1   45.35    1.09
   1 -15  -1   46.28    1.12
   1 -15  -1   45.08    1.31
  -1  15   0    2.65    0.36
  -1  15   0    2.50    0.41
   1  15   0    2.76    0.35
   1  15   0    2.65    0.41
   1  15   0    2.79    0.35
  -1  15   0    3.15    0.35
  -1 -15   0    2.80    0.35
   1 -15   0    3.09    0.37
  -1 -15   0    2.65    0.34
   1 -15   0    2.40    0.34
   1 -15   0    3.30    0.38
   1  15   1   51.92    1.51
   1  15   1   54.19    1.35
   1  15   1   55.27    1.31
  -1  15  -1   54.32    1.31
  -1  15  -1   53.93    1.52
  -1  15  -1   55.41    1.31
  -1 -15  -1   56.62    1.52
   1 -15   1   53.09    1.27
   1 -15   1   54.35    1.29
  -1 -15  -1   53.50    1.25
  -1 -15  -1   54.61    1.23
   1 -15   1   55.15    1.31
   1  15   2    2.66    0.46
   1  15   2    3.23    0.40
  -1  15  -2    2.91    0.42
  -1  15  -2    4.28    0.38
   1  15   2    3.33    0.40
  -1 -15  -2    3.72    0.37
   1 -15   2    2.75    0.40
  -1 -15  -2    4.36    0.50
   1 -15   2    3.34    0.39
  -1 -15  -2    3.18    0.40
   1 -15   2    4.02    0.40
  -1 -15  -2    3.19    0.43
   2   0  -9    0.08    0.30
   2   0  -9    0.09    0.33
   2   0  -9   -0.19    0.44
   2   0  -9   -0.17    0.25
   2   0  -9   -0.03    0.28
   2   0  -9    0.15    0.27
   2   0  -8   74.70    1.80
   2   0  -8   75.61    1.89
   2   0  -8   77.22    2.18
   2   0  -8   77.22    1.89
  -2   0   8   73.63    2.11
   2   0  -8   79.91    1.80
   2   0  -8   77.68    1.79
  -2   0   7    0.05    0.22
   2   0  -7   -0.02    0.18
   2   0  -7    0.00    0.29
   2   0  -7    0.01    0.23
   2   0  -7   -0.05    0.17
   2   0  -7   -0.24    0.18
   2   0  -6   47.63    1.20
   2   0  -6   47.91    1.15
   2   0  -6   46.82    1.13
  -2   0   6   48.25    1.33
   2   0  -5    0.02    0.11
  -2   0   5    0.18    0.15
   2   0  -4   32.17    0.82
  -2   0   4   31.88    0.80
  -2   0   4   31.65    0.81
   2   0  -4   31.25    0.76
   2   0  -4   33.20    0.80
  -2   0   4   32.43    0.90
   2   0  -4   33.54    0.81
  -2   0   3   -0.17    0.05
  -2   0   3   -0.18    0.06
   2   0  -3   -0.22    0.06
  -2   0   3   -0.10    0.08
   2   0  -3   -0.13    0.06
   2   0  -3   -0.09    0.06
  -2   0   3   -0.06    0.06
  -2   0   2    5.97    0.17
  -2   0   2    6.05    0.20
   2   0  -2    5.37    0.20
   2   0  -2    5.82    0.20
  -2   0   2    5.82    0.23
   2   0  -2    5.84    0.20
   2   0  -2    6.91    0.19
   2   0  -1   -0.12    0.04
  -2   0   1   -0.04    0.04
  -2   0   1   -0.09    0.05
  -2   0   1   -0.07    0.05
   2   0  -1   -0.01    0.05
  -2   0   1   -0.14    0.05
   2   0  -1   -0.10    0.05
  -2   0   0  502.95   12.76
   2   0   0  512.35   11.90
  -2   0   0  506.61   11.93
  -2   0   0  511.24   10.04
  -2   0   0  523.63   11.93
  -2   0  -1   -0.03    0.05
   2   0   1   -0.10    0.06
  -2   0  -1    0.11    0.05
   2   0   1   -0.08    0.06
  -2   0  -1    0.11    0.05
   2   0   1    0.17    0.06
  -2   0  -1    0.12    0.08
  -2   0  -1    0.10    0.06
  -2   0  -2  478.14   11.13
  -2   0  -2  480.67    9.38
   2   0   2  482.68   11.13
  -2   0  -2  480.45   10.12
  -2   0  -2  487.91   11.14
   2   0   2  498.25   11.18
  -2   0  -2  460.16   11.02
   2   0   2  490.56   11.36
  -2   0  -3    0.18    0.06
  -2   0  -3    0.16    0.07
  -2   0  -3    0.04    0.19
  -2   0  -3    0.16    0.07
   2   0   3    0.06    0.07
   2   0   3    0.08    0.07
  -2   0  -3    0.13    0.08
   2   0   3    0.02    0.08
  -2   0  -4  117.66    3.01
   2   0   4  124.65    2.88
  -2   0  -5    0.39    0.22
  -2   0  -5   -0.10    0.19
  -2   0  -5    0.07    0.30
  -2   0  -6   10.35    0.48
  -2   0  -6   11.47    0.74
  -2   0  -6   11.29    0.43
  -2   0  -6   11.23    0.55
  -2   0  -6   11.09    0.52
  -2   0  -7   -0.08    0.32
  -2   0  -7    0.24    0.31
  -2   0  -7   -0.13    0.24
  -2   0  -7    0.01    0.28
  -2   0  -7    0.07    0.40
  -2   0  -8    0.70    0.38
  -2   0  -8    0.73    0.29
  -2   0  -8    0.78    0.38
  -2   0  -8    1.24    0.41
   2   1  -9    7.31    0.51
   2   1  -9    7.37    0.51
   2   1  -9    6.66    0.52
   2   1  -9    7.22    0.44
   2   1  -9    7.09    0.54
   2   1  -9    6.76    0.51
   2   1  -9    7.64    0.68
   2  -1  -9    6.86    0.49
   2  -1  -9    7.23    0.41
   2  -1  -9    7.01    0.53
   2  -1  -9    8.24    0.62
   2  -1  -9    6.82    0.66
   2   1  -8    8.12    0.46
  -2   1   8    8.90    0.55
   2   1  -8    8.96    0.53
   2   1  -8    8.73    0.43
   2   1  -8    9.78    0.46
   2   1  -8    9.10    0.70
   2   1  -8    8.29    0.52
   2   1  -8    9.48    0.50
   2  -1  -8    8.04    0.53
   2  -1  -8    7.75    0.70
   2  -1  -8    9.54    0.48
   2  -1  -8    8.34    0.44
   2  -1  -8    8.79    0.41
   2  -1  -8    9.18    0.46
   2   1  -7    0.18    0.17
   2   1  -7    0.24    0.19
   2   1  -7    0.11    0.30
   2   1  -7    0.20    0.20
  -2   1   7    0.03    0.19
  -2   1   7    0.08    0.23
   2   1  -7    0.23    0.21
   2  -1  -7    0.28    0.24
   2  -1  -7    0.10    0.20
   2  -1  -7    0.21    0.18
  -2  -1   7    0.14    0.21
   2  -1  -7    0.16    0.18
   2  -1  -7    0.04    0.31
   2   1  -6   45.48    1.06
  -2   1   6   45.34    1.27
   2   1  -6   43.30    1.12
   2  -1  -6   44.80    1.10
   2  -1  -6   44.25    1.07
  -2  -1   6   44.63    1.25
   2  -1  -6   43.85    1.16
   2   1  -5   46.51    1.07
  -2   1   5   47.22    1.28
   2   1  -5   46.70    1.12
   2  -1  -5   45.44    1.07
  -2  -1   5   48.16    1.27
   2  -1  -5   44.62    1.13
   2   1  -4  107.59    2.43
  -2   1   4  105.72    2.66
  -2   1   4  105.40    2.44
  -2   1   4  100.60    2.48
   2   1  -4   95.39    2.22
   2   1  -4  102.26    2.47
  -2   1   4  106.88    2.06
   2   1  -4  104.01    2.43
   2  -1  -4  101.30    2.23
   2  -1  -4  108.19    2.45
  -2  -1   4  101.78    2.65
  -2  -1   4  101.78    2.42
  -2  -1   4  104.28    2.43
   2  -1  -4  103.02    2.50
   2  -1  -4  104.21    2.44
  -2  -1   4  103.88    2.47
   2   1  -3  139.38    3.18
  -2   1   3  140.56    2.69
   2   1  -3  127.36    3.24
  -2   1   3  137.02    3.19
   2   1  -3  133.50    2.91
   2   1  -3  137.18    3.18
  -2   1   3  134.98    3.45
   2  -1  -3  133.66    3.25
  -2  -1   3  137.35    3.18
   2  -1  -3  138.10    3.19
  -2  -1   3  140.25    3.19
  -2  -1   3  133.86    3.44
  -2  -1   3  139.27    3.24
   2  -1  -3  139.56    3.20
  -2   1   2  349.87    8.19
  -2   1   2  356.16    6.91
   2   1  -2  369.29    7.41
   2   1  -2  339.91    8.37
   2   1  -2  355.58    8.21
  -2   1   2  357.10    8.81
   2   1  -2  348.87    8.27
   2  -1  -2  353.21    8.24
  -2  -1   2  351.97    8.81
   2  -1  -2  352.99    7.40
  -2  -1   2  362.32    7.45
   2  -1  -2  341.19    8.34
  -2  -1   2  355.92    8.19
  -2  -1   2  361.72    6.90
   2  -1  -2  362.35    8.25
  -2   1   1   98.16    2.22
   2   1  -1   92.48    2.26
   2   1  -1   91.83    2.21
  -2   1   1   95.39    2.37
  -2   1   1   94.57    1.87
   2   1  -1   93.93    2.21
  -2  -1   1   95.84    2.39
  -2  -1   1   95.53    2.22
  -2  -1   1   94.22    1.87
   2  -1  -1   92.81    2.21
  -2  -1   1   93.21    2.01
   2  -1  -1   95.89    2.21
  -2   1   0  184.45    4.62
   2   1   0  181.40    4.32
  -2   1   0  184.61    3.64
  -2   1   0  186.45    4.32
  -2   1   0  191.74    4.32
  -2  -1   0  184.89    4.66
  -2  -1   0  185.19    3.93
  -2  -1   0  187.37    4.32
  -2  -1   0  184.90    4.32
  -2  -1   0  186.47    3.64
   2  -1   0  190.27    4.32
  -2   1  -1    4.36    0.15
  -2   1  -1    4.39    0.15
  -2   1  -1    4.40    0.13
   2   1   1    4.20    0.17
   2   1   1    4.48    0.17
   2   1   1    4.32    0.17
  -2  -1  -1    4.50    0.16
  -2  -1  -1    4.45    0.15
  -2  -1  -1    4.49    0.17
  -2  -1  -1    4.46    0.14
   2  -1   1    4.22    0.15
  -2  -1  -1    4.16    0.21
   2  -1   1    4.45    0.16
  -2   1  -2    1.32    0.08
  -2   1  -2    1.30    0.09
   2   1   2    1.34    0.13
  -2   1  -2    1.24    0.10
   2   1   2    1.31    0.10
  -2   1  -2    1.37    0.09
   2   1   2    1.28    0.11
  -2  -1  -2    1.32    0.11
  -2  -1  -2    1.27    0.09
  -2  -1  -2    1.22    0.11
  -2  -1  -2    1.30    0.13
  -2  -1  -2    1.53    0.18
  -2  -1  -2    1.23    0.09
   2  -1   2    1.25    0.10
   2  -1   2    1.29    0.11
  -2   1  -3   26.96    0.64
   2   1   3   25.77    0.73
   2   1   3   28.51    0.71
  -2   1  -3   27.39    0.69
  -2   1  -3   28.88    0.68
   2   1   3   28.55    0.72
   2  -1   3   28.69    0.74
  -2  -1  -3   26.62    0.85
  -2  -1  -3   27.97    0.70
  -2  -1  -3   28.11    0.73
  -2  -1  -3   28.23    0.67
  -2  -1  -3   27.74    0.62
   2  -1   3   27.44    0.69
   2  -1   3   28.94    0.69
  -2   1  -4   27.90    0.71
  -2   1  -4   26.67    0.75
   2   1   4   28.25    0.69
   2   1   4   28.39    0.70
  -2  -1  -4   27.10    0.63
  -2  -1  -4   26.96    0.68
  -2  -1  -4   26.62    0.91
  -2  -1  -4   24.87    0.74
  -2   1  -5   48.29    1.19
  -2   1  -5   51.37    1.27
   2   1   5   49.92    1.22
  -2   1  -5   49.29    1.49
   2   1   5   49.95    1.24
  -2  -1  -5   52.30    1.20
  -2  -1  -5   52.38    1.22
  -2  -1  -5   51.54    1.29
  -2  -1  -5   47.85    1.49
  -2   1  -6   24.42    1.00
  -2   1  -6   25.33    0.78
  -2   1  -6   23.49    0.81
  -2   1  -6   23.81    0.76
  -2   1  -6   25.56    0.71
  -2  -1  -6   24.13    1.02
  -2  -1  -6   26.03    0.81
  -2  -1  -6   24.25    0.79
  -2  -1  -6   23.59    0.69
  -2  -1  -6   24.07    0.83
  -2  -1  -6   25.70    0.71
  -2   1  -7   20.53    0.76
  -2   1  -7   21.24    0.80
  -2   1  -7   21.39    1.02
  -2   1  -7   21.43    0.76
  -2   1  -7   21.41    0.67
  -2  -1  -7   20.45    0.78
  -2  -1  -7   21.18    0.68
  -2  -1  -7   21.12    0.77
  -2  -1  -7   20.68    1.03
  -2  -1  -7   19.45    0.82
  -2   1  -8   13.63    0.60
  -2   1  -8   15.29    0.67
  -2   1  -8   15.18    0.73
  -2   1  -8   15.41    0.75
  -2  -1  -8   14.69    0.78
  -2  -1  -8   15.57    0.76
  -2  -1  -8   13.72    0.59
  -2  -1  -8   14.76    0.70
   2   2  -9   22.62    0.85
   2   2  -9   23.88    0.78
   2   2  -9   26.67    1.12
   2   2  -9   22.25    0.83
   2   2  -9   23.59    0.94
   2   2  -9   23.57    0.85
   2   2  -9   24.15    0.82
   2  -2  -9   23.52    0.86
   2  -2  -9   22.63    1.11
   2  -2  -9   24.87    0.82
   2  -2  -9   23.62    0.96
   2  -2  -9   24.83    0.79
   2   2  -8   -0.02    0.30
   2   2  -8    0.09    0.26
   2   2  -8    0.11    0.21
   2   2  -8    0.24    0.20
   2   2  -8    0.21    0.24
   2   2  -8    0.42    0.27
   2   2  -8    0.48    0.26
  -2   2   8    0.49    0.29
   2   2  -8    0.42    0.35
   2  -2  -8   -0.06    0.22
   2  -2  -8    0.07    0.37
   2  -2  -8    0.37    0.31
   2  -2  -8    0.25    0.21
   2  -2  -8    0.50    0.25
  -2   2   7   92.26    2.53
  -2   2   7  102.36    2.69
   2   2  -7  105.30    2.26
   2   2  -7  102.19    2.63
   2   2  -7   99.69    2.27
   2   2  -7  102.06    2.32
   2   2  -7  105.30    2.37
   2  -2  -7  104.15    2.28
   2  -2  -7  101.13    2.35
   2  -2  -7   99.32    2.39
   2  -2  -7   95.06    2.64
  -2  -2   7  104.86    2.67
   2  -2  -7   99.18    2.40
   2   2  -6    2.57    0.24
  -2   2   6    2.43    0.27
   2   2  -6    2.28    0.20
   2   2  -6    2.14    0.22
   2   2  -6    2.50    0.32
  -2   2   6    2.46    0.22
   2  -2  -6    2.42    0.29
   2  -2  -6    2.38    0.19
  -2  -2   6    2.36    0.25
   2  -2  -6    2.26    0.20
   2   2  -5   99.86    2.30
  -2   2   5   97.90    2.55
   2   2  -5   95.38    2.14
   2  -2  -5   97.55    2.33
  -2  -2   5  100.06    2.53
   2  -2  -5   96.62    2.15
  -2   2   4    0.71    0.09
  -2   2   4    0.81    0.11
   2   2  -4    0.72    0.08
   2   2  -4    0.66    0.09
   2   2  -4    0.92    0.11
  -2   2   4    0.69    0.15
   2   2  -4    0.76    0.08
   2  -2  -4    0.76    0.11
   2  -2  -4    0.75    0.11
  -2  -2   4    0.60    0.13
  -2  -2   4    0.76    0.09
  -2  -2   4    0.72    0.09
  -2  -2   4    0.85    0.09
   2  -2  -4    0.78    0.12
  -2   2   3    0.15    0.10
   2   2  -3    0.19    0.08
   2   2  -3    0.33    0.07
   2   2  -3    0.16    0.07
  -2   2   3    0.31    0.07
  -2   2   3    0.29    0.09
   2   2  -3    0.36    0.07
   2   2  -3    0.31    0.07
  -2  -2   3    0.27    0.08
   2  -2  -3    0.17    0.08
   2  -2  -3    0.33    0.09
  -2  -2   3    0.22    0.08
  -2  -2   3    0.16    0.09
  -2  -2   3    0.20    0.07
   2   2  -2    3.39    0.15
   2   2  -2    3.17    0.14
  -2   2   2    3.39    0.17
   2   2  -2    3.41    0.15
  -2   2   2    3.19    0.16
   2   2  -2    3.43    0.14
  -2   2   2    3.47    0.13
   2  -2  -2    3.10    0.16
   2  -2  -2    3.15    0.13
  -2  -2   2    3.27    0.17
  -2  -2   2    3.34    0.13
   2  -2  -2    3.33    0.16
  -2  -2   2    3.39    0.12
  -2  -2   2    3.36    0.15
   2  -2  -2    3.37    0.16
  -2   2   1  158.56    3.05
   2   2  -1  154.59    3.61
  -2   2   1  158.04    3.87
   2   2  -1  150.71    3.68
  -2   2   1  155.54    3.61
   2   2  -1  153.85    3.61
   2   2  -1  150.80    3.62
  -2  -2   1  157.09    3.61
  -2  -2   1  156.21    3.28
   2  -2  -1  153.18    3.24
  -2  -2   1  154.75    3.89
   2  -2  -1  149.95    3.68
  -2  -2   1  158.64    3.61
   2  -2  -1  155.84    3.61
   2   2   0   14.85    0.41
   2   2   0   15.04    0.41
  -2   2   0   15.28    0.40
  -2   2   0   15.34    0.34
   2   2   0   15.01    0.41
  -2   2   0   15.30    0.40
  -2   2   0   15.18    0.40
   2  -2   0   14.55    0.41
   2  -2   0   14.50    0.40
   2  -2   0   15.50    0.40
  -2  -2   0   15.28    0.35
  -2  -2   0   14.80    0.47
  -2  -2   0   15.58    0.42
  -2  -2   0   15.10    0.41
   2   2   1  418.85    9.62
   2   2   1  414.77    9.59
   2   2   1  417.50    9.77
  -2   2  -1  430.81    9.64
  -2   2  -1  409.96    9.63
  -2   2  -1  416.79    8.13
  -2  -2  -1  411.40    9.59
  -2  -2  -1  417.04    9.58
   2  -2   1  418.95    9.74
   2  -2   1  422.84    9.57
  -2  -2  -1  407.85    8.72
  -2  -2  -1  390.42   10.35
  -2  -2  -1  411.19    8.09
   2   2   2    2.81    0.18
   2   2   2    2.85    0.17
  -2   2  -2    2.68    0.12
   2   2   2    2.74    0.18
  -2   2  -2    2.94    0.27
  -2   2  -2    2.65    0.11
  -2   2  -2    2.94    0.13
   2  -2   2    2.66    0.13
  -2  -2  -2    2.45    0.22
  -2  -2  -2    2.73    0.15
  -2  -2  -2    2.60    0.21
  -2  -2  -2    2.60    0.16
  -2  -2  -2    2.75    0.16
  -2  -2  -2    2.51    0.17
   2  -2   2    2.81    0.14
   2   2   3  270.29    6.23
   2   2   3  274.93    6.33
   2   2   3  255.09    6.25
  -2   2  -3  264.95    6.23
   2  -2   3  277.30    6.28
  -2  -2  -3  258.71    6.24
  -2  -2  -3  265.27    6.22
  -2  -2  -3  267.56    5.26
  -2  -2  -3  269.95    5.68
  -2   2  -4    3.97    0.28
   2   2   4    3.99    0.22
  -2   2  -4    3.59    0.26
   2   2   4    4.00    0.23
  -2  -2  -4    3.50    0.27
  -2  -2  -4    3.64    0.27
  -2  -2  -4    3.18    0.27
  -2  -2  -4    3.69    0.24
  -2  -2  -4    3.32    0.26
  -2  -2  -4    4.08    0.37
   2   2   5   38.03    0.97
  -2   2  -5   37.57    0.95
   2   2   5   37.48    0.96
  -2   2  -5   36.30    1.00
  -2   2  -5   37.93    1.21
  -2  -2  -5   39.96    0.96
  -2  -2  -5   36.89    1.21
  -2  -2  -5   36.99    1.00
  -2  -2  -5   37.89    1.05
  -2  -2  -5   38.03    0.99
  -2  -2  -5   38.52    0.91
  -2   2  -6    1.04    0.27
  -2   2  -6    0.88    0.25
  -2   2  -6    0.80    0.32
  -2   2  -6    0.64    0.21
  -2   2  -6    0.87    0.38
  -2  -2  -6    0.69    0.25
  -2  -2  -6    1.57    0.30
  -2  -2  -6    0.88    0.22
  -2  -2  -6    0.99    0.31
  -2  -2  -6    0.92    0.38
  -2  -2  -6    1.05    0.22
  -2   2  -7    0.95    0.28
  -2   2  -7    1.04    0.31
  -2   2  -7    0.65    0.32
  -2   2  -7    0.10    0.37
  -2   2  -7    0.76    0.25
  -2   2  -7    1.09    0.46
  -2   2  -7    1.12    0.31
  -2  -2  -7    1.42    0.46
  -2  -2  -7    1.11    0.38
  -2  -2  -7    1.37    0.37
  -2  -2  -7    0.97    0.30
  -2  -2  -7    0.77    0.26
  -2   2  -8    1.81    0.39
  -2   2  -8    1.42    0.36
  -2   2  -8    1.06    0.40
  -2   2  -8    1.39    0.31
  -2   2  -8    1.48    0.39
  -2  -2  -8    1.54    0.40
  -2  -2  -8    1.46    0.45
  -2  -2  -8    1.36    0.46
  -2  -2  -8    1.22    0.31
   2   3  -9    4.50    0.38
   2   3  -9    4.89    0.44
   2   3  -9    3.85    0.40
   2   3  -9    4.03    0.43
   2   3  -9    5.06    0.59
   2   3  -9    4.60    0.44
   2   3  -9    4.10    0.53
   2  -3  -9    4.05    0.54
   2  -3  -9    5.12    0.42
   2  -3  -9    4.30    0.58
   2  -3  -9    4.32    0.44
   2  -3  -9    4.67    0.41
   2   3  -8    0.13    0.35
   2   3  -8    0.38    0.22
   2   3  -8    0.02    0.22
   2   3  -8   -0.38    0.30
   2   3  -8   -0.12    0.27
  -2   3   8    0.32    0.29
   2   3  -8    0.29    0.24
   2   3  -8    0.29    0.26
   2   3  -8   -0.12    0.25
   2  -3  -8   -0.02    0.21
   2  -3  -8    0.23    0.23
   2  -3  -8    0.21    0.38
   2  -3  -8    0.40    0.26
   2  -3  -8   -0.29    0.33
   2  -3  -8    0.30    0.17
   2   3  -7    5.39    0.35
  -2   3   7    4.87    0.41
   2   3  -7    5.08    0.37
  -2   3   7    5.29    0.40
   2   3  -7    5.08    0.35
   2   3  -7    5.42    0.47
   2   3  -7    5.24    0.34
  -2   3   7    5.90    0.46
   2  -3  -7    5.08    0.34
  -2  -3   7    4.81    0.43
   2  -3  -7    5.69    0.49
   2  -3  -7    5.07    0.28
   2  -3  -7    5.66    0.38
   2  -3  -7    4.92    0.42
   2   3  -6   24.76    0.66
   2   3  -6   25.09    0.85
   2   3  -6   23.73    0.70
  -2   3   6   24.57    0.81
  -2   3   6   24.16    0.77
   2  -3  -6   26.48    0.80
   2  -3  -6   23.97    0.68
  -2  -3   6   24.98    0.78
   2  -3  -6   24.92    0.69
  -2   3   5   99.45    2.54
   2   3  -5   96.13    2.12
   2   3  -5   93.98    2.27
   2  -3  -5   94.60    2.13
   2  -3  -5   94.78    2.32
  -2  -3   5  100.76    2.51
   2   3  -4  127.32    2.78
  -2   3   4  129.45    3.06
  -2   3   4  131.11    2.58
   2   3  -4  129.84    3.03
  -2   3   4  129.84    3.32
   2   3  -4  130.61    3.02
   2   3  -4  125.92    3.08
   2  -3  -4  128.62    3.06
  -2  -3   4  131.60    3.29
   2  -3  -4  126.04    3.14
  -2  -3   4  127.32    3.03
   2  -3  -4  134.33    3.08
   2   3  -3  273.35    6.43
   2   3  -3  279.91    6.41
  -2   3   3  281.36    6.44
  -2   3   3  281.23    5.43
   2   3  -3  270.76    6.53
   2   3  -3  271.23    5.82
   2   3  -3  273.61    6.42
  -2  -3   3  279.55    6.42
  -2  -3   3  276.02    5.41
  -2  -3   3  290.83    6.44
  -2  -3   3  288.19    6.54
   2  -3  -3  264.82    6.57
  -2  -3   3  270.12    6.92
  -2  -3   3  273.45    5.84
   2  -3  -3  270.87    5.82
   2  -3  -3  272.73    6.44
   2  -3  -3  287.46    6.45
   2   3  -2  262.06    6.08
   2   3  -2  262.57    6.06
   2   3  -2  260.09    6.07
  -2   3   2  266.74    5.13
   2   3  -2  261.74    6.18
  -2   3   2  266.85    6.08
   2  -3  -2  266.13    6.08
   2  -3  -2  255.71    6.08
  -2  -3   2  256.53    6.53
   2  -3  -2  263.96    5.48
  -2  -3   2  259.94    5.52
  -2  -3   2  261.49    5.11
   2  -3  -2  252.85    6.19
  -2  -3   2  263.06    6.07
   2   3  -1  354.78    8.02
   2   3  -1  330.27    8.04
   2   3  -1  340.40    8.02
   2   3  -1  336.35    8.17
  -2   3   1  348.23    6.77
  -2   3   1  364.58    8.02
  -2   3   1  347.76    8.02
   2  -3  -1  344.71    8.02
  -2  -3   1  345.55    8.64
  -2  -3   1  347.92    6.76
  -2  -3   1  349.55    8.02
   2  -3  -1  345.77    7.23
  -2  -3   1  346.34    7.30
  -2   3   0  284.80    5.59
  -2   3   0  292.64    6.62
   2   3   0  289.65    6.64
  -2   3   0  285.52    6.62
   2  -3   0  263.70    6.75
  -2  -3   0  289.49    6.04
  -2  -3   0  284.33    7.17
  -2  -3   0  291.20    6.64
   2  -3   0  281.24    6.62
  -2  -3   0  290.39    5.60
  -2  -3   0  291.33    6.64
  -2   3  -1  125.38    2.81
  -2   3  -1  122.12    2.36
   2   3   1  116.94    2.84
  -2   3  -1  121.62    2.80
  -2  -3  -1  115.68    2.58
  -2  -3  -1  115.97    2.39
   2  -3   1  122.19    2.86
  -2  -3  -1  117.14    2.84
  -2  -3  -1  116.58    3.10
  -2  -3  -1  120.72    2.83
   2  -3   1  122.27    2.80
  -2   3  -2   21.56    0.54
   2   3   2   20.84    0.61
   2   3   2   20.29    0.60
  -2   3  -2   23.33    0.55
  -2   3  -2   20.18    0.66
   2   3   2   19.86    0.59
  -2   3  -2   21.84    0.45
  -2  -3  -2   21.55    0.68
  -2  -3  -2   20.60    0.60
  -2  -3  -2   20.80    0.58
  -2  -3  -2   21.48    0.55
   2  -3   2   21.32    0.54
  -2  -3  -2   20.58    0.63
   2  -3   2   22.32    0.56
  -2  -3  -2   21.44    0.51
   2   3   3    4.84    0.25
  -2   3  -3    4.47    0.36
   2   3   3    4.40    0.24
  -2  -3  -3    4.40    0.28
   2  -3   3    4.31    0.19
  -2  -3  -3    5.06    0.26
  -2  -3  -3    4.87    0.30
  -2  -3  -3    4.53    0.34
  -2  -3  -3    5.15    0.25
  -2   3  -4   47.38    1.09
   2   3   4   46.32    1.20
  -2   3  -4   45.60    1.33
  -2   3  -4   46.80    1.14
   2   3   4   45.69    1.18
  -2  -3  -4   46.54    1.12
  -2  -3  -4   46.88    1.12
  -2  -3  -4   43.81    1.24
  -2  -3  -4   48.45    1.19
  -2  -3  -4   47.36    1.33
  -2  -3  -4   46.37    1.05
  -2  -3  -4   46.96    1.14
   2   3   5   62.43    1.55
   2   3   5   62.04    1.52
  -2   3  -5   59.89    1.72
  -2   3  -5   61.24    1.41
  -2   3  -5   61.43    1.49
  -2  -3  -5   63.02    1.46
  -2  -3  -5   61.66    1.55
  -2  -3  -5   59.88    1.43
  -2  -3  -5   61.46    1.46
  -2  -3  -5   60.38    1.57
  -2  -3  -5   60.18    1.73
  -2   3  -6   50.81    1.33
  -2   3  -6   51.50    1.58
  -2   3  -6   49.43    1.26
  -2   3  -6   51.46    1.25
  -2   3  -6   49.18    1.52
  -2   3  -6   50.64    1.26
  -2  -3  -6   51.62    1.29
  -2  -3  -6   51.32    1.40
  -2  -3  -6   52.90    1.13
  -2  -3  -6   51.75    1.37
  -2  -3  -6   52.74    1.60
  -2  -3  -6   49.30    1.31
  -2   3  -7   29.34    0.93
  -2   3  -7   27.33    1.10
  -2   3  -7   28.95    0.85
  -2   3  -7   29.88    0.92
  -2   3  -7   29.41    0.90
  -2   3  -7   29.64    1.19
  -2   3  -7   28.67    0.95
  -2  -3  -7   28.92    0.97
  -2  -3  -7   27.98    1.18
  -2  -3  -7   29.42    0.86
  -2  -3  -7   28.69    0.86
  -2  -3  -7   31.07    1.05
  -2  -3  -7   30.02    0.98
  -2   3  -8    8.22    0.72
  -2   3  -8    7.98    0.59
  -2   3  -8    7.53    0.50
  -2   3  -8    8.06    0.64
  -2   3  -8    8.56    0.53
  -2  -3  -8    6.88    0.59
  -2  -3  -8    6.92    0.47
  -2  -3  -8    9.31    0.68
  -2  -3  -8    8.35    0.66
   2   4  -9    3.51    0.43
   2   4  -9    3.23    0.43
   2   4  -9    3.11    0.53
   2   4  -9    3.95    0.37
   2  -4  -9    4.09    0.40
   2  -4  -9    3.61    0.58
   2  -4  -9    3.50    0.52
   2  -4  -9    3.77    0.38
   2  -4  -9    4.05    0.42
   2   4  -8   48.86    1.54
   2   4  -8   49.99    1.25
   2   4  -8   47.73    1.31
   2   4  -8   49.16    1.35
   2   4  -8   48.56    1.52
   2   4  -8   50.54    1.28
  -2   4   8   50.08    1.53
   2  -4  -8   52.02    1.29
   2  -4  -8   53.08    1.32
   2  -4  -8   51.60    1.36
   2  -4  -8   50.20    1.46
   2  -4  -8   49.34    1.08
   2  -4  -8   52.15    1.61
   2   4  -7    2.94    0.26
   2   4  -7    3.30    0.40
   2   4  -7    3.04    0.31
   2   4  -7    3.05    0.42
  -2   4   7    3.27    0.35
   2   4  -7    3.07    0.26
  -2   4   7    3.39    0.31
  -2   4   7    3.05    0.32
   2   4  -7    3.01    0.31
   2  -4  -7    2.80    0.41
   2  -4  -7    2.97    0.26
   2  -4  -7    3.35    0.30
   2  -4  -7    3.07    0.27
   2  -4  -7    2.84    0.28
   2  -4  -7    3.04    0.23
   2  -4  -7    2.32    0.36
   2   4  -6   73.27    1.72
   2   4  -6   74.57    1.69
   2   4  -6   76.56    1.96
  -2   4   6   73.90    2.04
  -2   4   6   73.64    1.95
  -2  -4   6   76.46    1.99
   2  -4  -6   75.01    1.84
   2  -4  -6   73.02    1.71
   2  -4  -6   74.64    1.84
  -2   4   5    0.92    0.21
   2   4  -5    0.65    0.11
   2   4  -5    1.00    0.23
  -2   4   5    0.91    0.19
   2   4  -5    0.55    0.13
  -2  -4   5    0.95    0.19
   2  -4  -5    0.80    0.15
   2   4  -4   24.27    0.65
  -2   4   4   24.09    0.58
  -2   4   4   25.30    0.69
   2   4  -4   22.94    0.61
   2  -4  -4   25.46    0.73
  -2  -4   4   24.95    0.73
   2  -4  -4   24.17    0.69
   2  -4  -4   23.60    0.65
   2  -4  -4   26.30    0.71
   2   4  -3    3.21    0.17
  -2   4   3    2.90    0.22
   2   4  -3    2.75    0.18
   2   4  -3    3.03    0.16
   2   4  -3    2.92    0.17
  -2   4   3    2.81    0.17
  -2  -4   3    3.16    0.15
   2  -4  -3    2.90    0.21
  -2  -4   3    3.09    0.22
   2  -4  -3    3.12    0.18
  -2  -4   3    2.90    0.18
  -2  -4   3    2.99    0.16
   2   4  -2   17.58    0.50
  -2   4   2   19.08    0.52
   2   4  -2   16.87    0.49
   2   4  -2   18.67    0.49
   2   4  -2   17.42    0.49
  -2  -4   2   17.58    0.42
   2  -4  -2   17.88    0.52
  -2  -4   2   17.08    0.55
  -2  -4   2   17.14    0.45
   2  -4  -2   16.94    0.44
  -2  -4   2   17.59    0.50
  -2   4   1    0.79    0.09
   2   4  -1    0.83    0.10
   2   4  -1    0.90    0.11
   2   4  -1    0.73    0.11
  -2   4   1    0.91    0.11
   2   4  -1    0.85    0.11
  -2  -4   1    0.89    0.09
  -2  -4   1    0.98    0.14
  -2  -4   1    1.05    0.10
  -2  -4   1    0.89    0.11
   2  -4  -1    0.92    0.12
  -2   4   0  303.68    5.87
  -2   4   0  293.75    6.96
  -2   4   0  314.14    6.97
   2   4   0  292.41    7.12
   2   4   0  293.37    7.01
   2   4   0  301.21    6.99
  -2  -4   0  304.42    6.99
   2  -4   0  298.44    6.96
  -2  -4   0  297.68    6.35
   2  -4   0  302.88    7.10
  -2  -4   0  298.13    5.89
  -2  -4   0  298.51    7.54
   2   4   1   16.06    0.49
  -2   4  -1   15.74    0.44
  -2   4  -1   15.78    0.37
  -2   4  -1   14.77    0.43
   2   4   1   15.07    0.50
   2   4   1   15.24    0.48
  -2  -4  -1   15.32    0.40
   2  -4   1   15.42    0.45
  -2  -4  -1   15.33    0.44
   2  -4   1   15.96    0.44
  -2  -4  -1   15.96    0.49
  -2  -4  -1   15.24    0.56
   2   4   2  489.70   11.29
  -2   4  -2  470.43   11.10
  -2   4  -2  490.64    9.46
   2   4   2  479.48   11.30
  -2   4  -2  486.93   11.23
  -2   4  -2  497.97   11.22
   2   4   2  487.43   11.48
   2  -4   2  490.06   11.21
  -2  -4  -2  471.15   11.28
  -2  -4  -2  496.94   11.07
  -2  -4  -2  464.19   12.15
  -2  -4  -2  497.00   11.26
  -2  -4  -2  487.29   10.27
   2  -4   2  491.71   11.43
  -2  -4  -2  481.28    9.51
  -2   4  -3   35.76    1.02
   2   4   3   35.01    0.96
  -2   4  -3   35.54    0.85
   2   4   3   34.21    0.94
  -2  -4  -3   33.88    0.98
  -2  -4  -3   35.97    0.83
  -2  -4  -3   35.98    0.99
   2  -4   3   33.79    0.89
  -2  -4  -3   35.56    0.89
  -2  -4  -3   34.22    1.04
  -2   4  -4  154.44    3.38
  -2   4  -4  154.43    3.19
   2   4   4  148.45    3.68
  -2   4  -4  158.95    3.76
  -2   4  -4  159.69    3.30
   2   4   4  150.39    3.75
  -2  -4  -4  152.91    3.39
  -2  -4  -4  159.02    3.74
  -2  -4  -4  156.00    3.25
  -2  -4  -4  151.42    3.74
  -2  -4  -4  153.43    3.41
  -2  -4  -4  160.06    3.45
  -2  -4  -4  151.05    3.15
  -2   4  -5    8.19    0.37
  -2   4  -5    7.98    0.39
   2   4   5    7.81    0.38
  -2   4  -5    8.54    0.43
  -2   4  -5    8.65    0.57
   2   4   5    8.26    0.39
  -2  -4  -5    7.28    0.40
  -2  -4  -5    7.70    0.47
  -2  -4  -5    8.46    0.40
  -2  -4  -5    7.59    0.42
  -2  -4  -5    8.81    0.56
  -2  -4  -5    8.24    0.45
   2   4   6    2.18    0.24
  -2   4  -6    2.20    0.28
  -2   4  -6    2.07    0.29
  -2   4  -6    1.90    0.30
  -2   4  -6    2.20    0.29
  -2   4  -6    2.15    0.42
   2   4   6    1.98    0.22
  -2   4  -6    2.81    0.45
   2   4   6    2.41    0.29
  -2  -4  -6    2.06    0.23
  -2  -4  -6    1.88    0.38
  -2  -4  -6    3.06    0.28
  -2  -4  -6    2.95    0.46
  -2  -4  -6    2.09    0.33
  -2  -4  -6    1.82    0.27
  -2  -4  -6    1.89    0.35
  -2   4  -7   -0.37    0.41
  -2   4  -7    0.36    0.33
  -2   4  -7    0.21    0.40
  -2   4  -7    0.02    0.26
  -2   4  -7    0.04    0.29
  -2   4  -7    0.13    0.25
  -2  -4  -7    0.54    0.33
  -2  -4  -7   -0.11    0.41
  -2  -4  -7    0.27    0.27
  -2  -4  -7    0.27    0.39
  -2  -4  -7   -0.07    0.35
   2   5  -9    5.08    0.50
   2   5  -9    5.70    0.50
   2   5  -9    4.86    0.60
   2   5  -9    5.30    0.42
   2  -5  -9    5.28    0.34
   2  -5  -9    5.65    0.64
   2  -5  -9    5.70    0.44
   2  -5  -9    4.79    0.59
   2  -5  -9    5.56    0.48
   2  -5  -9    6.24    0.48
   2   5  -8    0.02    0.26
   2   5  -8    0.10    0.22
  -2   5   8   -0.20    0.25
   2   5  -8    0.23    0.28
  -2   5   8    0.04    0.27
   2   5  -8    0.54    0.36
   2   5  -8   -0.29    0.35
   2  -5  -8   -0.09    0.37
   2  -5  -8    0.47    0.28
   2  -5  -8    0.00    0.20
   2  -5  -8    0.10    0.25
   2  -5  -8   -0.01    0.27
   2  -5  -8   -0.01    0.37
  -2   5   7    0.55    0.29
   2   5  -7    0.80    0.26
   2   5  -7    0.77    0.27
  -2   5   7    0.97    0.29
   2   5  -7    1.23    0.21
  -2   5   7    1.16    0.27
   2   5  -7    0.71    0.36
   2   5  -7    1.33    0.33
   2   5  -7    1.33    0.23
   2  -5  -7    0.78    0.23
   2  -5  -7    0.83    0.20
   2  -5  -7    0.92    0.34
   2  -5  -7    1.57    0.37
   2  -5  -7    0.55    0.26
   2  -5  -7    0.92    0.25
   2  -5  -7    1.22    0.25
  -2   5   6   21.01    0.79
   2   5  -6   21.50    0.77
  -2   5   6   21.85    0.78
   2   5  -6   22.24    0.70
   2   5  -6   22.90    0.63
   2  -5  -6   21.09    0.67
  -2  -5   6   22.83    0.74
   2  -5  -6   21.33    0.78
   2  -5  -6   22.59    0.66
   2  -5  -6   22.36    0.72
   2   5  -5   32.60    0.87
   2   5  -5   32.41    0.83
  -2   5   5   34.19    1.00
   2   5  -5   33.09    0.97
   2  -5  -5   33.45    0.93
  -2  -5   5   34.31    0.98
   2   5  -4  101.19    2.23
   2   5  -4  100.86    2.43
  -2   5   4  103.93    2.48
  -2  -5   4  104.54    2.63
   2  -5  -4   98.60    2.47
   2  -5  -4  100.50    2.23
   2   5  -3  111.54    2.68
  -2   5   3  117.08    2.72
   2   5  -3  112.09    2.72
   2   5  -3  111.82    2.69
   2   5  -3  114.36    2.67
   2  -5  -3  112.40    2.72
  -2  -5   3  112.65    2.44
  -2  -5   3  109.79    2.69
   2  -5  -3  111.57    2.78
  -2  -5   3  115.17    2.90
   2  -5  -3  111.13    2.44
  -2  -5   3  113.14    2.26
   2   5  -2  168.24    4.03
  -2   5   2  177.79    4.06
   2   5  -2  171.37    4.10
   2   5  -2  176.29    4.03
   2   5  -2  171.29    4.04
   2  -5  -2  171.57    4.05
   2  -5  -2  165.22    4.13
  -2  -5   2  169.92    3.67
  -2  -5   2  173.59    4.35
   2  -5  -2  167.80    3.64
  -2  -5   2  171.23    4.03
  -2  -5   2  169.08    3.40
   2   5  -1   59.88    1.49
  -2   5   1   59.51    1.49
   2  -5  -1   59.65    1.51
  -2  -5   1   58.60    1.35
  -2  -5   1   59.35    1.25
  -2  -5   1   60.86    1.49
   2  -5  -1   61.57    1.49
  -2  -5   1   58.31    1.61
   2   5   0   89.81    2.20
  -2   5   0   87.83    2.17
   2   5   0   90.23    2.25
   2   5   0   90.21    2.21
  -2   5   0   93.24    2.18
  -2  -5   0   90.60    2.41
   2  -5   0   89.93    2.18
  -2  -5   0   90.89    2.20
  -2   5  -1    1.89    0.16
   2   5   1    3.06    0.24
   2   5   1    1.91    0.19
  -2   5  -1    2.04    0.14
  -2   5  -1    2.77    0.18
   2   5   1    3.05    0.25
   2  -5   1    1.80    0.17
  -2  -5  -1    2.11    0.17
  -2  -5  -1    2.03    0.19
  -2  -5  -1    1.97    0.16
   2  -5   1    2.44    0.20
  -2  -5  -1    2.40    0.24
  -2   5  -2    1.54    0.11
  -2   5  -2    1.54    0.13
   2   5   2    2.37    0.23
   2  -5   2    1.54    0.16
  -2  -5  -2    1.69    0.19
  -2  -5  -2    1.88    0.19
  -2  -5  -2    1.79    0.17
  -2  -5  -2    1.73    0.20
  -2  -5  -2    1.56    0.23
  -2   5  -3   10.17    0.25
   2   5   3    9.45    0.43
  -2   5  -3    9.23    0.29
   2   5   3    9.96    0.43
  -2   5  -3   10.37    0.49
  -2  -5  -3    9.28    0.41
  -2  -5  -3   10.13    0.49
  -2  -5  -3    9.53    0.38
  -2  -5  -3    9.61    0.45
  -2  -5  -3   10.08    0.44
   2  -5   3    9.02    0.35
   2   5   4   68.75    1.76
   2   5   4   68.75    1.73
  -2   5  -4   68.64    1.58
  -2   5  -4   68.26    1.54
  -2   5  -4   67.60    1.81
  -2   5  -4   67.83    1.50
  -2  -5  -4   66.34    1.62
  -2  -5  -4   66.41    1.50
  -2  -5  -4   68.42    1.60
  -2  -5  -4   66.66    1.65
  -2  -5  -4   66.19    1.77
  -2  -5  -4   66.98    1.77
  -2  -5  -4   67.59    1.57
  -2   5  -5   14.26    0.50
   2   5   5   14.12    0.54
  -2   5  -5   14.15    0.67
  -2   5  -5   14.13    0.50
  -2   5  -5   13.91    0.69
  -2   5  -5   15.00    0.52
   2   5   5   14.90    0.56
  -2   5  -5   14.25    0.55
  -2  -5  -5   14.79    0.54
  -2  -5  -5   14.29    0.56
  -2  -5  -5   12.19    0.62
  -2  -5  -5   15.40    0.48
  -2  -5  -5   14.10    0.68
  -2  -5  -5   14.75    0.59
  -2  -5  -5   14.35    0.57
  -2  -5  -5   13.95    0.59
  -2   5  -6   48.86    1.25
  -2   5  -6   49.55    1.22
  -2   5  -6   51.35    1.54
   2   5   6   49.65    1.16
   2   5   6   47.99    1.32
   2   5   6   48.16    1.30
  -2   5  -6   49.58    1.21
  -2   5  -6   47.18    1.51
  -2   5  -6   47.79    1.28
  -2  -5  -6   48.69    1.35
  -2  -5  -6   49.04    1.14
  -2  -5  -6   47.72    1.39
  -2  -5  -6   47.78    1.23
  -2  -5  -6   49.94    1.51
  -2  -5  -6   48.14    1.27
  -2  -5  -6   48.46    1.31
  -2   5  -7    5.45    0.44
  -2   5  -7    6.55    0.49
  -2   5  -7    5.77    0.63
  -2   5  -7    6.36    0.45
  -2   5  -7    5.69    0.41
  -2   5  -7    5.75    0.60
  -2  -5  -7    5.89    0.53
  -2  -5  -7    6.18    0.51
  -2  -5  -7    5.18    0.59
  -2  -5  -7    5.12    0.57
  -2  -5  -7    6.70    0.46
  -2  -5  -7    5.44    0.42
   2   6  -9   14.49    0.63
   2   6  -9   11.33    0.85
   2   6  -9   12.96    0.71
   2  -6  -9   14.86    0.95
   2  -6  -9   13.63    0.53
   2  -6  -9   14.04    0.84
   2  -6  -9   13.42    0.65
   2  -6  -9   13.34    0.67
   2   6  -8    2.30    0.31
   2   6  -8    1.98    0.49
   2   6  -8    2.66    0.35
   2   6  -8    2.27    0.31
   2   6  -8    2.37    0.43
   2  -6  -8    2.69    0.47
   2  -6  -8    3.07    0.48
   2  -6  -8    1.74    0.34
   2  -6  -8    1.98    0.31
   2  -6  -8    2.70    0.28
   2  -6  -8    2.99    0.35
  -2   6   7   83.29    2.36
  -2   6   7   84.37    2.22
   2   6  -7   83.99    2.22
  -2   6   7   84.74    2.26
   2   6  -7   88.01    2.07
   2   6  -7   78.94    2.26
   2   6  -7   80.53    1.92
   2   6  -7   86.62    1.95
   2   6  -7   84.56    1.97
   2  -6  -7   85.83    2.14
   2  -6  -7   84.50    1.75
   2  -6  -7   87.22    1.99
   2  -6  -7   86.43    2.05
   2  -6  -7   82.97    2.03
   2  -6  -7   84.51    2.26
   2  -6  -7   83.34    1.99
  -2   6   6    2.49    0.33
   2   6  -6    2.23    0.37
   2   6  -6    2.33    0.22
  -2   6   6    2.56    0.31
   2   6  -6    2.68    0.32
   2  -6  -6    2.46    0.35
   2  -6  -6    2.13    0.31
   2  -6  -6    2.63    0.25
   2  -6  -6    2.16    0.25
   2   6  -5   94.41    2.32
   2   6  -5   90.07    2.27
  -2   6   5   97.23    2.44
   2   6  -5   95.12    2.09
   2  -6  -5   95.77    2.34
   2  -6  -5   88.73    2.20
   2  -6  -5   93.34    2.11
  -2  -6   5   95.32    2.47
   2   6  -4    0.54    0.16
  -2   6   4    0.59    0.18
   2   6  -4    0.42    0.14
   2  -6  -4    0.52    0.18
   2  -6  -4    0.41    0.18
  -2  -6   4    0.64    0.19
   2  -6  -4    0.40    0.15
  -2   6   3    1.72    0.21
   2   6  -3    1.57    0.16
   2   6  -3    1.78    0.16
   2   6  -3    1.58    0.17
  -2   6   3    1.59    0.20
   2  -6  -3    1.98    0.21
   2  -6  -3    1.41    0.19
  -2  -6   3    1.62    0.17
  -2  -6   3    1.84    0.21
   2   6  -2    0.70    0.14
  -2   6   2    0.79    0.16
  -2  -6   2    0.80    0.12
  -2  -6   2    0.98    0.15
   2  -6  -2    0.91    0.17
  -2  -6   2    0.75    0.13
   2  -6  -2    0.63    0.16
  -2  -6   2    0.92    0.18
  -2   6   1   77.85    1.97
   2   6  -1   77.53    1.97
   2   6  -1   79.69    1.98
   2   6  -1   81.26    2.01
  -2  -6   1   79.88    1.66
   2  -6  -1   78.66    1.97
  -2  -6   1   79.88    2.13
  -2  -6   1   80.40    1.97
  -2  -6   1   79.42    1.79
   2  -6  -1   80.39    2.00
   2   6   0    7.44    0.36
   2   6   0    7.58    0.35
  -2   6   0    7.35    0.32
   2   6   0    7.87    0.36
  -2  -6   0    7.23    0.29
  -2  -6   0    7.75    0.35
  -2  -6   0    7.91    0.44
   2  -6   0    8.20    0.34
  -2  -6   0    7.65    0.32
  -2   6  -1  242.49    4.85
   2   6   1  244.68    5.83
  -2   6  -1  242.63    5.75
  -2   6  -1  253.16    5.76
   2   6   1  253.66    5.82
  -2   6  -1  240.61    5.87
   2   6   1  241.96    5.92
  -2  -6  -1  249.06    5.29
  -2  -6  -1  244.78    6.28
   2  -6   1  238.31    5.75
   2  -6   1  243.46    5.87
  -2  -6  -1  249.99    5.81
  -2  -6  -1  249.14    4.90
  -2   6  -2   10.98    0.37
   2   6   2   11.60    0.49
  -2   6  -2   11.18    0.31
  -2  -6  -2   11.17    0.54
  -2  -6  -2   11.25    0.41
   2  -6   2   11.16    0.42
  -2  -6  -2   11.29    0.48
  -2  -6  -2   11.62    0.44
  -2   6  -3  198.75    3.80
   2   6   3  191.40    4.72
   2   6   3  191.26    4.64
  -2   6  -3  191.69    4.09
  -2   6  -3  190.71    4.50
  -2   6  -3  193.45    4.57
  -2  -6  -3  190.38    5.01
   2  -6   3  187.60    4.63
  -2  -6  -3  194.10    3.93
  -2  -6  -3  193.69    4.66
  -2  -6  -3  197.85    4.52
  -2  -6  -3  195.17    4.24
   2   6   4    2.83    0.29
  -2   6  -4    2.71    0.24
   2   6   4    2.63    0.29
  -2   6  -4    2.73    0.26
  -2   6  -4    3.02    0.35
  -2   6  -4    3.01    0.24
  -2  -6  -4    2.55    0.30
  -2  -6  -4    2.97    0.29
  -2  -6  -4    2.91    0.30
  -2  -6  -4    2.69    0.31
  -2  -6  -4    2.81    0.27
  -2  -6  -4    2.94    0.28
  -2  -6  -4    3.21    0.30
  -2   6  -5   28.34    0.78
  -2   6  -5   27.92    1.00
  -2   6  -5   29.43    1.02
   2   6   5   27.30    0.87
  -2   6  -5   28.24    0.82
   2   6   5   27.61    0.89
   2   6   5   28.29    0.78
  -2   6  -5   27.63    0.80
  -2   6  -5   27.72    0.77
  -2  -6  -5   28.37    0.85
  -2  -6  -5   27.94    0.92
  -2  -6  -5   27.58    0.75
  -2  -6  -5   26.95    0.86
  -2  -6  -5   28.19    0.88
  -2  -6  -5   26.07    0.83
   2   6   6    0.15    0.25
  -2   6  -6    0.22    0.36
  -2   6  -6    0.27    0.25
   2   6   6   -0.10    0.29
   2   6   6    0.21    0.24
  -2   6  -6    0.14    0.23
  -2   6  -6    0.09    0.28
  -2   6  -6    0.26    0.38
  -2   6  -6    0.33    0.25
  -2  -6  -6    0.00    0.28
  -2  -6  -6   -0.09    0.22
  -2  -6  -6   -0.09    0.27
  -2  -6  -6    0.06    0.34
  -2  -6  -6    0.04    0.23
  -2  -6  -6   -0.12    0.31
  -2   6  -7    1.62    0.33
  -2   6  -7    1.72    0.35
  -2   6  -7    1.84    0.36
  -2   6  -7    1.67    0.38
  -2   6  -7    1.13    0.45
   2   6   7    2.15    0.36
  -2   6  -7    1.21    0.47
  -2  -6  -7    1.71    0.35
  -2  -6  -7    1.10    0.44
  -2  -6  -7    1.70    0.43
  -2  -6  -7    1.44    0.39
  -2  -6  -7    1.96    0.32
   2   7  -8    0.56    0.30
   2   7  -8    0.78    0.37
   2   7  -8    0.17    0.42
   2   7  -8    0.55    0.27
   2   7  -8    0.15    0.28
   2  -7  -8    0.58    0.28
   2  -7  -8    0.18    0.42
   2  -7  -8    0.49    0.29
   2  -7  -8    0.15    0.32
   2  -7  -8    0.70    0.27
  -2   7   7    2.14    0.35
   2   7  -7    2.06    0.33
  -2   7   7    1.80    0.35
   2   7  -7    1.90    0.29
   2   7  -7    1.95    0.43
   2   7  -7    1.82    0.28
  -2   7   7    1.38    0.35
   2   7  -7    1.87    0.35
   2  -7  -7    1.27    0.34
   2  -7  -7    1.93    0.29
   2  -7  -7    1.86    0.30
   2  -7  -7    1.30    0.27
   2  -7  -7    1.61    0.39
   2   7  -6    2.57    0.41
  -2   7   6    2.91    0.37
   2   7  -6    3.14    0.26
   2   7  -6    3.00    0.33
   2   7  -6    3.25    0.31
   2   7  -6    3.15    0.29
  -2   7   6    2.49    0.34
   2  -7  -6    2.80    0.35
   2  -7  -6    3.33    0.30
   2  -7  -6    3.05    0.38
   2  -7  -6    2.60    0.28
   2   7  -5   82.06    2.05
   2   7  -5   83.07    1.87
   2   7  -5   80.85    2.04
  -2   7   5   83.17    2.19
   2  -7  -5   80.89    1.99
   2  -7  -5   81.23    2.10
  -2  -7   5   82.16    2.20
   2   7  -4   30.11    0.86
  -2   7   4   31.14    0.97
  -2   7   4   29.70    0.92
   2   7  -4   29.73    0.85
   2  -7  -4   31.15    0.90
  -2  -7   4   31.10    0.94
   2  -7  -4   29.49    0.91
   2  -7  -4   30.02    0.95
  -2   7   3  208.46    5.00
   2   7  -3  199.46    4.86
  -2   7   3  204.70    4.89
   2  -7  -3  207.21    5.00
   2  -7  -3  209.21    4.47
  -2  -7   3  205.42    5.22
   2  -7  -3  199.62    4.89
  -2   7   2   57.03    1.49
  -2   7   2   55.65    1.51
   2   7  -2   54.84    1.47
   2  -7  -2   56.65    1.50
  -2  -7   2   56.44    1.24
   2  -7  -2   57.01    1.36
  -2  -7   2   58.47    1.59
  -2  -7   2   58.07    1.47
  -2  -7   2   56.80    1.34
   2  -7  -2   57.07    1.52
  -2   7   1  220.57    5.41
  -2   7   1  224.54    5.32
   2   7  -1  225.06    5.33
   2   7  -1  229.95    5.43
   2   7  -1  234.01    5.35
   2  -7  -1  223.80    4.85
  -2  -7   1  220.91    5.73
   2  -7  -1  227.43    5.33
   2  -7  -1  220.28    5.42
  -2  -7   1  217.54    4.83
  -2  -7   1  220.29    4.48
  -2  -7   1  226.46    5.32
   2   7   0   14.28    0.54
   2   7   0   14.85    0.56
  -2   7   0   14.34    0.51
  -2   7   0   14.94    0.51
   2   7   0   14.53    0.54
  -2  -7   0   14.36    0.53
  -2  -7   0   14.51    0.45
   2  -7   0   14.79    0.52
  -2  -7   0   14.75    0.62
  -2  -7   0   14.92    0.49
  -2   7  -1   96.64    2.38
   2   7   1  100.21    2.51
   2   7   1   97.43    2.45
   2   7   1   98.09    2.46
  -2  -7  -1   97.87    2.23
  -2  -7  -1   97.94    2.45
  -2  -7  -1   97.13    2.07
  -2  -7  -1   96.16    2.65
   2  -7   1   96.92    2.40
   2  -7   1   96.87    2.52
   2  -7   1   99.39    2.45
   2   7   2    4.13    0.36
  -2   7  -2    3.94    0.24
   2   7   2    3.99    0.33
   2   7   2    3.64    0.32
  -2   7  -2    4.28    0.22
  -2  -7  -2    3.32    0.34
  -2  -7  -2    4.24    0.36
  -2  -7  -2    3.53    0.27
   2  -7   2    3.75    0.31
  -2  -7  -2    3.62    0.28
  -2  -7  -2    3.26    0.28
  -2   7  -3    6.01    0.23
  -2   7  -3    5.47    0.26
   2   7   3    5.70    0.44
  -2   7  -3    5.72    0.30
   2   7   3    5.54    0.43
   2  -7   3    5.80    0.32
  -2  -7  -3    6.28    0.37
   2  -7   3    5.07    0.34
  -2  -7  -3    4.90    0.39
   2  -7   3    5.91    0.32
  -2  -7  -3    4.89    0.46
  -2  -7  -3    4.87    0.35
  -2  -7  -3    6.03    0.42
  -2   7  -4   23.04    0.82
   2   7   4   23.46    0.84
  -2   7  -4   22.66    0.67
  -2   7  -4   21.89    0.66
  -2   7  -4   22.95    0.83
   2   7   4   23.36    0.82
  -2  -7  -4   22.77    0.70
  -2  -7  -4   21.09    0.73
   2  -7   4   22.28    0.60
  -2  -7  -4   22.43    0.74
  -2  -7  -4   22.00    0.63
  -2  -7  -4   21.33    0.75
  -2  -7  -4   23.19    0.76
   2  -7   4   23.01    0.59
   2   7   5   89.92    1.88
  -2   7  -5   88.70    2.33
   2   7   5   86.52    2.29
  -2   7  -5   86.61    2.00
  -2   7  -5   86.04    1.99
  -2   7  -5   89.37    2.31
   2   7   5   87.46    2.26
  -2  -7  -5   87.41    2.16
  -2  -7  -5   84.94    2.13
  -2  -7  -5   86.39    2.09
  -2  -7  -5   85.45    2.01
  -2  -7  -5   86.50    2.08
  -2  -7  -5   84.34    1.83
  -2   7  -6   22.24    0.76
  -2   7  -6   22.32    0.74
  -2   7  -6   22.98    0.97
  -2   7  -6   21.88    0.94
   2   7   6   22.63    0.73
  -2  -7  -6   22.39    0.86
  -2  -7  -6   21.91    0.81
  -2  -7  -6   21.15    0.78
  -2  -7  -6   23.77    0.73
  -2  -7  -6   23.71    0.87
  -2  -7  -6   22.77    0.91
  -2   7  -7   34.74    1.33
  -2   7  -7   34.58    1.06
  -2   7  -7   36.65    1.09
   2   7   7   34.79    1.04
  -2  -7  -7   36.00    1.12
  -2  -7  -7   32.12    1.18
  -2  -7  -7   36.28    1.23
  -2  -7  -7   36.33    1.19
  -2  -7  -7   37.08    0.98
  -2  -7  -7   35.80    1.04
   2   8  -8   23.88    0.89
   2   8  -8   23.43    0.82
   2   8  -8   22.65    0.80
   2   8  -8   23.83    1.05
   2  -8  -8   22.98    0.84
   2  -8  -8   24.51    0.78
   2  -8  -8   24.55    0.89
   2  -8  -8   25.65    1.02
   2  -8  -8   25.66    0.94
   2   8  -7    7.46    0.49
   2   8  -7    6.92    0.60
   2   8  -7    7.13    0.45
   2   8  -7    6.77    0.45
   2  -8  -7    6.20    0.43
   2  -8  -7    6.14    0.41
   2  -8  -7    7.60    0.56
   2  -8  -7    7.10    0.56
   2  -8  -7    7.41    0.45
  -2   8   6   47.90    1.41
  -2   8   6   49.16    1.16
   2   8  -6   46.44    1.26
  -2   8   6   47.92    1.43
   2   8  -6   46.04    1.17
   2   8  -6   48.09    1.23
   2   8  -6   48.74    1.46
   2   8  -6   45.13    1.20
   2  -8  -6   46.93    1.24
   2  -8  -6   43.32    1.30
   2  -8  -6   45.39    1.12
   2  -8  -6   45.17    1.23
   2  -8  -6   50.10    1.35
   2   8  -5    4.10    0.33
  -2   8   5    4.57    0.42
   2   8  -5    4.08    0.32
  -2   8   5    3.73    0.37
   2  -8  -5    3.49    0.31
   2  -8  -5    3.88    0.38
   2  -8  -5    3.85    0.32
  -2  -8   5    3.41    0.33
  -2   8   4   22.29    0.82
  -2   8   4   22.23    0.78
   2   8  -4   22.30    0.72
   2  -8  -4   22.88    0.82
   2  -8  -4   22.43    0.74
  -2  -8   4   22.91    0.78
   2  -8  -4   22.27    0.78
   2   8  -3    0.28    0.17
  -2   8   3    0.19    0.21
  -2   8   3    0.33    0.20
   2  -8  -3   -0.06    0.21
  -2  -8   3    0.11    0.22
   2  -8  -3    0.08    0.20
   2  -8  -3    0.16    0.19
   2   8  -2   20.76    0.69
   2   8  -2   20.82    0.70
  -2   8   2   20.95    0.71
  -2   8   2   20.42    0.71
   2   8  -2   20.79    0.68
  -2  -8   2   20.01    0.68
  -2  -8   2   19.63    0.57
   2  -8  -2   20.66    0.72
   2  -8  -2   21.98    0.73
  -2  -8   2   20.15    0.74
  -2  -8   2   20.58    0.62
   2  -8  -2   21.28    0.66
   2   8  -1    0.34    0.19
  -2   8   1    0.48    0.19
  -2   8   1    0.21    0.17
   2   8  -1    0.51    0.20
   2   8  -1    0.37    0.18
   2  -8  -1    0.30    0.19
  -2  -8   1    0.62    0.18
   2  -8  -1    0.42    0.19
  -2  -8   1    0.71    0.17
  -2  -8   1    0.60    0.24
   2  -8  -1    0.94    0.22
  -2  -8   1    0.55    0.19
  -2   8   0  195.11    4.49
  -2   8   0  188.02    4.57
   2   8   0  183.79    4.53
   2   8   0  185.11    4.52
   2   8   0  186.28    4.61
  -2  -8   0  189.06    4.52
   2  -8   0  186.67    3.52
  -2  -8   0  188.82    4.87
  -2  -8   0  186.07    4.11
   2  -8   0  183.98    3.48
   2  -8   0  184.62    4.49
   2  -8   0  189.46    4.09
  -2  -8   0  187.26    3.81
   2   8   1   38.84    1.16
   2   8   1   39.02    1.18
   2   8   1   39.58    1.16
  -2   8  -1   39.96    1.09
  -2  -8  -1   39.90    0.98
  -2  -8  -1   40.40    1.25
   2  -8   1   39.04    0.88
   2  -8   1   38.89    1.13
  -2  -8  -1   38.77    1.15
  -2  -8  -1   39.80    1.05
   2  -8   1   39.64    0.89
  -2   8  -2  174.14    4.10
  -2   8  -2  174.72    3.46
   2   8   2  166.80    4.28
   2   8   2  165.74    4.22
   2   8   2  173.76    4.21
  -2  -8  -2  172.42    3.55
  -2  -8  -2  171.73    4.53
  -2  -8  -2  175.32    4.21
   2  -8   2  170.73    3.22
  -2  -8  -2  173.20    3.83
   2  -8   2  171.68    4.21
   2  -8   2  168.45    3.25
  -2  -8  -2  177.05    3.81
   2   8   3   94.80    2.51
   2   8   3   95.11    2.55
  -2   8  -3  100.85    2.16
  -2   8  -3   98.06    2.35
  -2   8  -3   96.76    1.98
  -2  -8  -3  101.40    2.51
  -2  -8  -3   97.91    2.28
  -2  -8  -3   98.83    2.12
  -2  -8  -3   96.85    2.28
   2  -8   3   95.24    1.94
   2  -8   3   95.48    2.44
  -2  -8  -3   92.46    2.70
   2  -8   3   98.14    1.92
   2   8   4   47.02    1.44
   2   8   4   47.54    1.42
  -2   8  -4   50.93    1.21
  -2   8  -4   47.79    1.41
   2   8   4   47.56    1.15
  -2   8  -4   49.36    1.21
  -2  -8  -4   49.73    1.35
   2  -8   4   48.98    1.07
  -2  -8  -4   45.98    1.21
   2  -8   4   47.93    1.09
  -2  -8  -4   47.92    1.28
  -2  -8  -4   48.79    1.29
  -2  -8  -4   49.87    1.14
  -2  -8  -4   48.31    1.30
  -2   8  -5   14.97    0.73
   2   8   5   14.71    0.61
   2   8   5   13.80    0.70
  -2   8  -5   14.41    0.59
  -2   8  -5   14.07    0.73
  -2   8  -5   14.03    0.55
   2   8   5   13.38    0.69
  -2  -8  -5   13.51    0.65
  -2  -8  -5   14.86    0.68
  -2  -8  -5   13.66    0.64
  -2  -8  -5   13.72    0.55
  -2  -8  -5   14.69    0.68
  -2  -8  -5   13.89    0.64
   2   8   6    2.78    0.38
  -2   8  -6    2.83    0.36
  -2   8  -6    3.31    0.49
  -2   8  -6    2.40    0.37
  -2   8  -6    3.10    0.50
  -2  -8  -6    2.54    0.44
  -2  -8  -6    3.08    0.44
  -2  -8  -6    2.49    0.34
  -2  -8  -6    2.76    0.40
  -2  -8  -6    3.05    0.35
  -2  -8  -6    2.53    0.42
  -2  -8  -7    3.40    0.39
   2   9  -8    0.43    0.35
   2   9  -8    0.69    0.33
   2   9  -8    0.42    0.49
   2   9  -8    0.19    0.31
   2  -9  -8    0.20    0.45
   2  -9  -8   -0.13    0.31
   2  -9  -8   -0.03    0.38
   2  -9  -8    0.65    0.36
   2  -9  -8    0.14    0.34
   2   9  -7    0.94    0.31
  -2   9   7    0.83    0.32
   2   9  -7    0.50    0.27
   2   9  -7    0.23    0.29
   2   9  -7    1.00    0.43
   2  -9  -7    1.03    0.32
   2  -9  -7    0.37    0.30
   2  -9  -7    0.60    0.37
   2  -9  -7    0.36    0.38
   2  -9  -7    0.47    0.29
   2   9  -6   13.75    0.73
   2   9  -6   12.50    0.44
   2   9  -6   12.33    0.55
  -2   9   6   12.52    0.57
   2   9  -6   11.82    0.52
   2   9  -6   12.23    0.55
   2   9  -6   12.74    0.56
  -2   9   6   13.19    0.69
  -2   9   6   12.73    0.71
   2  -9  -6   11.81    0.57
   2  -9  -6   12.26    0.54
   2  -9  -6   13.14    0.68
   2  -9  -6   13.59    0.66
   2  -9  -6   11.13    0.56
  -2   9   5   10.41    0.62
   2   9  -5    9.53    0.45
   2   9  -5   10.74    0.59
   2   9  -5   10.49    0.49
   2   9  -5   10.34    0.49
  -2   9   5    9.59    0.59
  -2   9   5   10.53    0.51
   2   9  -5   10.80    0.40
   2  -9  -5   10.09    0.56
   2  -9  -5    9.93    0.50
   2   9  -4   97.64    2.43
  -2   9   4   97.19    2.52
  -2   9   4   96.60    2.56
   2  -9  -4   93.24    2.55
   2  -9  -4   95.36    2.30
   2  -9  -4   98.25    2.49
  -2  -9   4   95.14    2.59
  -2   9   3   39.86    1.21
  -2   9   3   38.73    1.18
   2   9  -3   38.63    1.14
  -2  -9   3   38.77    1.21
   2  -9  -3   38.43    1.18
   2  -9  -3   39.81    0.87
   2  -9  -3   39.29    1.09
   2  -9  -3   40.26    1.23
   2  -9  -3   40.09    0.86
   2  -9  -3   41.83    1.10
  -2   9   2  188.67    4.61
  -2   9   2  182.84    4.52
   2   9  -2  183.91    4.51
  -2  -9   2  186.19    4.83
   2  -9  -2  176.83    4.51
   2  -9  -2  193.54    4.62
   2  -9  -2  182.78    4.12
   2  -9  -2  189.68    3.45
   2  -9  -2  190.41    3.49
   2   9  -1   13.56    0.59
   2   9  -1   13.71    0.59
   2   9  -1   15.09    0.61
  -2   9   1   14.60    0.59
  -2   9   1   14.53    0.59
  -2  -9   1   15.52    0.67
   2  -9  -1   14.52    0.46
   2  -9  -1   13.28    0.60
   2  -9  -1   13.10    0.55
  -2  -9   1   14.20    0.54
  -2  -9   1   14.43    0.51
   2  -9  -1   14.13    0.62
  -2  -9   1   14.71    0.60
   2  -9  -1   14.49    0.46
  -2   9   0   67.79    1.77
   2   9   0   66.48    1.78
  -2   9   0   66.40    1.74
   2   9   0   66.52    1.81
   2   9   0   65.94    1.78
   2  -9   0   64.43    1.37
   2  -9   0   63.17    1.64
   2  -9   0   63.53    1.35
  -2  -9   0   65.98    1.89
  -2  -9   0   65.27    1.77
  -2  -9   0   66.65    1.50
  -2  -9   0   66.98    1.61
   2   9   1    4.06    0.37
   2   9   1    4.01    0.38
  -2   9  -1    4.02    0.35
   2   9   1    4.47    0.41
   2  -9   1    4.43    0.30
  -2  -9  -1    4.49    0.37
   2  -9   1    4.66    0.41
  -2  -9  -1    4.55    0.31
  -2  -9  -1    4.51    0.42
  -2  -9  -1    3.85    0.32
   2  -9   1    4.35    0.29
  -2  -9  -1    4.08    0.34
   2   9   2    1.11    0.27
  -2   9  -2    0.76    0.19
   2   9   2    0.50    0.29
   2   9   2    0.51    0.27
  -2  -9  -2    1.24    0.26
  -2  -9  -2    0.84    0.29
  -2  -9  -2    0.64    0.25
   2  -9   2    1.15    0.26
   2  -9   2    0.82    0.21
  -2  -9  -2    0.80    0.25
   2  -9   2    0.79    0.23
  -2  -9  -2    0.87    0.23
  -2   9  -3    1.24    0.25
   2   9   3    1.46    0.27
  -2   9  -3    1.93    0.24
  -2   9  -3    1.57    0.20
  -2   9  -3    1.33    0.17
   2   9   3    1.28    0.34
   2   9   3    1.20    0.33
   2  -9   3    1.41    0.25
   2  -9   3    1.47    0.26
  -2  -9  -3    1.61    0.28
   2  -9   3    1.44    0.26
  -2  -9  -3    1.18    0.34
  -2  -9  -3    1.42    0.32
  -2  -9  -3    1.61    0.25
  -2  -9  -3    1.14    0.25
  -2  -9  -3    1.48    0.30
  -2   9  -4   18.53    0.79
  -2   9  -4   18.91    0.64
   2   9   4   18.51    0.65
  -2   9  -4   19.27    0.64
   2   9   4   16.81    0.82
  -2   9  -4   19.15    0.51
  -2   9  -4   17.87    0.49
   2   9   4   18.77    0.82
  -2  -9  -4   18.26    0.72
  -2  -9  -4   19.62    0.74
   2  -9   4   18.81    0.61
   2  -9   4   19.04    0.62
  -2  -9  -4   18.38    0.74
  -2  -9  -4   18.25    0.63
  -2   9  -5    2.76    0.33
  -2   9  -5    2.15    0.43
  -2   9  -5    2.98    0.33
   2   9   5    2.90    0.37
  -2  -9  -5    2.94    0.41
  -2  -9  -5    2.60    0.40
  -2  -9  -5    2.17    0.41
  -2  -9  -5    2.58    0.42
  -2  -9  -5    3.21    0.37
  -2  -9  -5    2.90    0.34
  -2   9  -6   16.30    0.67
   2   9   6   16.01    0.71
  -2   9  -6   16.14    0.89
  -2   9  -6   16.88    0.71
  -2  -9  -6   16.60    0.73
  -2  -9  -6   16.01    0.66
  -2  -9  -6   17.62    0.81
  -2  -9  -6   15.93    0.78
  -2  -9  -6   16.28    0.77
  -2  -9  -6   16.64    0.79
   2  10  -7   26.27    0.92
   2  10  -7   27.00    1.07
  -2  10   7   26.75    0.87
   2  10  -7   26.47    0.90
   2  10  -7   26.87    0.91
   2 -10  -7   27.97    1.00
   2 -10  -7   25.77    1.00
  -2 -10   7   26.81    0.80
   2 -10  -7   26.39    0.84
   2 -10  -7   23.58    0.88
   2  10  -6    6.11    0.37
   2  10  -6    5.23    0.54
   2  10  -6    5.34    0.45
   2  10  -6    5.65    0.44
  -2  10   6    5.47    0.43
   2  10  -6    5.23    0.44
  -2 -10   6    5.37    0.39
   2 -10  -6    6.08    0.52
   2 -10  -6    5.28    0.41
   2 -10  -6    6.34    0.51
   2  10  -5   23.18    0.88
   2  10  -5   21.35    0.77
   2  10  -5   23.32    0.64
  -2  10   5   23.73    0.92
   2  10  -5   21.40    0.76
   2  10  -5   22.72    0.80
  -2  10   5   23.78    0.95
  -2  10   5   23.49    0.76
  -2 -10   5   23.72    0.69
   2 -10  -5   23.32    0.75
   2 -10  -5   24.04    0.85
   2 -10  -5   24.10    0.63
   2  10  -4    7.15    0.51
  -2  10   4    7.00    0.43
   2  10  -4    7.75    0.37
   2  10  -4    7.47    0.48
  -2  10   4    9.83    0.60
  -2  10   4    9.16    0.60
   2 -10  -4    7.79    0.45
   2 -10  -4    9.59    0.60
   2 -10  -4    6.92    0.50
   2 -10  -4    6.07    0.45
  -2 -10   4    7.01    0.42
  -2 -10   4    7.13    0.52
   2 -10  -4    7.60    0.37
  -2  10   3    0.72    0.26
   2  10  -3   -0.15    0.17
  -2  10   3    0.14    0.24
  -2  10   3    0.01    0.26
   2 -10  -3    0.86    0.28
  -2 -10   3    1.14    0.29
   2 -10  -3    0.21    0.25
   2 -10  -3    0.32    0.25
   2 -10  -3   -0.27    0.17
   2 -10  -3    0.24    0.26
   2 -10  -3    0.17    0.18
   2  10  -2    0.01    0.20
  -2  10   2    0.45    0.24
  -2  10   2    0.05    0.22
  -2  10   2    0.74    0.26
   2 -10  -2    0.56    0.27
   2 -10  -2    0.12    0.24
   2 -10  -2    0.39    0.18
  -2 -10   2    0.14    0.26
   2 -10  -2    0.24    0.23
   2 -10  -2    0.02    0.23
   2 -10  -2    0.26    0.19
   2  10  -1   64.41    1.71
  -2  10   1   63.22    1.73
  -2  10   1   61.24    1.69
   2  10  -1   61.74    1.70
  -2  10   1   63.29    1.70
   2  10  -1   64.59    1.73
  -2 -10   1   63.56    1.82
   2 -10  -1   58.80    1.69
  -2 -10   1   62.46    1.70
  -2 -10   1   61.35    1.54
   2 -10  -1   61.57    1.32
   2 -10  -1   59.53    1.55
   2 -10  -1   59.73    1.29
  -2 -10   1   60.10    1.42
   2 -10  -1   62.81    1.74
   2  10   0   21.19    0.76
   2  10   0   19.74    0.77
  -2  10   0   19.16    0.72
   2  10   0   19.55    0.78
  -2 -10   0   19.63    0.80
  -2 -10   0   19.70    0.66
  -2 -10   0   20.01    0.64
   2 -10   0   19.67    0.59
   2 -10   0   19.16    0.76
   2 -10   0   19.81    0.58
  -2 -10   0   20.58    0.77
  -2 -10   0   19.86    0.68
  -2  10  -1   90.67    2.38
   2  10   1   90.85    2.44
   2  10   1   95.05    2.50
   2  10   1   95.01    2.46
  -2 -10  -1   92.60    2.43
  -2 -10  -1   92.74    2.20
  -2 -10  -1   93.57    2.06
  -2 -10  -1   92.91    2.22
   2 -10   1   94.18    1.91
   2 -10   1   93.88    2.44
  -2 -10  -1   94.52    2.62
   2 -10   1   96.07    1.89
  -2  10  -2   17.25    0.60
   2  10   2   16.36    0.75
   2  10   2   15.13    0.74
   2  10   2   16.22    0.70
  -2  10  -2   14.68    0.49
   2  10   2   16.12    0.58
  -2 -10  -2   14.41    0.63
  -2 -10  -2   15.51    0.60
  -2 -10  -2   15.70    0.64
   2 -10   2   15.45    0.56
   2 -10   2   15.40    0.57
   2 -10   2   15.86    0.66
  -2 -10  -2   15.75    0.56
  -2 -10  -2   15.47    0.77
  -2  10  -3   32.36    0.80
   2  10   3   31.84    1.13
   2  10   3   32.53    0.92
  -2  10  -3   31.84    0.93
  -2  10  -3   32.81    1.06
  -2  10  -3   32.22    0.80
   2  10   3   32.06    1.14
  -2 -10  -3   33.37    1.21
  -2 -10  -3   31.34    0.99
   2 -10   3   31.14    0.99
   2 -10   3   32.95    0.87
  -2 -10  -3   33.72    0.87
   2 -10   3   30.27    0.84
   2 -10   3   33.96    0.82
  -2 -10  -3   34.52    1.03
  -2  10  -4    2.58    0.21
  -2  10  -4    3.09    0.42
  -2  10  -4    2.45    0.24
  -2  10  -4    3.31    0.35
   2  10   4    2.48    0.36
  -2  10  -4    2.08    0.31
   2 -10   4    2.04    0.32
  -2 -10  -4    2.36    0.32
  -2 -10  -4    2.78    0.41
  -2 -10  -4    2.80    0.39
  -2 -10  -4    2.58    0.35
   2 -10   4    2.52    0.32
   2  10   5    8.58    0.55
  -2  10  -5    7.43    0.51
  -2  10  -5    8.36    0.62
  -2  10  -5    8.91    0.54
  -2 -10  -5    8.24    0.62
  -2 -10  -5    8.53    0.61
  -2 -10  -5    8.72    0.64
  -2 -10  -5    8.45    0.52
  -2  10  -6    1.21    0.37
   2  10   6    0.87    0.42
  -2  10  -6    1.54    0.48
  -2  10  -6    0.82    0.36
  -2 -10  -6    1.09    0.43
  -2 -10  -6    1.05    0.36
  -2 -10  -6    0.97    0.34
  -2 -10  -6    1.00    0.45
   2  11  -7    5.08    0.48
   2  11  -7    4.53    0.48
   2  11  -7    5.00    0.58
  -2  11   7    4.19    0.44
   2 -11  -7    4.75    0.55
   2 -11  -7    4.94    0.53
   2 -11  -7    4.70    0.45
  -2 -11   7    4.58    0.41
   2  11  -6    1.11    0.24
  -2  11   6    1.02    0.34
   2  11  -6    0.89    0.34
   2  11  -6    1.22    0.40
   2  11  -6    1.20    0.33
   2  11  -6    0.92    0.33
   2 -11  -6    1.08    0.41
   2 -11  -6    1.26    0.31
   2 -11  -6    0.93    0.38
  -2 -11   6    1.74    0.34
  -2  11   5   36.17    0.99
   2  11  -5   33.82    1.07
   2  11  -5   34.27    0.88
   2  11  -5   36.89    1.18
   2 -11  -5   34.54    0.87
   2 -11  -5   35.76    1.14
  -2 -11   5   35.22    0.92
   2 -11  -5   35.63    0.97
  -2  11   4   12.82    0.71
  -2  11   4   13.45    0.73
   2  11  -4   13.38    0.63
  -2  11   4   14.18    0.57
   2  11  -4   13.53    0.64
   2  11  -4   12.54    0.48
  -2 -11   4   12.39    0.51
   2 -11  -4   13.26    0.63
   2 -11  -4   12.46    0.58
   2 -11  -4   12.72    0.49
  -2  11   3   79.40    2.20
  -2  11   3   80.19    2.16
  -2  11   3   80.83    2.16
  -2  11   3   79.98    1.75
   2  11  -3   78.59    1.68
   2  11  -3   79.79    1.98
   2 -11  -3   80.03    1.97
   2 -11  -3   77.95    1.63
  -2 -11   3   76.74    1.63
   2 -11  -3   80.43    2.00
   2 -11  -3   81.81    2.23
   2 -11  -3   78.72    1.61
   2 -11  -3   83.75    1.74
  -2 -11   3   80.95    2.28
   2 -11  -3   78.03    1.61
   2  11  -2    8.51    0.42
  -2  11   2    8.38    0.41
  -2  11   2    9.30    0.47
  -2  11   2    9.00    0.54
   2  11  -2    8.17    0.47
  -2  11   2    9.72    0.59
   2 -11  -2    9.30    0.62
  -2 -11   2    9.32    0.59
   2 -11  -2    8.23    0.42
   2 -11  -2    7.69    0.53
  -2 -11   2    9.72    0.42
   2 -11  -2    8.25    0.41
   2 -11  -2    8.64    0.42
   2 -11  -2    9.49    0.58
   2 -11  -2    8.32    0.49
  -2  11   1   61.85    1.38
  -2  11   1   61.94    1.75
  -2  11   1   60.20    1.35
  -2  11   1   61.21    1.71
   2  11  -1   62.17    1.55
   2  11  -1   62.37    1.35
   2 -11  -1   62.03    1.29
   2 -11  -1   59.41    1.30
  -2 -11   1   59.61    1.80
   2 -11  -1   62.14    1.75
   2 -11  -1   58.60    1.57
   2 -11  -1   60.06    1.32
   2  11   0    1.00    0.30
  -2  11   0    1.20    0.22
   2  11   0    0.63    0.30
   2  11   0    1.00    0.23
   2  11   0    0.56    0.29
   2  11   0    0.66    0.27
   2 -11   0    0.95    0.24
  -2 -11   0    1.40    0.28
  -2 -11   0    1.12    0.31
  -2 -11   0    1.05    0.26
   2 -11   0    0.76    0.23
  -2 -11   0    1.30    0.29
   2 -11   0    1.09    0.25
  -2 -11   0    1.03    0.26
   2 -11   0    1.34    0.30
   2  11   1    6.52    0.55
   2  11   1    3.69    0.37
  -2  11  -1    4.22    0.30
   2  11   1    4.93    0.36
   2  11   1    5.89    0.50
   2  11   1    6.36    0.54
   2 -11   1    4.73    0.40
  -2 -11  -1    5.42    0.40
  -2 -11  -1    4.41    0.34
   2 -11   1    4.32    0.35
  -2 -11  -1    4.64    0.38
   2 -11   1    4.02    0.32
  -2 -11  -1    5.80    0.38
   2 -11   1    4.28    0.34
  -2 -11  -1    4.06    0.43
  -2 -11  -1    5.68    0.49
  -2  11  -2    0.31    0.20
  -2  11  -2    0.85    0.29
   2  11   2    0.28    0.27
   2  11   2    0.24    0.32
  -2  11  -2    0.29    0.26
   2  11   2    0.37    0.33
   2  11   2    0.32    0.26
  -2 -11  -2    0.42    0.26
   2 -11   2    0.14    0.26
   2 -11   2    0.35    0.23
   2 -11   2    0.33    0.26
   2 -11   2   -0.26    0.26
  -2 -11  -2    0.16    0.24
  -2 -11  -2    0.13    0.32
  -2 -11  -2    0.14    0.29
   2  11   3    8.50    0.56
  -2  11  -3    8.10    0.41
   2  11   3    8.77    0.67
  -2  11  -3    7.93    0.48
  -2  11  -3    9.98    0.57
   2  11   3    9.20    0.69
  -2  11  -3    8.52    0.42
  -2 -11  -3    7.36    0.46
   2 -11   3    9.23    0.51
  -2 -11  -3    8.28    0.58
  -2 -11  -3    7.68    0.68
  -2 -11  -3    8.06    0.57
   2 -11   3    9.08    0.48
   2 -11   3    8.12    0.50
   2 -11   3    8.04    0.48
  -2  11  -4    4.02    0.29
  -2  11  -4    4.50    0.33
   2  11   4    4.41    0.44
  -2  11  -4    4.19    0.48
  -2  11  -4    4.44    0.43
  -2 -11  -4    4.33    0.42
   2 -11   4    3.64    0.39
  -2 -11  -4    3.86    0.48
   2 -11   4    4.47    0.39
  -2 -11  -4    4.02    0.38
  -2 -11  -4    3.53    0.46
  -2  11  -5   23.91    0.87
   2  11   5   22.63    0.89
  -2  11  -5   22.65    0.96
  -2 -11  -5   22.44    0.80
   2 -11   5   21.54    0.78
   2 -11   5   22.78    0.80
  -2 -11  -5   23.71    0.89
  -2 -11  -5   23.15    0.95
  -2 -11  -5   21.91    0.93
   2  12  -6   35.63    1.23
   2  12  -6   31.94    1.11
   2  12  -6   34.06    0.89
  -2  12   6   33.41    1.00
   2 -12  -6   34.86    1.01
  -2 -12   6   33.65    0.97
   2 -12  -6   37.44    1.22
   2  12  -5    1.20    0.36
  -2  12   5    1.12    0.33
   2  12  -5    0.92    0.39
   2  12  -5    0.92    0.25
   2 -12  -5    1.40    0.29
   2 -12  -5    1.07    0.39
   2 -12  -5    1.36    0.34
  -2 -12   5    2.03    0.35
   2  12  -4   10.27    0.49
  -2  12   4   11.70    0.70
   2  12  -4   11.58    0.61
   2  12  -4   11.29    0.62
  -2  12   4   11.39    0.72
  -2  12   4   10.69    0.54
   2 -12  -4   11.14    0.57
   2 -12  -4   10.47    0.62
  -2 -12   4    9.41    0.53
   2 -12  -4   10.46    0.49
  -2  12   3    0.48    0.32
  -2  12   3    0.09    0.30
  -2  12   3    0.44    0.25
   2  12  -3   -0.14    0.21
  -2  12   3    0.23    0.24
   2  12  -3   -0.05    0.29
   2 -12  -3    0.32    0.31
   2 -12  -3   -0.19    0.32
   2 -12  -3   -0.06    0.23
   2 -12  -3    0.18    0.32
   2 -12  -3    0.32    0.24
   2 -12  -3    1.43    0.29
  -2 -12   3    0.10    0.24
  -2 -12   3    0.39    0.32
   2 -12  -3   -0.46    0.22
  -2  12   2   11.09    0.62
   2  12  -2   10.81    0.57
  -2  12   2   11.04    0.64
   2  12  -2   10.35    0.45
  -2  12   2   10.15    0.50
  -2  12   2   10.63    0.50
   2 -12  -2   11.03    0.58
  -2 -12   2   10.78    0.47
   2 -12  -2   11.24    0.67
  -2 -12   2   11.34    0.66
   2 -12  -2    8.74    0.62
   2 -12  -2   10.97    0.49
   2 -12  -2   10.02    0.48
   2 -12  -2   10.48    0.47
   2  12  -1    8.34    0.48
  -2  12   1    7.43    0.46
  -2  12   1    8.58    0.51
   2  12  -1    8.33    0.44
  -2  12   1    7.42    0.42
   2 -12  -1    7.03    0.42
  -2 -12   1    8.47    0.45
   2 -12  -1    6.66    0.45
   2 -12  -1    6.99    0.44
   2 -12  -1    9.17    0.50
  -2 -12   1    7.58    0.59
   2 -12  -1    7.57    0.59
   2  12   0   54.76    1.23
  -2  12   0   51.41    1.22
  -2  12   0   51.53    1.24
   2  12   0   53.76    1.26
   2  12   0   56.14    1.60
   2  12   0   53.80    1.58
   2  12   0   52.66    1.40
  -2  12   0   52.25    1.39
  -2 -12   0   51.42    1.41
   2 -12   0   53.44    1.58
   2 -12   0   52.92    1.18
  -2 -12   0   53.13    1.39
  -2 -12   0   53.61    1.66
   2 -12   0   50.59    1.20
   2 -12   0   52.16    1.22
  -2 -12   0   52.86    1.15
   2  12   1   24.91    0.84
   2  12   1   24.03    0.97
   2  12   1   25.22    0.74
  -2  12  -1   24.63    0.71
   2  12   1   23.00    0.76
  -2  12  -1   22.86    0.72
   2  12   1   25.82    0.97
  -2  12  -1   24.00    0.80
  -2 -12  -1   24.63    0.85
   2 -12   1   25.37    0.77
   2 -12   1   25.34    0.92
  -2 -12  -1   24.49    0.73
   2 -12   1   23.52    0.69
  -2 -12  -1   24.17    0.68
   2 -12   1   24.23    0.75
  -2 -12  -1   25.02    0.84
  -2 -12  -1   25.02    0.99
   2  12   2   46.19    1.25
   2  12   2   44.75    1.43
  -2  12  -2   43.76    1.06
  -2  12  -2   42.59    1.09
  -2  12  -2   41.85    1.20
   2  12   2   44.10    1.43
  -2  12  -2   43.41    1.23
   2  12   2   44.57    1.17
  -2  12  -2   44.46    1.35
   2 -12   2   45.03    1.10
   2 -12   2   43.95    1.11
   2 -12   2   43.83    1.33
  -2 -12  -2   43.32    1.26
  -2 -12  -2   43.90    1.09
   2 -12   2   43.37    1.02
  -2 -12  -2   43.53    1.27
  -2 -12  -2   43.79    1.54
  -2  12  -3   22.06    0.85
  -2  12  -3   21.21    0.68
   2  12   3   23.05    0.81
  -2  12  -3   23.30    0.68
  -2  12  -3   21.39    0.80
   2 -12   3   22.53    0.77
  -2 -12  -3   23.79    0.90
   2 -12   3   22.95    0.71
  -2 -12  -3   23.48    0.77
  -2 -12  -3   22.47    0.86
   2 -12   3   23.54    0.78
   2  12   4   15.44    0.78
  -2  12  -4   16.53    0.78
  -2  12  -4   16.57    0.57
  -2  12  -4   16.83    0.74
  -2 -12  -4   17.23    0.82
   2 -12   4   17.15    0.71
  -2 -12  -4   16.82    0.69
   2 -12   4   16.97    0.64
   2 -12   4   17.61    0.72
  -2 -12  -4   16.48    0.77
   2  12   5    7.96    0.60
  -2 -12  -5    7.77    0.51
   2 -12   5    6.90    0.51
   2 -12   5    8.13    0.54
   2  13  -5    0.81    0.39
  -2  13   5    0.68    0.36
   2  13  -5    0.44    0.40
   2  13  -5    0.28    0.26
   2 -13  -5    0.60    0.33
   2 -13  -5    0.53    0.28
   2 -13  -5    0.19    0.39
  -2 -13   5    0.44    0.34
   2  13  -4   55.80    1.27
   2  13  -4   54.85    1.55
  -2  13   4   53.92    1.36
   2 -13  -4   55.56    1.33
   2 -13  -4   55.09    1.55
   2 -13  -4   52.73    1.26
  -2 -13   4   54.65    1.28
   2  13  -3    2.67    0.41
   2  13  -3    2.78    0.31
  -2  13   3    2.77    0.33
  -2  13   3    2.69    0.33
  -2  13   3    2.69    0.45
  -2  13   3    2.69    0.43
  -2 -13   3    2.63    0.33
   2 -13  -3    3.05    0.35
   2 -13  -3    2.44    0.44
   2 -13  -3    2.89    0.32
   2 -13  -3    3.07    0.32
   2 -13  -3    1.67    0.41
   2 -13  -3    2.97    0.43
   2 -13  -3    2.09    0.33
  -2  13   2   77.93    1.75
   2  13  -2   80.80    1.97
   2  13  -2   76.88    1.69
  -2  13   2   75.57    1.70
  -2 -13   2   77.51    2.26
  -2 -13   2   77.19    1.63
   2 -13  -2   76.68    1.96
   2 -13  -2   78.87    1.67
   2 -13  -2   80.14    1.66
   2 -13  -2   76.35    1.63
   2 -13  -2   77.74    2.01
   2 -13  -2   78.35    2.21
   2  13  -1    0.14    0.24
  -2  13   1    0.32    0.24
  -2  13   1    0.55    0.27
  -2  13   1    0.09    0.28
   2  13  -1    1.04    0.32
   2  13  -1   -0.07    0.23
   2 -13  -1    0.58    0.28
  -2 -13   1    0.59    0.27
   2 -13  -1    0.69    0.35
   2 -13  -1    0.42    0.32
   2 -13  -1    0.23    0.28
   2 -13  -1    0.73    0.28
  -2 -13   1    0.43    0.32
  -2  13   0   21.03    0.68
   2  13   0   19.20    0.74
  -2  13   0   19.09    0.66
  -2  13   0   20.90    0.76
   2  13   0   18.99    0.67
   2  13   0   19.93    0.68
  -2 -13   0   20.42    0.63
   2 -13   0   19.40    0.73
  -2 -13   0   20.26    0.76
   2 -13   0   21.22    0.67
   2 -13   0   20.03    0.68
   2 -13   0   20.52    0.70
  -2 -13   0   19.46    0.90
   2  13   1    0.92    0.36
  -2  13  -1    1.09    0.26
   2  13   1    0.82    0.27
  -2  13  -1    1.07    0.30
   2  13   1    1.11    0.30
   2  13   1    1.15    0.39
   2  13   1    0.99    0.31
  -2  13  -1    1.57    0.29
   2 -13   1    1.08    0.30
  -2 -13  -1    1.69    0.35
  -2 -13  -1    1.19    0.26
   2 -13   1    1.51    0.32
  -2 -13  -1    1.44    0.34
  -2 -13  -1    1.84    0.31
   2 -13   1    0.74    0.31
   2  13   2   -0.08    0.32
   2  13   2    0.23    0.32
  -2  13  -2   -0.08    0.26
  -2  13  -2    0.37    0.26
  -2 -13  -2    0.07    0.34
   2 -13   2    0.91    0.33
  -2 -13  -2    0.42    0.31
  -2 -13  -2   -0.47    0.27
   2 -13   2    0.27    0.26
   2 -13   2    0.59    0.31
  -2  13  -3    2.17    0.42
   2  13   3    2.05    0.41
  -2  13  -3    2.72    0.29
   2  13   3    2.81    0.43
  -2  13  -3    2.51    0.42
  -2  13  -3    2.21    0.30
  -2 -13  -3    2.59    0.45
   2 -13   3    2.62    0.40
   2 -13   3    2.56    0.33
  -2 -13  -3    2.43    0.36
   2 -13   3    2.31    0.37
  -2 -13  -3    2.39    0.39
  -2  13  -4    3.76    0.48
   2  13   4    4.32    0.51
  -2  13  -4    4.72    0.35
  -2  13  -4    4.50    0.55
  -2 -13  -4    5.14    0.49
   2 -13   4    4.78    0.46
   2 -13   4    4.74    0.40
  -2 -13  -4    4.32    0.43
   2 -13   4    4.85    0.47
  -2 -13  -4    4.31    0.54
   2  14  -4    1.65    0.32
  -2  14   4    1.52    0.36
   2  14  -4    2.16    0.44
   2 -14  -4    2.52    0.47
  -2 -14   4    1.25    0.37
   2 -14  -4    1.98    0.35
   2 -14  -4    2.33    0.37
   2  14  -3    0.98    0.41
  -2  14   3    0.84    0.32
  -2  14   3    1.01    0.32
   2  14  -3    0.29    0.27
   2 -14  -3    0.68    0.30
   2 -14  -3    0.33    0.28
   2 -14  -3    0.64    0.32
   2 -14  -3    0.98    0.40
  -2 -14   3    0.85    0.34
   2 -14  -3    0.63    0.29
   2  14  -2    2.19    0.38
  -2  14   2    2.02    0.32
  -2  14   2    1.49    0.31
   2  14  -2    2.53    0.32
   2 -14  -2    1.84    0.32
  -2 -14   2    1.52    0.32
   2 -14  -2    1.58    0.32
   2 -14  -2    1.95    0.34
   2 -14  -2    2.57    0.42
   2  14  -1   18.90    0.76
   2  14  -1   19.62    0.67
  -2  14   1   18.36    0.70
   2  14  -1   18.96    0.67
  -2  14   1   18.36    0.78
  -2  14   1   19.18    0.71
   2 -14  -1   19.23    0.66
   2 -14  -1   19.38    0.69
   2 -14  -1   19.74    0.71
   2 -14  -1   19.65    0.78
  -2 -14   1   19.10    0.67
  -2  14   0   12.97    0.57
   2  14   0   11.62    0.61
  -2  14   0   12.96    0.65
   2  14   0   11.54    0.58
  -2  14   0   13.78    0.60
   2  14   0   12.71    0.56
   2 -14   0   12.99    0.62
   2 -14   0   12.58    0.63
   2 -14   0   12.22    0.55
   2 -14   0   13.04    0.59
  -2 -14   0   12.74    0.54
  -2  14  -1   32.39    0.90
   2  14   1   31.79    0.92
   2  14   1   29.72    1.01
  -2  14  -1   31.86    0.89
  -2  14  -1   30.56    0.99
   2  14   1   30.76    0.90
  -2 -14  -1   32.73    0.84
   2 -14   1   31.27    0.94
   2 -14   1   30.91    0.86
   2 -14   1   32.12    0.91
  -2 -14  -1   30.40    1.04
  -2 -14  -1   29.74    0.83
  -2 -14  -1   33.19    1.03
  -2  14  -2    6.30    0.50
  -2  14  -2    7.26    0.51
   2  14   2    6.65    0.53
  -2  14  -2    7.42    0.49
   2  14   2    6.66    0.51
   2 -14   2    7.26    0.51
  -2 -14  -2    7.90    0.55
   2 -14   2    6.92    0.50
  -2 -14  -2    7.69    0.60
  -2 -14  -2    6.47    0.50
   2 -14   2    7.83    0.54
   2  14   3   20.35    0.86
  -2  14  -3   20.49    0.68
   2  14   3   19.39    0.83
  -2  14  -3   19.85    0.69
   2 -14   3   20.03    0.81
   2 -14   3   19.37    0.78
   2 -14   3   19.15    0.71
  -2 -14  -3   18.54    0.72
  -2 -14  -3   19.42    0.87
  -2 -14  -3   17.48    0.84
   2  15  -3   40.22    1.27
   2  15  -3   37.76    1.05
  -2  15   3   36.45    1.11
  -2 -15   3   38.88    1.03
   2 -15  -3   39.72    1.05
   2 -15  -3   39.36    1.10
   2 -15  -3   38.77    1.25
   2  15  -2    2.49    0.37
  -2  15   2    2.53    0.37
  -2  15   2    2.60    0.37
   2  15  -2    2.63    0.43
  -2  15   2    2.08    0.44
   2 -15  -2    2.66    0.44
   2 -15  -2    2.78    0.39
   2 -15  -2    2.23    0.36
  -2 -15   2    2.34    0.37
   2 -15  -2    2.35    0.37
  -2  15   1   22.32    0.77
   2  15  -1   23.22    0.90
  -2  15   1   23.42    0.79
  -2  15   1   22.41    0.89
   2  15  -1   22.27    0.76
   2 -15  -1   22.92    0.79
   2 -15  -1   22.82    0.78
  -2 -15   1   21.89    0.73
  -2 -15   1   22.95    0.77
   2 -15  -1   22.78    0.75
   2 -15  -1   22.71    0.88
  -2  15   0    1.24    0.31
   2  15   0    0.80    0.32
   2  15   0    0.92    0.32
  -2  15   0    1.05    0.32
   2  15   0    1.32    0.38
  -2  15   0    1.21    0.39
   2 -15   0    1.17    0.36
  -2 -15   0    0.92    0.31
  -2 -15   0    1.16    0.30
   2 -15   0    0.99    0.36
   2 -15   0    1.30    0.34
   2  15   1    4.60    0.43
  -2  15  -1    3.46    0.37
  -2  15  -1    3.49    0.43
  -2  15  -1    4.96    0.41
   2  15   1    3.24    0.38
   2  15   1    3.20    0.45
   2 -15   1    4.00    0.43
   2 -15   1    3.75    0.39
  -2 -15  -1    4.43    0.38
  -2 -15  -1    3.92    0.46
  -2 -15  -1    3.74    0.38
   2 -15   1    4.25    0.45
   3   0  -9   -0.13    0.42
   3   0  -9   -0.10    0.25
   3   0  -9    0.48    0.34
   3   0  -9    0.01    0.24
   3   0  -9   -0.06    0.30
   3   0  -8   11.04    0.75
   3   0  -8   11.08    0.49
   3   0  -8   11.82    0.52
  -3   0   8   12.31    0.60
   3   0  -8   11.21    0.59
   3   0  -8   11.42    0.51
   3   0  -7   -0.10    0.19
  -3   0   7   -0.19    0.22
   3   0  -7    0.00    0.11
   3   0  -7    0.25    0.23
   3   0  -7   -0.24    0.17
  -3   0   6   11.80    0.50
   3   0  -6   12.47    0.41
   3   0  -6   11.79    0.38
   3   0  -5   -0.05    0.09
   3   0  -5   -0.01    0.11
  -3   0   5   -0.02    0.14
   3   0  -4  259.40    6.20
  -3   0   4  259.33    6.20
   3   0  -4  277.93    6.20
  -3   0   4  273.23    6.70
  -3   0   4  264.18    5.23
   3   0  -4  267.62    6.32
   3   0  -3    0.04    0.07
   3   0  -3   -0.08    0.07
   3   0  -3    0.10    0.08
  -3   0   3    0.12    0.10
   3   0  -3   -0.02    0.08
  -3   0   3   -0.02    0.07
  -3   0   3   -0.01    0.06
  -3   0   2  548.73   12.39
   3   0  -2  560.73   12.33
   3   0  -2  528.50   12.47
  -3   0   2  534.63   10.46
   3   0  -2  532.61   11.24
   3   0  -2  504.44   12.67
  -3   0   2  521.41   13.33
   3   0  -1   -0.11    0.07
  -3   0   1   -0.14    0.06
  -3   0   1   -0.16    0.07
  -3   0   1   -0.20    0.05
   3   0  -1   -0.17    0.05
  -3   0   1   -0.12    0.07
  -3   0   0  450.07   11.06
   3   0   0  449.77   10.28
  -3   0   0  438.44    9.41
  -3   0   0  446.81   10.31
  -3   0   0  440.80    8.72
  -3   0  -1    0.01    0.07
   3   0   1   -0.06    0.08
  -3   0  -1   -0.05    0.07
   3   0   1   -0.09    0.08
  -3   0  -1    0.05    0.10
  -3   0  -1   -0.04    0.07
  -3   0  -1   -0.05    0.06
   3   0   1   -0.02    0.08
  -3   0  -2   88.29    1.74
   3   0   2   88.46    2.09
   3   0   2   84.50    2.06
  -3   0  -2   81.81    2.06
  -3   0  -2   87.94    2.21
  -3   0  -2   87.76    1.87
  -3   0  -3    0.10    0.10
  -3   0  -3    0.05    0.09
  -3   0  -3    0.14    0.09
  -3   0  -3    0.15    0.23
   3   0   3    0.15    0.10
  -3   0  -4    9.58    0.32
  -3   0  -4    9.71    0.30
  -3   0  -4    9.55    0.44
  -3   0  -4    9.63    0.37
   3   0   4    9.55    0.32
  -3   0  -4    8.81    0.41
  -3   0  -4    9.37    0.35
  -3   0  -4    8.60    0.58
  -3   0  -5   -0.03    0.34
  -3   0  -5    0.27    0.23
  -3   0  -5   -0.01    0.19
  -3   0  -5    0.03    0.24
  -3   0  -5    0.18    0.17
  -3   0  -6   47.08    1.34
  -3   0  -6   49.97    1.24
  -3   0  -6   48.42    1.61
  -3   0  -6   49.48    1.22
  -3   0  -6   48.86    1.33
  -3   0  -6   48.36    1.28
  -3   0  -7    0.23    0.34
  -3   0  -7   -0.11    0.32
  -3   0  -7   -0.06    0.36
  -3   0  -7    0.21    0.52
  -3   0  -7    0.38    0.28
   3   1  -9    7.41    0.50
   3   1  -9    7.20    0.50
   3   1  -9    7.58    0.67
   3   1  -9    7.12    0.48
   3   1  -9    6.93    0.43
   3   1  -9    7.35    0.53
   3  -1  -9    6.70    0.52
   3  -1  -9    7.17    0.52
   3  -1  -9    7.70    0.48
   3  -1  -9    7.03    0.46
   3  -1  -9    6.79    0.67
  -3   1   8   27.71    0.95
   3   1  -8   27.60    0.78
   3   1  -8   28.41    0.86
   3   1  -8   27.33    0.80
   3   1  -8   27.29    1.07
   3   1  -8   26.17    0.82
   3   1  -8   26.17    0.91
   3   1  -8   27.27    0.86
   3  -1  -8   27.51    0.80
   3  -1  -8   28.06    0.63
   3  -1  -8   27.73    0.79
   3  -1  -8   26.16    0.91
   3  -1  -8   28.26    0.86
   3  -1  -8   27.18    1.10
  -3  -1   8   27.44    0.93
  -3   1   7   33.40    1.05
   3   1  -7   34.12    0.94
   3   1  -7   31.32    0.85
   3   1  -7   32.52    0.89
   3   1  -7   34.44    0.87
  -3  -1   7   33.79    1.03
   3  -1  -7   33.85    0.99
   3  -1  -7   33.44    0.87
   3  -1  -7   35.06    0.89
  -3   1   6   94.87    2.47
   3   1  -6   94.44    2.08
   3   1  -6   93.52    2.14
   3   1  -6   92.70    2.22
  -3  -1   6   93.64    2.46
   3  -1  -6   91.80    2.23
   3  -1  -6   93.76    2.08
   3   1  -5   54.73    1.27
  -3   1   5   57.01    1.51
   3   1  -5   55.84    1.35
  -3  -1   5   55.64    1.50
   3  -1  -5   54.56    1.36
   3   1  -4   55.11    1.36
  -3   1   4   56.37    1.49
  -3   1   4   55.58    1.15
   3   1  -4   57.24    1.36
   3   1  -4   54.24    1.38
  -3   1   4   55.30    1.36
   3  -1  -4   55.67    1.36
   3  -1  -4   58.70    1.37
   3  -1  -4   55.43    1.25
  -3  -1   4   56.09    1.14
   3  -1  -4   56.42    1.40
  -3  -1   4   55.44    1.36
  -3  -1   4   55.43    1.49
  -3   1   3   14.33    0.45
  -3   1   3   14.35    0.41
   3   1  -3   13.85    0.41
   3   1  -3   14.12    0.38
   3   1  -3   14.38    0.41
   3   1  -3   14.97    0.41
  -3   1   3   14.34    0.35
   3  -1  -3   13.96    0.37
  -3  -1   3   14.61    0.46
  -3  -1   3   14.89    0.41
   3  -1  -3   14.06    0.42
   3  -1  -3   14.79    0.41
  -3  -1   3   14.34    0.34
   3  -1  -3   14.47    0.41
  -3   1   2    1.03    0.08
   3   1  -2    0.82    0.09
   3   1  -2    0.83    0.09
   3   1  -2    0.93    0.09
   3   1  -2    1.03    0.10
  -3   1   2    1.40    0.12
  -3   1   2    0.90    0.10
   3  -1  -2    1.02    0.08
   3  -1  -2    0.90    0.10
   3  -1  -2    0.99    0.10
  -3  -1   2    1.46    0.12
  -3  -1   2    0.90    0.10
  -3  -1   2    0.84    0.09
  -3  -1   2    0.91    0.08
   3  -1  -2    0.97    0.10
  -3   1   1   46.01    0.96
  -3   1   1   47.09    1.21
   3   1  -1   47.37    1.15
  -3   1   1   46.25    1.14
   3  -1  -1   46.10    1.01
  -3  -1   1   48.08    1.15
   3  -1  -1   47.69    1.15
  -3  -1   1   46.22    0.96
  -3  -1   1   47.73    1.23
  -3  -1   1   46.40    1.04
   3   1   0   26.52    0.68
  -3   1   0   25.95    0.70
  -3   1   0   26.06    0.56
  -3   1   0   25.65    0.67
  -3   1   0   27.56    0.67
   3  -1   0   26.57    0.67
  -3  -1   0   26.81    0.68
  -3  -1   0   26.20    0.57
  -3  -1   0   27.20    0.68
  -3  -1   0   25.59    0.61
   3  -1   0   26.34    0.69
  -3  -1   0   26.14    0.74
  -3   1  -1  138.85    3.79
   3   1   1  149.91    3.54
  -3   1  -1  157.36    3.53
   3   1   1  151.84    3.61
  -3   1  -1  145.73    3.53
   3   1   1  152.94    3.55
  -3   1  -1  149.48    2.97
  -3   1  -1  149.83    3.21
   3  -1   1  154.25    3.53
  -3  -1  -1  152.22    3.54
  -3  -1  -1  152.62    3.54
  -3  -1  -1  153.66    3.22
   3  -1   1  156.33    3.60
  -3  -1  -1  155.52    2.99
  -3  -1  -1  144.24    3.85
  -3   1  -2  142.36    3.27
  -3   1  -2  141.18    2.98
  -3   1  -2  136.08    3.27
   3   1   2  136.95    3.34
   3   1   2  138.06    3.29
   3   1   2  136.64    3.29
  -3   1  -2  140.94    2.76
   3  -1   2  142.68    3.33
  -3  -1  -2  140.20    2.77
  -3  -1  -2  143.53    3.28
  -3  -1  -2  141.20    2.99
  -3  -1  -2  142.16    3.55
   3  -1   2  139.06    3.27
  -3  -1  -2  134.20    3.29
  -3   1  -3   95.68    2.31
  -3   1  -3   99.67    1.95
   3   1   3   99.46    2.37
   3   1   3   99.18    2.33
  -3   1  -3   98.06    2.10
  -3  -1  -3   96.59    2.34
  -3  -1  -3   98.58    1.98
   3  -1   3   98.25    2.35
  -3  -1  -3   97.92    2.13
  -3  -1  -3   93.68    2.46
  -3   1  -4  108.68    2.62
  -3   1  -4  108.59    2.82
   3   1   4  112.13    2.62
  -3   1  -4  110.74    2.51
  -3   1  -4  109.82    2.37
   3   1   4  113.14    2.66
  -3   1  -4  114.43    2.44
  -3  -1  -4  108.53    2.66
  -3  -1  -4  111.49    2.25
   3  -1   4  109.73    2.64
  -3  -1  -4  104.21    2.80
  -3  -1  -4  110.61    2.38
  -3  -1  -4  110.71    2.45
  -3  -1  -4  113.21    2.43
  -3  -1  -4  112.18    2.52
  -3   1  -5   27.60    1.07
  -3   1  -5   27.75    0.76
  -3   1  -5   30.04    0.77
  -3   1  -5   27.40    0.86
  -3   1  -5   27.74    0.82
  -3  -1  -5   27.97    0.82
  -3  -1  -5   28.75    0.78
  -3  -1  -5   28.96    0.88
  -3  -1  -5   29.48    0.78
  -3  -1  -5   27.26    1.07
  -3   1  -6   15.94    0.66
  -3   1  -6   17.99    0.93
  -3   1  -6   17.22    0.58
  -3   1  -6   17.74    0.67
  -3   1  -6   14.87    0.77
  -3   1  -6   15.71    0.69
  -3  -1  -6   16.44    0.91
  -3  -1  -6   18.22    0.69
  -3  -1  -6   17.41    0.59
  -3  -1  -6   17.04    0.67
  -3  -1  -6   17.07    0.71
  -3  -1  -6   17.09    0.59
  -3   1  -7    2.58    0.43
  -3   1  -7    2.80    0.40
  -3   1  -7    3.13    0.61
  -3   1  -7    2.23    0.42
  -3   1  -7    2.54    0.33
  -3  -1  -7    2.19    0.43
  -3  -1  -7    2.28    0.32
  -3  -1  -7    2.40    0.42
  -3  -1  -7    2.92    0.43
  -3  -1  -7    2.41    0.58
   3   2  -9   17.06    0.69
   3   2  -9   16.06    0.76
   3   2  -9   17.51    0.67
   3   2  -9   16.74    0.61
   3   2  -9   15.41    0.67
   3   2  -9   17.73    0.94
   3   2  -9   16.83    0.72
   3  -2  -9   16.72    0.68
   3  -2  -9   15.53    0.95
   3  -2  -9   16.56    0.80
   3  -2  -9   16.46    0.64
   3  -2  -9   16.35    0.69
   3   2  -8    0.01    0.20
   3   2  -8    0.22    0.26
   3   2  -8    0.15    0.29
  -3   2   8    0.12    0.27
   3   2  -8   -0.12    0.25
   3   2  -8    0.09    0.21
   3   2  -8    0.07    0.35
   3   2  -8    0.04    0.25
   3  -2  -8   -0.13    0.20
   3  -2  -8    0.21    0.30
   3  -2  -8   -0.05    0.14
   3  -2  -8    0.02    0.22
  -3  -2   8    0.24    0.27
   3  -2  -8    0.26    0.38
   3  -2  -8   -0.17    0.22
   3   2  -7    2.33    0.26
   3   2  -7    2.23    0.23
   3   2  -7    2.36    0.28
  -3   2   7    2.64    0.30
   3   2  -7    2.86    0.28
   3  -2  -7    2.34    0.33
   3  -2  -7    2.74    0.23
  -3  -2   7    2.40    0.28
   3  -2  -7    2.37    0.23
   3   2  -6    1.14    0.13
  -3   2   6    1.23    0.23
   3   2  -6    1.08    0.18
   3  -2  -6    1.14    0.18
  -3  -2   6    1.01    0.21
   3  -2  -6    1.09    0.14
  -3   2   5   42.55    1.14
   3   2  -5   39.18    0.99
   3   2  -5   38.52    0.95
   3  -2  -5   40.05    1.02
  -3  -2   5   39.15    1.12
   3   2  -4    0.05    0.08
   3   2  -4    0.05    0.09
  -3   2   4    0.67    0.15
  -3   2   4    0.24    0.09
   3   2  -4    0.15    0.08
  -3   2   4    0.21    0.10
   3   2  -4    0.17    0.09
  -3  -2   4    0.05    0.08
  -3  -2   4    0.00    0.09
  -3  -2   4    0.11    0.07
   3  -2  -4    0.23    0.10
   3  -2  -4    0.17    0.10
  -3  -2   4    0.04    0.12
   3  -2  -4    0.10    0.10
   3  -2  -4    0.53    0.10
   3   2  -3  330.28    8.04
  -3   2   3  353.51    7.91
  -3   2   3  335.60    8.50
   3   2  -3  343.95    7.89
   3   2  -3  339.70    7.15
   3   2  -3  331.97    7.92
   3   2  -3  341.53    7.89
  -3   2   3  351.27    6.67
  -3  -2   3  341.62    8.51
   3  -2  -3  344.59    7.90
   3  -2  -3  352.75    7.91
   3  -2  -3  332.68    7.14
  -3  -2   3  339.74    6.66
  -3  -2   3  338.31    7.89
  -3  -2   3  340.67    7.18
   3  -2  -3  330.53    8.05
  -3   2   2   35.63    0.77
   3   2  -2   36.42    0.91
  -3   2   2   37.18    0.92
   3   2  -2   35.34    0.93
   3   2  -2   37.18    0.91
   3   2  -2   35.90    0.92
  -3   2   2   36.69    0.98
  -3  -2   2   35.62    0.83
  -3  -2   2   36.12    0.99
  -3  -2   2   36.00    0.77
   3  -2  -2   35.91    0.81
  -3  -2   2   36.46    0.91
   3  -2  -2   36.86    0.92
  -3   2   1  529.18   11.51
  -3   2   1  501.12   12.44
   3   2  -1  504.57   11.51
  -3   2   1  482.10   11.61
  -3   2   1  496.72    9.81
  -3  -2   1  485.99   12.38
  -3  -2   1  493.70   10.47
  -3  -2   1  493.41    9.71
  -3  -2   1  500.92   11.51
   3  -2  -1  500.74   11.57
   3  -2  -1  488.50   10.41
  -3   2   0    1.75    0.11
   3   2   0    2.19    0.16
  -3   2   0    1.95    0.13
  -3   2   0    1.63    0.13
   3   2   0    1.92    0.16
   3   2   0    1.88    0.15
  -3   2   0    1.66    0.11
  -3  -2   0    1.86    0.14
  -3  -2   0    1.59    0.16
  -3  -2   0    1.94    0.14
  -3  -2   0    1.77    0.13
  -3  -2   0    1.74    0.15
   3  -2   0    1.74    0.14
   3  -2   0    1.79    0.14
  -3   2  -1   99.47    2.40
   3   2   1  100.62    2.47
  -3   2  -1  100.51    2.03
   3   2   1   99.40    2.43
   3   2   1  102.64    2.43
  -3   2  -1  110.83    2.41
   3  -2   1  102.90    2.40
  -3  -2  -1   97.72    2.42
   3  -2   1  105.72    2.45
  -3  -2  -1  103.09    2.42
  -3  -2  -1  100.45    2.21
  -3  -2  -1  101.08    2.05
  -3  -2  -1   99.71    2.67
  -3   2  -2   17.03    0.47
   3   2   2   17.44    0.51
  -3   2  -2   18.12    0.43
   3   2   2   17.41    0.52
  -3   2  -2   18.07    0.40
   3   2   2   18.25    0.52
  -3  -2  -2   17.99    0.59
  -3  -2  -2   16.80    0.52
   3  -2   2   17.70    0.49
  -3  -2  -2   17.85    0.48
   3  -2   2   17.64    0.48
  -3  -2  -2   18.01    0.50
  -3  -2  -2   17.48    0.44
   3   2   3    1.51    0.16
  -3   2  -3    0.94    0.19
  -3   2  -3    1.04    0.18
  -3   2  -3    1.10    0.09
   3   2   3    1.54    0.15
  -3   2  -3    1.16    0.10
  -3   2  -3    0.97    0.11
  -3  -2  -3    1.38    0.16
  -3  -2  -3    0.78    0.21
  -3  -2  -3    1.56    0.19
  -3  -2  -3    1.55    0.14
   3  -2   3    1.18    0.12
  -3  -2  -3    1.17    0.21
  -3  -2  -3    1.25    0.15
  -3  -2  -3    0.93    0.26
  -3   2  -4    1.82    0.22
  -3   2  -4    1.77    0.25
   3   2   4    1.90    0.17
  -3   2  -4    1.99    0.35
   3   2   4    1.70    0.17
  -3  -2  -4    1.85    0.18
  -3  -2  -4    1.35    0.25
  -3  -2  -4    1.75    0.19
  -3  -2  -4    1.40    0.25
  -3  -2  -4    2.95    0.23
  -3  -2  -4    1.51    0.20
  -3  -2  -4    1.75    0.34
   3   2   5   26.10    0.72
  -3   2  -5   25.41    0.76
  -3   2  -5   25.13    0.80
  -3   2  -5   25.90    0.73
  -3   2  -5   27.45    1.02
   3   2   5   25.58    0.71
  -3   2  -5   26.43    0.71
  -3  -2  -5   26.39    0.74
  -3  -2  -5   24.59    0.71
  -3  -2  -5   25.59    0.80
  -3  -2  -5   25.48    0.84
  -3  -2  -5   24.67    0.66
  -3  -2  -5   25.41    1.00
  -3   2  -6    1.45    0.47
  -3   2  -6    1.53    0.27
  -3   2  -6    0.89    0.30
  -3   2  -6    1.56    0.35
  -3   2  -6    1.07    0.36
  -3  -2  -6    1.35    0.26
  -3  -2  -6    1.66    0.34
  -3  -2  -6    1.53    0.27
  -3  -2  -6    1.21    0.45
  -3  -2  -6    0.92    0.33
  -3  -2  -6    1.70    0.38
  -3   2  -7   24.55    0.86
  -3   2  -7   23.74    0.91
  -3   2  -7   22.57    0.75
  -3   2  -7   21.16    1.01
  -3  -2  -7   25.07    0.92
  -3  -2  -7   25.13    0.97
  -3  -2  -7   24.12    0.78
  -3  -2  -7   25.56    0.93
  -3  -2  -7   23.85    1.17
   3   3  -9   11.51    0.60
   3   3  -9   12.05    0.82
   3   3  -9   11.69    0.68
   3   3  -9   12.04    0.63
   3   3  -9   12.66    0.59
   3   3  -9   12.33    0.56
   3  -3  -9   11.34    0.56
   3  -3  -9   11.59    0.61
   3  -3  -9   12.18    0.42
   3  -3  -9   11.93    0.73
   3  -3  -9   11.81    0.88
   3  -3  -9   12.24    0.55
   3   3  -8   21.96    0.85
   3   3  -8   22.38    0.71
   3   3  -8   21.50    0.74
   3   3  -8   22.00    0.77
   3   3  -8   23.23    0.95
  -3   3   8   23.04    0.87
   3   3  -8   22.93    0.78
   3   3  -8   22.68    0.71
  -3   3   8   20.62    0.78
   3  -3  -8   23.25    0.71
   3  -3  -8   21.96    1.00
   3  -3  -8   22.01    0.86
   3  -3  -8   22.59    0.57
   3  -3  -8   22.37    0.74
   3  -3  -8   23.30    0.74
  -3   3   7   61.79    1.64
  -3   3   7   62.69    1.75
   3   3  -7   63.37    1.75
   3   3  -7   63.84    1.55
   3   3  -7   63.69    1.48
   3   3  -7   58.95    1.50
   3   3  -7   63.54    1.47
   3   3  -7   61.26    1.48
   3  -3  -7   62.26    1.48
   3  -3  -7   62.31    1.47
   3  -3  -7   61.81    1.62
   3  -3  -7   59.56    1.54
   3  -3  -7   59.27    1.51
  -3  -3   7   62.08    1.72
   3   3  -6   89.44    2.00
  -3   3   6   91.66    2.39
   3   3  -6   88.59    2.13
   3  -3  -6   88.54    2.00
   3  -3  -6   88.52    2.17
  -3  -3   6   88.38    2.36
   3   3  -5  146.68    3.49
   3   3  -5  147.75    3.20
  -3   3   5  150.91    3.82
   3  -3  -5  145.04    3.52
  -3  -3   5  152.42    3.80
  -3   3   4  136.46    3.61
  -3   3   4  143.84    2.83
   3   3  -4  143.96    3.32
   3   3  -4  140.78    3.33
   3   3  -4  138.76    3.39
  -3   3   4  146.84    3.35
   3   3  -4  142.00    3.04
   3  -3  -4  139.63    3.35
  -3  -3   4  142.53    3.61
   3  -3  -4  139.47    3.03
  -3  -3   4  141.45    3.33
  -3   3   3   95.36    2.48
   3   3  -3   96.02    2.29
   3   3  -3   92.65    2.33
  -3   3   3   98.14    1.95
  -3   3   3  100.65    2.31
   3   3  -3   97.68    2.29
   3   3  -3   93.96    2.30
   3  -3  -3   95.52    2.08
  -3  -3   3   97.01    2.08
   3  -3  -3   94.32    2.31
  -3  -3   3   98.72    2.30
  -3  -3   3   96.55    1.93
  -3  -3   3   96.42    2.49
   3   3  -2    1.99    0.15
   3   3  -2    1.63    0.13
   3   3  -2    1.99    0.15
   3   3  -2    1.94    0.15
  -3   3   2    1.60    0.11
  -3   3   2    1.85    0.16
  -3   3   2    1.62    0.14
   3  -3  -2    1.73    0.16
  -3  -3   2    1.54    0.12
  -3  -3   2    1.80    0.16
  -3  -3   2    1.75    0.13
   3  -3  -2    1.51    0.12
  -3  -3   2    1.93    0.17
   3  -3  -2    1.51    0.14
  -3   3   1   21.48    0.58
   3   3  -1   21.21    0.59
  -3   3   1   21.26    0.49
  -3   3   1   23.06    0.60
   3  -3  -1   20.81    0.59
  -3  -3   1   21.30    0.65
   3  -3  -1   22.67    0.59
  -3  -3   1   21.32    0.53
  -3  -3   1   21.46    0.59
   3  -3  -1   22.10    0.49
  -3  -3   1   20.67    0.49
  -3   3   0  215.36    5.35
  -3   3   0  212.00    5.02
   3   3   0  212.47    5.13
  -3   3   0  226.16    5.02
   3   3   0  217.86    5.03
   3   3   0  214.45    5.05
  -3   3   0  215.94    4.23
  -3  -3   0  209.79    4.24
  -3  -3   0  210.41    4.58
  -3  -3   0  209.59    5.03
   3  -3   0  219.23    5.02
   3  -3   0  221.45    5.11
  -3  -3   0  212.59    5.45
  -3   3  -1  205.09    4.52
   3   3   1  195.21    4.55
  -3   3  -1  199.11    3.81
  -3   3  -1  191.04    4.51
  -3  -3  -1  185.27    4.54
   3  -3   1  194.20    4.51
   3  -3   1  192.13    4.60
  -3  -3  -1  188.48    4.95
  -3  -3  -1  195.07    4.54
  -3  -3  -1  190.34    4.13
  -3  -3  -1  192.11    3.83
  -3   3  -2  156.92    2.97
   3   3   2  151.48    3.62
  -3   3  -2  149.96    3.52
   3   3   2  154.09    3.57
   3   3   2  147.51    3.57
   3  -3   2  154.41    3.59
  -3  -3  -2  146.33    3.88
  -3  -3  -2  148.37    3.25
  -3  -3  -2  144.50    3.57
  -3  -3  -2  149.97    3.01
  -3   3  -3  102.87    2.03
  -3   3  -3  103.27    2.19
  -3   3  -3   99.67    2.40
  -3   3  -3  103.52    2.30
  -3   3  -3  103.60    2.17
  -3   3  -3  103.63    2.58
   3   3   3  101.03    2.50
   3   3   3  101.75    2.47
  -3  -3  -3  103.80    2.55
  -3  -3  -3   98.18    2.49
  -3  -3  -3  101.86    2.19
  -3  -3  -3  103.38    2.28
  -3  -3  -3  100.90    2.27
  -3  -3  -3  101.49    2.10
   3  -3   3  102.38    2.45
  -3  -3  -3  103.77    2.32
  -3  -3  -3  103.37    2.69
  -3   3  -4   24.31    0.69
  -3   3  -4   25.05    0.91
   3   3   4   23.22    0.70
   3   3   4   23.70    0.69
  -3   3  -4   24.71    0.73
  -3  -3  -4   24.27    0.77
  -3  -3  -4   23.93    0.88
  -3  -3  -4   24.20    0.73
  -3  -3  -4   23.74    0.68
  -3  -3  -4   23.47    0.69
  -3  -3  -4   24.25    0.75
  -3  -3  -4   23.94    0.64
  -3   3  -5   22.16    0.93
   3   3   5   22.02    0.66
   3   3   5   21.80    0.65
  -3   3  -5   22.30    0.64
  -3   3  -5   22.34    0.84
  -3   3  -5   20.19    0.68
  -3   3  -5   21.98    0.73
  -3  -3  -5   22.15    0.79
  -3  -3  -5   21.92    0.67
  -3  -3  -5   21.49    0.72
  -3  -3  -5   21.38    0.67
  -3  -3  -5   21.97    0.62
  -3  -3  -5   21.80    0.74
  -3  -3  -5   21.40    0.74
  -3  -3  -5   22.47    0.92
  -3   3  -6    1.15    0.26
   3   3   6    1.51    0.28
  -3   3  -6    1.80    0.31
  -3   3  -6    1.22    0.32
  -3   3  -6    1.67    0.43
  -3   3  -6    1.12    0.45
  -3  -3  -6    1.35    0.45
  -3  -3  -6    1.60    0.27
  -3  -3  -6    1.03    0.31
  -3  -3  -6    1.21    0.36
  -3  -3  -6    1.49    0.39
  -3   3  -7    1.61    0.37
  -3   3  -7    2.24    0.43
  -3   3  -7    1.96    0.33
  -3   3  -7    2.32    0.32
  -3   3  -7    2.55    0.50
  -3  -3  -7    2.09    0.32
  -3  -3  -7    1.33    0.32
  -3  -3  -7    1.33    0.41
  -3  -3  -7    2.37    0.47
  -3  -3  -7    2.02    0.45
  -3  -3  -7    2.47    0.58
   3   4  -9    0.20    0.26
   3   4  -9   -0.31    0.40
   3   4  -9   -0.56    0.40
   3   4  -9   -0.01    0.25
   3   4  -9    0.24    0.34
   3  -4  -9   -0.21    0.19
   3  -4  -9    0.19    0.28
   3  -4  -9    0.35    0.40
   3  -4  -9   -0.05    0.29
   3  -4  -9   -0.23    0.42
   3  -4  -9    0.46    0.32
  -3   4   8   10.44    0.62
   3   4  -8   11.14    0.48
  -3   4   8   10.84    0.58
   3   4  -8   11.10    0.53
   3   4  -8   11.10    0.51
   3   4  -8   10.27    0.69
   3   4  -8   10.72    0.67
   3  -4  -8   11.72    0.78
   3  -4  -8   11.07    0.48
   3  -4  -8   11.08    0.51
   3  -4  -8   11.50    0.42
   3  -4  -8   11.28    0.55
   3  -4  -8   10.07    0.66
   3   4  -7    0.38    0.20
  -3   4   7    0.41    0.28
   3   4  -7    0.61    0.23
   3   4  -7    0.50    0.20
   3   4  -7    0.83    0.32
   3   4  -7    0.92    0.31
  -3   4   7    0.51    0.24
  -3  -4   7    0.41    0.24
   3  -4  -7    0.65    0.21
   3  -4  -7    0.38    0.31
   3  -4  -7    0.66    0.22
   3  -4  -7    0.56    0.22
   3  -4  -7    0.42    0.18
  -3   4   6    3.92    0.38
   3   4  -6    3.09    0.22
   3   4  -6    3.63    0.28
   3  -4  -6    4.02    0.28
  -3  -4   6    3.58    0.30
   3  -4  -6    3.47    0.25
   3   4  -5    1.49    0.15
   3   4  -5    1.63    0.18
  -3   4   5    1.77    0.23
  -3  -4   5    1.98    0.23
   3  -4  -5    1.41    0.17
  -3   4   4  206.19    4.77
  -3   4   4  202.86    5.14
   3   4  -4  200.44    4.32
   3   4  -4  203.02    4.74
  -3   4   4  202.42    4.02
   3  -4  -4  200.15    4.30
  -3  -4   4  205.46    5.12
   3  -4  -4  199.59    4.87
   3  -4  -4  201.16    4.77
  -3   4   3   44.39    0.95
   3   4  -3   43.47    1.11
   3   4  -3   42.79    1.13
   3   4  -3   44.96    1.10
   3   4  -3   43.96    1.11
  -3   4   3   44.49    1.21
  -3   4   3   45.03    1.14
  -3  -4   3   43.95    0.93
   3  -4  -3   44.11    1.13
  -3  -4   3   44.16    1.01
  -3  -4   3   44.76    1.11
  -3  -4   3   44.22    1.22
   3  -4  -3   43.51    1.01
   3  -4  -3   44.45    1.16
  -3   4   2  601.82   14.10
  -3   4   2  612.10   15.26
  -3   4   2  601.64   11.89
   3   4  -2  608.19   14.20
  -3  -4   2  611.91   12.82
   3  -4  -2  598.47   14.10
   3  -4  -2  600.80   14.37
  -3  -4   2  628.42   14.09
  -3  -4   2  609.17   11.88
   3  -4  -2  596.75   12.73
  -3  -4   2  635.75   15.18
   3   4  -1   84.08    2.13
  -3   4   1   84.81    1.76
  -3   4   1   88.79    2.21
  -3   4   1   87.42    2.09
   3   4  -1   85.62    2.09
   3   4  -1   84.04    2.10
  -3  -4   1   86.97    1.76
   3  -4  -1   85.88    2.12
  -3  -4   1   86.42    1.90
   3  -4  -1   86.94    1.85
  -3  -4   1   88.60    2.09
  -3  -4   1   86.04    2.27
   3  -4  -1   87.83    2.09
  -3   4   0  286.73    7.21
   3   4   0  287.55    6.79
   3   4   0  290.42    6.78
  -3   4   0  277.68    6.75
  -3   4   0  305.15    6.75
   3   4   0  284.83    6.90
  -3   4   0  290.78    5.69
  -3  -4   0  293.11    5.71
  -3  -4   0  295.59    6.17
   3  -4   0  286.25    6.88
  -3  -4   0  288.55    7.33
  -3  -4   0  299.38    6.78
   3  -4   0  287.00    6.75
  -3   4  -1    8.56    0.25
  -3   4  -1    8.85    0.29
   3   4   1    8.61    0.35
  -3   4  -1    7.86    0.28
  -3  -4  -1    8.01    0.43
   3  -4   1    8.22    0.30
   3  -4   1    8.17    0.29
  -3  -4  -1    7.77    0.28
  -3  -4  -1    7.84    0.34
  -3  -4  -1    7.91    0.30
   3   4   2    2.24    0.20
  -3   4  -2    2.70    0.15
   3   4   2    2.33    0.20
  -3   4  -2    2.55    0.17
   3   4   2    2.50    0.22
  -3  -4  -2    2.01    0.25
   3  -4   2    3.12    0.20
  -3  -4  -2    2.41    0.21
  -3  -4  -2    2.26    0.19
  -3  -4  -2    2.37    0.17
   3   4   3    2.06    0.20
  -3   4  -3    2.03    0.22
   3   4   3    1.93    0.21
  -3   4  -3    1.85    0.14
  -3   4  -3    1.99    0.23
  -3   4  -3    1.70    0.16
  -3  -4  -3    2.12    0.22
  -3  -4  -3    2.07    0.19
   3  -4   3    1.79    0.16
  -3  -4  -3    1.71    0.25
  -3  -4  -3    1.98    0.21
  -3  -4  -3    1.91    0.25
  -3  -4  -3    1.73    0.24
  -3  -4  -3    1.86    0.20
  -3  -4  -3    2.51    0.30
  -3   4  -4   28.05    0.80
   3   4   4   27.58    0.80
  -3   4  -4   27.67    0.98
  -3   4  -4   28.84    0.76
   3   4   4   27.92    0.81
  -3  -4  -4   27.58    0.80
  -3  -4  -4   28.42    0.78
  -3  -4  -4   28.63    0.86
  -3  -4  -4   27.09    0.79
  -3  -4  -4   26.63    0.86
  -3  -4  -4   26.80    0.73
  -3  -4  -4   28.17    0.95
  -3   4  -5    0.70    0.21
  -3   4  -5    0.75    0.26
   3   4   5    0.85    0.20
   3   4   5    0.55    0.20
  -3   4  -5    0.60    0.22
  -3   4  -5    0.37    0.36
  -3   4  -5    0.63    0.24
   3   4   5    0.54    0.24
  -3   4  -5    0.30    0.29
  -3  -4  -5    0.86    0.22
  -3  -4  -5    0.64    0.23
  -3  -4  -5    0.66    0.19
  -3  -4  -5    0.96    0.36
  -3  -4  -5    0.81    0.30
  -3  -4  -5    0.33    0.30
  -3  -4  -5    0.77    0.27
  -3  -4  -5    0.54    0.22
  -3   4  -6   33.91    0.95
  -3   4  -6   35.49    0.99
  -3   4  -6   34.70    1.30
   3   4   6   35.31    0.91
  -3   4  -6   33.24    1.00
  -3   4  -6   34.39    1.05
  -3   4  -6   34.75    1.24
  -3  -4  -6   34.88    0.85
  -3  -4  -6   35.17    1.28
  -3  -4  -6   33.20    1.07
  -3  -4  -6   34.68    1.08
  -3  -4  -6   34.12    1.15
  -3  -4  -6   35.27    1.00
  -3   4  -7   -0.28    0.28
  -3   4  -7    0.03    0.28
  -3   4  -7    0.14    0.38
  -3   4  -7    0.26    0.35
  -3   4  -7   -0.49    0.43
  -3  -4  -7   -0.26    0.42
  -3  -4  -7   -0.53    0.47
  -3  -4  -7   -0.03    0.29
  -3  -4  -7    0.40    0.44
  -3  -4  -7    0.34    0.39
  -3  -4  -7    0.06    0.28
   3   5  -9    5.73    0.51
   3   5  -9    5.51    0.62
   3   5  -9    5.23    0.56
   3   5  -9    5.73    0.43
   3  -5  -9    5.53    0.59
   3  -5  -9    5.08    0.43
   3  -5  -9    4.94    0.42
   3  -5  -9    4.49    0.43
   3  -5  -9    5.91    0.64
   3  -5  -9    5.40    0.37
   3   5  -8   21.85    0.73
   3   5  -8   22.26    0.93
   3   5  -8   21.39    0.95
   3   5  -8   20.88    0.77
  -3   5   8   23.41    0.88
  -3   5   8   23.35    0.84
   3   5  -8   22.13    0.73
   3  -5  -8   22.37    0.75
   3  -5  -8   21.12    0.76
   3  -5  -8   22.30    0.62
   3  -5  -8   23.28    1.02
   3  -5  -8   20.89    0.91
   3  -5  -8   22.13    0.74
   3   5  -7   21.75    0.84
   3   5  -7   22.42    0.73
   3   5  -7   21.42    0.67
   3   5  -7   23.10    0.68
  -3   5   7   21.89    0.83
   3   5  -7   20.59    0.87
  -3   5   7   21.71    0.80
   3  -5  -7   22.17    0.68
  -3  -5   7   21.91    0.79
   3  -5  -7   21.84    0.70
   3  -5  -7   21.72    0.60
   3  -5  -7   21.06    0.68
   3  -5  -7   21.37    0.73
   3  -5  -7   21.07    0.82
  -3   5   6   71.90    1.99
   3   5  -6   71.83    1.65
  -3   5   6   72.87    1.89
   3   5  -6   70.32    1.74
   3  -5  -6   68.98    1.65
   3  -5  -6   70.43    1.79
   3  -5  -6   69.37    1.74
  -3  -5   6   74.07    1.95
   3   5  -5   27.66    0.72
   3   5  -5   25.71    0.73
  -3   5   5   25.73    0.87
   3  -5  -5   26.52    0.78
  -3  -5   5   28.26    0.85
   3  -5  -5   27.56    0.72
  -3   5   4   61.19    1.53
  -3   5   4   58.36    1.64
   3   5  -4   60.40    1.49
   3   5  -4   60.24    1.39
  -3   5   4   60.37    1.29
   3  -5  -4   58.85    1.52
   3  -5  -4   59.39    1.37
   3  -5  -4   60.39    1.57
  -3  -5   4   62.08    1.64
   3   5  -3    8.70    0.34
   3   5  -3    9.15    0.33
   3   5  -3    8.91    0.33
   3   5  -3    9.28    0.34
  -3   5   3    9.72    0.37
  -3   5   3    9.43    0.31
  -3  -5   3    9.37    0.31
   3  -5  -3    8.88    0.31
  -3  -5   3    9.17    0.34
  -3  -5   3    9.36    0.29
   3  -5  -3    8.76    0.37
   3  -5  -3    9.02    0.36
  -3  -5   3    9.04    0.40
  -3   5   2    2.16    0.15
   3   5  -2    2.27    0.20
  -3   5   2    2.25    0.19
  -3  -5   2    2.30    0.21
  -3  -5   2    2.36    0.17
   3  -5  -2    2.13    0.16
  -3  -5   2    2.31    0.19
  -3  -5   2    2.53    0.22
   3  -5  -2    2.46    0.19
   3   5  -1    1.99    0.18
   3   5  -1    1.92    0.18
  -3   5   1    2.19    0.20
   3   5  -1    1.62    0.16
  -3   5   1    2.13    0.16
  -3  -5   1    2.01    0.22
  -3  -5   1    1.67    0.17
  -3  -5   1    1.84    0.14
   3  -5  -1    1.85    0.17
   3  -5  -1    1.98    0.17
  -3  -5   1    1.80    0.15
   3   5   0  134.73    3.23
  -3   5   0  144.79    3.21
  -3   5   0  129.22    3.20
   3   5   0  135.45    3.24
  -3   5   0  136.67    2.70
  -3   5   0  135.90    3.38
   3   5   0  134.45    3.29
  -3  -5   0  133.18    2.72
  -3  -5   0  129.23    3.51
   3  -5   0  138.08    3.20
  -3  -5   0  134.43    3.23
   3  -5   0  132.64    3.26
  -3  -5   0  133.70    2.94
  -3   5  -1   21.24    0.49
  -3   5  -1   20.53    0.58
   3   5   1   21.01    0.64
   3   5   1   20.82    0.65
   3   5   1   20.87    0.64
  -3  -5  -1   20.93    0.75
   3  -5   1   20.89    0.60
  -3  -5  -1   20.62    0.57
  -3  -5  -1   20.00    0.63
   3  -5   1   20.35    0.58
  -3  -5  -1   20.15    0.53
  -3   5  -2  159.96    3.76
  -3   5  -2  166.25    3.18
   3   5   2  164.90    3.86
  -3  -5  -2  161.00    3.50
  -3  -5  -2  158.96    3.25
  -3  -5  -2  158.63    3.85
   3  -5   2  158.36    3.85
  -3  -5  -2  153.81    4.18
  -3   5  -3   32.87    0.82
  -3   5  -3   31.32    0.80
  -3   5  -3   31.97    0.68
  -3   5  -3   30.75    0.80
   3   5   3   31.32    0.91
   3   5   3   31.67    0.92
  -3  -5  -3   31.44    0.80
  -3  -5  -3   31.64    1.04
  -3  -5  -3   31.30    0.94
  -3  -5  -3   32.08    0.86
  -3  -5  -3   32.72    0.89
   3  -5   3   31.77    0.85
  -3  -5  -3   32.24    0.84
  -3  -5  -3   31.49    0.86
   3   5   4   79.59    2.04
  -3   5  -4   79.34    1.80
  -3   5  -4   80.35    1.77
   3   5   4   78.74    2.00
  -3   5  -4   81.47    1.87
  -3  -5  -4   80.67    1.89
  -3  -5  -4   80.20    2.08
  -3  -5  -4   80.28    1.93
  -3  -5  -4   79.49    2.08
  -3  -5  -4   78.76    1.82
  -3  -5  -4   77.70    1.75
  -3  -5  -4   78.10    1.87
   3   5   5   13.46    0.54
  -3   5  -5   12.97    0.53
  -3   5  -5   13.52    0.54
  -3   5  -5   13.57    0.57
   3   5   5   13.57    0.55
  -3   5  -5   13.37    0.50
   3   5   5   13.57    0.53
  -3   5  -5   12.15    0.75
  -3   5  -5   13.71    0.67
  -3  -5  -5   14.44    0.61
  -3  -5  -5   12.63    0.71
  -3  -5  -5   13.62    0.57
  -3  -5  -5   13.74    0.62
  -3  -5  -5   13.21    0.67
  -3  -5  -5   13.58    0.48
  -3  -5  -5   12.85    0.53
   3   5   6   19.21    0.67
   3   5   6   18.14    0.65
  -3   5  -6   18.61    0.95
  -3   5  -6   18.63    0.72
  -3   5  -6   16.83    0.84
  -3   5  -6   18.04    0.65
   3   5   6   17.45    0.63
  -3   5  -6   17.97    0.70
  -3   5  -6   16.97    0.63
  -3  -5  -6   17.07    0.65
  -3  -5  -6   18.80    0.61
  -3  -5  -6   17.64    0.78
  -3  -5  -6   17.59    0.83
  -3  -5  -6   17.16    0.68
  -3  -5  -6   18.40    0.75
  -3  -5  -6   19.93    0.93
  -3   5  -7    0.86    0.39
  -3   5  -7    0.17    0.33
  -3   5  -7    0.44    0.32
  -3   5  -7    0.12    0.43
  -3   5  -7    0.68    0.37
  -3  -5  -7    1.08    0.48
  -3  -5  -7    0.34    0.32
  -3  -5  -7   -0.04    0.43
  -3  -5  -7    0.66    0.30
  -3  -5  -7    0.89    0.40
   3   6  -9   14.59    0.69
   3   6  -9   14.36    0.65
   3   6  -9   13.27    0.87
   3  -6  -9   15.93    0.95
   3  -6  -9   15.51    0.73
   3  -6  -9   14.55    0.66
   3  -6  -9   13.53    0.67
   3  -6  -9   13.10    0.85
   3  -6  -9   14.11    0.55
   3   6  -8    0.26    0.33
   3   6  -8    0.39    0.40
   3   6  -8   -0.03    0.28
   3   6  -8    0.08    0.24
   3   6  -8    0.38    0.27
   3  -6  -8    0.35    0.25
   3  -6  -8    0.17    0.40
   3  -6  -8    0.37    0.28
   3  -6  -8    0.13    0.38
   3  -6  -8   -0.32    0.24
   3  -6  -8   -0.13    0.24
   3   6  -7    2.08    0.30
   3   6  -7    1.73    0.25
  -3   6   7    1.61    0.33
   3   6  -7    1.22    0.40
   3   6  -7    1.47    0.26
  -3   6   7    2.05    0.33
   3   6  -7    2.22    0.34
   3  -6  -7    1.55    0.32
   3  -6  -7    1.56    0.27
   3  -6  -7    1.89    0.27
   3  -6  -7    1.30    0.23
   3  -6  -7    1.71    0.26
   3  -6  -7    1.53    0.40
   3   6  -6    0.09    0.18
   3   6  -6    0.22    0.29
   3   6  -6   -0.20    0.14
   3   6  -6    0.43    0.24
  -3   6   6    0.01    0.24
  -3   6   6    0.00    0.24
   3  -6  -6   -0.20    0.24
  -3  -6   6   -0.03    0.23
   3  -6  -6    0.16    0.19
   3  -6  -6    0.13    0.20
   3  -6  -6    0.26    0.20
  -3   6   5   27.40    0.93
   3   6  -5   29.50    0.77
   3   6  -5   29.42    0.80
  -3  -6   5   30.02    0.91
   3  -6  -5   28.09    0.87
   3  -6  -5   27.67    0.84
   3  -6  -5   28.05    0.77
  -3   6   4    2.88    0.25
  -3   6   4    2.55    0.21
   3   6  -4    2.51    0.20
   3  -6  -4    3.33    0.26
   3  -6  -4    2.32    0.24
  -3  -6   4    2.42    0.26
   3  -6  -4    2.44    0.20
  -3   6   3  247.80    5.84
  -3   6   3  252.43    4.93
   3   6  -3  242.59    5.82
   3  -6  -3  238.32    5.83
  -3  -6   3  250.40    6.27
   3  -6  -3  249.21    5.25
  -3  -6   3  247.77    5.29
  -3  -6   3  250.52    5.82
   3  -6  -3  250.52    5.96
  -3  -6   3  246.68    4.90
   3   6  -2    7.42    0.33
   3   6  -2    7.28    0.33
  -3   6   2    7.23    0.29
  -3   6   2    6.91    0.34
   3   6  -2    7.53    0.34
  -3  -6   2    6.96    0.30
  -3  -6   2    7.18    0.33
   3  -6  -2    7.24    0.35
   3  -6  -2    6.99    0.34
  -3  -6   2    7.04    0.28
  -3  -6   2    7.23    0.39
   3   6  -1  347.07    8.07
  -3   6   1  343.16    6.80
   3   6  -1  339.78    8.22
   3   6  -1  343.56    8.10
  -3   6   1  339.79    8.06
  -3  -6   1  342.21    7.34
   3  -6  -1  346.43    8.06
  -3  -6   1  350.26    8.07
  -3  -6   1  345.08    6.80
  -3  -6   1  349.92    8.71
   3  -6  -1  349.21    8.22
  -3   6   0    6.39    0.30
  -3   6   0    6.36    0.25
   3   6   0    6.36    0.34
   3   6   0    6.95    0.36
   3   6   0    6.16    0.34
  -3  -6   0    6.20    0.30
   3  -6   0    6.02    0.30
   3  -6   0    6.60    0.33
  -3  -6   0    6.76    0.44
  -3  -6   0    6.62    0.28
  -3  -6   0    6.41    0.34
  -3   6  -1   76.73    1.89
   3   6   1   77.33    1.96
   3   6   1   78.63    2.00
  -3   6  -1   79.01    1.60
   3   6   1   78.82    1.96
  -3  -6  -1   77.99    1.78
  -3  -6  -1   77.28    2.16
   3  -6   1   76.18    1.94
  -3  -6  -1   76.81    1.96
  -3  -6  -1   75.76    1.65
  -3   6  -2    6.27    0.24
   3   6   2    6.44    0.41
  -3   6  -2    5.98    0.27
  -3  -6  -2    6.91    0.34
  -3  -6  -2    5.86    0.46
  -3  -6  -2    6.68    0.36
  -3  -6  -2    6.81    0.34
   3  -6   2    6.08    0.33
  -3  -6  -2    6.51    0.39
   3   6   3    1.66    0.24
  -3   6  -3    0.44    0.20
  -3   6  -3    0.55    0.16
  -3   6  -3    0.62    0.12
  -3   6  -3    0.74    0.10
   3   6   3    1.42    0.25
   3  -6   3    0.63    0.17
  -3  -6  -3    0.31    0.24
  -3  -6  -3    0.37    0.21
   3  -6   3    0.77    0.17
  -3  -6  -3    0.78    0.20
  -3  -6  -3    0.69    0.21
   3  -6   3    0.73    0.16
  -3  -6  -3    0.44    0.20
  -3  -6  -3    0.45    0.19
  -3  -6  -3    0.62    0.22
   3   6   4    3.03    0.30
  -3   6  -4    3.51    0.38
  -3   6  -4    3.63    0.29
  -3   6  -4    3.14    0.27
   3   6   4    3.26    0.31
   3   6   4    3.48    0.29
  -3   6  -4    3.78    0.31
  -3  -6  -4    3.82    0.27
  -3  -6  -4    3.16    0.32
  -3  -6  -4    3.57    0.36
  -3  -6  -4    3.26    0.38
  -3  -6  -4    3.12    0.35
  -3  -6  -4    3.13    0.31
  -3  -6  -4    3.73    0.30
  -3  -6  -4    3.71    0.35
   3   6   5   14.44    0.55
   3   6   5   14.18    0.58
  -3   6  -5   16.00    0.59
  -3   6  -5   14.16    0.54
   3   6   5   13.47    0.59
  -3   6  -5   13.05    0.71
  -3   6  -5   13.91    0.52
  -3  -6  -5   13.51    0.64
  -3  -6  -5   13.52    0.67
  -3  -6  -5   14.43    0.64
  -3  -6  -5   14.68    0.62
  -3  -6  -5   13.59    0.58
  -3  -6  -5   14.37    0.52
  -3   6  -6    0.10    0.38
  -3   6  -6    0.03    0.31
  -3   6  -6   -0.03    0.28
  -3   6  -6    0.20    0.26
  -3   6  -6    0.03    0.34
   3   6   6    0.14    0.31
  -3  -6  -6    0.02    0.33
  -3  -6  -6    0.26    0.30
  -3  -6  -6    0.49    0.27
  -3  -6  -6    0.01    0.37
  -3  -6  -6    0.38    0.41
  -3  -6  -6    0.32    0.26
   3   7  -8    7.94    0.69
   3   7  -8    8.34    0.50
   3   7  -8   10.04    0.66
   3   7  -8    8.94    0.53
   3   7  -8    8.39    0.52
   3  -7  -8    9.85    0.61
   3  -7  -8    8.25    0.49
   3  -7  -8   10.07    0.73
   3  -7  -8    8.16    0.56
   3  -7  -8    9.57    0.49
   3  -7  -8    7.91    0.48
   3   7  -7   52.19    1.40
   3   7  -7   52.62    1.35
  -3   7   7   55.34    1.57
   3   7  -7   53.14    1.50
   3   7  -7   51.87    1.31
  -3   7   7   51.95    1.61
   3   7  -7   51.65    1.60
   3  -7  -7   50.54    1.43
   3  -7  -7   53.50    1.53
   3  -7  -7   52.62    1.36
   3  -7  -7   52.95    1.19
   3  -7  -7   50.89    1.35
   3  -7  -7   52.96    1.36
   3   7  -6   25.68    0.94
  -3   7   6   24.42    0.89
   3   7  -6   25.07    0.75
   3   7  -6   25.03    0.73
  -3   7   6   24.81    0.92
   3   7  -6   26.95    0.82
   3   7  -6   25.82    0.84
   3   7  -6   24.53    0.75
   3  -7  -6   23.91    0.85
   3  -7  -6   24.43    0.76
   3  -7  -6   25.42    0.75
  -3  -7   6   24.55    0.86
   3  -7  -6   24.53    0.69
   3   7  -5  140.87    3.45
   3   7  -5  143.14    3.16
  -3   7   5  146.46    3.60
   3   7  -5  144.22    3.43
  -3  -7   5  140.67    3.72
   3  -7  -5  142.03    3.49
   3  -7  -5  139.84    3.15
   3  -7  -5  150.59    3.29
  -3   7   4    9.07    0.46
  -3   7   4   10.58    0.50
   3   7  -4   10.41    0.43
  -3   7   4   10.07    0.41
   3  -7  -4    9.90    0.46
   3  -7  -4   10.24    0.41
  -3  -7   4    9.49    0.50
   3  -7  -4    9.86    0.47
   3  -7  -4   11.03    0.50
  -3   7   3   77.99    1.98
  -3   7   3   79.62    1.67
   3   7  -3   77.30    1.95
  -3  -7   3   77.61    2.11
   3  -7  -3   77.65    2.02
   3  -7  -3   77.51    1.98
  -3   7   2    5.68    0.35
   3   7  -2    6.27    0.34
   3   7  -2    6.02    0.34
  -3   7   2    5.48    0.30
   3   7  -2    6.30    0.35
  -3  -7   2    5.51    0.31
  -3  -7   2    6.11    0.40
   3  -7  -2    6.44    0.37
   3  -7  -2    5.92    0.37
  -3  -7   2    5.46    0.28
  -3  -7   2    5.76    0.34
  -3   7   1   44.51    1.02
   3   7  -1   45.91    1.23
  -3   7   1   43.26    1.20
   3   7  -1   44.50    1.24
   3   7  -1   45.88    1.23
  -3  -7   1   46.55    1.11
  -3  -7   1   45.47    1.02
   3  -7  -1   45.00    1.23
  -3  -7   1   45.61    1.35
   3  -7  -1   45.41    1.21
  -3  -7   1   45.49    1.22
  -3   7   0   61.71    1.60
  -3   7   0   62.40    1.35
   3   7   0   63.63    1.65
   3   7   0   65.36    1.66
   3   7   0   65.73    1.68
  -3  -7   0   62.83    1.39
  -3  -7   0   61.11    1.82
  -3  -7   0   64.15    1.50
  -3  -7   0   63.73    1.64
   3  -7   0   61.45    1.60
   3   7   1  233.81    5.43
   3   7   1  229.71    5.44
  -3   7  -1  225.83    5.35
   3   7   1  230.66    5.53
  -3   7  -1  222.09    4.51
  -3  -7  -1  231.46    4.57
   3  -7   1  228.03    4.21
  -3  -7  -1  227.76    5.42
  -3  -7  -1  225.18    4.93
   3  -7   1  220.24    5.46
  -3  -7  -1  221.35    5.87
  -3  -7  -1  230.41    4.93
   3  -7   1  226.80    4.15
   3   7   2   85.16    2.21
  -3   7  -2   83.76    2.06
   3   7   2   87.44    2.18
  -3   7  -2   84.41    1.74
  -3  -7  -2   84.37    2.17
   3  -7   2   83.97    1.67
  -3  -7  -2   86.57    1.98
  -3  -7  -2   84.63    1.84
   3  -7   2   86.07    1.66
  -3  -7  -2   80.62    2.37
   3  -7   2   83.96    2.13
  -3  -7  -2   84.48    1.99
   3   7   3   84.99    2.18
  -3   7  -3   83.09    2.00
  -3   7  -3   86.36    1.86
  -3   7  -3   83.14    1.69
   3   7   3   86.74    2.15
  -3  -7  -3   79.95    1.97
  -3  -7  -3   85.19    1.96
  -3  -7  -3   81.65    1.94
  -3  -7  -3   78.38    2.34
   3  -7   3   83.52    1.64
  -3  -7  -3   83.69    1.70
   3  -7   3   85.49    1.63
   3  -7   3   78.99    2.08
  -3  -7  -3   78.31    1.83
  -3  -7  -3   80.51    1.83
  -3  -7  -3   80.11    2.18
   3   7   4   25.37    0.73
   3   7   4   25.20    0.87
  -3   7  -4   25.70    0.75
  -3   7  -4   26.15    0.93
  -3   7  -4   25.15    0.74
   3   7   4   24.33    0.85
  -3   7  -4   26.21    0.76
  -3  -7  -4   24.20    0.78
  -3  -7  -4   24.94    0.69
  -3  -7  -4   25.89    1.01
  -3  -7  -4   25.74    0.77
  -3  -7  -4   24.96    0.83
  -3  -7  -4   25.37    0.80
  -3  -7  -4   24.48    0.86
  -3  -7  -4   24.22    0.82
   3   7   5    8.86    0.53
  -3   7  -5   10.04    0.64
  -3   7  -5    9.70    0.49
   3   7   5    8.97    0.55
   3   7   5    8.26    0.53
  -3   7  -5    9.25    0.46
  -3   7  -5    9.14    0.46
  -3  -7  -5    9.98    0.52
  -3  -7  -5    9.38    0.48
  -3  -7  -5   10.15    0.62
  -3  -7  -5   10.41    0.57
  -3  -7  -5   10.44    0.60
  -3  -7  -5    9.59    0.62
  -3   7  -6    0.22    0.29
  -3   7  -6   -0.11    0.30
  -3   7  -6    0.31    0.28
   3   7   6   -0.09    0.31
  -3   7  -6    0.03    0.43
  -3  -7  -6    0.17    0.28
  -3  -7  -6   -0.07    0.38
  -3  -7  -6    0.47    0.39
  -3  -7  -6   -0.02    0.28
  -3  -7  -6    0.34    0.40
  -3  -7  -6    0.04    0.32
   3   8  -8    6.90    0.47
   3   8  -8    6.54    0.54
   3   8  -8    5.67    0.63
   3  -8  -8    7.29    0.53
   3  -8  -8    7.08    0.49
   3  -8  -8    7.40    0.49
   3  -8  -8    7.69    0.62
   3  -8  -8    7.49    0.65
   3   8  -7    1.75    0.28
   3   8  -7    2.78    0.47
   3   8  -7    2.48    0.32
   3   8  -7    2.38    0.33
   3  -8  -7    3.16    0.47
   3  -8  -7    1.85    0.30
   3  -8  -7    3.26    0.34
   3  -8  -7    1.69    0.38
   3  -8  -7    2.54    0.33
   3   8  -6    6.92    0.43
   3   8  -6    7.24    0.41
   3   8  -6    6.72    0.31
  -3   8   6    6.29    0.45
   3   8  -6    7.08    0.42
   3   8  -6    8.05    0.56
  -3   8   6    7.52    0.55
  -3  -8   6    7.16    0.55
   3  -8  -6    6.96    0.53
   3  -8  -6    7.05    0.35
   3  -8  -6    7.44    0.44
   3  -8  -6    7.37    0.43
   3   8  -5    1.39    0.23
   3   8  -5    1.67    0.23
  -3   8   5    1.31    0.29
   3   8  -5    1.24    0.24
   3   8  -5    1.44    0.33
   3  -8  -5    1.73    0.26
  -3  -8   5    1.39    0.28
   3  -8  -5    1.83    0.26
   3  -8  -5    1.38    0.30
  -3   8   4  100.04    2.16
  -3   8   4  100.06    2.56
  -3   8   4  101.35    2.62
   3   8  -4  100.79    2.52
   3  -8  -4  102.95    2.39
   3  -8  -4  101.40    2.57
  -3  -8   4  103.85    2.72
   3  -8  -4  101.32    2.62
  -3   8   3   97.04    2.40
  -3   8   3   90.73    1.97
   3   8  -3   90.84    2.31
  -3   8   3   88.24    2.33
  -3  -8   3   92.02    2.49
   3  -8  -3   91.40    2.35
   3  -8  -3   93.65    2.39
   3  -8  -3   93.58    1.77
   3  -8  -3   92.81    1.80
   3   8  -2  174.55    4.16
  -3   8   2  177.49    4.24
  -3   8   2  171.94    3.50
   3   8  -2  172.35    4.22
  -3   8   2  171.43    4.16
   3   8  -2  177.63    4.16
   3  -8  -2  175.67    3.22
   3  -8  -2  172.06    4.23
  -3  -8   2  167.85    4.47
   3  -8  -2  172.57    3.17
  -3  -8   2  168.54    4.14
   3  -8  -2  172.53    4.17
  -3  -8   2  166.45    3.49
  -3  -8   2  166.77    3.77
  -3   8   1  126.34    3.10
   3   8  -1  129.60    3.18
   3   8  -1  127.42    3.12
  -3   8   1  128.67    2.62
   3   8  -1  129.36    3.13
  -3  -8   1  125.33    3.11
   3  -8  -1  127.57    3.16
  -3  -8   1  125.19    3.38
   3  -8  -1  126.28    2.41
   3  -8  -1  127.80    3.12
  -3  -8   1  123.81    2.83
  -3  -8   1  124.75    2.62
   3  -8  -1  125.62    2.38
  -3   8   0  113.92    2.35
   3   8   0  116.71    2.89
   3   8   0  114.05    2.84
  -3   8   0  114.17    2.78
   3   8   0  113.34    2.83
   3  -8   0  114.35    2.19
  -3  -8   0  110.49    2.38
  -3  -8   0  110.30    2.81
  -3  -8   0  110.90    2.56
   3  -8   0  114.61    2.16
  -3  -8   0  112.01    3.07
   3   8   1    0.48    0.23
  -3   8  -1    0.32    0.14
  -3   8  -1    0.30    0.16
   3   8   1    0.24    0.23
   3   8   1    0.13    0.23
   3  -8   1    0.27    0.21
  -3  -8  -1    0.39    0.22
  -3  -8  -1    0.24    0.21
  -3  -8  -1    0.17    0.19
   3  -8   1    0.80    0.18
  -3  -8  -1    0.41    0.20
   3  -8   1    0.45    0.18
  -3  -8  -1    0.11    0.25
  -3   8  -2   11.33    0.44
  -3   8  -2   11.85    0.38
  -3   8  -2   11.23    0.41
   3   8   2   11.33    0.59
  -3   8  -2   11.02    0.41
   3   8   2   11.15    0.60
  -3  -8  -2   11.60    0.50
  -3  -8  -2   11.91    0.57
  -3  -8  -2   12.82    0.54
  -3  -8  -2   11.70    0.64
   3  -8   2   12.17    0.43
  -3  -8  -2   12.06    0.51
   3  -8   2   11.68    0.44
   3  -8   2   11.71    0.51
  -3   8  -3   26.57    0.74
  -3   8  -3   25.98    0.63
   3   8   3   27.08    0.92
  -3   8  -3   26.46    0.91
  -3   8  -3   26.96    0.76
   3   8   3   27.33    0.77
  -3   8  -3   26.00    0.74
   3   8   3   28.33    0.95
  -3  -8  -3   27.76    0.91
   3  -8   3   26.53    0.70
  -3  -8  -3   26.78    0.72
  -3  -8  -3   26.11    0.85
  -3  -8  -3   26.06    1.03
  -3  -8  -3   24.54    0.78
   3  -8   3   27.41    0.84
   3  -8   3   26.92    0.69
  -3  -8  -3   26.48    0.84
  -3   8  -4   16.33    0.58
  -3   8  -4   16.60    0.74
   3   8   4   16.50    0.73
  -3   8  -4   17.70    0.62
   3   8   4   16.28    0.64
   3   8   4   17.95    0.73
   3  -8   4   17.61    0.55
  -3  -8  -4   15.62    0.68
  -3  -8  -4   15.97    0.68
   3  -8   4   17.79    0.54
  -3  -8  -4   16.82    0.71
  -3  -8  -4   15.80    0.63
  -3  -8  -4   16.20    0.57
  -3  -8  -4   15.45    0.70
  -3  -8  -4   15.15    0.83
  -3  -8  -4   16.05    0.67
  -3   8  -5    3.90    0.37
  -3   8  -5    4.22    0.52
  -3   8  -5    3.73    0.35
   3   8   5    3.61    0.41
  -3  -8  -5    3.95    0.39
  -3  -8  -5    3.64    0.35
  -3  -8  -5    4.85    0.46
  -3  -8  -5    3.36    0.42
  -3  -8  -5    3.03    0.44
  -3  -8  -5    3.89    0.46
  -3   8  -6   31.48    0.99
  -3   8  -6   30.50    0.98
   3   8   6   32.41    0.98
  -3   8  -6   31.76    1.24
  -3  -8  -6   28.71    1.13
  -3  -8  -6   32.83    1.06
  -3  -8  -6   32.27    1.02
  -3  -8  -6   31.53    0.92
  -3  -8  -6   31.45    1.12
  -3  -8  -6   30.58    1.06
   3   9  -8   23.28    0.85
   3   9  -8   24.70    1.06
   3   9  -8   23.06    0.87
   3  -9  -8   25.99    1.04
   3  -9  -8   23.68    0.94
   3  -9  -8   23.16    0.86
   3  -9  -8   24.27    0.80
   3  -9  -8   22.01    0.85
   3   9  -7    8.30    0.65
   3   9  -7    7.32    0.48
   3   9  -7    6.84    0.45
   3   9  -7    7.12    0.52
  -3   9   7    8.22    0.52
   3   9  -7    7.34    0.50
   3  -9  -7    8.51    0.54
   3  -9  -7    7.74    0.51
   3  -9  -7    8.91    0.70
   3  -9  -7    7.30    0.58
   3   9  -6   62.00    1.33
  -3   9   6   65.23    1.86
   3   9  -6   62.35    1.57
  -3   9   6   61.51    1.46
   3   9  -6   60.72    1.55
   3   9  -6   64.37    1.66
   3   9  -6   65.09    1.82
   3   9  -6   65.38    1.61
   3  -9  -6   63.35    1.30
   3  -9  -6   66.99    1.72
   3  -9  -6   60.94    1.60
   3  -9  -6   65.68    1.45
   3   9  -5    0.89    0.25
   3   9  -5    1.11    0.35
  -3   9   5    1.65    0.28
   3   9  -5    1.33    0.19
  -3   9   5    0.93    0.31
  -3  -9   5    1.24    0.29
   3  -9  -5    0.88    0.21
   3  -9  -5    1.14    0.28
   3  -9  -5    1.13    0.32
   3  -9  -5    1.28    0.27
  -3   9   4   35.39    0.91
   3   9  -4   34.89    0.97
  -3   9   4   35.41    1.09
  -3   9   4   35.83    1.12
   3   9  -4   35.74    0.82
   3   9  -4   32.63    1.09
   3  -9  -4   32.95    0.90
  -3  -9   4   33.50    1.11
   3  -9  -4   34.41    0.78
   3  -9  -4   35.17    1.09
   3  -9  -4   35.60    1.12
   3  -9  -4   34.36    0.76
   3  -9  -4   34.73    1.02
   3   9  -3   -0.01    0.19
  -3   9   3    0.32    0.23
  -3   9   3    0.54    0.24
   3  -9  -3    0.07    0.24
  -3  -9   3    0.41    0.26
   3  -9  -3   -0.13    0.24
   3  -9  -3    0.02    0.16
   3  -9  -3    0.13    0.16
   3   9  -2    0.49    0.23
   3   9  -2    0.66    0.22
  -3   9   2    0.42    0.22
  -3   9   2    1.13    0.25
   3   9  -2    0.48    0.23
  -3  -9   2    0.68    0.19
  -3  -9   2    0.59    0.20
   3  -9  -2    1.03    0.19
   3  -9  -2    0.51    0.24
   3  -9  -2    0.83    0.18
   3  -9  -2    0.98    0.27
  -3  -9   2    0.96    0.28
  -3   9   1   14.40    0.59
   3   9  -1   13.96    0.62
  -3   9   1   14.29    0.50
   3   9  -1   14.07    0.61
  -3   9   1   14.54    0.58
   3   9  -1   14.03    0.61
   3  -9  -1   14.83    0.61
   3  -9  -1   14.24    0.61
  -3  -9   1   14.28    0.70
  -3  -9   1   14.56    0.55
  -3  -9   1   14.11    0.51
   3  -9  -1   14.09    0.46
  -3  -9   1   14.37    0.60
   3  -9  -1   14.05    0.47
  -3   9   0   15.82    0.61
   3   9   0   16.55    0.67
   3   9   0   16.15    0.69
   3   9   0   16.28    0.66
  -3   9   0   14.98    0.52
  -3  -9   0   16.94    0.56
  -3  -9   0   15.48    0.64
  -3  -9   0   16.11    0.55
  -3  -9   0   16.30    0.73
  -3  -9   0   16.43    0.60
   3  -9   0   15.93    0.50
   3  -9   0   16.29    0.50
   3  -9   0   16.24    0.65
   3   9   1    9.02    0.54
   3   9   1    8.66    0.54
  -3   9  -1    8.78    0.43
  -3   9  -1    8.35    0.37
   3   9   1    8.19    0.53
  -3  -9  -1    9.12    0.45
  -3  -9  -1    8.38    0.46
   3  -9   1    9.22    0.40
  -3  -9  -1    8.67    0.51
  -3  -9  -1    7.57    0.47
   3  -9   1    9.48    0.42
   3  -9   1    8.54    0.49
  -3  -9  -1    8.26    0.58
  -3   9  -2   67.06    1.47
   3   9   2   66.69    1.88
  -3   9  -2   65.81    1.75
   3   9   2   69.29    1.51
  -3   9  -2   70.08    1.42
   3   9   2   66.66    1.92
  -3  -9  -2   69.23    1.59
   3  -9   2   68.96    1.46
   3  -9   2   68.33    1.43
   3  -9   2   67.59    1.83
  -3  -9  -2   68.32    1.47
  -3  -9  -2   69.53    1.72
  -3  -9  -2   70.47    2.04
  -3  -9  -2   68.75    1.70
   3   9   3   11.78    0.66
   3   9   3   12.45    0.55
  -3   9  -3   11.58    0.39
  -3   9  -3   12.69    0.40
   3   9   3   11.25    0.66
  -3   9  -3   12.31    0.49
  -3   9  -3   12.26    0.62
  -3   9  -3   11.40    0.47
  -3  -9  -3   11.94    0.55
   3  -9   3   12.19    0.49
  -3  -9  -3   12.61    0.61
  -3  -9  -3   12.05    0.50
   3  -9   3   11.71    0.54
  -3  -9  -3   12.14    0.60
  -3  -9  -3   12.02    0.61
   3  -9   3   11.81    0.50
  -3  -9  -3   11.83    0.72
  -3   9  -4   61.95    1.78
  -3   9  -4   62.79    1.28
  -3   9  -4   63.53    1.53
  -3   9  -4   63.51    1.52
   3   9   4   61.19    1.44
  -3  -9  -4   63.62    1.62
  -3  -9  -4   60.55    1.42
  -3  -9  -4   60.35    1.96
  -3  -9  -4   61.39    1.63
  -3  -9  -4   61.47    1.71
   3  -9   4   61.46    1.36
   3  -9   4   60.85    1.34
  -3   9  -5   15.39    0.63
   3   9   5   15.34    0.71
  -3   9  -5   15.50    0.84
  -3   9  -5   15.95    0.66
  -3  -9  -5   15.06    0.80
  -3  -9  -5   15.00    0.72
  -3  -9  -5   16.40    0.67
  -3  -9  -5   16.98    0.74
   3  10  -7    0.12    0.30
   3  10  -7    0.04    0.21
  -3  10   7   -0.20    0.31
   3  10  -7    0.53    0.34
   3  10  -7   -0.45    0.30
   3  10  -7    0.11    0.27
   3  10  -7    0.15    0.43
   3 -10  -7   -0.09    0.31
   3 -10  -7    0.44    0.39
   3 -10  -7    0.82    0.41
   3 -10  -7    0.17    0.31
   3  10  -6    0.96    0.23
   3  10  -6    1.15    0.31
   3  10  -6    0.86    0.26
   3  10  -6    0.51    0.28
  -3  10   6    0.78    0.31
   3  10  -6    1.06    0.39
   3 -10  -6    0.23    0.29
   3 -10  -6    0.59    0.22
   3 -10  -6    1.14    0.38
   3  10  -5   21.53    0.87
  -3  10   5   21.86    0.70
   3  10  -5   20.79    0.61
   3  10  -5   21.31    0.75
  -3  10   5   23.28    0.92
   3 -10  -5   21.02    0.72
  -3 -10   5   20.43    0.85
   3 -10  -5   21.41    0.62
   3 -10  -5   20.41    0.80
  -3  10   4    8.00    0.55
  -3  10   4    8.44    0.60
   3  10  -4    8.73    0.49
   3  10  -4    8.38    0.39
  -3  10   4    8.47    0.45
   3  10  -4    9.26    0.53
   3 -10  -4    8.76    0.49
   3 -10  -4    8.13    0.52
   3 -10  -4    9.57    0.63
   3 -10  -4    8.63    0.38
   3 -10  -4    8.14    0.38
   3 -10  -4    8.26    0.38
  -3 -10   4    8.14    0.56
  -3  10   3   47.52    1.15
  -3  10   3   48.03    1.42
   3  10  -3   49.19    1.30
  -3  10   3   50.19    1.46
   3  10  -3   48.22    1.10
  -3 -10   3   46.34    1.49
  -3 -10   3   49.34    1.07
   3 -10  -3   49.98    1.45
   3 -10  -3   47.44    1.05
   3 -10  -3   51.07    1.48
   3 -10  -3   50.99    1.08
   3 -10  -3   48.42    1.07
  -3  10   2    9.66    0.54
  -3  10   2    9.11    0.52
   3  10  -2    9.17    0.41
   3 -10  -2   10.42    0.57
   3 -10  -2    9.44    0.57
   3 -10  -2    8.55    0.40
  -3 -10   2    8.44    0.59
   3 -10  -2    9.22    0.40
   3  10  -1   60.62    1.68
   3  10  -1   58.07    1.67
   3  10  -1   57.57    1.69
  -3  10   1   61.49    1.66
  -3 -10   1   60.10    1.66
  -3 -10   1   60.07    1.81
   3 -10  -1   61.32    1.30
   3 -10  -1   60.52    1.68
   3 -10  -1   58.73    1.27
  -3 -10   1   60.23    1.51
  -3 -10   1   61.45    1.41
   3  10   0   14.21    0.69
   3  10   0   14.43    0.70
  -3  10   0   14.24    0.50
   3  10   0   15.42    0.68
  -3  10   0   14.59    0.53
  -3 -10   0   14.87    0.57
  -3 -10   0   14.62    0.56
  -3 -10   0   15.39    0.73
  -3 -10   0   14.41    0.65
   3 -10   0   14.20    0.67
   3 -10   0   15.14    0.53
  -3 -10   0   15.50    0.62
   3 -10   0   14.84    0.52
   3  10   1   54.01    1.58
  -3  10  -1   55.37    1.20
  -3  10  -1   52.29    1.24
   3  10   1   52.12    1.60
   3  10   1   54.20    1.25
   3  10   1   54.79    1.58
  -3 -10  -1   53.42    1.22
   3 -10   1   52.21    1.53
   3 -10   1   53.87    1.22
  -3 -10  -1   57.67    1.71
   3 -10   1   53.67    1.21
  -3 -10  -1   53.93    1.42
  -3 -10  -1   53.38    1.40
  -3 -10  -1   54.25    1.32
  -3  10  -2   20.74    0.76
   3  10   2   17.84    0.85
   3  10   2   18.96    0.64
  -3  10  -2   19.88    0.68
   3  10   2   17.11    0.81
  -3  10  -2   19.02    0.57
  -3  10  -2   19.47    0.57
  -3 -10  -2   17.83    0.68
   3 -10   2   18.58    0.65
  -3 -10  -2   19.65    0.62
  -3 -10  -2   19.51    0.75
  -3 -10  -2   19.45    0.74
   3 -10   2   19.42    0.61
   3 -10   2   18.67    0.62
   3 -10   2   18.81    0.74
  -3 -10  -2   20.40    0.89
  -3  10  -3    4.18    0.37
  -3  10  -3    4.69    0.46
   3  10   3    2.83    0.44
  -3  10  -3    3.97    0.30
   3  10   3    3.58    0.38
  -3  10  -3    4.00    0.27
   3  10   3    3.43    0.45
  -3 -10  -3    3.89    0.35
   3 -10   3    4.00    0.36
  -3 -10  -3    3.78    0.41
  -3 -10  -3    4.82    0.38
   3 -10   3    4.02    0.35
  -3 -10  -3    3.40    0.46
   3 -10   3    3.63    0.36
  -3 -10  -3    4.01    0.39
   3  10   4    3.26    0.39
  -3  10  -4    2.84    0.36
  -3  10  -4    2.65    0.43
  -3  10  -4    3.12    0.26
  -3  10  -4    3.13    0.34
  -3 -10  -4    2.68    0.44
  -3 -10  -4    3.02    0.37
  -3 -10  -4    3.36    0.37
   3 -10   4    2.53    0.35
  -3 -10  -4    2.92    0.44
   3 -10   4    2.45    0.34
  -3  10  -5   14.69    0.65
   3  10   5   14.96    0.70
  -3  10  -5   13.92    0.80
  -3  10  -5   12.56    0.64
  -3 -10  -5   13.95    0.77
  -3 -10  -5   13.91    0.65
  -3 -10  -5   14.90    0.73
  -3 -10  -5   13.79    0.77
   3  11  -7   22.56    0.88
   3  11  -7   23.98    0.92
   3  11  -7   24.07    0.71
  -3  11   7   23.25    0.84
   3  11  -7   23.93    1.06
   3 -11  -7   25.38    1.00
   3 -11  -7   24.77    0.97
  -3 -11   7   22.72    0.76
   3 -11  -7   23.74    0.84
   3  11  -6    3.57    0.40
   3  11  -6    3.05    0.35
   3  11  -6    3.67    0.31
  -3  11   6    3.74    0.40
   3  11  -6    4.45    0.53
   3  11  -6    4.89    0.46
   3 -11  -6    3.84    0.49
  -3 -11   6    4.67    0.40
   3 -11  -6    3.61    0.40
   3 -11  -6    3.89    0.34
   3  11  -5   31.29    0.82
  -3  11   5   30.51    0.89
   3  11  -5   31.79    1.08
   3  11  -5   30.12    0.99
   3 -11  -5   30.39    0.81
  -3 -11   5   31.46    0.83
   3 -11  -5   30.91    0.92
   3 -11  -5   31.37    1.05
  -3  11   4    3.21    0.42
  -3  11   4    2.76    0.32
   3  11  -4    2.62    0.35
   3  11  -4    2.89    0.28
   3  11  -4    3.60    0.41
   3 -11  -4    2.93    0.39
   3 -11  -4    2.71    0.34
   3 -11  -4    3.16    0.30
   3 -11  -4    3.28    0.43
  -3 -11   4    3.56    0.42
  -3 -11   4    3.05    0.32
  -3  11   3    5.42    0.38
  -3  11   3    4.65    0.44
   3  11  -3    4.68    0.42
   3  11  -3    5.45    0.38
  -3  11   3    4.86    0.34
  -3 -11   3    4.59    0.34
   3 -11  -3    5.60    0.38
   3 -11  -3    5.50    0.35
   3 -11  -3    5.30    0.37
   3 -11  -3    4.97    0.33
   3 -11  -3    5.06    0.47
   3 -11  -3    5.63    0.38
  -3 -11   3    5.56    0.48
   3 -11  -3    4.92    0.41
  -3  11   2    0.52    0.28
  -3  11   2    0.22    0.23
   3  11  -2    0.04    0.21
  -3  11   2    0.47    0.24
   3  11  -2   -0.08    0.24
   3 -11  -2    0.50    0.23
   3 -11  -2    0.64    0.23
   3 -11  -2    0.54    0.31
  -3 -11   2    0.09    0.23
   3 -11  -2    0.47    0.24
   3 -11  -2    0.39    0.32
  -3 -11   2    0.54    0.33
   3  11  -1    9.03    0.61
  -3  11   1   10.07    0.46
   3  11  -1    9.83    0.60
   3  11  -1    9.49    0.49
  -3  11   1    9.65    0.45
   3  11  -1   10.54    0.48
  -3 -11   1   10.55    0.55
  -3 -11   1   10.19    0.52
  -3 -11   1   10.40    0.45
   3 -11  -1   10.32    0.48
  -3 -11   1   10.44    0.66
   3 -11  -1    9.65    0.45
   3 -11  -1   10.90    0.63
   3 -11  -1   10.47    0.48
   3  11   0   14.81    0.55
   3  11   0   15.34    0.76
  -3  11   0   14.75    0.55
  -3  11   0   14.28    0.51
   3  11   0   15.46    0.58
   3  11   0   15.53    0.62
   3  11   0   15.07    0.73
  -3  11   0   13.48    0.56
  -3 -11   0   15.81    0.76
  -3 -11   0   15.61    0.70
   3 -11   0   15.53    0.71
   3 -11   0   13.49    0.55
   3 -11   0   14.69    0.53
  -3 -11   0   14.77    0.65
  -3 -11   0   15.55    0.61
   3 -11   0   14.38    0.56
  -3 -11   0   14.18    0.59
   3  11   1   67.01    1.53
  -3  11  -1   67.75    1.49
   3  11   1   68.05    1.96
  -3  11  -1   64.95    1.53
  -3  11  -1   67.32    1.47
   3  11   1   68.87    1.69
   3  11   1   68.42    1.49
  -3  11  -1   70.00    1.67
   3  11   1   67.75    1.92
   3 -11   1   64.36    1.47
   3 -11   1   69.22    1.88
  -3 -11  -1   64.16    1.69
   3 -11   1   66.96    1.41
  -3 -11  -1   66.88    1.50
  -3 -11  -1   67.38    1.60
   3 -11   1   66.80    1.49
  -3 -11  -1   66.23    1.72
  -3 -11  -1   71.55    2.05
   3  11   2   17.99    0.85
   3  11   2   17.54    0.69
  -3  11  -2   17.30    0.57
  -3  11  -2   17.60    0.59
  -3  11  -2   18.33    0.74
   3  11   2   17.79    0.87
  -3  11  -2   18.35    0.68
   3  11   2   19.01    0.71
  -3  11  -2   17.30    0.59
  -3 -11  -2   17.28    0.74
   3 -11   2   17.55    0.67
   3 -11   2   18.23    0.59
   3 -11   2   17.92    0.64
  -3 -11  -2   18.32    0.75
   3 -11   2   18.19    0.76
  -3 -11  -2   17.93    0.63
  -3 -11  -2   18.00    0.69
  -3 -11  -2   17.60    0.89
  -3  11  -3   79.93    2.15
  -3  11  -3   78.30    1.72
  -3  11  -3   82.76    1.67
  -3  11  -3   78.32    1.92
   3  11   3   78.62    1.82
  -3 -11  -3   79.06    2.00
   3 -11   3   79.99    2.10
  -3 -11  -3   79.08    1.77
  -3 -11  -3   79.57    2.04
   3 -11   3   79.82    1.74
   3 -11   3   78.70    1.71
   3  11   4    3.52    0.43
  -3  11  -4    3.03    0.42
  -3  11  -4    4.60    0.52
  -3  11  -4    3.68    0.30
   3 -11   4    3.16    0.39
   3 -11   4    3.54    0.41
  -3 -11  -4    2.97    0.47
  -3 -11  -4    3.04    0.38
  -3 -11  -4    4.11    0.44
  -3  12   6    3.07    0.39
   3  12  -6    2.74    0.32
   3  12  -6    2.76    0.39
   3  12  -6    2.50    0.50
   3  12  -6    2.35    0.43
   3  12  -6    2.81    0.37
   3 -12  -6    2.57    0.34
   3 -12  -6    2.78    0.41
  -3 -12   6    2.34    0.39
   3 -12  -6    2.85    0.49
   3  12  -5    5.47    0.52
   3  12  -5    5.26    0.37
  -3  12   5    5.11    0.42
   3  12  -5    5.26    0.51
   3 -12  -5    5.78    0.54
   3 -12  -5    4.42    0.38
   3 -12  -5    5.21    0.43
  -3 -12   5    5.32    0.41
   3  12  -4   27.91    0.81
  -3  12   4   28.89    1.13
   3  12  -4   29.00    1.00
   3  12  -4   27.45    0.96
  -3  12   4   28.23    1.08
  -3  12   4   29.05    0.86
   3 -12  -4   26.96    0.86
  -3 -12   4   27.84    1.08
  -3 -12   4   28.10    0.82
   3 -12  -4   28.80    0.99
   3 -12  -4   26.80    0.77
   3 -12  -4   28.42    1.11
  -3  12   3   23.78    0.74
   3  12  -3   25.11    0.75
  -3  12   3   28.25    1.04
  -3  12   3   25.23    0.81
   3  12  -3   25.50    0.89
  -3  12   3   26.99    1.00
  -3 -12   3   25.95    0.74
   3 -12  -3   26.19    0.79
   3 -12  -3   25.29    0.73
   3 -12  -3   25.09    0.74
   3 -12  -3   24.68    0.74
   3 -12  -3   25.02    0.82
   3 -12  -3   26.76    1.03
   3 -12  -3   25.36    0.90
  -3 -12   3   27.40    1.07
   3  12  -2   53.57    1.46
  -3  12   2   51.99    1.26
  -3  12   2   54.86    1.29
   3  12  -2   56.28    1.27
  -3 -12   2   55.30    1.71
   3 -12  -2   52.79    1.20
  -3 -12   2   53.03    1.20
   3 -12  -2   51.89    1.21
   3 -12  -2   56.02    1.65
   3 -12  -2   52.29    1.22
   3  12  -1   34.25    1.04
   3  12  -1   33.49    0.89
  -3  12   1   34.86    1.03
   3  12  -1   34.48    0.91
  -3  12   1   33.16    0.91
  -3  12   1   32.89    0.90
   3 -12  -1   34.41    1.17
  -3 -12   1   33.96    0.84
   3 -12  -1   33.82    0.88
   3 -12  -1   34.06    0.87
  -3 -12   1   33.98    1.21
   3 -12  -1   32.56    0.90
  -3  12   0   45.03    1.14
   3  12   0   47.57    1.28
   3  12   0   46.19    1.16
  -3  12   0   45.97    1.12
   3  12   0   44.03    1.10
   3  12   0   48.20    1.45
  -3  12   0   46.60    1.26
   3  12   0   47.19    1.48
  -3  12   0   44.87    1.18
   3 -12   0   45.04    1.10
  -3 -12   0   45.55    1.20
  -3 -12   0   46.84    1.05
  -3 -12   0   44.57    1.30
   3 -12   0   46.65    1.44
   3 -12   0   45.53    1.14
   3 -12   0   46.58    1.09
  -3 -12   0   44.38    1.25
  -3 -12   0   45.23    1.19
  -3 -12   0   46.89    1.52
   3  12   1   10.61    0.73
   3  12   1   10.13    0.57
   3  12   1   11.86    0.56
   3  12   1    9.51    0.50
  -3  12  -1    9.86    0.50
   3  12   1   11.45    0.74
  -3  12  -1    9.61    0.50
  -3  12  -1   10.81    0.49
  -3  12  -1   10.11    0.49
  -3 -12  -1    9.97    0.63
   3 -12   1    9.94    0.55
  -3 -12  -1   10.24    0.59
   3 -12   1    9.80    0.53
   3 -12   1   10.68    0.66
   3 -12   1    9.68    0.48
  -3 -12  -1   11.14    0.58
  -3 -12  -1   10.75    0.51
  -3  12  -2    7.69    0.55
  -3  12  -2    7.12    0.50
   3  12   2    8.27    0.54
  -3  12  -2    7.64    0.45
  -3  12  -2    6.70    0.42
   3  12   2    7.27    0.53
  -3  12  -2    6.96    0.45
  -3 -12  -2    8.53    0.52
   3 -12   2    7.07    0.47
  -3 -12  -2    7.31    0.57
   3 -12   2    7.49    0.48
  -3 -12  -2    8.71    0.55
   3 -12   2    6.68    0.48
  -3 -12  -2    7.33    0.59
  -3  12  -3    0.05    0.36
  -3  12  -3    0.22    0.21
  -3  12  -3    0.17    0.24
   3  12   3    0.52    0.37
  -3  12  -3    0.13    0.31
   3  12   3   -0.14    0.31
   3 -12   3   -0.10    0.34
  -3 -12  -3    0.01    0.31
   3 -12   3    0.03    0.32
   3 -12   3    0.19    0.29
  -3 -12  -3    0.19    0.36
  -3 -12  -3   -0.09    0.30
  -3  12  -4    3.07    0.51
   3  12   4    2.29    0.46
  -3  12  -4    3.27    0.45
  -3  12  -4    3.21    0.32
   3 -12   4    2.73    0.42
  -3 -12  -4    3.04    0.41
  -3 -12  -4    3.31    0.43
  -3 -12  -4    3.07    0.50
   3 -12   4    3.06    0.43
  -3  13   5    0.07    0.34
   3  13  -5    0.33    0.37
   3  13  -5   -0.03    0.26
   3  13  -5    0.10    0.40
   3 -13  -5    0.72    0.42
   3 -13  -5   -0.25    0.28
   3 -13  -5    0.41    0.34
  -3 -13   5    0.35    0.33
   3  13  -4   11.68    0.71
  -3  13   4   13.69    0.62
   3  13  -4   13.28    0.60
  -3 -13   4   13.76    0.63
   3 -13  -4   13.14    0.69
   3 -13  -4   12.87    0.60
   3 -13  -4   13.27    0.65
  -3  13   3    0.10    0.28
  -3  13   3    0.25    0.34
  -3  13   3    0.65    0.29
   3  13  -3    0.13    0.33
  -3  13   3    0.13    0.31
   3  13  -3    0.20    0.27
   3 -13  -3    0.22    0.30
   3 -13  -3    0.03    0.27
   3 -13  -3   -0.02    0.35
   3 -13  -3   -0.27    0.27
  -3 -13   3   -0.01    0.29
   3 -13  -3    0.21    0.32
  -3 -13   3    0.56    0.38
  -3  13   2    1.38    0.31
  -3  13   2    2.54    0.32
   3  13  -2    2.08    0.31
   3  13  -2    1.55    0.37
   3 -13  -2    1.54    0.31
   3 -13  -2    2.14    0.32
  -3 -13   2    1.85    0.44
   3 -13  -2    1.85    0.33
  -3 -13   2    1.89    0.32
   3 -13  -2    1.97    0.37
   3  13  -1    0.22    0.33
   3  13  -1    0.27    0.26
   3  13  -1    0.48    0.26
  -3  13   1    0.86    0.28
  -3  13   1    0.58    0.26
  -3  13   1    0.79    0.32
  -3 -13   1    0.63    0.28
   3 -13  -1    0.62    0.28
   3 -13  -1    0.34    0.30
   3 -13  -1    0.37    0.28
   3  13   0    3.03    0.36
  -3  13   0    3.30    0.35
  -3  13   0    2.72    0.33
   3  13   0    2.96    0.34
   3  13   0    2.74    0.39
  -3  13   0    4.00    0.37
  -3  13   0    2.68    0.36
   3 -13   0    2.92    0.36
  -3 -13   0    3.03    0.36
   3 -13   0    2.98    0.38
  -3 -13   0    2.61    0.37
   3 -13   0    3.55    0.37
  -3 -13   0    3.27    0.32
  -3  13  -1    0.42    0.26
  -3  13  -1    1.00    0.28
   3  13   1    0.91    0.35
  -3  13  -1    0.63    0.26
   3  13   1    0.75    0.29
   3  13   1    0.88    0.35
  -3  13  -1    1.16    0.27
  -3 -13  -1    1.37    0.36
   3 -13   1    0.19    0.33
   3 -13   1    0.89    0.34
  -3 -13  -1    0.86    0.32
   3 -13   1    0.82    0.30
  -3 -13  -1    1.29    0.32
  -3 -13  -1    1.00    0.31
  -3  13  -2   26.17    0.91
   3  13   2   24.58    0.89
  -3  13  -2   25.38    0.77
  -3  13  -2   22.73    0.75
  -3  13  -2   23.96    0.77
   3  13   2   25.27    0.90
   3 -13   2   25.96    0.88
  -3 -13  -2   24.96    0.95
  -3 -13  -2   24.99    0.83
  -3 -13  -2   26.22    0.95
   3 -13   2   26.19    0.86
   3 -13   2   24.65    0.77
   3  13   3    1.42    0.42
  -3  13  -3    1.18    0.26
  -3  13  -3    1.12    0.41
  -3  13  -3    2.18    0.31
  -3  13  -3    1.40    0.42
   3  13   3    1.08    0.39
  -3 -13  -3    2.32    0.41
  -3 -13  -3    1.94    0.45
   3 -13   3    1.10    0.38
   3 -13   3    1.38    0.40
   3 -13   3    1.30    0.33
  -3 -13  -3    0.73    0.34
  -3  14   4    4.32    0.43
   3  14  -4    3.09    0.48
   3  14  -4    4.46    0.40
  -3  14   4    4.17    0.44
   3 -14  -4    3.66    0.50
   3 -14  -4    3.17    0.41
  -3 -14   4    3.41    0.41
   3 -14  -4    3.76    0.41
  -3  14   3   23.63    0.80
   3  14  -3   23.98    0.80
  -3  14   3   23.19    0.85
   3  14  -3   24.57    0.93
   3 -14  -3   22.63    0.78
   3 -14  -3   24.95    0.86
   3 -14  -3   23.97    0.78
   3 -14  -3   25.48    0.96
  -3 -14   3   24.94    0.80
   3 -14  -3   23.58    0.79
  -3  14   2    3.74    0.38
  -3  14   2    4.32    0.40
   3  14  -2    3.98    0.38
   3  14  -2    3.91    0.47
   3 -14  -2    3.90    0.46
   3 -14  -2    3.93    0.40
  -3 -14   2    3.49    0.38
   3 -14  -2    3.74    0.39
   3 -14  -2    3.64    0.39
  -3  14   1   28.02    0.87
  -3  14   1   29.89    0.93
  -3  14   1   28.29    0.97
  -3  14   1   27.70    0.87
   3  14  -1   27.31    0.86
   3  14  -1   29.63    0.99
   3 -14  -1   27.66    0.83
  -3 -14   1   27.65    0.81
   3 -14  -1   29.34    1.00
   3 -14  -1   28.71    0.88
   3 -14  -1   30.30    0.89
  -3  14   0    7.02    0.49
   3  14   0    8.68    0.56
  -3  14   0    9.34    0.54
   3  14   0    8.09    0.54
  -3  14   0    8.82    0.57
  -3  14   0    7.72    0.55
   3  14   0    7.88    0.51
   3 -14   0    8.75    0.52
   3 -14   0    8.20    0.52
   3 -14   0    7.86    0.51
  -3 -14   0    7.94    0.51
  -3  14  -1    8.04    0.49
   3  14   1    6.39    0.51
   3  14   1    7.78    0.54
   3  14   1    8.38    0.59
  -3  14  -1    8.11    0.53
  -3  14  -1    6.75    0.51
  -3  14  -1    8.74    0.55
   3 -14   1    8.27    0.56
  -3 -14  -1    8.49    0.62
  -3 -14  -1    7.95    0.57
   3 -14   1    7.66    0.52
   3 -14   1    8.63    0.59
  -3 -14  -1    7.38    0.54
   3  14   2   10.92    0.65
  -3  14  -2   10.84    0.58
  -3  14  -2    9.72    0.56
   3  14   2    9.14    0.62
  -3 -14  -2   10.41    0.63
  -3 -14  -2   11.18    0.74
   3 -14   2   10.23    0.70
   3 -14   2   10.97    0.68
   3 -14   2   10.80    0.55
  -3 -14  -2   10.79    0.74
  -3  15   2    0.35    0.31
  -3  15   2   -0.04    0.35
   3  15  -2    0.62    0.41
   3  15  -2   -0.32    0.30
  -3  15   2    0.99    0.33
  -3  15   2    0.36    0.33
   3 -15  -2   -0.73    0.32
   3 -15  -2   -0.19    0.36
   3 -15  -2   -0.53    0.38
  -3 -15   2    0.27    0.31
   3 -15  -2   -0.48    0.32
   3  15  -1    4.02    0.48
   3  15  -1    3.57    0.40
  -3  15   1    4.41    0.43
  -3  15   1    3.67    0.42
  -3  15   1    3.82    0.45
  -3  15   1    4.37    0.41
   3 -15  -1    3.09    0.41
   3 -15  -1    3.41    0.42
   3 -15  -1    3.83    0.49
   3 -15  -1    3.43    0.42
  -3 -15   1    4.24    0.39
   3  15   0    3.17    0.44
  -3  15   0    3.30    0.38
  -3  15   0    2.90    0.41
  -3  15   0    3.35    0.40
   3  15   0    3.04    0.40
  -3  15   0    4.48    0.44
   3  15   0    2.82    0.39
   3 -15   0    3.17    0.46
  -3 -15   0    3.02    0.36
   3 -15   0    4.34    0.42
   3 -15   0    3.50    0.44
   3 -15   0    2.94    0.41
   4   0 -10    2.02    0.36
   4   0 -10    2.08    0.43
   4   0 -10    1.49    0.41
   4   0  -9   -0.12    0.26
   4   0  -9   -0.12    0.30
   4   0  -9    0.10    0.34
   4   0  -9   -0.43    0.40
   4   0  -9   -0.08    0.24
   4   0  -8   36.94    0.81
   4   0  -8   38.64    1.01
  -4   0   8   36.80    1.18
   4   0  -8   37.95    1.01
   4   0  -8   38.12    0.80
   4   0  -8   35.80    1.04
   4   0  -8   34.47    1.09
   4   0  -7   -0.05    0.12
   4   0  -7    0.59    0.19
   4   0  -7    0.02    0.17
  -4   0   7   -0.04    0.23
   4   0  -6  154.00    3.37
   4   0  -6  155.79    3.67
  -4   0   6  156.36    4.00
   4   0  -5   -0.04    0.10
  -4   0   5   -0.10    0.16
  -4   0   4  300.36    7.71
  -4   0   4  310.13    6.04
   4   0  -4  296.16    7.16
  -4   0   4  323.02    7.16
   4   0  -4  309.44    6.48
  -4   0   3    0.27    0.09
  -4   0   3   -0.03    0.11
   4   0  -3    0.23    0.10
   4   0  -3    0.14    0.08
  -4   0   3    0.11    0.10
   4   0  -2  106.46    2.64
  -4   0   2  110.83    2.18
  -4   0   2  110.10    2.59
   4   0  -2  108.68    2.59
  -4   0   2  109.71    2.78
   4   0  -2  107.79    2.32
  -4   0   1   -0.23    0.07
   4   0  -1   -0.18    0.09
  -4   0   1   -0.17    0.09
   4   0  -1   -0.25    0.09
   4   0  -1   -0.05    0.07
  -4   0   1   -0.16    0.09
   4   0   0   25.63    0.68
  -4   0   0   25.28    0.57
  -4   0   0   25.00    0.72
  -4   0   0   24.35    0.67
  -4   0   0   25.32    0.61
  -4   0  -1    0.05    0.12
  -4   0  -1    0.37    0.10
   4   0   1    0.14    0.11
  -4   0  -1    0.02    0.08
  -4   0  -1    0.05    0.09
   4   0   1    0.23    0.11
  -4   0  -1    0.13    0.10
  -4   0  -2  132.56    2.97
  -4   0  -2  128.26    3.15
  -4   0  -2  135.10    2.87
  -4   0  -2  130.76    2.81
   4   0   2  135.89    3.20
  -4   0  -2  135.02    2.66
  -4   0  -3    0.27    0.13
  -4   0  -3    0.00    0.21
  -4   0  -3   -0.04    0.18
  -4   0  -3    0.06    0.15
  -4   0  -3    0.16    0.11
  -4   0  -3    0.10    0.12
   4   0   3    0.09    0.13
  -4   0  -4  112.75    2.41
   4   0   4  108.66    2.66
  -4   0  -4  110.54    2.66
  -4   0  -4  111.61    2.55
  -4   0  -4  108.38    2.41
  -4   0  -4  111.44    2.47
  -4   0  -4  109.62    2.24
  -4   0  -4  109.12    2.42
  -4   0  -5   -0.19    0.23
  -4   0  -5   -0.10    0.29
  -4   0  -5   -0.04    0.29
  -4   0  -5   -0.05    0.22
  -4   0  -5    0.11    0.27
  -4   0  -5    0.28    0.20
  -4   0  -6   37.79    1.16
  -4   0  -6   39.97    1.07
  -4   0  -6   39.35    1.05
  -4   0  -6   38.11    1.14
  -4   0  -6   38.44    1.21
   4   1 -10    9.15    0.63
   4   1 -10   10.57    0.64
   4  -1 -10    9.40    0.64
   4  -1 -10    9.82    0.59
   4   1  -9   14.62    0.68
   4   1  -9   15.31    0.65
   4   1  -9   14.60    0.59
   4   1  -9   15.59    0.64
   4   1  -9   15.19    0.91
   4  -1  -9   14.54    0.93
   4  -1  -9   15.63    0.44
   4  -1  -9   14.25    0.72
   4  -1  -9   14.52    0.62
   4  -1  -9   14.01    0.63
   4  -1  -9   14.89    0.61
   4   1  -8   11.82    0.40
  -4   1   8   11.11    0.62
   4   1  -8   12.33    0.53
   4   1  -8   11.49    0.48
   4   1  -8   11.10    0.57
   4   1  -8   13.15    0.36
   4   1  -8   12.19    0.52
   4   1  -8   11.77    0.55
   4  -1  -8   11.09    0.59
   4  -1  -8   12.02    0.40
   4  -1  -8   12.14    0.52
  -4  -1   8   12.08    0.62
   4  -1  -8   11.96    0.38
   4  -1  -8   11.21    0.48
   4  -1  -8   11.71    0.51
   4   1  -7    8.80    0.38
   4   1  -7    9.35    0.48
   4   1  -7    8.28    0.33
   4   1  -7    9.27    0.43
  -4   1   7    8.49    0.50
   4   1  -7    8.81    0.42
   4  -1  -7    8.77    0.39
  -4  -1   7    8.66    0.49
   4  -1  -7    8.39    0.35
   4  -1  -7    8.06    0.41
  -4   1   6    5.21    0.37
   4   1  -6    5.44    0.26
   4   1  -6    4.61    0.30
   4  -1  -6    5.12    0.29
  -4  -1   6    4.78    0.38
  -4   1   5    7.63    0.39
   4   1  -5    7.67    0.30
  -4  -1   5    7.99    0.38
   4  -1  -5    7.08    0.30
   4  -1  -5    7.14    0.30
   4   1  -4   21.94    0.61
  -4   1   4   21.62    0.67
   4   1  -4   21.39    0.56
   4   1  -4   22.71    0.61
   4   1  -4   21.56    0.62
  -4   1   4   22.24    0.61
  -4   1   4   21.64    0.51
   4  -1  -4   20.69    0.56
  -4  -1   4   22.57    0.61
  -4  -1   4   22.76    0.51
  -4  -1   4   20.99    0.67
   4  -1  -4   21.78    0.61
   4   1  -3  103.13    2.44
   4   1  -3  102.99    2.20
  -4   1   3  103.07    2.06
  -4   1   3  102.77    2.44
  -4   1   3  101.52    2.62
  -4  -1   3  103.14    2.63
  -4  -1   3  101.14    2.05
   4  -1  -3   98.62    2.48
   4  -1  -3  101.28    2.19
  -4  -1   3  100.05    2.21
   4  -1  -3  101.16    2.44
  -4  -1   3  105.95    2.44
  -4   1   2  250.13    4.88
   4   1  -2  245.16    5.90
   4   1  -2  246.16    5.79
  -4   1   2  249.08    5.79
   4   1  -2  244.22    5.22
  -4   1   2  247.70    6.21
   4  -1  -2  252.73    5.79
  -4  -1   2  249.54    5.79
   4  -1  -2  252.42    5.21
   4  -1  -2  242.48    5.90
  -4  -1   2  254.37    6.23
  -4  -1   2  248.51    4.88
  -4  -1   2  246.22    5.27
  -4   1   1  190.73    4.45
   4   1  -1  192.03    4.45
  -4   1   1  182.77    3.75
   4   1  -1  188.38    4.54
  -4   1   1  193.47    4.77
   4   1  -1  187.86    4.47
  -4  -1   1  188.48    4.05
   4  -1  -1  191.47    3.98
  -4  -1   1  190.07    4.79
  -4  -1   1  191.49    4.45
   4  -1  -1  193.40    4.45
   4  -1  -1  192.48    4.54
  -4  -1   1  187.93    3.75
  -4   1   0  252.65    4.98
  -4   1   0  260.33    5.90
   4   1   0  257.53    5.91
  -4   1   0  246.51    5.90
  -4   1   0  251.32    6.33
  -4  -1   0  247.87    6.37
  -4  -1   0  253.19    4.98
   4  -1   0  250.30    6.02
   4  -1   0  260.95    5.91
  -4  -1   0  254.97    5.91
  -4  -1   0  251.76    5.37
  -4   1  -1  129.47    2.96
   4   1   1  126.81    2.97
   4   1   1  124.62    3.02
  -4   1  -1  125.87    2.49
  -4   1  -1  126.64    2.69
  -4   1  -1  124.24    2.96
  -4   1  -1  110.57    3.17
   4   1   1  125.59    2.97
  -4  -1  -1  132.98    2.96
   4  -1   1  125.36    2.96
   4  -1   1  126.99    3.01
  -4  -1  -1  124.53    2.70
  -4  -1  -1  119.07    3.24
  -4  -1  -1  127.46    2.50
  -4  -1  -1  124.29    2.97
  -4   1  -2   50.31    1.05
   4   1   2   49.98    1.25
  -4   1  -2   48.62    1.24
   4   1   2   49.39    1.27
  -4   1  -2   49.88    1.13
  -4  -1  -2   47.78    1.25
  -4  -1  -2   50.42    1.14
  -4  -1  -2   50.37    1.37
   4  -1   2   52.17    1.26
  -4  -1  -2   49.84    1.06
  -4   1  -3   16.05    0.49
  -4   1  -3   16.22    0.44
  -4   1  -3   16.07    0.41
  -4   1  -3   15.54    0.53
   4   1   3   15.84    0.49
   4   1   3   16.05    0.50
  -4   1  -3   15.18    0.56
  -4   1  -3   15.49    0.48
  -4  -1  -3   15.79    0.47
   4  -1   3   15.70    0.48
  -4  -1  -3   16.25    0.51
  -4  -1  -3   16.32    0.55
  -4  -1  -3   15.70    0.58
  -4  -1  -3   15.33    0.51
  -4  -1  -3   15.37    0.43
  -4   1  -4    0.33    0.13
   4   1   4    0.41    0.16
  -4   1  -4    0.57    0.23
  -4   1  -4    0.33    0.14
  -4   1  -4    0.12    0.24
  -4   1  -4    0.51    0.19
   4  -1   4    0.34    0.14
  -4  -1  -4    0.10    0.18
  -4  -1  -4    0.37    0.15
  -4  -1  -4    0.13    0.23
  -4  -1  -4    0.61    0.26
  -4  -1  -4    0.42    0.17
  -4  -1  -4    0.37    0.16
  -4  -1  -4    0.60    0.20
  -4   1  -5    2.94    0.34
  -4   1  -5    3.06    0.38
  -4   1  -5    3.16    0.40
  -4   1  -5    2.92    0.27
  -4   1  -5    3.18    0.30
  -4  -1  -5    2.64    0.37
  -4  -1  -5    3.05    0.30
  -4  -1  -5    2.94    0.29
  -4  -1  -5    3.40    0.36
  -4  -1  -5    2.99    0.39
  -4   1  -6    8.81    0.65
  -4   1  -6    9.89    0.47
  -4   1  -6    9.25    0.63
  -4   1  -6    9.66    0.59
  -4  -1  -6    9.59    0.66
  -4  -1  -6   10.73    0.50
  -4  -1  -6    9.93    0.48
  -4  -1  -6   10.13    0.63
  -4  -1  -6   10.08    0.59
   4   2  -9    6.44    0.55
   4   2  -9    6.51    0.46
   4   2  -9    6.57    0.52
   4   2  -9    7.02    0.65
   4   2  -9    5.99    0.47
   4   2  -9    6.28    0.47
   4  -2  -9    7.07    0.34
   4  -2  -9    7.04    0.43
   4  -2  -9    6.04    0.54
   4  -2  -9    7.40    0.51
   4  -2  -9    6.03    0.47
   4   2  -8    1.84    0.34
   4   2  -8    2.17    0.28
   4   2  -8    1.73    0.21
   4   2  -8    2.04    0.17
   4   2  -8    1.49    0.27
   4   2  -8    1.69    0.31
  -4   2   8    2.20    0.35
   4   2  -8    2.47    0.31
   4  -2  -8    1.66    0.19
   4  -2  -8    1.67    0.21
   4  -2  -8    1.56    0.35
   4  -2  -8    1.69    0.27
   4  -2  -8    1.65    0.28
  -4  -2   8    1.82    0.32
   4  -2  -8    1.90    0.27
   4   2  -7   92.26    2.25
  -4   2   7   95.53    2.53
   4   2  -7   94.08    2.16
   4   2  -7   96.05    2.13
   4   2  -7   94.97    2.13
   4   2  -7   95.07    2.21
  -4  -2   7   91.92    2.50
   4  -2  -7   94.03    2.12
   4  -2  -7   89.97    2.27
   4  -2  -7   91.64    2.13
   4   2  -6    2.69    0.22
   4   2  -6    3.18    0.23
  -4   2   6    2.97    0.28
   4  -2  -6    2.71    0.23
   4  -2  -6    2.76    0.24
  -4  -2   6    2.48    0.27
   4   2  -5  195.78    4.63
  -4   2   5  191.55    5.02
   4  -2  -5  200.73    4.22
   4  -2  -5  200.01    4.64
  -4  -2   5  198.59    5.01
  -4   2   4    7.83    0.35
  -4   2   4    8.15    0.27
   4   2  -4    7.74    0.30
  -4   2   4    8.06    0.32
   4   2  -4    7.78    0.30
   4   2  -4    8.05    0.30
   4   2  -4    7.61    0.30
  -4  -2   4    8.12    0.31
  -4  -2   4    8.28    0.36
  -4  -2   4    7.53    0.27
   4  -2  -4    7.64    0.29
  -4  -2   4    7.67    0.25
   4  -2  -4    7.71    0.31
   4  -2  -4    7.76    0.32
   4   2  -3  104.50    2.48
  -4   2   3  104.88    2.49
   4   2  -3  105.21    2.25
  -4   2   3  104.98    2.67
  -4   2   3  104.26    2.10
  -4  -2   3  105.53    2.48
  -4  -2   3  103.20    2.68
   4  -2  -3  103.34    2.53
  -4  -2   3  101.10    2.09
  -4  -2   3  104.56    2.26
   4  -2  -3  102.37    2.48
   4  -2  -3  102.72    2.23
  -4   2   2   21.86    0.63
  -4   2   2   21.85    0.61
   4   2  -2   21.87    0.62
   4   2  -2   21.41    0.60
   4   2  -2   21.63    0.61
  -4  -2   2   22.50    0.61
  -4  -2   2   21.62    0.55
   4  -2  -2   22.22    0.62
  -4  -2   2   21.74    0.66
   4  -2  -2   22.08    0.52
   4  -2  -2   21.83    0.61
  -4  -2   2   21.20    0.51
  -4   2   1    1.68    0.15
   4   2  -1    1.53    0.15
  -4   2   1    2.53    0.15
   4   2  -1    1.74    0.16
   4   2  -1    1.63    0.15
  -4   2   1    2.35    0.18
  -4  -2   1    1.70    0.15
  -4  -2   1    1.41    0.13
   4  -2  -1    1.83    0.18
  -4  -2   1    1.37    0.12
   4  -2  -1    2.51    0.18
  -4  -2   1    1.75    0.18
   4  -2  -1    1.85    0.11
  -4   2   0    2.05    0.15
   4   2   0    2.14    0.20
   4   2   0    2.32    0.20
   4   2   0    2.27    0.20
  -4   2   0    1.94    0.17
  -4   2   0    2.24    0.18
  -4   2   0    2.15    0.15
  -4  -2   0    2.06    0.19
  -4  -2   0    1.99    0.16
   4  -2   0    2.05    0.19
  -4  -2   0    2.35    0.22
  -4  -2   0    2.25    0.17
   4  -2   0    2.00    0.18
   4   2   1   66.28    1.62
  -4   2  -1   65.20    1.60
   4   2   1   67.59    1.63
   4   2   1   66.93    1.65
  -4   2  -1   67.60    1.35
  -4  -2  -1   64.41    1.37
   4  -2   1   66.34    1.63
  -4  -2  -1   65.56    1.48
   4  -2   1   64.84    1.60
  -4  -2  -1   64.64    1.82
  -4  -2  -1   64.68    1.62
   4   2   2   10.80    0.39
  -4   2  -2   10.97    0.33
  -4   2  -2   10.48    0.36
   4   2   2   11.01    0.40
  -4   2  -2   11.16    0.31
  -4  -2  -2   11.19    0.35
  -4  -2  -2   11.17    0.40
   4  -2   2   10.95    0.37
  -4  -2  -2   11.24    0.37
  -4  -2  -2   11.24    0.46
   4   2   3  151.87    3.60
  -4   2  -3  146.78    3.57
  -4   2  -3  153.06    3.01
   4   2   3  153.83    3.66
  -4   2  -3  155.14    3.30
  -4   2  -3  151.47    3.36
  -4   2  -3  152.88    3.18
  -4   2  -3  152.51    3.25
  -4  -2  -3  152.95    3.19
  -4  -2  -3  152.86    3.38
  -4  -2  -3  152.34    3.32
   4  -2   3  152.49    3.63
  -4  -2  -3  148.22    3.29
  -4  -2  -3  150.69    3.62
  -4  -2  -3  146.48    3.05
  -4   2  -4    4.29    0.36
  -4   2  -4    5.00    0.30
  -4   2  -4    4.51    0.34
   4   2   4    4.72    0.31
   4   2   4    4.62    0.30
  -4   2  -4    4.82    0.29
  -4  -2  -4    5.25    0.30
  -4  -2  -4    4.40    0.34
  -4  -2  -4    4.87    0.33
  -4  -2  -4    4.55    0.36
  -4  -2  -4    4.67    0.39
  -4  -2  -4    4.53    0.33
  -4   2  -5   78.70    1.78
  -4   2  -5   75.56    2.08
   4   2   5   77.36    1.63
  -4   2  -5   73.33    1.89
  -4   2  -5   76.41    1.78
  -4   2  -5   75.07    1.80
  -4  -2  -5   76.61    1.82
  -4  -2  -5   73.31    1.85
  -4  -2  -5   77.85    1.77
  -4  -2  -5   77.92    1.54
  -4  -2  -5   76.86    1.94
  -4  -2  -5   76.35    1.83
  -4  -2  -5   80.65    1.95
   4   2   6    2.30    0.32
  -4   2  -6    2.45    0.43
  -4   2  -6    2.24    0.31
  -4   2  -6    2.58    0.46
  -4   2  -6    3.15    0.42
  -4  -2  -6    2.40    0.41
  -4  -2  -6    2.80    0.33
  -4  -2  -6    3.51    0.46
  -4  -2  -6    2.54    0.32
  -4  -2  -6    2.08    0.46
   4   3  -9   27.00    0.87
   4   3  -9   26.04    1.02
   4   3  -9   25.80    0.92
   4   3  -9   28.34    0.88
   4   3  -9   28.48    1.13
   4  -3  -9   27.99    0.69
   4  -3  -9   27.47    0.89
   4  -3  -9   26.73    1.03
   4  -3  -9   27.31    0.87
   4  -3  -9   27.35    0.89
   4   3  -8   19.55    0.66
  -4   3   8   18.33    0.78
   4   3  -8   18.42    0.69
   4   3  -8   18.29    0.75
   4   3  -8   18.11    0.64
   4  -3  -8   18.42    0.65
   4  -3  -8   17.74    0.50
   4  -3  -8   18.21    0.65
  -4  -3   8   17.92    0.75
   4  -3  -8   18.45    0.63
   4  -3  -8   17.43    0.79
   4  -3  -8   17.60    0.51
   4   3  -7   13.19    0.51
   4   3  -7   14.34    0.54
   4   3  -7   13.19    0.44
   4   3  -7   13.54    0.49
  -4   3   7   13.21    0.62
   4   3  -7   13.12    0.62
   4  -3  -7   13.48    0.49
  -4  -3   7   12.83    0.59
   4  -3  -7   12.88    0.50
   4  -3  -7   13.67    0.41
   4   3  -6    2.87    0.24
  -4   3   6    2.82    0.29
   4   3  -6    2.53    0.23
   4  -3  -6    3.19    0.25
   4  -3  -6    3.05    0.24
  -4  -3   6    3.53    0.30
   4   3  -5   15.91    0.49
  -4   3   5   15.92    0.59
   4  -3  -5   15.51    0.51
  -4  -3   5   16.03    0.58
   4  -3  -5   16.16    0.49
   4   3  -4   94.53    2.31
   4   3  -4   93.45    2.27
  -4   3   4   93.84    2.46
  -4   3   4   96.96    2.28
  -4   3   4   95.66    1.92
   4  -3  -4   92.46    2.32
  -4  -3   4   95.04    2.46
   4  -3  -4   93.45    2.06
   4  -3  -4   91.85    2.28
  -4  -3   4   93.69    2.06
  -4  -3   4   93.43    1.91
  -4  -3   4   95.55    2.26
  -4   3   3  120.76    2.41
  -4   3   3  121.30    2.86
   4   3  -3  118.36    2.59
  -4   3   3  120.01    3.06
   4   3  -3  119.97    2.85
   4  -3  -3  116.82    2.56
   4  -3  -3  119.96    2.86
  -4  -3   3  122.60    2.85
   4  -3  -3  120.87    2.91
  -4  -3   3  117.31    3.08
  -4  -3   3  118.20    2.40
  -4  -3   3  119.72    2.59
   4   3  -2   90.64    2.19
   4   3  -2   90.56    2.18
   4   3  -2   91.99    2.22
  -4   3   2   90.26    2.32
  -4   3   2   90.95    1.84
  -4   3   2   89.80    2.18
   4  -3  -2   90.74    2.18
  -4  -3   2   91.64    2.18
  -4  -3   2   89.75    2.36
   4  -3  -2   89.90    1.94
  -4  -3   2   88.90    1.83
  -4  -3   2   87.81    1.98
   4  -3  -2   91.33    2.22
  -4   3   1  136.32    2.74
   4   3  -1  136.71    3.32
   4   3  -1  139.21    3.26
  -4   3   1  142.15    3.46
   4   3  -1  138.34    3.27
  -4   3   1  135.92    3.25
  -4  -3   1  137.99    3.53
  -4  -3   1  134.44    2.97
  -4  -3   1  136.80    2.75
  -4  -3   1  137.63    3.26
   4  -3  -1  139.86    3.25
   4  -3  -1  135.30    2.89
   4  -3  -1  135.71    3.31
   4   3   0   36.57    0.96
  -4   3   0   39.57    0.95
  -4   3   0   35.95    0.79
  -4   3   0   34.94    0.93
  -4   3   0   36.85    0.95
   4   3   0   36.02    0.97
   4   3   0   36.90    0.96
  -4  -3   0   35.99    0.80
   4  -3   0   37.20    0.94
  -4  -3   0   35.71    0.96
  -4  -3   0   35.86    0.87
   4  -3   0   35.58    0.95
  -4  -3   0   35.96    1.07
  -4   3  -1  103.37    2.44
   4   3   1  105.09    2.48
  -4   3  -1  105.35    2.06
  -4  -3  -1  101.70    2.74
  -4  -3  -1  102.57    2.09
  -4  -3  -1   98.34    2.47
   4  -3   1  100.30    2.49
  -4  -3  -1  102.69    2.25
  -4   3  -2   14.99    0.50
  -4   3  -2   14.17    0.45
  -4   3  -2   15.36    0.38
   4   3   2   15.92    0.51
   4   3   2   16.14    0.50
  -4  -3  -2   14.50    0.60
  -4  -3  -2   15.00    0.51
  -4  -3  -2   15.17    0.43
  -4  -3  -2   15.44    0.47
   4  -3   2   15.67    0.47
  -4   3  -3   22.67    0.67
  -4   3  -3   22.95    0.53
  -4   3  -3   21.83    0.62
   4   3   3   23.06    0.69
   4   3   3   23.07    0.68
  -4   3  -3   22.93    0.57
  -4   3  -3   22.96    0.62
  -4  -3  -3   22.48    0.60
   4  -3   3   22.78    0.64
  -4  -3  -3   23.13    0.70
  -4  -3  -3   23.60    0.81
  -4  -3  -3   23.35    0.66
  -4  -3  -3   22.49    0.71
  -4  -3  -3   22.71    0.65
  -4  -3  -3   23.79    0.74
  -4   3  -4    0.24    0.20
  -4   3  -4    0.38    0.23
  -4   3  -4    0.29    0.18
   4   3   4    0.17    0.21
  -4   3  -4    0.49    0.26
   4   3   4    0.12    0.17
  -4   3  -4   -0.08    0.24
   4   3   4    0.09    0.18
  -4  -3  -4    0.17    0.19
  -4  -3  -4    0.40    0.26
  -4  -3  -4    0.35    0.16
  -4  -3  -4    0.17    0.20
  -4  -3  -4    0.22    0.28
  -4  -3  -4    0.04    0.17
  -4  -3  -4    0.23    0.20
  -4   3  -5    1.92    0.39
   4   3   5    2.49    0.28
  -4   3  -5    2.49    0.35
  -4   3  -5    1.81    0.34
  -4   3  -5    2.45    0.28
   4   3   5    1.83    0.23
   4   3   5    2.05    0.23
  -4  -3  -5    2.07    0.36
  -4  -3  -5    2.44    0.36
  -4  -3  -5    2.03    0.22
  -4  -3  -5    1.88    0.28
  -4  -3  -5    1.86    0.27
  -4  -3  -5    1.70    0.24
  -4  -3  -5    2.09    0.39
  -4   3  -6    5.61    0.60
  -4   3  -6    6.08    0.53
   4   3   6    7.05    0.49
  -4   3  -6    5.57    0.40
  -4   3  -6    5.69    0.47
  -4  -3  -6    6.25    0.59
  -4  -3  -6    5.60    0.46
  -4  -3  -6    5.55    0.52
  -4  -3  -6    5.25    0.51
  -4  -3  -6    6.26    0.44
   4   4  -9    1.82    0.31
   4   4  -9    2.05    0.33
   4   4  -9    2.14    0.48
   4   4  -9    1.95    0.36
   4   4  -9    2.42    0.48
   4  -4  -9    1.83    0.34
   4  -4  -9    1.72    0.31
   4  -4  -9    1.70    0.46
   4  -4  -9    1.64    0.24
   4  -4  -9    1.80    0.34
   4   4  -8   45.38    1.45
   4   4  -8   47.29    1.20
   4   4  -8   45.14    1.27
   4   4  -8   46.84    1.21
  -4   4   8   45.00    1.43
   4   4  -8   47.42    1.44
  -4   4   8   46.30    1.35
   4  -4  -8   46.76    0.98
   4  -4  -8   46.49    1.02
   4  -4  -8   45.68    1.23
   4  -4  -8   45.75    1.21
   4  -4  -8   45.27    1.20
   4  -4  -8   45.28    1.39
  -4  -4   8   45.97    1.40
   4   4  -7   12.77    0.55
   4   4  -7   12.50    0.50
   4   4  -7   12.11    0.47
   4   4  -7   11.57    0.43
   4   4  -7   11.96    0.61
  -4   4   7   13.80    0.63
   4  -4  -7   12.05    0.48
   4  -4  -7   12.47    0.41
   4  -4  -7   13.14    0.50
  -4  -4   7   12.35    0.59
   4   4  -6  170.91    3.63
   4   4  -6  169.98    3.95
  -4   4   6  165.05    4.32
   4  -4  -6  164.16    3.62
   4  -4  -6  163.13    3.98
  -4  -4   6  168.14    4.30
  -4   4   5   11.80    0.51
   4   4  -5   13.17    0.44
   4   4  -5   12.61    0.42
   4  -4  -5   12.53    0.46
  -4  -4   5   12.20    0.52
   4  -4  -5   12.75    0.43
  -4   4   4  125.07    2.93
   4   4  -4  118.99    2.91
  -4   4   4  120.44    3.15
  -4   4   4  123.17    2.47
  -4  -4   4  120.02    3.15
  -4  -4   4  123.16    2.92
   4  -4  -4  123.27    2.64
   4  -4  -4  124.22    2.99
   4  -4  -4  117.88    2.93
  -4   4   3    0.12    0.13
  -4   4   3    0.10    0.10
  -4   4   3    0.07    0.12
   4   4  -3   -0.02    0.11
   4   4  -3    0.01    0.11
   4   4  -3    0.06    0.12
   4  -4  -3   -0.02    0.13
  -4  -4   3    0.22    0.16
  -4  -4   3    0.11    0.11
  -4  -4   3    0.08    0.10
   4  -4  -3    0.06    0.10
   4  -4  -3    0.11    0.13
  -4  -4   3    0.09    0.12
   4   4  -2    4.01    0.24
   4   4  -2    3.68    0.23
  -4   4   2    4.27    0.23
   4   4  -2    3.45    0.24
  -4   4   2    3.63    0.21
  -4   4   2    3.47    0.24
  -4  -4   2    4.19    0.29
   4  -4  -2    3.32    0.24
  -4  -4   2    3.44    0.22
  -4  -4   2    3.31    0.20
  -4  -4   2    3.45    0.23
   4  -4  -2    3.32    0.17
   4  -4  -2    3.19    0.25
  -4   4   1    0.12    0.09
  -4   4   1    0.05    0.11
   4   4  -1   -0.01    0.12
   4   4  -1    0.13    0.13
   4   4  -1    0.20    0.13
  -4   4   1    0.05    0.09
   4  -4  -1    0.18    0.12
  -4  -4   1    0.22    0.12
   4  -4  -1    0.14    0.12
   4  -4  -1    0.17    0.08
  -4  -4   1    0.02    0.10
  -4  -4   1    0.18    0.16
  -4  -4   1    0.22    0.11
  -4   4   0   37.29    0.95
   4   4   0   36.38    0.97
  -4   4   0   37.55    0.80
  -4   4   0   35.71    0.94
   4   4   0   36.97    0.99
   4   4   0   37.41    0.98
  -4  -4   0   34.49    1.10
   4  -4   0   36.36    0.95
  -4  -4   0   35.85    0.82
  -4  -4   0   36.25    0.88
   4  -4   0   35.55    0.96
  -4  -4   0   35.94    0.97
   4   4   1    2.47    0.22
  -4   4  -1    2.38    0.18
  -4   4  -1    2.05    0.19
  -4  -4  -1    3.34    0.23
  -4  -4  -1    3.04    0.24
   4  -4   1    2.11    0.18
  -4  -4  -1    2.91    0.22
  -4  -4  -1    2.23    0.29
   4   4   2  116.35    2.86
   4   4   2  114.92    2.81
  -4   4  -2  115.93    2.46
  -4   4  -2  116.78    2.75
  -4   4  -2  117.67    2.32
  -4  -4  -2  116.41    2.38
  -4  -4  -2  117.60    2.82
  -4  -4  -2  119.79    2.57
   4  -4   2  114.65    2.81
  -4  -4  -2  108.16    3.09
  -4   4  -3    0.18    0.21
   4   4   3    0.19    0.17
   4   4   3    0.40    0.18
  -4   4  -3    0.16    0.15
  -4   4  -3    0.02    0.11
  -4   4  -3    0.30    0.10
  -4   4  -3    0.24    0.11
   4  -4   3    0.10    0.14
  -4  -4  -3    0.37    0.23
  -4  -4  -3    0.37    0.22
  -4  -4  -3    0.18    0.16
  -4  -4  -3    0.36    0.19
  -4  -4  -3   -0.01    0.23
  -4  -4  -3    0.06    0.18
  -4  -4  -3    0.25    0.18
  -4   4  -4   99.78    2.25
  -4   4  -4  103.19    2.26
   4   4   4  100.38    2.50
   4   4   4  103.68    2.10
  -4   4  -4  103.65    2.30
   4   4   4  101.60    2.55
  -4   4  -4  101.80    2.60
  -4  -4  -4  102.71    2.30
  -4  -4  -4  108.85    2.49
  -4  -4  -4  100.83    2.35
  -4  -4  -4  103.31    2.03
  -4  -4  -4   99.26    2.18
  -4  -4  -4  101.01    2.35
  -4  -4  -4  102.67    2.43
  -4   4  -5    2.44    0.29
  -4   4  -5    2.51    0.34
   4   4   5    2.82    0.27
   4   4   5    2.93    0.28
  -4   4  -5    2.49    0.41
  -4   4  -5    2.80    0.37
   4   4   5    2.36    0.30
  -4  -4  -5    2.98    0.32
  -4  -4  -5    2.68    0.32
  -4  -4  -5    3.06    0.26
  -4  -4  -5    2.59    0.41
  -4  -4  -5    2.45    0.28
  -4  -4  -5    2.67    0.38
  -4  -4  -5    3.08    0.41
  -4   4  -6   27.01    0.91
  -4   4  -6   28.45    0.89
  -4   4  -6   28.06    0.86
   4   4   6   26.88    0.81
  -4   4  -6   27.24    0.97
  -4   4  -6   26.83    1.11
  -4  -4  -6   28.10    1.06
  -4  -4  -6   27.30    1.01
  -4  -4  -6   27.77    0.76
  -4  -4  -6   27.03    0.90
  -4  -4  -6   28.10    1.01
   4   5  -9    8.28    0.56
   4   5  -9    8.21    0.71
   4   5  -9    7.74    0.49
   4   5  -9    7.49    0.53
   4   5  -9    7.51    0.68
   4  -5  -9    8.12    0.57
   4  -5  -9    7.05    0.52
   4  -5  -9    6.37    0.61
   4  -5  -9    7.73    0.49
   4  -5  -9    7.87    0.42
   4   5  -8   16.35    0.81
   4   5  -8   16.93    0.65
   4   5  -8   17.76    0.71
   4   5  -8   18.14    0.66
   4   5  -8   17.80    0.87
  -4   5   8   17.29    0.75
   4  -5  -8   18.65    0.67
   4  -5  -8   16.83    0.62
   4  -5  -8   17.07    0.55
  -4  -5   8   17.40    0.76
   4  -5  -8   17.33    0.51
   4  -5  -8   16.76    0.65
   4  -5  -8   16.11    0.83
  -4   5   7    8.77    0.55
   4   5  -7    8.03    0.59
   4   5  -7    8.45    0.31
   4   5  -7    9.51    0.46
   4   5  -7    8.21    0.41
   4   5  -7    9.40    0.48
   4   5  -7    7.82    0.37
   4  -5  -7    8.66    0.45
   4  -5  -7    8.57    0.41
   4  -5  -7    8.67    0.37
  -4  -5   7    9.30    0.55
   4  -5  -7    8.45    0.36
   4  -5  -7    8.71    0.41
  -4   5   6    0.29    0.23
   4   5  -6    0.08    0.19
   4   5  -6   -0.09    0.14
  -4  -5   6    0.15    0.24
   4  -5  -6   -0.03    0.17
   4  -5  -6    0.28    0.17
   4  -5  -6   -0.25    0.16
   4  -5  -6    0.73    0.25
   4   5  -5    0.05    0.16
   4   5  -5    0.14    0.14
  -4   5   5    0.26    0.20
   4  -5  -5    0.31    0.16
   4  -5  -5    0.12    0.16
  -4  -5   5    0.01    0.20
  -4   5   4   59.87    1.53
  -4   5   4   57.41    1.63
   4   5  -4   60.24    1.50
  -4   5   4   61.09    1.29
  -4  -5   4   59.36    1.65
   4  -5  -4   59.88    1.57
   4  -5  -4   59.52    1.52
   4  -5  -4   60.17    1.36
  -4   5   3   25.32    0.77
  -4   5   3   25.76    0.74
   4   5  -3   24.50    0.72
  -4   5   3   25.96    0.63
   4   5  -3   26.06    0.73
   4   5  -3   25.42    0.73
   4  -5  -3   26.20    0.64
  -4  -5   3   25.58    0.66
   4  -5  -3   25.71    0.74
   4  -5  -3   25.25    0.76
  -4  -5   3   25.81    0.82
  -4  -5   3   24.90    0.61
  -4  -5   3   26.99    0.73
  -4   5   2  184.15    4.46
   4   5  -2  186.91    4.54
  -4   5   2  184.72    3.76
   4   5  -2  189.50    4.46
   4   5  -2  189.37    4.47
  -4   5   2  188.59    4.75
   4  -5  -2  197.94    4.55
   4  -5  -2  191.49    4.47
  -4  -5   2  184.21    3.76
  -4  -5   2  185.08    4.05
  -4  -5   2  190.19    4.46
  -4  -5   2  188.49    4.82
   4  -5  -2  189.16    3.99
  -4   5   1   99.47    2.05
  -4   5   1  100.53    2.55
   4   5  -1   98.92    2.49
  -4   5   1   99.33    2.42
   4   5  -1  101.66    2.44
   4   5  -1  100.22    2.45
  -4  -5   1   97.20    2.66
  -4  -5   1  101.03    2.44
   4  -5  -1  101.76    2.47
  -4  -5   1  100.66    2.06
   4  -5  -1  100.35    2.43
  -4  -5   1  100.36    2.22
  -4   5   0  203.42    4.02
   4   5   0  206.48    4.82
  -4   5   0  197.93    4.77
   4   5   0  205.43    4.80
   4   5   0  204.96    4.89
  -4  -5   0  203.08    4.05
  -4  -5   0  204.09    4.80
   4  -5   0  201.11    4.86
  -4  -5   0  201.22    5.22
  -4  -5   0  202.68    4.37
   4  -5   0  199.05    4.76
   4   5   1   60.25    1.58
  -4   5  -1   60.47    1.52
  -4   5  -1   62.58    1.29
  -4  -5  -1   61.43    1.44
   4  -5   1   58.79    1.55
  -4  -5  -1   63.80    1.44
  -4  -5  -1   61.33    1.58
  -4  -5  -1   61.91    1.33
  -4  -5  -1   61.78    1.78
  -4   5  -2   70.89    1.43
   4   5   2   68.33    1.79
   4   5   2   69.34    1.76
  -4   5  -2   68.53    1.69
  -4   5  -2   69.38    1.58
  -4  -5  -2   70.92    1.63
  -4  -5  -2   68.68    1.62
   4  -5   2   70.08    1.74
  -4  -5  -2   68.08    1.50
   4  -5   2   68.76    1.39
  -4  -5  -2   67.73    1.78
  -4  -5  -2   68.97    1.98
  -4   5  -3    2.70    0.29
   4   5   3    2.64    0.26
  -4   5  -3    2.43    0.21
  -4   5  -3    2.48    0.21
   4   5   3    2.42    0.26
  -4   5  -3    2.61    0.19
  -4  -5  -3    2.29    0.27
  -4  -5  -3    2.21    0.23
  -4  -5  -3    2.47    0.25
  -4  -5  -3    2.88    0.31
  -4  -5  -3    2.68    0.33
  -4  -5  -3    2.28    0.21
  -4  -5  -3    2.42    0.27
  -4  -5  -3    3.51    0.35
   4  -5   3    2.61    0.21
  -4   5  -4    0.93    0.26
   4   5   4    0.64    0.22
  -4   5  -4    0.57    0.20
  -4   5  -4    0.34    0.19
   4   5   4    0.34    0.23
  -4   5  -4    0.87    0.29
   4   5   4    0.65    0.22
  -4   5  -4    0.46    0.22
  -4  -5  -4    1.15    0.20
  -4  -5  -4    0.87    0.31
  -4  -5  -4    0.77    0.23
  -4  -5  -4    0.81    0.29
  -4  -5  -4    0.23    0.25
  -4  -5  -4    0.40    0.31
  -4  -5  -4    0.69    0.24
  -4   5  -5    4.12    0.40
   4   5   5    3.65    0.31
  -4   5  -5    3.67    0.34
   4   5   5    3.47    0.31
  -4   5  -5    3.77    0.33
   4   5   5    3.87    0.36
  -4   5  -5    4.26    0.50
  -4  -5  -5    3.77    0.45
  -4  -5  -5    3.25    0.35
  -4  -5  -5    3.86    0.46
  -4  -5  -5    3.82    0.45
  -4  -5  -5    3.85    0.33
  -4  -5  -5    3.85    0.36
  -4  -5  -5    3.74    0.29
  -4   5  -6    9.10    0.55
   4   5   6    9.49    0.58
  -4   5  -6    7.73    0.72
  -4   5  -6    8.05    0.49
  -4   5  -6    9.07    0.59
  -4  -5  -6    9.63    0.49
  -4  -5  -6    9.72    0.69
  -4  -5  -6    9.79    0.75
  -4  -5  -6   10.52    0.69
  -4  -5  -6    8.59    0.55
   4   6  -9    6.38    0.67
   4   6  -9    5.74    0.52
   4   6  -9    7.21    0.62
   4   6  -9    5.56    0.46
   4   6  -9    6.19    0.46
   4  -6  -9    5.91    0.43
   4  -6  -9    6.01    0.48
   4  -6  -9    5.41    0.62
   4  -6  -9    5.82    0.46
   4  -6  -9    5.70    0.48
   4  -6  -9    5.98    0.66
   4   6  -8    0.03    0.25
   4   6  -8    0.88    0.44
   4   6  -8    0.39    0.28
   4   6  -8    0.75    0.36
   4   6  -8    0.33    0.25
   4  -6  -8    0.39    0.26
   4  -6  -8    0.26    0.26
   4  -6  -8    0.42    0.22
   4  -6  -8   -0.09    0.40
   4  -6  -8    0.29    0.20
   4  -6  -8    0.05    0.26
   4   6  -7   87.06    2.20
   4   6  -7   81.36    1.64
  -4   6   7   88.14    2.23
   4   6  -7   88.13    1.92
   4   6  -7   84.36    1.95
   4   6  -7   84.18    2.06
  -4   6   7   82.84    2.33
   4   6  -7   83.92    1.96
   4   6  -7   80.88    2.24
   4  -6  -7   77.56    1.96
   4  -6  -7   79.10    1.94
   4  -6  -7   82.86    1.61
  -4  -6   7   83.97    2.29
   4  -6  -7   81.03    1.71
   4  -6  -7   83.20    1.96
   4  -6  -7   78.58    2.04
  -4   6   6    5.39    0.46
   4   6  -6    5.98    0.35
   4   6  -6    4.72    0.32
   4   6  -6    5.31    0.47
   4   6  -6    4.86    0.37
   4   6  -6    5.13    0.38
   4  -6  -6    5.47    0.36
   4  -6  -6    5.26    0.31
  -4  -6   6    4.10    0.35
   4  -6  -6    5.33    0.41
   4  -6  -6    5.42    0.34
   4   6  -5  158.87    3.42
   4   6  -5  154.34    3.72
  -4   6   5  155.19    4.06
   4  -6  -5  158.03    3.76
   4  -6  -5  153.16    3.39
  -4  -6   5  156.35    4.04
  -4   6   4   14.10    0.51
   4   6  -4   13.37    0.48
  -4   6   4   13.23    0.54
  -4   6   4   13.71    0.44
  -4  -6   4   13.90    0.57
   4  -6  -4   13.61    0.51
   4  -6  -4   13.92    0.54
   4  -6  -4   13.24    0.45
   4   6  -3   83.64    2.02
   4   6  -3   82.04    2.05
  -4   6   3   82.75    1.72
  -4   6   3   83.28    2.04
   4   6  -3   81.16    2.02
  -4   6   3   78.62    2.15
  -4  -6   3   81.69    2.02
   4  -6  -3   81.91    1.80
  -4  -6   3   79.39    1.70
  -4  -6   3   81.81    2.20
   4  -6  -3   84.24    2.08
  -4  -6   3   80.65    1.84
   4  -6  -3   77.12    2.02
   4   6  -2   18.69    0.61
  -4   6   2   18.59    0.59
  -4   6   2   18.49    0.51
  -4   6   2   18.03    0.60
   4   6  -2   18.94    0.60
   4   6  -2   18.77    0.60
  -4  -6   2   19.36    0.60
   4  -6  -2   18.53    0.60
  -4  -6   2   18.28    0.54
   4  -6  -2   18.57    0.62
   4  -6  -2   18.74    0.50
  -4  -6   2   19.02    0.50
  -4  -6   2   18.32    0.68
  -4   6   1    4.83    0.24
   4   6  -1    4.44    0.32
  -4   6   1    4.34    0.28
   4   6  -1    4.59    0.32
   4   6  -1    4.55    0.31
  -4   6   1    4.88    0.25
  -4  -6   1    4.68    0.28
  -4  -6   1    4.60    0.31
   4  -6  -1    4.30    0.29
  -4  -6   1    4.37    0.26
  -4  -6   1    4.52    0.38
   4   6   0    2.68    0.25
   4   6   0    2.39    0.24
  -4   6   0    2.31    0.17
  -4   6   0    2.51    0.20
   4   6   0    3.56    0.27
  -4  -6   0    2.97    0.21
  -4  -6   0    2.78    0.32
  -4  -6   0    3.15    0.23
  -4  -6   0    3.12    0.26
   4  -6   0    2.56    0.19
   4  -6   0    2.34    0.19
  -4   6  -1   26.12    0.74
  -4   6  -1   26.70    0.70
   4   6   1   26.22    0.81
   4   6   1   26.72    0.83
  -4   6  -1   25.85    0.63
   4   6   1   26.51    0.83
  -4  -6  -1   28.22    0.74
  -4  -6  -1   26.05    0.82
  -4  -6  -1   26.64    0.69
   4  -6   1   26.70    0.61
   4  -6   1   27.21    0.63
  -4  -6  -1   25.14    0.74
   4  -6   1   26.03    0.77
  -4  -6  -1   25.31    0.94
   4   6   2    6.69    0.41
  -4   6  -2    6.81    0.30
   4   6   2    6.69    0.42
  -4   6  -2    6.30    0.26
  -4   6  -2    6.60    0.30
  -4   6  -2    7.00    0.30
   4  -6   2    6.83    0.31
  -4  -6  -2    6.79    0.42
  -4  -6  -2    6.49    0.37
  -4  -6  -2    6.08    0.37
   4  -6   2    6.72    0.30
   4  -6   2    6.74    0.37
  -4  -6  -2    7.01    0.50
  -4  -6  -2    5.96    0.35
  -4  -6  -2    6.18    0.38
  -4  -6  -2    6.12    0.36
  -4   6  -3   74.86    1.79
  -4   6  -3   74.56    1.69
   4   6   3   74.36    1.94
  -4   6  -3   73.47    1.51
  -4   6  -3   73.90    1.67
   4   6   3   73.11    1.57
  -4   6  -3   75.37    1.67
  -4   6  -3   73.97    1.92
   4   6   3   71.80    1.90
   4  -6   3   74.98    1.45
  -4  -6  -3   71.98    1.76
   4  -6   3   74.60    1.47
  -4  -6  -3   74.96    1.52
  -4  -6  -3   71.19    1.63
  -4  -6  -3   69.37    2.11
  -4  -6  -3   75.69    1.80
   4  -6   3   72.67    1.85
  -4  -6  -3   71.33    1.76
  -4  -6  -3   73.49    1.69
  -4  -6  -3   73.10    1.88
   4   6   4   12.56    0.56
  -4   6  -4   12.04    0.53
   4   6   4   12.19    0.56
  -4   6  -4   11.53    0.62
  -4   6  -4   12.14    0.48
  -4   6  -4   12.77    0.49
   4   6   4   11.67    0.52
  -4  -6  -4   11.53    0.58
  -4  -6  -4   12.10    0.56
  -4  -6  -4   11.86    0.59
  -4  -6  -4   12.01    0.61
  -4  -6  -4   12.48    0.60
  -4  -6  -4   11.24    0.53
  -4  -6  -4   11.75    0.46
  -4   6  -5   36.43    1.02
   4   6   5   34.54    0.94
  -4   6  -5   35.07    0.98
  -4   6  -5   33.94    1.21
  -4   6  -5   35.22    0.99
  -4  -6  -5   34.35    0.90
  -4  -6  -5   36.69    1.06
  -4  -6  -5   32.76    1.13
  -4  -6  -5   36.23    1.16
  -4  -6  -5   33.53    1.03
  -4  -6  -5   35.03    0.98
  -4  -6  -5   34.39    1.09
  -4   6  -6    4.55    0.46
  -4   6  -6    3.06    0.54
  -4   6  -6    3.73    0.40
   4   6   6    3.13    0.41
  -4   6  -6    2.67    0.37
  -4  -6  -6    3.37    0.54
  -4  -6  -6    3.46    0.51
  -4  -6  -6    3.86    0.38
  -4  -6  -6    2.40    0.39
  -4  -6  -6    3.92    0.56
  -4  -6  -6    3.44    0.36
   4   7  -9   31.53    0.99
   4   7  -9   28.34    1.04
   4  -7  -9   30.13    1.00
   4  -7  -9   33.47    1.05
   4  -7  -9   32.38    0.88
   4   7  -8    3.48    0.48
   4   7  -8    1.79    0.35
   4   7  -8    1.36    0.31
   4   7  -8    1.85    0.33
   4   7  -8    2.03    0.50
   4  -7  -8    1.96    0.33
   4  -7  -8    2.03    0.34
   4  -7  -8    2.17    0.26
   4  -7  -8    2.30    0.30
   4  -7  -8    1.61    0.30
   4  -7  -8    1.78    0.47
   4   7  -7    8.23    0.47
   4   7  -7    8.76    0.49
   4   7  -7    6.91    0.61
  -4   7   7    7.72    0.59
   4   7  -7    7.28    0.57
   4   7  -7    7.98    0.45
   4   7  -7    8.53    0.33
  -4   7   7    7.87    0.60
   4   7  -7    7.97    0.47
   4  -7  -7    8.58    0.44
   4  -7  -7    8.30    0.50
   4  -7  -7    7.35    0.44
   4  -7  -7    8.46    0.56
  -4  -7   7    8.03    0.58
   4  -7  -7    8.25    0.38
   4   7  -6    1.57    0.37
   4   7  -6    2.01    0.27
   4   7  -6    1.96    0.28
   4   7  -6    1.90    0.19
  -4   7   6    1.84    0.32
  -4   7   6    1.98    0.31
   4   7  -6    1.88    0.26
   4   7  -6    1.93    0.29
   4  -7  -6    1.76    0.32
   4  -7  -6    1.80    0.28
   4  -7  -6    2.17    0.22
   4  -7  -6    1.65    0.26
   4  -7  -6    1.78    0.25
  -4  -7   6    1.80    0.31
   4   7  -5   41.04    1.10
   4   7  -5   40.89    1.05
  -4   7   5   39.16    1.22
  -4  -7   5   39.45    1.22
   4  -7  -5   40.22    1.02
   4  -7  -5   38.25    1.14
   4  -7  -5   41.69    0.96
   4   7  -4   32.82    0.95
  -4   7   4   33.97    0.84
  -4   7   4   33.76    0.99
  -4   7   4   32.66    1.04
   4  -7  -4   34.12    0.74
   4  -7  -4   33.79    0.87
  -4  -7   4   32.87    1.06
   4  -7  -4   33.29    0.98
   4  -7  -4   33.97    0.73
   4  -7  -4   35.09    1.03
   4   7  -3  122.14    3.03
  -4   7   3  119.75    2.98
   4   7  -3  122.09    2.97
  -4   7   3  117.78    3.17
  -4   7   3  123.46    2.52
   4   7  -3  125.83    2.98
  -4  -7   3  121.52    3.22
   4  -7  -3  116.51    2.98
   4  -7  -3  123.69    2.28
   4  -7  -3  126.10    2.31
   4  -7  -3  120.60    3.04
   4   7  -2   68.46    1.83
   4   7  -2   70.25    1.81
  -4   7   2   70.29    1.52
  -4   7   2   69.21    1.80
  -4   7   2   70.50    1.88
   4   7  -2   71.22    1.80
  -4  -7   2   69.73    1.52
   4  -7  -2   73.12    1.38
  -4  -7   2   69.80    1.64
  -4  -7   2   71.48    1.80
   4  -7  -2   68.31    1.80
  -4  -7   2   70.83    1.97
   4  -7  -2   71.82    1.84
   4  -7  -2   72.08    1.40
  -4   7   1   79.78    2.10
  -4   7   1   80.06    1.70
   4   7  -1   79.89    2.07
  -4   7   1   80.70    2.01
   4   7  -1   79.41    2.04
   4   7  -1   79.35    2.04
  -4  -7   1   82.57    1.85
  -4  -7   1   79.51    2.03
   4  -7  -1   81.35    1.58
  -4  -7   1   80.60    2.24
   4  -7  -1   76.61    2.00
   4  -7  -1   81.61    1.56
  -4  -7   1   81.93    1.72
  -4   7   0   26.83    0.67
   4   7   0   26.25    0.85
  -4   7   0   26.82    0.74
   4   7   0   28.11    0.85
   4   7   0   27.25    0.87
  -4   7   0   26.53    0.78
  -4  -7   0   27.64    0.71
   4  -7   0   26.19    0.82
   4  -7   0   26.80    0.64
   4  -7   0   28.03    0.64
  -4  -7   0   28.03    0.77
  -4  -7   0   28.20    1.01
  -4  -7   0   27.20    0.84
   4   7   1   54.95    1.50
   4   7   1   55.86    1.52
  -4   7  -1   54.44    1.31
   4   7   1   54.14    1.50
  -4   7  -1   54.21    1.41
  -4   7  -1   54.06    1.19
  -4  -7  -1   56.07    1.26
  -4  -7  -1   55.23    1.67
  -4  -7  -1   55.58    1.36
   4  -7   1   56.20    1.14
   4  -7   1   53.18    1.46
  -4  -7  -1   57.14    1.50
  -4  -7  -1   56.05    1.35
   4  -7   1   55.86    1.15
  -4   7  -2    0.79    0.15
   4   7   2    0.77    0.23
  -4   7  -2    0.50    0.16
  -4   7  -2    0.71    0.17
   4   7   2    0.60    0.24
  -4   7  -2    0.88    0.14
  -4  -7  -2    0.97    0.21
   4  -7   2    0.59    0.19
  -4  -7  -2    0.59    0.23
  -4  -7  -2    0.92    0.20
   4  -7   2    1.00    0.21
  -4  -7  -2    0.62    0.22
   4  -7   2    0.85    0.19
  -4  -7  -2    0.54    0.30
  -4   7  -3   15.68    0.43
  -4   7  -3   15.20    0.52
  -4   7  -3   15.32    0.50
  -4   7  -3   16.79    0.43
  -4   7  -3   15.88    0.54
  -4   7  -3   16.62    0.54
   4   7   3   15.76    0.55
   4   7   3   14.95    0.66
   4   7   3   15.68    0.65
  -4   7  -3   16.83    0.68
   4  -7   3   15.46    0.48
  -4  -7  -3   15.44    0.67
   4  -7   3   15.28    0.49
  -4  -7  -3   15.68    0.63
  -4  -7  -3   15.14    0.66
   4  -7   3   15.22    0.57
  -4  -7  -3   13.71    0.75
  -4  -7  -3   15.97    0.52
  -4  -7  -3   16.77    0.64
  -4  -7  -3   16.23    0.60
  -4  -7  -3   14.98    0.61
   4   7   4    0.98    0.29
   4   7   4    1.24    0.30
  -4   7  -4    1.52    0.27
  -4   7  -4    1.42    0.26
   4   7   4    1.49    0.31
  -4   7  -4    1.36    0.37
  -4  -7  -4    1.54    0.35
  -4  -7  -4    1.62    0.31
  -4  -7  -4    1.24    0.36
  -4  -7  -4    1.70    0.34
  -4  -7  -4    1.52    0.28
  -4  -7  -4    1.31    0.25
  -4  -7  -4    1.32    0.36
  -4  -7  -4    1.39    0.32
   4   7   5    1.55    0.35
  -4   7  -5    1.62    0.35
  -4   7  -5    1.73    0.45
  -4   7  -5    2.10    0.33
  -4   7  -5    1.33    0.31
  -4  -7  -5    1.13    0.27
  -4  -7  -5    1.37    0.39
  -4  -7  -5    1.49    0.34
  -4  -7  -5    1.28    0.36
  -4  -7  -5    1.16    0.43
  -4  -7  -5    1.47    0.30
  -4  -7  -5    1.61    0.42
   4   8  -8   19.06    0.73
   4   8  -8   17.85    0.70
   4   8  -8   16.01    0.76
   4   8  -8   18.18    0.94
   4  -8  -8   18.34    0.74
   4  -8  -8   19.90    0.94
   4  -8  -8   19.26    0.77
   4  -8  -8   18.11    0.80
   4  -8  -8   18.06    0.67
   4   8  -7   36.08    1.12
   4   8  -7   38.71    1.07
   4   8  -7   37.38    1.30
   4   8  -7   37.95    0.85
   4   8  -7   35.57    1.05
   4   8  -7   38.04    1.06
   4  -8  -7   37.47    1.07
   4  -8  -7   35.16    1.04
   4  -8  -7   37.24    0.96
   4  -8  -7   37.40    1.17
   4  -8  -7   37.23    0.86
  -4   8   6   61.53    1.87
   4   8  -6   62.76    1.65
   4   8  -6   63.66    1.59
  -4   8   6   65.16    1.81
   4   8  -6   64.27    1.55
   4   8  -6   65.70    1.58
   4   8  -6   64.44    1.33
   4   8  -6   61.26    1.81
   4  -8  -6   61.11    1.56
   4  -8  -6   65.63    1.69
   4  -8  -6   63.52    1.58
  -4  -8   6   65.03    1.84
   4  -8  -6   64.52    1.30
   4  -8  -6   64.80    1.43
  -4   8   5   15.76    0.70
   4   8  -5   15.31    0.56
   4   8  -5   15.60    0.58
  -4   8   5   14.23    0.67
   4   8  -5   15.65    0.59
   4   8  -5   14.93    0.44
   4   8  -5   14.75    0.67
   4  -8  -5   15.23    0.57
   4  -8  -5   14.89    0.55
   4  -8  -5   14.44    0.63
   4  -8  -5   15.49    0.48
  -4  -8   5   14.38    0.67
   4  -8  -5   14.90    0.55
  -4   8   4   86.82    2.21
  -4   8   4   89.89    1.88
  -4   8   4   84.73    2.35
   4   8  -4   83.57    2.18
   4  -8  -4   85.68    1.68
   4  -8  -4   83.02    2.20
   4  -8  -4   85.92    1.66
   4  -8  -4   90.59    2.28
  -4  -8   4   86.67    2.37
  -4   8   3   15.34    0.61
  -4   8   3   16.35    0.53
   4   8  -3   16.47    0.61
   4  -8  -3   15.88    0.64
   4  -8  -3   16.28    0.46
   4  -8  -3   15.31    0.45
  -4  -8   3   16.51    0.68
   4  -8  -3   15.43    0.62
   4   8  -2   12.85    0.53
  -4   8   2   12.18    0.52
  -4   8   2   12.81    0.45
   4   8  -2   12.65    0.53
   4   8  -2   11.60    0.52
  -4  -8   2   11.77    0.61
  -4  -8   2   12.60    0.43
  -4  -8   2   13.42    0.48
  -4  -8   2   12.70    0.53
   4  -8  -2   12.32    0.41
   4  -8  -2   12.18    0.55
   4  -8  -2   11.35    0.52
   4  -8  -2   11.77    0.39
  -4   8   1   15.85    0.49
   4   8  -1   16.26    0.63
   4   8  -1   16.46    0.63
  -4   8   1   16.19    0.59
   4   8  -1   16.00    0.62
   4  -8  -1   15.62    0.60
   4  -8  -1   15.30    0.61
   4  -8  -1   15.89    0.47
   4  -8  -1   15.68    0.48
  -4  -8   1   15.80    0.56
  -4  -8   1   15.81    0.61
  -4  -8   1   15.06    0.71
  -4  -8   1   16.31    0.51
   4   8   0   38.34    1.12
   4   8   0   39.36    1.12
   4   8   0   36.84    1.13
  -4   8   0   36.68    1.05
  -4   8   0   35.85    0.89
  -4  -8   0   37.89    1.01
  -4  -8   0   37.21    0.97
   4  -8   0   36.70    1.08
  -4  -8   0   37.47    1.11
   4  -8   0   37.16    0.85
  -4  -8   0   36.78    1.25
   4  -8   0   37.09    0.85
  -4  -8   0   38.23    0.94
   4   8   1    0.44    0.25
   4   8   1    0.08    0.23
  -4   8  -1    0.24    0.18
   4   8   1    0.22    0.23
  -4  -8  -1    0.40    0.23
  -4  -8  -1    0.23    0.19
  -4  -8  -1    0.20    0.21
   4  -8   1    0.21    0.19
   4  -8   1    0.27    0.19
   4  -8   1    0.08    0.21
  -4  -8  -1    0.51    0.22
  -4  -8  -1    0.07    0.27
  -4   8  -2   83.69    1.83
  -4   8  -2   88.52    2.23
  -4   8  -2   88.60    1.75
   4   8   2   89.53    2.34
  -4   8  -2   88.07    1.99
  -4   8  -2   87.73    2.01
   4   8   2   86.78    1.85
   4   8   2   88.77    2.30
  -4  -8  -2   86.73    2.10
  -4  -8  -2   83.47    2.09
   4  -8   2   90.36    1.75
  -4  -8  -2   87.23    1.81
   4  -8   2   89.81    2.26
   4  -8   2   89.72    1.77
  -4  -8  -2   91.42    2.53
  -4  -8  -2   87.57    1.95
   4   8   3    2.92    0.37
  -4   8  -3    2.93    0.19
  -4   8  -3    3.22    0.40
  -4   8  -3    2.80    0.28
  -4   8  -3    2.97    0.21
  -4   8  -3    2.38    0.24
   4   8   3    3.36    0.38
  -4   8  -3    2.89    0.30
   4   8   3    3.31    0.31
  -4  -8  -3    3.25    0.43
  -4  -8  -3    2.97    0.36
  -4  -8  -3    2.14    0.27
  -4  -8  -3    3.02    0.41
   4  -8   3    3.30    0.29
   4  -8   3    2.90    0.28
  -4  -8  -3    2.46    0.33
   4  -8   3    3.03    0.29
   4  -8   3    3.06    0.34
  -4  -8  -3    2.96    0.32
  -4   8  -4   46.14    1.44
   4   8   4   46.86    1.16
  -4   8  -4   48.17    1.21
  -4   8  -4   45.04    1.22
  -4  -8  -4   47.92    1.13
  -4  -8  -4   47.80    1.32
  -4  -8  -4   47.67    1.33
  -4  -8  -4   47.23    1.43
  -4  -8  -4   48.41    1.23
  -4  -8  -4   44.63    1.57
  -4   8  -5    7.32    0.52
   4   8   5    8.16    0.60
  -4   8  -5    7.78    0.50
  -4   8  -5    6.68    0.64
  -4  -8  -5    7.37    0.50
  -4  -8  -5    8.44    0.63
  -4  -8  -5    7.29    0.62
  -4  -8  -5    7.66    0.59
  -4  -8  -5    9.12    0.66
  -4  -8  -5    9.17    0.61
   4   9  -8   10.03    0.59
   4   9  -8   11.09    0.81
   4   9  -8   10.13    0.60
   4   9  -8    8.99    0.58
   4  -9  -8   10.84    0.72
   4  -9  -8   11.64    0.85
   4  -9  -8   10.29    0.60
   4  -9  -8   10.26    0.59
   4   9  -7    7.82    0.66
   4   9  -7    5.44    0.42
   4   9  -7    5.38    0.45
   4   9  -7    5.19    0.47
   4  -9  -7    5.21    0.51
   4  -9  -7    5.79    0.40
   4  -9  -7    6.67    0.44
   4  -9  -7    5.97    0.46
   4   9  -6    5.51    0.54
   4   9  -6    4.60    0.28
   4   9  -6    3.52    0.37
  -4   9   6    3.91    0.44
   4   9  -6    3.73    0.37
  -4   9   6    3.97    0.35
   4   9  -6    3.28    0.34
   4  -9  -6    4.30    0.38
   4  -9  -6    4.39    0.39
   4  -9  -6    4.15    0.45
  -4  -9   6    3.84    0.41
   4  -9  -6    4.15    0.30
   4   9  -5   25.10    0.78
   4   9  -5   25.04    0.92
   4   9  -5   25.18    0.79
  -4   9   5   24.60    0.74
  -4   9   5   22.52    0.91
   4   9  -5   23.78    0.64
  -4   9   5   25.91    0.92
   4  -9  -5   23.64    0.65
   4  -9  -5   24.98    0.85
   4  -9  -5   24.18    0.79
   4  -9  -5   23.89    0.74
  -4  -9   5   23.74    0.91
  -4   9   4   11.37    0.50
   4   9  -4   12.04    0.52
  -4   9   4   11.18    0.50
  -4   9   4   11.06    0.57
  -4   9   4   12.04    0.61
   4   9  -4   11.58    0.51
   4  -9  -4   11.25    0.48
   4  -9  -4   12.17    0.44
  -4  -9   4   11.22    0.62
   4  -9  -4   11.32    0.40
   4  -9  -4   12.88    0.62
   4  -9  -4   11.08    0.41
  -4   9   3    0.64    0.23
   4   9  -3    0.48    0.18
  -4   9   3    1.13    0.22
   4  -9  -3    0.80    0.27
   4  -9  -3    0.47    0.18
   4  -9  -3    0.70    0.25
   4  -9  -3    0.38    0.17
  -4  -9   3    0.69    0.28
  -4   9   2  126.08    3.12
   4   9  -2  127.33    3.19
   4   9  -2  127.50    3.14
   4   9  -2  128.57    3.14
  -4   9   2  128.06    2.64
   4  -9  -2  127.55    2.43
   4  -9  -2  121.91    3.12
  -4  -9   2  122.78    2.84
   4  -9  -2  125.94    2.40
  -4  -9   2  122.08    3.38
   4  -9  -2  129.36    3.19
  -4  -9   2  121.94    2.62
  -4  -9   2  124.21    3.15
   4   9  -1   66.42    1.76
   4   9  -1   64.13    1.76
  -4   9   1   63.75    1.46
  -4   9   1   64.54    1.72
   4   9  -1   65.10    1.79
   4  -9  -1   65.80    1.36
  -4  -9   1   65.05    1.75
  -4  -9   1   66.25    1.60
  -4  -9   1   65.36    1.94
   4  -9  -1   64.57    1.76
  -4  -9   1   65.60    1.48
   4  -9  -1   65.74    1.34
  -4  -9   1   62.04    1.55
  -4   9   0  144.74    2.85
  -4   9   0  143.16    3.00
   4   9   0  144.23    3.69
   4   9   0  148.88    3.63
   4   9   0  146.87    3.64
   4  -9   0  143.20    2.77
   4  -9   0  144.76    2.81
  -4  -9   0  149.02    3.94
  -4  -9   0  146.13    3.29
  -4  -9   0  147.39    3.25
   4  -9   0  146.19    3.63
  -4  -9   0  146.83    3.61
  -4  -9   0  143.37    3.04
   4   9   1   29.08    1.01
  -4   9  -1   26.53    0.72
   4   9   1   27.13    0.76
   4   9   1   28.16    0.99
   4   9   1   27.39    0.99
  -4   9  -1   29.31    0.70
   4  -9   1   28.79    0.75
  -4  -9  -1   29.45    1.08
   4  -9   1   28.18    0.92
  -4  -9  -1   27.59    0.85
  -4  -9  -1   27.34    0.82
  -4  -9  -1   28.69    0.74
   4  -9   1   27.82    0.74
  -4  -9  -1   28.44    0.89
  -4   9  -2   28.48    0.75
   4   9   2   29.55    1.04
  -4   9  -2   30.59    0.97
  -4   9  -2   30.73    0.77
  -4   9  -2   31.30    0.73
   4   9   2   29.23    0.82
  -4   9  -2   30.27    0.86
   4   9   2   30.50    1.07
  -4  -9  -2   29.41    0.79
   4  -9   2   31.02    0.80
   4  -9   2   30.06    0.80
  -4  -9  -2   31.13    0.94
  -4  -9  -2   29.08    0.88
  -4  -9  -2   30.74    1.14
  -4  -9  -2   29.70    0.95
   4  -9   2   29.80    0.96
   4   9   3    0.08    0.28
  -4   9  -3    0.57    0.26
  -4   9  -3   -0.10    0.19
  -4   9  -3    0.50    0.16
  -4   9  -3    0.67    0.34
  -4   9  -3    0.43    0.18
   4  -9   3    0.54    0.26
  -4  -9  -3    0.77    0.25
  -4  -9  -3    0.45    0.37
   4  -9   3    0.88    0.28
  -4  -9  -3    0.53    0.29
  -4  -9  -3    0.25    0.26
   4  -9   3    0.78    0.26
  -4  -9  -3    0.38    0.30
   4   9   4    0.67    0.35
  -4   9  -4   -0.31    0.34
  -4   9  -4    0.32    0.27
  -4   9  -4    0.19    0.27
  -4  -9  -4    0.48    0.31
  -4  -9  -4    0.16    0.28
  -4  -9  -4    0.27    0.28
  -4  -9  -4    0.14    0.35
  -4  -9  -4    0.26    0.40
  -4   9  -5    3.48    0.57
  -4   9  -5    3.02    0.40
   4   9   5    3.54    0.44
  -4   9  -5    4.62    0.43
  -4  -9  -5    3.39    0.48
  -4  -9  -5    3.57    0.54
  -4  -9  -5    3.74    0.41
  -4  -9  -5    3.84    0.43
   4  10  -7   10.32    0.44
   4  10  -7    8.40    0.58
   4  10  -7    9.24    0.59
   4  10  -7   10.96    0.75
   4  10  -7    9.20    0.57
  -4  10   7    9.92    0.57
   4 -10  -7    9.69    0.57
   4 -10  -7    9.59    0.48
   4 -10  -7   10.16    0.69
   4 -10  -7    8.58    0.56
   4  10  -6    5.85    0.38
   4  10  -6    5.60    0.45
  -4  10   6    5.97    0.42
   4  10  -6    5.35    0.55
   4  10  -6    5.67    0.42
   4 -10  -6    6.14    0.53
   4 -10  -6    6.00    0.42
   4 -10  -6    5.31    0.44
  -4 -10   6    5.45    0.50
   4 -10  -6    5.86    0.45
  -4  10   5   52.13    1.29
   4  10  -5   53.38    1.56
   4  10  -5   53.53    1.20
   4  10  -5   55.06    1.44
  -4  10   5   57.77    1.65
   4 -10  -5   51.92    1.16
  -4 -10   5   54.23    1.65
   4 -10  -5   54.20    1.30
   4 -10  -5   53.26    1.49
  -4  10   4   30.32    0.87
   4  10  -4   32.27    1.03
  -4  10   4   31.08    0.90
   4  10  -4   31.13    0.92
  -4  10   4   31.35    1.07
   4  10  -4   30.76    0.94
  -4  10   4   30.21    0.79
   4  10  -4   31.37    0.79
   4 -10  -4   30.59    0.76
  -4 -10   4   31.35    1.10
   4 -10  -4   30.76    0.86
   4 -10  -4   31.80    1.09
   4 -10  -4   31.42    0.77
   4 -10  -4   30.56    0.77
   4 -10  -4   30.07    0.85
  -4  10   3   76.53    1.63
   4  10  -3   75.90    1.62
  -4  10   3   77.17    2.09
   4  10  -3   79.21    1.90
  -4  10   3   78.16    1.76
   4  10  -3   77.38    1.81
  -4  10   3   74.62    1.69
   4 -10  -3   76.51    1.77
   4 -10  -3   77.70    2.08
   4 -10  -3   78.38    1.58
  -4 -10   3   77.57    2.22
   4 -10  -3   75.46    2.10
   4 -10  -3   75.98    1.56
   4 -10  -3   77.83    1.56
  -4  10   2   28.91    0.81
  -4  10   2   29.43    0.84
   4  10  -2   30.74    0.87
  -4  10   2   30.21    0.78
   4  10  -2   30.38    0.78
   4  10  -2   31.40    0.94
  -4  10   2   29.85    1.00
   4 -10  -2   30.30    0.77
   4 -10  -2   29.57    0.76
   4 -10  -2   29.60    1.01
   4 -10  -2   31.40    0.78
   4 -10  -2   31.14    0.88
  -4 -10   2   30.83    1.10
  -4  10   1    2.47    0.27
   4  10  -1    1.72    0.25
   4  10  -1    2.13    0.34
  -4  10   1    1.85    0.25
   4  10  -1    2.04    0.34
  -4  10   1    3.15    0.28
   4 -10  -1    2.46    0.32
   4 -10  -1    2.30    0.27
   4 -10  -1    1.95    0.25
   4 -10  -1    1.97    0.27
  -4 -10   1    1.84    0.26
  -4 -10   1    1.75    0.30
  -4 -10   1    2.24    0.40
  -4 -10   1    2.12    0.28
   4 -10  -1    2.34    0.34
   4  10   0    1.17    0.32
   4  10   0    0.82    0.29
  -4  10   0    0.66    0.20
   4  10   0    0.53    0.32
  -4  10   0    0.83    0.21
   4  10   0    0.88    0.24
  -4  10   0    1.46    0.23
   4 -10   0    1.02    0.23
  -4 -10   0    0.69    0.25
  -4 -10   0    1.20    0.34
   4 -10   0    1.05    0.24
  -4 -10   0    0.53    0.25
   4 -10   0    0.94    0.29
  -4 -10   0    1.15    0.23
  -4 -10   0    0.68    0.26
   4 -10   0    0.77    0.25
   4  10   1   46.51    1.46
  -4  10  -1   47.52    1.33
  -4  10  -1   47.47    1.24
  -4  10  -1   47.71    1.09
   4  10   1   46.36    1.13
  -4  10  -1   47.32    1.12
   4  10   1   47.00    1.49
  -4  10  -1   47.49    1.11
   4 -10   1   47.74    1.12
  -4 -10  -1   46.12    1.21
  -4 -10  -1   47.45    1.28
  -4 -10  -1   47.54    1.31
   4 -10   1   47.05    1.06
   4 -10   1   47.30    1.39
  -4 -10  -1   47.27    1.12
   4 -10   1   47.22    1.10
  -4 -10  -1   48.98    1.56
   4  10   2    5.01    0.49
   4  10   2    4.57    0.37
  -4  10  -2    4.49    0.43
  -4  10  -2    4.10    0.39
  -4  10  -2    4.56    0.30
  -4  10  -2    4.53    0.34
   4  10   2    4.68    0.48
  -4  10  -2    4.93    0.35
  -4 -10  -2    5.70    0.37
   4 -10   2    4.47    0.37
  -4 -10  -2    4.57    0.50
  -4 -10  -2    4.07    0.39
  -4 -10  -2    4.75    0.43
  -4 -10  -2    4.76    0.44
   4 -10   2    5.41    0.38
   4 -10   2    5.62    0.50
  -4  10  -3   55.22    1.25
  -4  10  -3   55.29    1.44
  -4  10  -3   56.78    1.23
   4  10   3   54.75    1.36
  -4  10  -3   53.26    1.63
   4 -10   3   57.14    1.31
  -4 -10  -3   58.24    1.55
   4 -10   3   56.81    1.57
  -4 -10  -3   57.81    1.43
   4 -10   3   57.53    1.31
  -4 -10  -3   54.10    1.32
  -4 -10  -3   58.15    1.57
   4  10   4    4.71    0.44
  -4  10  -4    4.77    0.43
  -4  10  -4    4.62    0.55
  -4  10  -4    4.66    0.30
  -4 -10  -4    4.13    0.50
  -4 -10  -4    4.48    0.42
  -4 -10  -4    4.61    0.45
  -4 -10  -4    4.94    0.42
   4  11  -7    2.46    0.41
   4  11  -7    2.49    0.43
   4  11  -7    3.08    0.32
   4  11  -7    2.31    0.37
  -4  11   7    3.26    0.40
   4  11  -7    3.10    0.56
   4 -11  -7    2.77    0.33
   4 -11  -7    2.56    0.43
   4 -11  -7    2.83    0.49
   4  11  -6    0.78    0.33
  -4  11   6    0.91    0.33
   4  11  -6    0.63    0.30
   4  11  -6    1.01    0.43
   4  11  -6    0.48    0.25
   4 -11  -6    0.84    0.40
   4 -11  -6    0.88    0.27
   4 -11  -6    1.01    0.36
   4  11  -5    3.55    0.42
   4  11  -5    3.82    0.47
  -4  11   5    3.98    0.39
   4  11  -5    3.25    0.30
  -4 -11   5    3.55    0.44
   4 -11  -5    3.18    0.45
   4 -11  -5    3.70    0.40
   4 -11  -5    4.16    0.34
  -4  11   4    8.49    0.52
  -4  11   4    8.70    0.47
  -4  11   4    8.38    0.55
   4  11  -4    8.09    0.51
   4  11  -4    9.18    0.46
  -4  11   4    9.31    0.64
   4  11  -4    8.64    0.54
   4 -11  -4    8.94    0.45
   4 -11  -4    8.81    0.47
   4 -11  -4    8.53    0.54
   4 -11  -4    9.66    0.45
   4 -11  -4    9.66    0.65
   4 -11  -4    8.64    0.43
   4 -11  -4    9.05    0.54
  -4 -11   4    8.15    0.64
   4  11  -3   60.01    1.58
   4  11  -3   60.92    1.36
  -4  11   3   58.93    1.41
  -4  11   3   62.79    1.76
  -4  11   3   60.30    1.47
  -4  11   3   59.27    1.36
  -4 -11   3   60.53    1.85
  -4 -11   3   60.31    1.29
   4 -11  -3   61.44    1.76
   4 -11  -3   57.60    1.37
   4 -11  -3   61.42    1.49
   4 -11  -3   59.42    1.32
   4 -11  -3   61.96    1.31
   4 -11  -3   61.58    1.32
   4  11  -2   10.70    0.49
  -4  11   2   11.01    0.52
  -4  11   2   10.53    0.55
   4  11  -2   10.29    0.57
  -4  11   2   10.76    0.48
   4 -11  -2   10.27    0.47
  -4 -11   2   11.61    0.49
  -4 -11   2   10.91    0.70
   4 -11  -2   11.02    0.64
   4 -11  -2   10.41    0.49
   4 -11  -2   10.19    0.46
   4 -11  -2    9.91    0.51
  -4  11   1  112.15    2.42
   4  11  -1  110.17    2.31
   4  11  -1  114.06    2.63
  -4  11   1  111.05    2.30
  -4  11   1  107.80    2.34
   4  11  -1  111.04    2.96
   4  11  -1  111.63    2.92
   4  11  -1  113.88    2.35
   4 -11  -1  111.06    2.92
  -4 -11   1  112.29    2.64
  -4 -11   1  115.00    3.14
   4 -11  -1  111.06    2.53
  -4 -11   1  112.92    2.45
   4 -11  -1  110.27    2.19
   4 -11  -1  112.37    2.23
   4 -11  -1  111.62    2.26
  -4 -11   1  112.68    2.16
  -4  11   0    5.01    0.34
   4  11   0    4.73    0.48
  -4  11   0    4.61    0.34
   4  11   0    5.21    0.38
   4  11   0    3.73    0.44
   4  11   0    4.80    0.42
   4  11   0    4.15    0.35
  -4  11   0    5.28    0.38
  -4 -11   0    4.51    0.37
   4 -11   0    4.82    0.38
  -4 -11   0    3.90    0.38
  -4 -11   0    5.15    0.51
   4 -11   0    4.97    0.37
   4 -11   0    4.57    0.44
   4 -11   0    4.63    0.35
  -4 -11   0    5.06    0.36
  -4 -11   0    4.09    0.37
  -4  11  -1   51.59    1.22
  -4  11  -1   55.57    1.37
   4  11   1   51.60    1.60
   4  11   1   49.12    1.26
  -4  11  -1   50.71    1.23
   4  11   1   53.18    1.38
   4  11   1   50.25    1.63
  -4  11  -1   51.08    1.20
  -4  11  -1   52.77    1.46
  -4 -11  -1   50.58    1.40
   4 -11   1   51.72    1.54
  -4 -11  -1   52.12    1.34
   4 -11   1   52.23    1.17
  -4 -11  -1   52.63    1.45
  -4 -11  -1   52.30    1.24
   4 -11   1   49.52    1.23
  -4 -11  -1   54.02    1.76
   4 -11   1   52.39    1.23
  -4  11  -2    0.06    0.21
   4  11   2    0.41    0.30
  -4  11  -2    0.50    0.22
  -4  11  -2    0.20    0.29
  -4  11  -2    0.65    0.34
  -4  11  -2    0.37    0.20
  -4 -11  -2    0.49    0.28
  -4 -11  -2    0.62    0.29
  -4 -11  -2    0.63    0.32
   4 -11   2    0.18    0.27
   4 -11   2    0.45    0.30
   4 -11   2    0.56    0.31
  -4 -11  -2    0.34    0.34
  -4  11  -3    4.88    0.36
  -4  11  -3    5.16    0.34
  -4  11  -3    5.69    0.54
   4  11   3    3.80    0.44
  -4  11  -3    5.22    0.47
  -4 -11  -3    4.71    0.42
  -4 -11  -3    4.06    0.49
  -4 -11  -3    4.88    0.43
   4 -11   3    4.93    0.43
  -4 -11  -3    5.06    0.47
   4 -11   3    4.65    0.43
   4  11   4    1.82    0.41
  -4  11  -4    2.12    0.40
  -4  11  -4    1.93    0.26
  -4  11  -4    0.92    0.47
   4 -11   4    1.87    0.38
  -4 -11  -4    1.64    0.46
  -4 -11  -4    1.41    0.38
  -4 -11  -4    1.76    0.40
   4 -11   4    1.80    0.38
   4  12  -6   27.29    1.08
   4  12  -6   24.83    0.98
   4  12  -6   24.61    0.93
  -4  12   6   26.87    0.89
   4  12  -6   26.52    0.79
  -4 -12   6   25.35    0.84
   4 -12  -6   24.67    0.80
   4 -12  -6   26.14    0.89
   4 -12  -6   26.38    1.00
   4  12  -5   12.55    0.71
   4  12  -5   12.16    0.56
   4  12  -5   11.36    0.68
  -4  12   5   11.60    0.64
   4 -12  -5   11.53    0.71
  -4 -12   5   12.39    0.60
   4 -12  -5   11.91    0.54
   4 -12  -5   10.85    0.62
  -4  12   4   41.70    1.11
   4  12  -4   40.17    1.03
   4  12  -4   39.45    1.22
  -4  12   4   38.65    1.13
  -4  12   4   39.97    1.03
   4 -12  -4   40.53    1.00
   4 -12  -4   39.32    1.22
   4 -12  -4   40.15    1.02
   4 -12  -4   43.23    1.40
   4 -12  -4   40.68    1.09
   4 -12  -4   40.64    0.99
  -4 -12   4   40.65    1.00
   4 -12  -4   40.70    1.12
  -4  12   3    4.06    0.38
  -4  12   3    4.26    0.47
   4  12  -3    3.44    0.34
  -4  12   3    4.10    0.36
  -4  12   3    2.73    0.36
   4  12  -3    3.49    0.42
  -4 -12   3    2.69    0.34
   4 -12  -3    3.68    0.35
   4 -12  -3    3.37    0.39
   4 -12  -3    3.82    0.48
   4 -12  -3    3.60    0.34
  -4 -12   3    4.07    0.50
   4 -12  -3    3.40    0.35
   4  12  -2   14.05    0.65
  -4  12   2   13.05    0.63
  -4  12   2   13.99    0.58
  -4  12   2   13.81    0.56
   4  12  -2   13.04    0.55
   4 -12  -2   13.17    0.58
   4 -12  -2   12.62    0.56
   4 -12  -2   12.75    0.58
  -4 -12   2   14.25    0.56
   4 -12  -2   13.06    0.78
   4 -12  -2   13.77    0.61
  -4 -12   2   14.39    0.82
  -4  12   1    0.97    0.27
  -4  12   1    0.69    0.28
   4  12  -1    0.59    0.27
  -4  12   1    1.39    0.29
   4  12  -1    0.59    0.27
  -4  12   1    0.68    0.29
   4  12  -1    0.65    0.32
   4 -12  -1    0.47    0.27
   4 -12  -1    0.70    0.31
   4 -12  -1    0.71    0.31
  -4 -12   1    0.46    0.24
   4 -12  -1    0.36    0.33
   4  12   0    4.61    0.37
  -4  12   0    4.07    0.36
  -4  12   0    3.75    0.35
   4  12   0    4.66    0.51
  -4  12   0    4.13    0.35
   4  12   0    3.63    0.49
   4  12   0    5.02    0.44
   4  12   0    3.20    0.36
  -4 -12   0    3.88    0.39
   4 -12   0    4.06    0.39
  -4 -12   0    3.32    0.41
   4 -12   0    4.66    0.38
  -4 -12   0    4.47    0.41
   4 -12   0    4.90    0.40
  -4 -12   0    4.75    0.38
   4  12   1    4.83    0.43
   4  12   1    4.70    0.43
  -4  12  -1    4.41    0.36
  -4  12  -1    4.31    0.34
  -4  12  -1    4.40    0.36
  -4  12  -1    4.86    0.46
  -4 -12  -1    4.59    0.45
  -4 -12  -1    4.21    0.45
  -4 -12  -1    4.25    0.40
   4 -12   1    4.39    0.41
   4 -12   1    4.61    0.42
  -4 -12  -1    4.66    0.41
   4 -12   1    4.71    0.39
   4  12   2   29.94    0.96
  -4  12  -2   29.72    0.84
  -4  12  -2   28.72    0.83
  -4  12  -2   30.79    0.98
  -4  12  -2   29.22    0.84
  -4  12  -2   30.72    1.06
  -4 -12  -2   30.36    0.98
  -4 -12  -2   28.71    1.03
   4 -12   2   27.16    0.90
   4 -12   2   30.18    0.84
  -4 -12  -2   29.73    1.05
  -4 -12  -2   28.52    0.89
   4 -12   2   28.53    0.92
   4  12   3    7.00    0.55
  -4  12  -3    6.92    0.48
  -4  12  -3    7.05    0.43
  -4  12  -3    7.20    0.56
  -4  12  -3    7.07    0.62
   4 -12   3    5.76    0.49
  -4 -12  -3    8.14    0.61
  -4 -12  -3    6.97    0.50
   4 -12   3    7.59    0.53
  -4 -12  -3    7.50    0.62
  -4 -12  -3    6.78    0.55
  -4  13   5   -0.11    0.33
   4  13  -5    0.13    0.30
   4  13  -5   -0.24    0.36
   4  13  -5    0.00    0.41
  -4 -13   5    0.05    0.35
   4 -13  -5   -0.11    0.31
   4 -13  -5    0.48    0.36
   4 -13  -5    0.07    0.41
   4  13  -4    2.28    0.34
  -4  13   4    2.21    0.38
  -4  13   4    2.91    0.37
   4  13  -4    2.54    0.44
  -4  13   4    1.76    0.35
  -4 -13   4    1.14    0.33
   4 -13  -4    1.99    0.38
   4 -13  -4    1.75    0.33
   4 -13  -4    2.09    0.37
   4 -13  -4    1.08    0.36
   4 -13  -4    1.59    0.32
   4 -13  -4    2.41    0.44
  -4  13   3    0.60    0.31
  -4  13   3    1.21    0.33
   4  13  -3    1.02    0.38
  -4  13   3    0.96    0.32
   4  13  -3    0.70    0.30
   4 -13  -3    0.31    0.34
  -4 -13   3    0.47    0.31
   4 -13  -3    0.31    0.30
   4 -13  -3    0.62    0.32
   4 -13  -3    1.06    0.39
   4 -13  -3    0.65    0.31
  -4  13   2   47.30    1.27
   4  13  -2   49.70    1.40
   4  13  -2   46.66    1.18
  -4  13   2   45.56    1.19
  -4  13   2   46.43    1.22
   4 -13  -2   46.09    1.29
   4 -13  -2   45.86    1.14
   4 -13  -2   45.36    1.16
   4 -13  -2   47.10    1.14
  -4 -13   2   45.21    1.11
  -4  13   1    4.72    0.40
  -4  13   1    5.16    0.44
  -4  13   1    5.82    0.43
   4  13  -1    4.94    0.41
  -4  13   1    4.66    0.40
   4  13  -1    5.35    0.47
   4 -13  -1    3.47    0.42
   4 -13  -1    6.12    0.43
   4 -13  -1    5.17    0.43
   4 -13  -1    5.18    0.50
  -4 -13   1    5.31    0.39
   4  13   0   68.08    1.56
  -4  13   0   65.98    1.62
   4  13   0   71.89    1.78
  -4  13   0   64.71    1.55
  -4  13   0   65.59    1.58
   4  13   0   67.10    1.60
  -4 -13   0   68.78    1.80
   4 -13   0   69.01    1.57
  -4 -13   0   66.34    1.66
   4 -13   0   68.56    1.55
   4 -13   0   68.51    1.50
  -4  13  -1    2.13    0.32
   4  13   1    2.17    0.37
   4  13   1    2.44    0.39
  -4  13  -1    2.03    0.33
  -4  13  -1    2.44    0.35
   4 -13   1    2.39    0.35
  -4 -13  -1    3.49    0.44
   4 -13   1    1.66    0.40
   4 -13   1    2.02    0.40
  -4 -13  -1    2.35    0.40
  -4 -13  -1    2.16    0.37
  -4 -13  -1    2.94    0.38
  -4  13  -2   14.36    0.61
  -4  13  -2   14.41    0.61
  -4  13  -2   14.65    0.61
   4  13   2   14.51    0.76
  -4  13  -2   15.02    0.78
  -4  13  -2   16.58    0.75
   4 -13   2   15.23    0.65
  -4 -13  -2   14.25    0.79
   4 -13   2   14.53    0.74
   4 -13   2   15.53    0.76
  -4 -13  -2   13.73    0.69
  -4 -13  -2   15.82    0.75
  -4 -13  -2   15.11    0.81
  -4  14   4   15.11    0.76
   4  14  -4   13.63    0.75
  -4  14   4   14.09    0.69
   4  14  -4   13.06    0.65
  -4  14   4   13.37    0.70
   4 -14  -4   13.55    0.70
   4 -14  -4   12.83    0.69
   4 -14  -4   11.79    0.62
   4 -14  -4   12.98    0.63
   4 -14  -4   13.44    0.75
  -4 -14   4   13.29    0.67
  -4  14   3    8.34    0.55
  -4  14   3    8.72    0.58
   4  14  -3    8.50    0.58
  -4  14   3    9.56    0.65
   4  14  -3    8.61    0.67
  -4 -14   3    8.80    0.53
   4 -14  -3    8.38    0.57
   4 -14  -3    8.73    0.60
   4 -14  -3    8.10    0.51
   4 -14  -3    9.16    0.68
   4 -14  -3    9.00    0.62
   4  14  -2   12.93    0.64
  -4  14   2   12.66    0.70
  -4  14   2   12.61    0.65
  -4  14   2   13.05    0.66
  -4  14   2   12.72    0.65
   4  14  -2   14.27    0.74
  -4 -14   2   13.40    0.61
   4 -14  -2   12.50    0.66
   4 -14  -2   13.03    0.74
   4 -14  -2   11.70    0.65
   4 -14  -2   13.78    0.68
   4 -14  -2   13.18    0.71
   4  14  -1   -0.07    0.34
   4  14  -1    0.21    0.31
  -4  14   1   -0.03    0.32
  -4  14   1    0.30    0.32
  -4  14   1    0.23    0.31
  -4  14   1    0.19    0.31
   4 -14  -1    0.02    0.36
   4 -14  -1    0.63    0.42
  -4 -14   1    0.37    0.28
   4 -14  -1   -0.26    0.32
   4 -14  -1   -0.07    0.35
   4  14   0    0.53    0.38
  -4  14   0    0.08    0.29
   4  14   0   -0.23    0.30
  -4  14   0    0.28    0.31
  -4  14   0    0.97    0.34
   4  14   0    0.71    0.36
   4 -14   0   -0.60    0.36
   4 -14   0   -0.02    0.37
   4 -14   0    0.49    0.35
  -4  14  -1   15.75    0.70
   4  14   1   17.54    0.78
   4  14   1   19.57    0.82
  -4  14  -1   16.16    0.74
  -4  14  -1   17.57    0.74
  -4 -14  -1   17.57    0.87
   4 -14   1   16.87    0.81
  -4 -14  -1   18.49    0.81
   4 -14   1   19.54    0.82
  -4 -14  -1   15.75    0.70
  -4 -14  -1   18.32    0.80
   4 -14   1   18.59    0.70
   5   0 -10   27.86    0.94
   5   0 -10   25.54    0.96
   5   0  -9   -0.25    0.20
   5   0  -9    0.16    0.28
   5   0  -9    0.08    0.26
   5   0  -9    0.13    0.17
   5   0  -9    0.22    0.27
   5   0  -9   -0.05    0.32
   5   0  -8   76.30    1.79
   5   0  -8   74.68    1.47
  -5   0   8   75.86    2.12
   5   0  -8   77.08    1.85
   5   0  -8   73.69    1.80
   5   0  -8   74.78    1.51
  -5   0   7   -0.09    0.25
   5   0  -7    0.00    0.17
   5   0  -7    0.12    0.19
   5   0  -7   -0.31    0.17
   5   0  -7    0.30    0.15
   5   0  -6   29.66    0.84
  -5   0   6   30.81    0.96
   5   0  -6   30.93    0.80
   5   0  -5    0.12    0.13
   5   0  -5   -0.11    0.14
  -5   0   5    0.04    0.18
   5   0  -4    7.34    0.29
   5   0  -4    6.86    0.31
  -5   0   4    7.28    0.36
  -5   0   4    7.25    0.32
   5   0  -4    6.87    0.31
  -5   0   4    6.97    0.27
   5   0  -3    0.12    0.12
  -5   0   3    0.35    0.15
   5   0  -3    0.39    0.11
  -5   0   3    0.16    0.10
  -5   0   3    0.06    0.12
   5   0  -3    0.02    0.12
  -5   0   2  136.18    3.23
   5   0  -2  137.73    3.30
   5   0  -2  135.02    3.24
  -5   0   2  137.17    2.73
   5   0  -2  135.69    2.90
  -5   0   2  134.70    3.47
   5   0  -1   -0.01    0.12
  -5   0   1    0.11    0.10
   5   0  -1    0.84    0.14
  -5   0   1   -0.08    0.09
  -5   0   1   -0.06    0.12
  -5   0   1    0.13    0.12
   5   0  -1    0.06    0.08
  -5   0   0  330.63    8.25
  -5   0   0  326.67    7.67
  -5   0   0  324.86    6.46
  -5   0   0  328.41    6.98
   5   0   0  335.41    7.67
   5   0   1    0.04    0.13
  -5   0  -1    0.06    0.19
  -5   0  -1    0.23    0.13
  -5   0  -1    0.35    0.11
  -5   0  -1    0.16    0.12
  -5   0  -2  175.30    4.19
  -5   0  -2  172.46    3.81
  -5   0  -2  174.03    3.53
  -5   0  -2  176.56    3.84
  -5   0  -2  183.08    3.70
   5   0   2  180.70    4.26
   5   0   3    0.26    0.16
  -5   0  -3   -0.17    0.14
  -5   0  -3    0.16    0.26
  -5   0  -3    0.12    0.16
  -5   0  -3    0.10    0.23
  -5   0  -3    0.16    0.18
  -5   0  -3    0.17    0.14
  -5   0  -4    0.53    0.16
  -5   0  -4    0.39    0.22
  -5   0  -4    0.54    0.23
  -5   0  -4    0.79    0.32
  -5   0  -4    0.84    0.18
  -5   0  -4    0.91    0.19
  -5   0  -4    0.79    0.31
   5   0   4    0.70    0.19
  -5   0  -5    0.28    0.37
  -5   0  -5    0.33    0.25
  -5   0  -5   -0.11    0.33
  -5   0  -5    0.10    0.25
  -5   0  -6   26.67    0.85
  -5   0  -6   26.87    0.85
  -5   0  -6   27.99    0.99
  -5   0  -6   24.97    1.02
   5   1 -10    2.63    0.40
   5  -1 -10    2.25    0.24
   5  -1 -10    2.00    0.38
   5   1  -9    0.37    0.21
   5   1  -9    0.28    0.30
   5   1  -9    0.70    0.28
   5   1  -9    0.59    0.18
   5   1  -9    0.51    0.34
   5   1  -9    0.60    0.30
   5  -1  -9    0.44    0.28
   5  -1  -9    0.58    0.34
   5  -1  -9    0.54    0.19
   5  -1  -9    0.50    0.22
   5  -1  -9    1.13    0.29
   5  -1  -9    0.73    0.32
   5   1  -8    8.16    0.48
   5   1  -8    7.48    0.37
   5   1  -8    6.96    0.50
   5   1  -8    8.20    0.43
   5   1  -8    8.29    0.33
  -5   1   8    7.94    0.57
   5   1  -8    8.57    0.45
   5  -1  -8    8.46    0.48
   5  -1  -8    8.69    0.44
   5  -1  -8    8.47    0.44
  -5  -1   8    8.01    0.57
   5  -1  -8    8.07    0.34
   5  -1  -8    7.15    0.36
  -5   1   7   23.27    0.85
   5   1  -7   23.87    0.70
   5   1  -7   25.04    0.58
   5   1  -7   23.67    0.73
   5   1  -7   23.77    0.72
   5   1  -7   24.07    0.58
   5  -1  -7   24.61    0.58
  -5  -1   7   23.66    0.84
   5  -1  -7   23.56    0.58
   5  -1  -7   23.36    0.71
   5  -1  -7   22.82    0.70
   5   1  -6   88.91    2.15
   5   1  -6   87.75    1.98
  -5   1   6   87.06    2.36
   5  -1  -6   88.31    2.16
  -5  -1   6   89.09    2.36
   5  -1  -6   87.14    1.98
   5   1  -5   94.98    2.09
   5   1  -5   96.10    2.29
  -5   1   5   93.62    2.49
   5  -1  -5   95.08    2.29
   5  -1  -5   93.53    2.08
  -5  -1   5   91.76    2.49
  -5   1   4  138.19    2.79
   5   1  -4  139.83    3.00
  -5   1   4  142.71    3.31
   5   1  -4  136.86    3.31
   5   1  -4  139.81    3.37
  -5   1   4  138.26    3.57
   5  -1  -4  139.03    2.99
  -5  -1   4  136.97    3.57
  -5  -1   4  138.92    2.79
   5  -1  -4  136.47    3.37
  -5  -1   4  139.65    3.01
   5  -1  -4  136.45    3.31
  -5  -1   4  142.44    3.31
   5   1  -3  117.25    2.58
  -5   1   3  120.56    2.87
   5   1  -3  120.11    2.87
  -5   1   3  121.09    3.08
  -5   1   3  119.25    2.42
   5   1  -3  117.80    2.92
  -5  -1   3  122.61    2.87
  -5  -1   3  119.77    2.61
  -5  -1   3  121.72    3.09
   5  -1  -3  117.37    2.57
   5  -1  -3  120.64    2.92
   5  -1  -3  118.42    2.87
  -5  -1   3  121.18    2.42
  -5   1   2   95.53    2.45
   5   1  -2   95.53    2.06
  -5   1   2   94.12    1.94
  -5   1   2   93.82    2.30
   5   1  -2   93.85    2.34
   5   1  -2   94.29    2.30
  -5  -1   2   96.23    2.09
  -5  -1   2   93.90    2.47
  -5  -1   2   95.49    1.94
  -5  -1   2   98.49    2.30
   5  -1  -2   95.18    2.34
   5  -1  -2   95.08    2.04
   5  -1  -2   94.85    2.30
   5   1  -1   19.03    0.59
  -5   1   1   18.78    0.48
   5   1  -1   19.87    0.58
  -5   1   1   19.31    0.59
  -5   1   1   19.38    0.57
  -5  -1   1   18.93    0.52
  -5  -1   1   19.45    0.57
  -5  -1   1   20.45    0.63
   5  -1  -1   19.09    0.46
   5  -1  -1   19.85    0.58
   5  -1  -1   19.35    0.59
  -5  -1   1   19.57    0.48
  -5   1   0    5.21    0.25
  -5   1   0    5.62    0.28
  -5   1   0    4.77    0.26
   5   1   0    5.38    0.29
  -5   1   0    5.33    0.23
  -5  -1   0    5.39    0.28
  -5  -1   0    5.42    0.24
   5  -1   0    5.29    0.28
  -5  -1   0    6.12    0.26
  -5  -1   0    5.61    0.32
  -5   1  -1   11.90    0.38
  -5   1  -1   12.02    0.35
  -5   1  -1   12.21    0.41
  -5   1  -1   12.36    0.46
   5   1   1   12.57    0.44
  -5  -1  -1   12.24    0.43
  -5  -1  -1   10.42    0.50
  -5  -1  -1   12.16    0.39
   5  -1   1   12.53    0.43
  -5  -1  -1   12.22    0.36
  -5  -1  -1   11.69    0.45
  -5   1  -2   59.14    1.37
   5   1   2   59.12    1.49
  -5   1  -2   58.30    1.36
  -5   1  -2   56.86    1.45
  -5   1  -2   58.06    1.23
  -5   1  -2   58.12    1.33
  -5  -1  -2   56.99    1.44
   5  -1   2   58.70    1.48
  -5  -1  -2   56.67    1.36
  -5  -1  -2   57.13    1.24
  -5  -1  -2   59.14    1.38
  -5  -1  -2   57.36    1.34
  -5  -1  -2   58.60    1.48
  -5   1  -3   32.10    0.86
  -5   1  -3   32.23    0.80
   5   1   3   32.67    0.89
  -5   1  -3   31.75    0.89
  -5   1  -3   31.68    0.87
  -5   1  -3   33.27    0.75
  -5  -1  -3   30.98    0.90
  -5  -1  -3   30.33    0.95
  -5  -1  -3   31.98    0.76
  -5  -1  -3   31.48    0.90
  -5  -1  -3   30.74    0.82
   5  -1   3   32.43    0.87
  -5  -1  -3   32.46    0.87
  -5   1  -4   84.69    2.01
  -5   1  -4   87.41    2.13
  -5   1  -4   85.40    1.97
   5   1   4   87.94    2.16
  -5   1  -4   90.43    1.70
  -5   1  -4   85.21    1.82
  -5   1  -4   87.03    1.97
  -5   1  -4   86.39    2.01
  -5  -1  -4   86.99    2.14
  -5  -1  -4   86.38    1.83
  -5  -1  -4   87.10    1.72
  -5  -1  -4   88.19    1.99
  -5  -1  -4   84.66    2.03
  -5  -1  -4   86.74    2.02
  -5  -1  -4   89.66    1.98
  -5   1  -5   15.30    0.79
  -5   1  -5   17.30    0.62
  -5   1  -5   17.62    0.72
  -5   1  -5   14.95    0.74
  -5   1  -5   16.35    0.60
  -5  -1  -5   17.16    0.64
  -5  -1  -5   16.59    0.63
  -5  -1  -5   17.06    0.79
  -5  -1  -5   17.16    0.49
  -5  -1  -5   17.40    0.76
  -5   1  -6   11.42    0.77
  -5   1  -6   11.44    0.69
  -5   1  -6   11.89    0.55
   5   1   6   10.35    0.58
  -5   1  -6   11.25    0.55
  -5  -1  -6   11.76    0.60
  -5  -1  -6   11.79    0.55
  -5  -1  -6   11.95    0.77
  -5  -1  -6   12.46    0.75
   5   2  -9   34.78    1.01
   5   2  -9   33.27    1.05
   5   2  -9   36.03    0.82
   5   2  -9   35.56    1.02
   5   2  -9   35.56    0.79
   5   2  -9   34.83    1.12
   5  -2  -9   35.90    0.81
   5  -2  -9   33.97    1.02
   5  -2  -9   30.72    1.11
   5  -2  -9   33.82    1.04
   5  -2  -9   34.27    1.01
   5  -2  -9   35.67    0.82
   5   2  -8    4.64    0.39
  -5   2   8    4.34    0.41
   5   2  -8    3.81    0.26
   5   2  -8    3.84    0.36
   5   2  -8    3.58    0.33
   5   2  -8    4.25    0.27
   5   2  -8    4.23    0.33
   5  -2  -8    4.13    0.34
  -5  -2   8    4.07    0.39
   5  -2  -8    3.79    0.35
   5  -2  -8    3.58    0.31
   5  -2  -8    4.67    0.32
   5  -2  -8    4.58    0.30
   5   2  -7   40.31    1.05
  -5   2   7   41.76    1.26
   5   2  -7   41.46    0.87
   5   2  -7   41.35    1.11
   5   2  -7   40.98    1.05
   5   2  -7   40.26    0.87
   5  -2  -7   40.68    0.87
   5  -2  -7   41.70    0.90
   5  -2  -7   41.59    1.05
   5  -2  -7   41.95    1.06
  -5  -2   7   40.42    1.25
   5   2  -6    0.74    0.16
  -5   2   6    0.63    0.22
   5   2  -6    0.70    0.19
  -5  -2   6    0.72    0.23
   5  -2  -6    0.82    0.17
   5  -2  -6    1.13    0.20
   5   2  -5    4.39    0.27
   5   2  -5    4.58    0.29
  -5   2   5    4.57    0.35
   5  -2  -5    4.91    0.28
   5  -2  -5    4.77    0.29
   5  -2  -5    4.38    0.31
  -5  -2   5    4.35    0.36
   5   2  -4    5.37    0.28
  -5   2   4    4.78    0.25
   5   2  -4    5.04    0.28
  -5   2   4    5.70    0.33
  -5   2   4    5.16    0.30
   5   2  -4    5.38    0.28
  -5  -2   4    5.43    0.29
  -5  -2   4    5.35    0.24
  -5  -2   4    5.25    0.26
  -5  -2   4    4.93    0.34
   5  -2  -4    4.74    0.28
   5  -2  -4    5.51    0.29
   5  -2  -4    5.47    0.26
   5   2  -3   74.09    1.82
   5   2  -3   74.48    1.65
  -5   2   3   74.60    1.83
   5   2  -3   76.19    1.86
  -5   2   3   74.92    1.54
  -5   2   3   73.49    1.95
  -5  -2   3   73.35    1.66
   5  -2  -3   74.36    1.86
   5  -2  -3   74.44    1.62
  -5  -2   3   72.80    1.54
   5  -2  -3   72.54    1.82
  -5  -2   3   72.21    1.97
  -5  -2   3   75.87    1.83
  -5   2   2   10.56    0.38
   5   2  -2   10.14    0.38
   5   2  -2   10.19    0.38
   5   2  -2    9.96    0.39
  -5   2   2    9.89    0.38
  -5   2   2   10.21    0.32
  -5  -2   2   10.34    0.43
  -5  -2   2   10.52    0.32
   5  -2  -2   10.26    0.30
   5  -2  -2   10.67    0.39
  -5  -2   2   10.50    0.35
  -5  -2   2   10.32    0.38
  -5   2   1  322.24    7.94
   5   2  -1  312.99    7.56
   5   2  -1  312.68    7.44
   5   2  -1  319.95    7.42
  -5   2   1  312.67    7.42
  -5   2   1  309.83    6.25
  -5  -2   1  317.87    6.75
  -5  -2   1  321.06    7.42
   5  -2  -1  319.62    7.42
  -5  -2   1  320.34    6.26
   5  -2  -1  330.65    7.56
  -5  -2   1  316.77    8.00
  -5   2   0   13.15    0.43
  -5   2   0   13.36    0.37
   5   2   0   13.49    0.46
  -5  -2   0   12.64    0.52
  -5  -2   0   13.25    0.46
   5  -2   0   13.68    0.45
  -5  -2   0   12.93    0.38
  -5  -2   0   13.34    0.41
   5   2   1  213.23    5.19
  -5   2  -1  221.36    5.07
  -5   2  -1  221.56    4.62
  -5   2  -1  212.23    4.63
   5   2   1  213.00    5.10
  -5   2  -1  220.81    4.28
  -5  -2  -1  204.11    5.54
  -5  -2  -1  218.16    4.30
  -5  -2  -1  221.84    5.10
  -5  -2  -1  207.15    4.42
  -5  -2  -1  219.88    4.64
   5  -2   1  218.54    5.17
  -5   2  -2   10.69    0.40
  -5   2  -2   11.12    0.37
  -5   2  -2   11.73    0.35
  -5   2  -2   11.94    0.48
   5   2   2   10.78    0.43
   5   2   2   10.79    0.44
  -5   2  -2   10.79    0.40
  -5  -2  -2   11.99    0.44
  -5  -2  -2   10.18    0.49
  -5  -2  -2   11.15    0.38
   5  -2   2   10.84    0.41
  -5  -2  -2   11.11    0.44
  -5  -2  -2   11.26    0.41
  -5  -2  -2   10.92    0.47
   5   2   3   37.57    1.02
  -5   2  -3   36.75    0.95
  -5   2  -3   36.85    0.90
  -5   2  -3   36.09    0.83
  -5   2  -3   37.13    0.98
   5   2   3   38.14    1.01
  -5   2  -3   35.88    0.99
  -5  -2  -3   35.97    1.04
  -5  -2  -3   36.09    1.00
  -5  -2  -3   37.80    0.88
   5  -2   3   37.41    1.00
  -5  -2  -3   37.24    0.98
  -5  -2  -3   37.72    1.07
  -5  -2  -3   37.59    0.95
  -5  -2  -3   37.42    0.81
  -5   2  -4    0.22    0.14
  -5   2  -4   -0.12    0.22
  -5   2  -4    0.12    0.20
   5   2   4    0.25    0.20
  -5   2  -4    0.25    0.29
  -5  -2  -4    0.21    0.21
  -5  -2  -4    0.22    0.19
  -5  -2  -4    0.04    0.16
  -5  -2  -4   -0.13    0.22
  -5  -2  -4    0.05    0.31
  -5  -2  -4    0.43    0.30
  -5  -2  -4    0.24    0.33
  -5   2  -5    0.50    0.37
  -5   2  -5    0.38    0.25
  -5   2  -5    0.29    0.27
   5   2   5    0.36    0.27
  -5   2  -5    0.84    0.39
  -5   2  -5    0.25    0.34
  -5  -2  -5    0.61    0.27
  -5  -2  -5    0.69    0.20
  -5  -2  -5    0.38    0.26
  -5  -2  -5    0.68    0.40
  -5  -2  -5    0.52    0.35
  -5  -2  -5    0.62    0.37
  -5   2  -6    1.00    0.45
   5   2   6    0.49    0.32
  -5   2  -6    1.28    0.34
  -5   2  -6    1.30    0.42
  -5   2  -6    1.12    0.49
  -5  -2  -6    0.94    0.45
  -5  -2  -6    0.79    0.32
  -5  -2  -6    1.40    0.32
  -5  -2  -6    0.82    0.48
  -5  -2  -6    0.99    0.41
   5   3  -9    2.08    0.33
   5   3  -9    1.85    0.38
   5   3  -9    2.09    0.33
   5  -3  -9    1.51    0.42
   5  -3  -9    1.67    0.31
   5  -3  -9    1.90    0.33
   5  -3  -9    1.51    0.32
   5  -3  -9    1.60    0.23
   5  -3  -9    1.93    0.25
   5   3  -8    9.22    0.34
  -5   3   8    9.22    0.61
   5   3  -8    8.77    0.37
   5   3  -8    9.56    0.51
   5   3  -8    8.76    0.49
   5   3  -8    8.83    0.45
   5  -3  -8    9.05    0.46
   5  -3  -8    9.60    0.39
  -5  -3   8    9.15    0.59
   5  -3  -8    8.41    0.38
   5  -3  -8    8.53    0.50
   5  -3  -8    8.76    0.47
   5   3  -7   24.79    0.58
   5   3  -7   26.09    0.78
  -5   3   7   24.59    0.88
   5   3  -7   24.12    0.73
   5   3  -7   23.27    0.59
   5   3  -7   22.94    0.71
   5  -3  -7   22.13    0.71
  -5  -3   7   23.78    0.86
   5  -3  -7   23.40    0.60
   5  -3  -7   24.26    0.71
   5  -3  -7   23.76    0.58
   5   3  -6   21.57    0.64
  -5   3   6   21.16    0.76
   5   3  -6   21.38    0.64
   5  -3  -6   21.86    0.63
   5  -3  -6   20.88    0.66
  -5  -3   6   20.53    0.75
   5   3  -5   86.10    1.93
   5   3  -5   85.80    2.10
  -5   3   5   85.47    1.81
  -5   3   5   82.49    2.29
   5  -3  -5   87.52    2.12
   5  -3  -5   85.00    2.16
   5  -3  -5   88.96    1.92
  -5  -3   5   84.18    2.29
  -5   3   4   50.51    1.30
  -5   3   4   51.54    1.10
   5   3  -4   52.69    1.29
   5   3  -4   50.05    1.31
   5   3  -4   51.47    1.19
  -5   3   4   48.80    1.39
   5  -3  -4   50.27    1.16
  -5  -3   4   49.55    1.09
  -5  -3   4   51.28    1.29
   5  -3  -4   51.80    1.33
   5  -3  -4   49.60    1.30
  -5  -3   4   49.85    1.17
  -5  -3   4   47.09    1.40
  -5   3   3  154.67    3.08
  -5   3   3  154.04    3.91
   5   3  -3  157.28    3.31
   5   3  -3  153.18    3.65
  -5   3   3  151.98    3.65
   5   3  -3  155.77    3.72
   5   3  -3  155.24    3.66
  -5  -3   3  151.32    3.08
  -5  -3   3  152.71    3.32
  -5  -3   3  151.51    3.65
   5  -3  -3  151.07    3.72
  -5  -3   3  150.37    3.94
   5  -3  -3  155.17    3.27
   5  -3  -3  154.54    3.66
   5   3  -2   48.36    1.23
  -5   3   2   47.68    1.03
   5   3  -2   47.91    1.25
  -5   3   2   47.48    1.28
  -5   3   2   47.51    1.22
   5   3  -2   46.36    1.22
   5  -3  -2   47.12    1.05
  -5  -3   2   47.11    1.22
  -5  -3   2   46.67    1.33
   5  -3  -2   47.88    1.24
   5  -3  -2   47.69    1.22
  -5  -3   2   47.46    1.11
  -5  -3   2   47.95    1.03
   5   3  -1   49.82    1.27
  -5   3   1   48.41    1.25
  -5   3   1   48.46    1.05
  -5   3   1   50.41    1.29
   5   3  -1   48.88    1.29
   5   3  -1   48.04    1.26
  -5  -3   1   48.63    1.06
   5  -3  -1   49.19    1.25
   5  -3  -1   48.65    1.28
  -5  -3   1   48.57    1.38
  -5  -3   1   48.90    1.26
  -5  -3   1   47.63    1.14
  -5   3   0    0.11    0.13
   5   3   0    0.37    0.16
  -5   3   0    0.26    0.11
   5   3   0    0.47    0.16
   5  -3   0    0.14    0.14
  -5  -3   0    0.26    0.13
  -5  -3   0    0.31    0.12
  -5  -3   0    0.10    0.14
  -5  -3   0    0.52    0.20
  -5   3  -1    8.41    0.34
  -5   3  -1    8.59    0.35
  -5   3  -1    8.42    0.30
  -5  -3  -1    8.44    0.39
  -5  -3  -1    8.35    0.33
  -5  -3  -1    8.37    0.39
  -5  -3  -1    8.61    0.37
  -5  -3  -1    8.68    0.36
  -5  -3  -1    8.07    0.48
   5  -3   1    8.88    0.37
   5   3   2   20.71    0.64
  -5   3  -2   20.35    0.50
  -5   3  -2   20.00    0.54
  -5   3  -2   20.32    0.59
  -5   3  -2   19.39    0.64
   5   3   2   20.07    0.65
  -5   3  -2   20.03    0.59
  -5  -3  -2   19.00    0.64
  -5  -3  -2   19.16    0.63
  -5  -3  -2   18.30    0.55
   5  -3   2   19.58    0.60
  -5  -3  -2   18.83    0.59
  -5  -3  -2   20.76    0.68
  -5  -3  -2   20.90    0.62
   5   3   3   41.31    1.15
  -5   3  -3   42.03    1.05
  -5   3  -3   41.02    0.99
  -5   3  -3   41.40    1.08
  -5   3  -3   42.95    1.03
  -5   3  -3   41.09    0.91
   5   3   3   42.87    1.13
  -5   3  -3   41.38    1.10
  -5  -3  -3   43.37    0.91
  -5  -3  -3   40.31    0.98
   5  -3   3   43.45    1.11
  -5  -3  -3   41.20    1.09
  -5  -3  -3   41.17    1.11
  -5  -3  -3   42.72    1.18
  -5  -3  -3   40.42    1.06
  -5   3  -4   25.88    0.75
   5   3   4   26.32    0.71
  -5   3  -4   27.36    0.76
  -5   3  -4   25.25    0.83
   5   3   4   25.82    0.78
   5   3   4   25.85    0.79
  -5  -3  -4   24.79    0.64
  -5  -3  -4   25.13    0.85
  -5  -3  -4   25.87    0.92
  -5  -3  -4   25.11    0.80
  -5  -3  -4   25.73    0.91
  -5  -3  -4   25.55    0.79
  -5  -3  -4   24.47    0.72
  -5   3  -5   18.64    0.76
  -5   3  -5   19.47    0.66
  -5   3  -5   19.41    0.67
  -5   3  -5   19.52    0.91
   5   3   5   19.59    0.69
  -5  -3  -5   19.36    0.57
  -5  -3  -5   19.07    0.68
  -5  -3  -5   19.05    0.83
  -5  -3  -5   19.16    0.71
  -5  -3  -5   19.85    0.74
  -5  -3  -5   20.04    0.87
  -5  -3  -5   21.27    0.83
   5   3   6   11.75    0.62
   5   4  -9    0.02    0.42
   5   4  -9    0.92    0.46
   5   4  -9    0.71    0.31
   5   4  -9    0.00    0.31
   5   4  -9    0.31    0.29
   5  -4  -9    0.52    0.31
   5  -4  -9   -0.01    0.28
   5  -4  -9    0.15    0.20
   5  -4  -9   -0.03    0.42
   5  -4  -9    0.22    0.29
   5  -4  -9    0.21    0.22
   5   4  -8   27.63    0.85
   5   4  -8   27.33    1.02
   5   4  -8   26.72    0.82
   5   4  -8   27.09    0.64
   5   4  -8   27.44    0.89
   5  -4  -8   27.39    0.83
   5  -4  -8   26.40    0.82
   5  -4  -8   26.89    0.68
  -5  -4   8   28.30    0.99
   5  -4  -8   25.72    0.82
   5  -4  -8   26.99    0.70
   5   4  -7    0.13    0.20
   5   4  -7   -0.03    0.18
  -5   4   7    0.86    0.28
   5   4  -7    0.27    0.15
   5   4  -7   -0.01    0.21
   5   4  -7   -0.01    0.23
   5   4  -7    0.32    0.34
   5  -4  -7    0.15    0.21
  -5  -4   7    0.20    0.27
   5  -4  -7    0.04    0.20
   5  -4  -7   -0.04    0.18
   5  -4  -7    0.05    0.17
   5   4  -6    8.91    0.43
  -5   4   6    8.97    0.50
   5   4  -6    8.95    0.39
   5  -4  -6    8.92    0.40
   5  -4  -6    8.84    0.36
  -5  -4   6    8.92    0.49
  -5   4   5    2.13    0.19
   5   4  -5    2.47    0.21
   5   4  -5    2.42    0.22
  -5   4   5    2.59    0.27
   5  -4  -5    2.30    0.22
  -5  -4   5    2.81    0.29
   5  -4  -5    2.92    0.25
   5  -4  -5    2.91    0.23
  -5   4   4   10.38    0.42
   5   4  -4    9.63    0.39
   5   4  -4   10.45    0.41
  -5   4   4   10.25    0.35
   5   4  -4    9.46    0.39
   5   4  -4   10.70    0.39
  -5   4   4    9.30    0.43
  -5  -4   4   10.42    0.38
  -5  -4   4    9.67    0.41
   5  -4  -4   10.47    0.43
  -5  -4   4   10.08    0.48
  -5  -4   4    9.73    0.35
   5  -4  -4   10.31    0.36
   5  -4  -4    9.76    0.41
  -5   4   3    4.55    0.29
  -5   4   3    3.94    0.25
   5   4  -3    4.29    0.28
   5   4  -3    4.49    0.29
  -5   4   3    4.80    0.29
   5   4  -3    4.53    0.29
   5  -4  -3    4.28    0.29
  -5  -4   3    4.47    0.30
   5  -4  -3    4.76    0.23
  -5  -4   3    4.70    0.35
  -5  -4   3    4.27    0.25
  -5  -4   3    4.76    0.27
   5  -4  -3    4.47    0.30
  -5   4   2  157.79    3.11
  -5   4   2  153.13    3.69
  -5   4   2  156.32    3.92
   5   4  -2  150.15    3.69
   5   4  -2  153.74    3.70
   5   4  -2  154.21    3.76
  -5  -4   2  152.97    3.36
  -5  -4   2  154.02    3.11
  -5  -4   2  154.65    3.69
   5  -4  -2  155.73    3.28
   5  -4  -2  158.19    3.76
   5  -4  -2  157.79    3.69
  -5  -4   2  151.85    3.99
  -5   4   1    2.12    0.19
  -5   4   1    1.83    0.15
   5   4  -1    2.67    0.22
  -5   4   1    2.65    0.19
   5   4  -1    2.34    0.22
   5   4  -1    2.18    0.21
  -5  -4   1    2.07    0.17
   5  -4  -1    2.25    0.20
  -5  -4   1    2.32    0.27
  -5  -4   1    2.26    0.21
  -5  -4   1    2.53    0.20
  -5   4   0  261.93    5.61
   5   4   0  265.15    6.31
  -5   4   0  266.91    5.20
   5   4   0  262.06    6.19
   5   4   0  261.91    6.21
  -5   4   0  264.80    6.16
   5  -4   0  262.30    4.81
  -5  -4   0  268.15    5.64
  -5  -4   0  265.84    6.19
  -5  -4   0  268.55    5.22
   5  -4   0  254.89    6.29
  -5  -4   0  255.98    6.72
   5  -4   0  261.71    4.76
  -5   4  -1    8.99    0.36
  -5   4  -1    9.60    0.37
   5   4   1    9.34    0.42
  -5   4  -1    9.73    0.32
   5   4   1    8.60    0.41
  -5  -4  -1   10.56    0.40
   5  -4   1    8.92    0.40
   5  -4   1    9.16    0.33
  -5  -4  -1    8.23    0.52
   5  -4   1    8.87    0.32
  -5  -4  -1    9.61    0.36
  -5  -4  -1    9.36    0.39
  -5  -4  -1    9.87    0.42
   5   4   2  113.30    2.80
  -5   4  -2  115.30    2.51
  -5   4  -2  113.00    2.28
   5   4   2  112.11    2.75
  -5   4  -2  112.54    2.70
  -5  -4  -2  112.80    2.34
   5  -4   2  115.72    2.13
  -5  -4  -2  111.95    2.77
  -5  -4  -2  113.41    2.54
   5  -4   2  111.66    2.75
  -5  -4  -2  113.48    2.58
  -5  -4  -2  101.76    3.02
  -5  -4  -2  111.86    2.52
   5  -4   2  115.33    2.10
  -5  -4  -2  112.25    2.44
  -5   4  -3    0.59    0.15
  -5   4  -3    0.58    0.14
   5   4   3    1.04    0.22
  -5   4  -3    0.88    0.20
  -5   4  -3    1.00    0.20
  -5   4  -3    0.46    0.15
   5   4   3    0.74    0.22
   5   4   3    0.46    0.23
  -5   4  -3    0.91    0.28
   5  -4   3    0.67    0.19
  -5  -4  -3    0.94    0.18
  -5  -4  -3    0.85    0.32
  -5  -4  -3    0.55    0.21
  -5  -4  -3    0.55    0.29
  -5  -4  -3    0.52    0.23
  -5  -4  -3    0.49    0.19
  -5  -4  -3    0.80    0.28
  -5   4  -4    7.81    0.41
  -5   4  -4    7.76    0.53
   5   4   4    6.89    0.44
   5   4   4    7.41    0.43
  -5   4  -4    7.13    0.41
   5   4   4    7.43    0.44
  -5   4  -4    6.89    0.49
  -5  -4  -4    6.59    0.43
  -5  -4  -4    7.48    0.53
  -5  -4  -4    7.58    0.59
  -5  -4  -4    6.69    0.47
  -5  -4  -4    7.11    0.43
  -5  -4  -4    6.84    0.36
  -5  -4  -4    6.79    0.52
   5   4   5    1.04    0.33
  -5   4  -5    1.18    0.44
  -5   4  -5    1.45    0.38
  -5   4  -5    1.18    0.29
  -5  -4  -5    1.13    0.27
  -5  -4  -5    1.26    0.25
  -5  -4  -5    1.14    0.30
  -5  -4  -5    1.23    0.40
  -5  -4  -5    1.25    0.33
  -5  -4  -5    1.56    0.44
  -5  -4  -5    1.18    0.43
   5   5  -9    0.81    0.50
   5   5  -9    0.21    0.31
   5   5  -9    0.06    0.31
   5   5  -9    0.25    0.33
   5   5  -9   -0.23    0.39
   5  -5  -9    0.16    0.27
   5  -5  -9   -0.04    0.29
   5  -5  -9   -0.22    0.29
   5  -5  -9    0.06    0.44
   5  -5  -9   -0.03    0.22
   5  -5  -9   -0.14    0.23
   5   5  -8    9.88    0.49
   5   5  -8   10.32    0.55
   5   5  -8   11.00    0.38
   5   5  -8   10.21    0.56
   5   5  -8   11.41    0.73
   5  -5  -8   10.76    0.46
   5  -5  -8    9.77    0.48
  -5  -5   8   11.94    0.67
   5  -5  -8   11.27    0.43
   5  -5  -8   10.19    0.50
   5  -5  -8   10.62    0.55
  -5   5   7   13.53    0.68
   5   5  -7   13.85    0.53
   5   5  -7   13.71    0.42
   5   5  -7   13.93    0.59
   5   5  -7   13.64    0.55
   5   5  -7   14.05    0.74
   5   5  -7   14.15    0.53
  -5  -5   7   14.58    0.67
   5  -5  -7   12.64    0.47
   5  -5  -7   13.32    0.54
   5  -5  -7   13.69    0.43
   5  -5  -7   13.29    0.52
   5   5  -6   69.54    1.65
   5   5  -6   69.06    1.65
   5   5  -6   71.87    1.40
   5   5  -6   75.61    1.76
  -5   5   6   67.13    1.95
   5  -5  -6   70.78    1.36
   5  -5  -6   67.11    1.44
   5  -5  -6   68.18    1.63
  -5  -5   6   68.74    1.95
   5  -5  -6   68.82    1.64
  -5   5   5   57.52    1.68
   5   5  -5   59.71    1.53
  -5   5   5   60.89    1.33
   5   5  -5   59.31    1.43
   5  -5  -5   59.67    1.40
  -5  -5   5   59.84    1.70
   5  -5  -5   61.66    1.20
   5  -5  -5   60.85    1.61
   5  -5  -5   60.63    1.56
   5  -5  -5   61.62    1.18
   5   5  -4  137.62    3.36
  -5   5   4  139.62    3.62
  -5   5   4  139.70    2.85
   5   5  -4  139.20    3.07
  -5   5   4  140.64    3.38
   5  -5  -4  139.61    3.03
   5  -5  -4  141.61    2.61
   5  -5  -4  141.93    3.45
   5  -5  -4  141.50    2.58
  -5  -5   4  137.68    3.64
   5  -5  -4  139.61    3.38
  -5   5   3   50.09    1.11
  -5   5   3   49.36    1.37
   5   5  -3   49.17    1.33
   5   5  -3   51.01    1.30
   5   5  -3   48.96    1.30
  -5   5   3   49.12    1.31
   5  -5  -3   50.25    1.34
   5  -5  -3   51.05    1.00
  -5  -5   3   48.80    1.18
  -5  -5   3   50.28    1.10
   5  -5  -3   50.32    1.14
   5  -5  -3   51.93    1.02
  -5  -5   3   50.72    1.31
   5  -5  -3   48.41    1.30
  -5  -5   3   48.70    1.43
   5   5  -2   80.64    2.05
   5   5  -2   80.68    2.05
  -5   5   2   82.09    2.04
   5   5  -2   80.47    2.08
  -5   5   2   80.23    1.91
  -5   5   2   85.28    1.73
  -5   5   2   82.72    2.15
   5  -5  -2   80.39    1.79
   5  -5  -2   82.14    2.05
  -5  -5   2   83.40    1.86
  -5  -5   2   82.67    2.05
  -5  -5   2   83.22    1.73
  -5  -5   2   79.62    2.23
   5  -5  -2   84.99    1.57
   5  -5  -2   85.17    1.59
   5  -5  -2   84.00    2.08
   5   5  -1    2.40    0.24
  -5   5   1    2.40    0.18
   5   5  -1    3.18    0.29
  -5   5   1    2.84    0.26
   5   5  -1    2.50    0.24
  -5  -5   1    2.85    0.21
   5  -5  -1    2.98    0.19
   5  -5  -1    2.53    0.22
   5  -5  -1    3.01    0.21
  -5  -5   1    3.26    0.32
  -5  -5   1    3.00    0.21
  -5  -5   1    2.76    0.24
   5   5   0    0.38    0.18
   5   5   0    0.52    0.18
  -5   5   0    0.58    0.16
  -5   5   0    0.55    0.13
  -5   5   0    0.43    0.15
   5   5   0    0.36    0.18
  -5  -5   0    0.34    0.16
  -5  -5   0    1.09    0.26
   5  -5   0    0.59    0.17
  -5  -5   0    0.95    0.16
  -5  -5   0    0.85    0.19
   5  -5   0    0.65    0.15
  -5  -5   0    0.99    0.18
   5  -5   0    0.71    0.15
   5   5   1    4.37    0.35
  -5   5  -1    4.35    0.28
  -5   5  -1    4.05    0.28
   5   5   1    4.22    0.36
  -5   5  -1    4.29    0.25
  -5  -5  -1    4.30    0.31
   5  -5   1    3.96    0.32
  -5  -5  -1    4.22    0.33
  -5  -5  -1    4.52    0.41
  -5  -5  -1    4.59    0.35
   5  -5   1    4.39    0.26
   5  -5   1    4.95    0.27
  -5  -5  -1    4.17    0.31
  -5   5  -2   33.89    0.79
   5   5   2   34.92    1.02
  -5   5  -2   34.47    0.93
   5   5   2   35.05    0.83
  -5   5  -2   34.29    0.90
   5   5   2   34.66    1.00
  -5  -5  -2   34.02    0.92
  -5  -5  -2   34.01    0.94
   5  -5   2   34.65    0.76
   5  -5   2   34.79    0.96
  -5  -5  -2   34.65    0.93
   5  -5   2   35.78    0.77
  -5  -5  -2   32.96    1.17
  -5  -5  -2   34.59    0.99
  -5  -5  -2   35.79    0.80
  -5  -5  -2   34.04    0.86
   5   5   3    6.44    0.37
  -5   5  -3    5.71    0.29
  -5   5  -3    6.02    0.36
  -5   5  -3    5.72    0.36
  -5   5  -3    6.02    0.33
  -5   5  -3    5.94    0.27
   5   5   3    5.91    0.42
   5   5   3    6.00    0.43
  -5   5  -3    6.88    0.26
  -5  -5  -3    6.20    0.41
  -5  -5  -3    6.46    0.49
  -5  -5  -3    5.72    0.47
  -5  -5  -3    6.44    0.43
  -5  -5  -3    6.15    0.40
  -5  -5  -3    5.83    0.33
   5  -5   3    6.43    0.38
  -5  -5  -3    5.97    0.45
  -5   5  -4   52.42    1.29
   5   5   4   50.49    1.22
  -5   5  -4   50.09    1.54
   5   5   4   51.27    1.42
  -5   5  -4   52.23    1.29
  -5   5  -4   51.02    1.33
   5   5   4   50.49    1.39
  -5  -5  -4   53.07    1.38
  -5  -5  -4   52.41    1.45
  -5  -5  -4   52.19    1.14
  -5  -5  -4   52.51    1.50
  -5  -5  -4   50.52    1.36
  -5  -5  -4   48.79    1.25
  -5  -5  -4   51.42    1.36
  -5   5  -5    7.16    0.53
  -5   5  -5    6.64    0.44
   5   5   5    5.75    0.44
  -5   5  -5    6.67    0.45
  -5   5  -5    6.36    0.59
  -5  -5  -5    7.08    0.57
  -5  -5  -5    7.29    0.61
  -5  -5  -5    7.65    0.52
  -5  -5  -5    6.99    0.52
  -5  -5  -5    7.06    0.62
  -5  -5  -5    6.43    0.56
  -5  -5  -5    6.28    0.44
   5   6  -9   26.38    1.08
   5   6  -9   25.51    0.96
   5   6  -9   25.88    0.89
   5   6  -9   24.26    0.88
   5   6  -9   25.39    1.10
   5  -6  -9   23.82    0.84
   5  -6  -9   25.59    0.90
   5  -6  -9   23.43    1.06
   5  -6  -9   26.13    0.75
   5  -6  -9   25.64    0.90
   5  -6  -9   24.53    0.70
   5   6  -8    4.87    0.40
   5   6  -8    4.25    0.43
   5   6  -8    4.61    0.58
   5   6  -8    4.99    0.31
   5   6  -8    4.67    0.39
   5   6  -8    5.01    0.41
   5  -6  -8    5.07    0.34
   5  -6  -8    5.66    0.46
   5  -6  -8    4.65    0.31
   5  -6  -8    5.11    0.40
   5   6  -7   28.73    0.69
  -5   6   7   28.31    1.03
   5   6  -7   28.65    0.93
   5   6  -7   30.00    0.86
   5   6  -7   29.95    0.87
   5   6  -7   28.07    1.08
   5   6  -7   30.34    0.85
   5  -6  -7   30.65    0.89
  -5  -6   7   29.61    1.03
   5  -6  -7   29.31    0.71
   5  -6  -7   28.91    0.86
   5  -6  -7   26.60    0.92
   5  -6  -7   28.42    0.76
   5   6  -6    5.02    0.33
  -5   6   6    5.29    0.47
   5   6  -6    4.81    0.34
   5   6  -6    4.62    0.27
   5   6  -6    5.38    0.50
   5   6  -6    4.79    0.40
   5  -6  -6    4.46    0.30
  -5  -6   6    4.84    0.48
   5  -6  -6    4.86    0.29
   5  -6  -6    5.26    0.34
   5  -6  -6    4.89    0.38
   5   6  -5    6.89    0.39
  -5   6   5    6.39    0.44
  -5   6   5    6.70    0.35
   5   6  -5    6.39    0.36
   5  -6  -5    7.05    0.29
   5  -6  -5    6.60    0.36
   5  -6  -5    6.59    0.40
  -5  -6   5    6.26    0.47
   5  -6  -5    6.95    0.43
   5  -6  -5    6.58    0.30
  -5   6   4    0.08    0.18
  -5   6   4   -0.15    0.18
   5   6  -4    0.09    0.16
  -5   6   4    0.20    0.16
   5  -6  -4    0.17    0.15
   5  -6  -4   -0.18    0.13
  -5  -6   4    0.07    0.22
   5  -6  -4    0.14    0.20
   5  -6  -4   -0.04    0.18
   5  -6  -4    0.09    0.14
  -5   6   3   27.81    0.70
  -5   6   3   26.75    0.82
  -5   6   3   26.44    0.83
   5   6  -3   27.55    0.80
   5   6  -3   27.62    0.82
   5   6  -3   27.41    0.80
  -5  -6   3   26.75    0.68
  -5  -6   3   26.37    0.90
  -5  -6   3   26.83    0.73
   5  -6  -3   28.12    0.84
   5  -6  -3   27.37    0.62
   5  -6  -3   25.88    0.81
   5  -6  -3   26.92    0.62
   5  -6  -3   27.12    0.69
  -5  -6   3   26.32    0.80
  -5   6   2   12.88    0.50
  -5   6   2   13.06    0.43
   5   6  -2   13.65    0.52
   5   6  -2   13.85    0.51
  -5   6   2   12.67    0.48
   5   6  -2   12.96    0.51
  -5  -6   2   12.83    0.51
  -5  -6   2   13.71    0.59
  -5  -6   2   13.83    0.44
   5  -6  -2   12.99    0.51
  -5  -6   2   13.89    0.48
   5  -6  -2   13.63    0.40
   5  -6  -2   13.27    0.40
   5  -6  -2   13.57    0.52
  -5   6   1  134.02    2.69
   5   6  -1  133.48    3.22
  -5   6   1  132.99    2.92
   5   6  -1  131.31    3.22
  -5   6   1  130.62    3.19
   5   6  -1  134.75    3.28
   5  -6  -1  124.77    3.25
  -5  -6   1  135.94    2.93
   5  -6  -1  127.89    3.19
   5  -6  -1  129.68    2.49
  -5  -6   1  134.56    2.71
  -5  -6   1  133.67    3.51
   5  -6  -1  131.89    2.46
  -5  -6   1  132.10    3.21
   5   6   0   18.84    0.66
   5   6   0   18.79    0.65
   5   6   0   18.51    0.67
  -5   6   0   18.80    0.52
  -5   6   0   18.91    0.60
  -5   6   0   19.47    0.57
  -5  -6   0   18.80    0.65
  -5  -6   0   18.95    0.58
  -5  -6   0   18.84    0.55
  -5  -6   0   18.07    0.60
   5  -6   0   18.16    0.62
   5  -6   0   19.18    0.51
   5  -6   0   19.49    0.50
  -5  -6   0   18.35    0.79
  -5   6  -1   88.77    2.02
   5   6   1   89.69    2.29
   5   6   1   87.60    2.25
  -5   6  -1   90.01    1.84
  -5   6  -1   88.79    2.18
  -5  -6  -1   89.56    2.26
  -5  -6  -1   88.74    2.51
  -5  -6  -1   87.96    2.05
   5  -6   1   87.38    2.23
   5  -6   1   88.86    1.72
  -5  -6  -1   89.76    2.05
   5  -6   1   89.07    1.74
  -5  -6  -1   87.65    1.90
   5   6   2    9.54    0.50
  -5   6  -2    9.88    0.33
  -5   6  -2    9.24    0.34
   5   6   2    9.67    0.50
   5   6   2    9.31    0.42
  -5   6  -2    9.70    0.40
  -5  -6  -2    9.59    0.50
  -5  -6  -2    9.44    0.47
  -5  -6  -2    9.10    0.44
   5  -6   2    8.87    0.37
   5  -6   2    9.16    0.45
  -5  -6  -2    9.41    0.38
  -5  -6  -2    8.89    0.47
   5  -6   2    9.70    0.37
  -5  -6  -2    8.68    0.60
  -5  -6  -2    9.15    0.46
   5   6   3   16.25    0.57
  -5   6  -3   17.44    0.58
  -5   6  -3   18.42    0.59
  -5   6  -3   17.83    0.57
  -5   6  -3   16.77    0.47
   5   6   3   17.07    0.69
  -5   6  -3   17.79    0.46
   5   6   3   16.34    0.67
  -5  -6  -3   16.49    0.65
  -5  -6  -3   17.48    0.64
  -5  -6  -3   16.90    0.69
  -5  -6  -3   17.32    0.54
   5  -6   3   16.78    0.60
  -5  -6  -3   16.81    0.76
  -5  -6  -3   18.46    0.61
  -5  -6  -3   16.92    0.66
  -5   6  -4    2.27    0.41
  -5   6  -4    2.23    0.29
   5   6   4    1.99    0.32
  -5   6  -4    2.01    0.31
  -5  -6  -4    2.53    0.34
  -5  -6  -4    2.53    0.32
  -5  -6  -4    2.41    0.27
  -5  -6  -4    1.95    0.42
  -5  -6  -4    1.15    0.39
  -5  -6  -4    2.23    0.35
  -5  -6  -4    2.82    0.41
  -5   6  -5    0.75    0.42
  -5   6  -5    0.79    0.30
  -5   6  -5    0.86    0.39
  -5   6  -5    0.80    0.31
   5   6   5    0.53    0.34
  -5  -6  -5    1.10    0.33
  -5  -6  -5    0.37    0.43
  -5  -6  -5    1.02    0.46
  -5  -6  -5    0.80    0.28
  -5  -6  -5    0.77    0.30
  -5  -6  -5    0.41    0.34
  -5  -6  -5    0.68    0.46
   5   7  -8    4.74    0.42
   5   7  -8    4.75    0.33
   5   7  -8    4.12    0.38
   5   7  -8    4.49    0.41
   5   7  -8    3.61    0.59
   5   7  -8    3.76    0.44
   5  -7  -8    3.66    0.41
   5  -7  -8    4.24    0.38
   5  -7  -8    4.56    0.36
   5  -7  -8    4.30    0.31
   5   7  -7   17.09    0.64
   5   7  -7   16.35    0.66
   5   7  -7   16.37    0.48
   5   7  -7   15.71    0.81
   5   7  -7   16.41    0.62
   5   7  -7   15.65    0.67
   5  -7  -7   16.24    0.57
   5  -7  -7   14.44    0.69
  -5  -7   7   16.45    0.76
   5  -7  -7   16.31    0.64
   5  -7  -7   16.01    0.64
   5  -7  -7   15.39    0.49
   5   7  -6   15.82    0.47
  -5   7   6   16.22    0.73
   5   7  -6   15.93    0.59
   5   7  -6   15.03    0.78
   5   7  -6   16.76    0.62
   5   7  -6   16.72    0.58
   5  -7  -6   16.68    0.51
   5  -7  -6   16.41    0.61
  -5  -7   6   16.39    0.72
   5  -7  -6   15.65    0.68
   5  -7  -6   15.76    0.59
   5  -7  -6   15.81    0.55
   5   7  -5   45.48    1.18
   5   7  -5   45.66    1.15
   5   7  -5   46.19    1.13
   5   7  -5   44.84    0.98
  -5   7   5   42.80    1.35
  -5   7   5   44.06    1.07
   5  -7  -5   45.28    1.13
   5  -7  -5   44.57    0.96
   5  -7  -5   44.32    1.03
  -5  -7   5   45.76    1.38
   5  -7  -5   44.97    0.95
   5  -7  -5   45.89    0.96
   5  -7  -5   45.73    1.15
  -5   7   4   14.51    0.50
   5   7  -4   14.28    0.55
  -5   7   4   14.48    0.59
  -5   7   4   14.82    0.58
   5  -7  -4   13.95    0.58
   5  -7  -4   14.35    0.42
   5  -7  -4   14.81    0.60
   5  -7  -4   14.35    0.43
  -5  -7   4   14.32    0.66
   5  -7  -4   14.99    0.49
  -5   7   3   97.36    2.40
   5   7  -3   98.48    2.39
  -5   7   3   98.51    2.03
   5   7  -3   95.56    2.39
   5   7  -3   93.56    2.43
  -5   7   3   94.31    2.53
   5  -7  -3   95.32    2.12
   5  -7  -3   93.44    1.85
  -5  -7   3   96.60    2.61
   5  -7  -3   95.01    2.40
  -5  -7   3   96.44    2.02
  -5  -7   3   96.62    2.18
   5  -7  -3   92.61    1.83
   5  -7  -3   95.53    2.44
   5   7  -2    4.40    0.35
  -5   7   2    4.44    0.33
  -5   7   2    4.00    0.29
   5   7  -2    4.00    0.36
   5   7  -2    3.95    0.32
   5  -7  -2    4.06    0.26
  -5  -7   2    4.37    0.33
   5  -7  -2    4.15    0.34
  -5  -7   2    4.74    0.45
   5  -7  -2    4.35    0.26
  -5  -7   2    3.87    0.30
   5  -7  -2    4.24    0.36
  -5  -7   2    4.13    0.34
  -5   7   1   32.41    0.86
   5   7  -1   31.39    0.95
  -5   7   1   31.99    0.78
  -5   7   1   32.08    0.92
   5   7  -1   30.69    0.96
   5   7  -1   31.46    0.97
  -5  -7   1   32.32    0.81
   5  -7  -1   30.32    0.73
  -5  -7   1   33.16    0.96
  -5  -7   1   33.16    0.87
  -5  -7   1   31.10    1.09
  -5  -7   1   31.47    0.83
   5  -7  -1   30.95    0.72
   5  -7  -1   30.85    0.94
   5   7   0    0.32    0.21
  -5   7   0    0.16    0.14
   5   7   0    0.52    0.22
  -5   7   0    0.09    0.16
  -5   7   0    0.31    0.18
   5   7   0    0.56    0.23
   5  -7   0    0.49    0.18
  -5  -7   0    0.43    0.20
   5  -7   0    0.80    0.19
  -5  -7   0    0.35    0.30
  -5  -7   0    0.34    0.18
  -5  -7   0    0.20    0.21
   5  -7   0    0.38    0.19
  -5  -7   0    0.62    0.20
   5   7   1    7.03    0.36
  -5   7  -1    6.57    0.30
   5   7   1    6.26    0.46
   5   7   1    5.96    0.45
  -5   7  -1    6.15    0.35
  -5   7  -1    6.12    0.31
  -5  -7  -1    5.69    0.39
   5  -7   1    6.45    0.32
   5  -7   1    6.35    0.40
  -5  -7  -1    6.49    0.40
  -5  -7  -1    6.51    0.55
  -5  -7  -1    7.01    0.43
  -5  -7  -1    6.48    0.35
   5  -7   1    6.94    0.35
   5   7   2   12.56    0.59
  -5   7  -2   12.73    0.46
  -5   7  -2   12.93    0.47
   5   7   2   12.36    0.62
  -5   7  -2   12.56    0.40
  -5   7  -2   12.77    0.48
   5   7   2   12.63    0.49
  -5   7  -2   12.87    0.41
  -5  -7  -2   13.62    0.54
  -5  -7  -2   12.57    0.57
   5  -7   2   11.81    0.44
  -5  -7  -2   12.44    0.45
  -5  -7  -2   13.36    0.73
   5  -7   2   12.28    0.45
  -5  -7  -2   13.32    0.57
   5  -7   2   13.34    0.54
  -5   7  -3   25.82    0.64
   5   7   3   25.95    0.76
   5   7   3   27.39    0.93
  -5   7  -3   26.53    0.77
   5   7   3   26.44    0.91
  -5   7  -3   26.61    0.94
  -5   7  -3   25.74    0.63
  -5   7  -3   25.96    0.76
  -5   7  -3   26.99    0.76
  -5  -7  -3   25.33    0.86
  -5  -7  -3   25.67    0.87
  -5  -7  -3   25.69    0.81
  -5  -7  -3   24.14    1.03
  -5  -7  -3   25.97    0.72
   5  -7   3   26.81    0.83
   5   7   4   15.46    0.63
  -5   7  -4   16.25    0.62
  -5   7  -4   16.75    0.62
  -5   7  -4   16.44    0.83
  -5  -7  -4   16.35    0.68
  -5  -7  -4   16.51    0.59
  -5  -7  -4   17.18    0.75
  -5  -7  -4   14.83    0.78
  -5  -7  -4   16.12    0.78
  -5  -7  -4   16.63    0.74
  -5  -7  -4   16.06    0.71
  -5   7  -5   20.32    0.75
   5   7   5   18.81    0.78
  -5   7  -5   18.73    0.98
  -5   7  -5   19.39    0.76
  -5  -7  -5   20.17    0.71
  -5  -7  -5   19.29    0.82
  -5  -7  -5   17.48    0.90
  -5  -7  -5   19.42    0.88
  -5  -7  -5   20.85    0.84
  -5  -7  -5   21.36    0.78
  -5  -7  -5   18.63    0.92
   5   8  -8   23.10    1.06
   5   8  -8   23.65    0.64
   5   8  -8   23.26    0.91
   5   8  -8   24.07    0.84
   5   8  -8   23.35    0.83
   5   8  -8   22.99    0.85
   5  -8  -8   23.01    0.82
   5  -8  -8   24.15    0.77
   5  -8  -8   24.53    0.86
   5  -8  -8   23.79    0.92
   5  -8  -8   22.40    0.68
   5   8  -7    4.38    0.39
   5   8  -7    4.84    0.43
   5   8  -7    4.81    0.42
   5   8  -7    4.57    0.28
   5   8  -7    4.27    0.39
   5   8  -7    3.78    0.54
   5  -8  -7    4.67    0.39
   5  -8  -7    4.42    0.47
   5  -8  -7    5.23    0.41
   5  -8  -7    4.60    0.32
   5  -8  -7    4.81    0.37
  -5  -8   7    4.25    0.45
   5   8  -6    4.13    0.31
   5   8  -6    3.96    0.51
   5   8  -6    5.11    0.39
  -5   8   6    4.91    0.35
  -5   8   6    4.58    0.42
   5   8  -6    4.75    0.38
   5   8  -6    4.54    0.37
  -5  -8   6    4.40    0.43
   5  -8  -6    4.69    0.45
   5  -8  -6    4.81    0.33
   5  -8  -6    4.06    0.34
   5  -8  -6    5.06    0.41
   5  -8  -6    4.53    0.38
  -5   8   5    0.44    0.22
  -5   8   5    0.56    0.22
   5   8  -5   -0.08    0.17
   5   8  -5    0.31    0.23
   5   8  -5    0.19    0.23
   5   8  -5    0.08    0.23
  -5   8   5    0.58    0.27
   5  -8  -5    0.08    0.17
  -5  -8   5   -0.04    0.29
   5  -8  -5    0.35    0.20
   5  -8  -5   -0.02    0.18
   5  -8  -5    0.40    0.25
   5  -8  -5    0.27    0.17
   5  -8  -5   -0.03    0.21
  -5   8   4   17.72    0.71
   5   8  -4   18.60    0.53
   5   8  -4   18.51    0.62
  -5   8   4   18.38    0.61
  -5   8   4   18.78    0.70
   5   8  -4   18.71    0.62
   5  -8  -4   18.94    0.52
   5  -8  -4   18.50    0.70
  -5  -8   4   18.57    0.78
   5  -8  -4   19.44    0.73
   5  -8  -4   19.07    0.54
   5  -8  -4   18.92    0.51
  -5   8   3    0.22    0.20
   5   8  -3    0.21    0.18
  -5   8   3   -0.14    0.18
  -5   8   3    0.20    0.20
   5  -8  -3    0.32    0.24
   5  -8  -3    0.07    0.17
  -5  -8   3    0.25    0.27
   5  -8  -3   -0.13    0.16
   5  -8  -3    0.27    0.21
  -5   8   2   85.93    1.85
   5   8  -2   86.55    2.24
   5   8  -2   86.06    2.20
   5   8  -2   87.89    2.21
  -5   8   2   82.76    2.18
   5  -8  -2   85.21    1.70
  -5  -8   2   85.33    2.19
  -5  -8   2   88.24    2.00
   5  -8  -2   87.21    2.23
  -5  -8   2   86.58    1.85
  -5  -8   2   83.63    2.40
   5  -8  -2   80.68    2.18
   5  -8  -2   87.15    1.69
  -5   8   1   18.57    0.51
   5   8  -1   18.17    0.71
  -5   8   1   18.51    0.56
   5   8  -1   17.84    0.72
   5   8  -1   18.52    0.70
  -5  -8   1   17.82    0.58
  -5  -8   1   19.53    0.83
   5  -8  -1   19.29    0.70
   5  -8  -1   19.28    0.54
   5  -8  -1   18.86    0.54
  -5  -8   1   19.59    0.59
  -5  -8   1   18.82    0.69
  -5  -8   1   18.53    0.63
  -5   8   0  114.31    2.64
  -5   8   0  119.93    2.31
   5   8   0  119.46    3.01
  -5   8   0  119.85    2.38
   5   8   0  118.28    2.96
  -5   8   0  113.43    2.43
   5   8   0  118.38    2.96
   5  -8   0  118.05    2.26
   5  -8   0  111.21    2.54
  -5  -8   0  114.95    2.34
  -5  -8   0  118.55    2.66
  -5  -8   0  119.20    2.49
  -5  -8   0  120.91    3.26
  -5  -8   0  117.64    2.68
  -5  -8   0  118.12    2.99
   5  -8   0  114.95    2.95
   5  -8   0  116.83    2.28
  -5   8  -1   23.73    0.63
  -5   8  -1   22.09    0.62
   5   8   1   22.63    0.68
  -5   8  -1   23.16    0.60
  -5   8  -1   21.66    0.69
   5   8   1   21.78    0.84
   5   8   1   22.70    0.85
   5  -8   1   22.89    0.64
  -5  -8  -1   22.52    0.74
   5  -8   1   23.55    0.78
   5  -8   1   22.89    0.71
  -5  -8  -1   22.12    0.64
   5  -8   1   22.69    0.63
  -5  -8  -1   24.46    0.97
  -5  -8  -1   23.90    0.72
  -5  -8  -1   22.86    0.77
  -5   8  -2   62.22    1.36
  -5   8  -2   60.62    1.35
  -5   8  -2   62.21    1.49
   5   8   2   61.33    1.75
   5   8   2   61.67    1.40
  -5   8  -2   62.63    1.29
  -5   8  -2   60.23    1.50
   5   8   2   61.13    1.72
  -5  -8  -2   62.81    1.48
   5  -8   2   61.74    1.31
   5  -8   2   62.15    1.48
  -5  -8  -2   62.47    1.37
   5  -8   2   62.37    1.67
  -5  -8  -2   65.25    1.94
   5  -8   2   61.33    1.32
  -5  -8  -2   60.35    1.58
  -5  -8  -2   64.88    1.60
  -5   8  -3    5.64    0.38
  -5   8  -3    5.16    0.39
  -5   8  -3    5.21    0.31
  -5   8  -3    5.45    0.49
   5   8   3    5.12    0.40
  -5   8  -3    5.56    0.30
  -5  -8  -3    4.78    0.45
  -5  -8  -3    5.39    0.41
  -5  -8  -3    5.85    0.55
   5  -8   3    6.35    0.49
  -5  -8  -3    5.10    0.43
   5  -8   3    5.38    0.35
  -5  -8  -3    5.87    0.42
   5  -8   3    5.88    0.40
  -5   8  -4    5.07    0.55
  -5   8  -4    5.00    0.39
  -5   8  -4    5.07    0.43
   5   8   4    4.59    0.44
  -5  -8  -4    5.23    0.47
  -5  -8  -4    4.87    0.38
  -5  -8  -4    4.61    0.47
  -5  -8  -4    4.51    0.41
   5   9  -8    5.74    0.47
   5   9  -8    6.45    0.41
   5   9  -8    6.58    0.71
   5   9  -8    5.56    0.51
   5   9  -8    5.98    0.51
   5  -9  -8    6.23    0.46
   5  -9  -8    6.54    0.59
   5  -9  -8    6.13    0.38
   5  -9  -8    5.53    0.52
   5   9  -7    6.88    0.66
   5   9  -7    6.39    0.51
   5   9  -7    8.21    0.56
   5   9  -7    7.14    0.40
   5   9  -7    6.63    0.46
   5   9  -7    6.83    0.52
   5  -9  -7    6.03    0.44
   5  -9  -7    6.49    0.40
   5  -9  -7    6.26    0.55
   5  -9  -7    7.67    0.51
   5   9  -6   59.95    1.58
   5   9  -6   60.91    1.82
   5   9  -6   62.90    1.57
   5   9  -6   61.37    1.58
   5   9  -6   61.40    1.34
  -5   9   6   64.48    1.45
   5  -9  -6   61.93    1.58
  -5  -9   6   63.15    1.86
   5  -9  -6   60.50    1.31
   5  -9  -6   63.99    1.69
   5  -9  -6   61.15    1.42
  -5   9   5   39.41    1.29
  -5   9   5   40.22    1.02
   5   9  -5   40.88    1.10
   5   9  -5   38.26    0.93
   5   9  -5   41.36    1.13
   5  -9  -5   39.83    0.91
   5  -9  -5   39.70    0.92
   5  -9  -5   39.96    0.90
   5  -9  -5   41.25    1.03
   5  -9  -5   40.39    1.12
   5  -9  -5   39.11    1.00
  -5  -9   5   40.72    1.32
  -5   9   4   91.24    1.89
   5   9  -4   90.90    2.10
  -5   9   4   92.02    1.95
   5   9  -4   83.97    1.80
  -5   9   4   85.56    2.42
  -5   9   4   85.78    1.81
   5   9  -4   89.23    2.03
   5  -9  -4   87.67    1.85
   5  -9  -4   89.17    2.35
   5  -9  -4   89.65    1.98
   5  -9  -4   87.24    1.74
   5  -9  -4   87.87    1.74
   5  -9  -4   88.34    1.76
  -5  -9   4   86.21    2.47
  -5   9   3   11.45    0.43
  -5   9   3   12.49    0.48
   5   9  -3   11.80    0.43
   5   9  -3   12.44    0.50
  -5   9   3   12.06    0.52
  -5   9   3   10.66    0.60
   5   9  -3   11.87    0.51
   5  -9  -3   11.31    0.47
   5  -9  -3   11.86    0.60
   5  -9  -3   12.01    0.45
   5  -9  -3   12.18    0.44
   5  -9  -3   11.38    0.44
   5  -9  -3   10.36    0.58
  -5  -9   3   11.72    0.65
   5   9  -2   37.41    1.01
   5   9  -2   36.74    1.18
   5   9  -2   39.39    0.94
  -5   9   2   38.74    0.98
  -5   9   2   39.46    0.96
  -5   9   2   39.41    0.91
   5   9  -2   38.73    1.20
  -5  -9   2   39.94    0.98
  -5  -9   2   38.99    1.06
   5  -9  -2   40.15    0.89
   5  -9  -2   38.74    1.02
  -5  -9   2   40.90    1.32
  -5  -9   2   39.35    1.17
   5  -9  -2   38.66    1.18
   5  -9  -2   38.56    0.91
   5  -9  -2   38.77    0.90
   5   9  -1    0.08    0.20
  -5   9   1    0.27    0.19
   5   9  -1   -0.17    0.25
   5   9  -1   -0.22    0.24
   5   9  -1    0.02    0.28
  -5   9   1    0.00    0.18
  -5   9   1    0.18    0.18
  -5  -9   1    0.49    0.34
  -5  -9   1   -0.05    0.23
   5  -9  -1    0.46    0.26
   5  -9  -1    0.45    0.21
   5  -9  -1   -0.07    0.24
   5  -9  -1    0.33    0.21
  -5  -9   1    0.18    0.21
  -5  -9   1    0.23    0.22
  -5  -9   1   -0.05    0.23
   5  -9  -1    0.54    0.21
   5   9   0    2.43    0.28
  -5   9   0    2.48    0.24
   5   9   0    2.58    0.35
  -5   9   0    2.79    0.24
   5   9   0    2.14    0.33
   5   9   0    2.30    0.35
  -5   9   0    2.94    0.26
  -5  -9   0    2.91    0.41
  -5  -9   0    2.81    0.32
   5  -9   0    2.40    0.32
   5  -9   0    3.11    0.28
  -5  -9   0    3.25    0.28
   5  -9   0    2.73    0.28
  -5  -9   0    2.50    0.29
   5  -9   0    2.88    0.32
  -5  -9   0    2.58    0.30
  -5   9  -1    1.90    0.25
  -5   9  -1    1.85    0.22
  -5   9  -1    2.53    0.31
   5   9   1    2.48    0.38
   5   9   1    2.36    0.29
  -5   9  -1    2.23    0.29
   5   9   1    2.27    0.38
  -5   9  -1    2.43    0.24
   5  -9   1    3.02    0.30
   5  -9   1    2.21    0.32
  -5  -9  -1    2.01    0.31
  -5  -9  -1    2.22    0.29
   5  -9   1    2.54    0.30
  -5  -9  -1    2.68    0.28
   5  -9   1    2.82    0.32
  -5  -9  -1    2.50    0.42
  -5  -9  -1    2.27    0.33
   5   9   2   10.66    0.51
  -5   9  -2   10.76    0.46
  -5   9  -2   11.25    0.42
  -5   9  -2   10.65    0.42
  -5   9  -2   11.01    0.49
  -5   9  -2   11.27    0.59
  -5   9  -2   12.02    0.51
  -5  -9  -2   11.53    0.75
   5  -9   2   12.16    0.59
  -5  -9  -2   10.68    0.59
  -5  -9  -2   10.67    0.63
   5  -9   2   11.79    0.51
  -5  -9  -2   10.83    0.50
  -5  -9  -2   11.77    0.59
   5  -9   2   10.99    0.50
   5  -9   2   11.74    0.54
  -5   9  -3    7.87    0.48
  -5   9  -3    6.13    0.35
  -5   9  -3    6.55    0.57
  -5   9  -3    6.60    0.35
   5   9   3    7.07    0.50
  -5  -9  -3    6.95    0.48
   5  -9   3    6.96    0.47
  -5  -9  -3    7.76    0.60
  -5  -9  -3    6.75    0.53
  -5  -9  -3    8.09    0.57
   5  -9   3    6.77    0.42
  -5   9  -4   27.30    1.11
  -5   9  -4   25.54    0.86
   5   9   4   25.68    0.87
  -5  -9  -4   27.26    0.91
  -5  -9  -4   25.93    0.84
  -5  -9  -4   27.47    0.99
  -5  -9  -4   25.82    0.99
   5  10  -7   25.90    0.93
   5  10  -7   27.94    1.17
  -5  10   7   27.04    0.85
   5  10  -7   24.75    0.91
   5  10  -7   22.91    0.92
   5 -10  -7   27.67    1.02
   5 -10  -7   27.32    0.85
   5 -10  -7   26.15    0.92
   5 -10  -7   26.97    0.76
  -5  10   6    5.88    0.44
   5  10  -6    6.07    0.48
   5  10  -6    5.53    0.46
   5  10  -6    6.49    0.65
   5  10  -6    6.01    0.45
   5 -10  -6    5.15    0.36
   5 -10  -6    5.40    0.46
   5 -10  -6    5.58    0.42
   5 -10  -6    5.93    0.53
  -5  10   5    0.08    0.27
   5  10  -5    0.17    0.29
  -5  10   5   -0.35    0.32
   5  10  -5   -0.45    0.27
  -5  10   5    0.13    0.31
   5 -10  -5    0.13    0.21
   5 -10  -5    0.20    0.24
   5 -10  -5    0.44    0.29
  -5 -10   5    0.26    0.33
   5 -10  -5   -0.23    0.21
   5 -10  -5    0.36    0.25
   5  10  -4    0.03    0.27
  -5  10   4   -0.19    0.24
   5  10  -4   -0.02    0.20
  -5  10   4    0.12    0.29
   5  10  -4    0.23    0.28
  -5  10   4    0.41    0.22
  -5  10   4   -0.04    0.24
  -5  10   4    0.24    0.27
   5 -10  -4    0.22    0.22
   5 -10  -4   -0.40    0.25
   5 -10  -4    0.36    0.21
   5 -10  -4    0.21    0.30
   5 -10  -4    0.19    0.25
  -5 -10   4    0.11    0.32
   5 -10  -4    0.20    0.23
   5  10  -3   38.87    1.07
   5  10  -3   36.57    0.91
  -5  10   3   35.58    0.99
  -5  10   3   36.00    0.95
  -5  10   3   36.16    0.90
   5  10  -3   36.88    1.02
  -5 -10   3   37.56    1.28
   5 -10  -3   36.64    0.88
   5 -10  -3   36.92    1.01
   5 -10  -3   35.72    0.88
   5 -10  -3   36.22    1.18
   5 -10  -3   37.68    0.90
  -5  10   2    3.09    0.29
   5  10  -2    3.09    0.30
   5  10  -2    2.88    0.35
   5  10  -2    2.66    0.31
  -5  10   2    2.76    0.30
  -5  10   2    2.77    0.28
   5 -10  -2    2.49    0.36
   5 -10  -2    2.94    0.30
   5 -10  -2    3.11    0.29
  -5 -10   2    3.27    0.43
  -5 -10   2    2.45    0.32
  -5 -10   2    3.41    0.28
  -5 -10   2    2.82    0.30
   5 -10  -2    3.34    0.30
   5 -10  -2    3.04    0.33
  -5  10   1   75.02    1.71
   5  10  -1   77.13    2.13
  -5  10   1   75.12    1.66
   5  10  -1   75.52    1.77
   5  10  -1   76.74    1.66
   5  10  -1   75.32    1.87
   5  10  -1   78.54    1.65
   5  10  -1   78.89    2.10
  -5  10   1   75.40    1.62
   5 -10  -1   79.49    1.57
  -5 -10   1   79.23    1.76
   5 -10  -1   75.60    1.81
  -5 -10   1   76.09    1.63
   5 -10  -1   73.88    1.60
   5 -10  -1   73.89    1.58
  -5 -10   1   79.13    2.31
  -5 -10   1   76.90    1.89
   5 -10  -1   75.94    2.07
   5  10   0    8.77    0.46
   5  10   0    8.97    0.62
  -5  10   0    9.24    0.43
   5  10   0    8.82    0.50
  -5  10   0    8.75    0.42
   5  10   0    9.05    0.65
  -5  10   0    8.69    0.43
   5 -10   0    7.71    0.45
   5 -10   0    7.39    0.55
  -5 -10   0    8.87    0.57
  -5 -10   0    8.84    0.46
  -5 -10   0    8.77    0.49
   5 -10   0    9.36    0.52
  -5 -10   0    9.44    0.69
   5 -10   0    8.87    0.48
   5 -10   0    9.69    0.43
  -5 -10   0    9.11    0.53
  -5  10  -1   61.82    1.52
  -5  10  -1   57.98    1.37
  -5  10  -1   59.44    1.37
  -5  10  -1   59.71    1.65
   5  10   1   62.72    1.82
  -5  10  -1   60.89    1.33
   5  10   1   62.46    1.43
   5  10   1   62.48    1.80
  -5 -10  -1   59.68    1.58
   5 -10   1   61.43    1.37
  -5 -10  -1   60.28    1.49
  -5 -10  -1   58.52    1.60
   5 -10   1   60.58    1.72
   5 -10   1   61.41    1.35
  -5 -10  -1   61.02    1.37
  -5 -10  -1   64.72    2.04
   5 -10   1   60.32    1.54
  -5  10  -2   10.71    0.60
   5  10   2    9.94    0.60
  -5  10  -2   10.14    0.47
  -5  10  -2    9.99    0.44
  -5  10  -2   11.53    0.46
  -5  10  -2   10.83    0.52
   5 -10   2   11.01    0.55
   5 -10   2   10.73    0.56
  -5 -10  -2   10.84    0.63
   5 -10   2   10.30    0.58
  -5 -10  -2   11.58    0.67
  -5 -10  -2    9.82    0.54
  -5 -10  -2   10.88    0.62
  -5  10  -3   10.84    0.45
   5  10   3    9.81    0.61
  -5  10  -3   11.57    0.59
  -5  10  -3   11.08    0.72
  -5  10  -3   11.77    0.46
  -5 -10  -3   12.01    0.73
   5 -10   3   11.16    0.60
  -5 -10  -3   12.29    0.67
   5 -10   3   11.16    0.60
  -5 -10  -3   12.20    0.67
   5 -10   3   11.20    0.56
  -5 -10  -3   11.11    0.59
  -5  11   6    3.21    0.39
   5  11  -6    3.06    0.43
   5  11  -6    3.18    0.31
   5  11  -6    2.44    0.40
   5  11  -6    3.06    0.55
   5 -11  -6    3.15    0.49
   5 -11  -6    2.55    0.32
   5 -11  -6    3.02    0.41
  -5  11   5   52.86    1.31
   5  11  -5   52.49    1.43
   5  11  -5   49.82    1.20
   5 -11  -5   50.44    1.22
   5 -11  -5   50.93    1.28
   5 -11  -5   50.70    1.17
   5 -11  -5   52.02    1.31
   5 -11  -5   53.07    1.50
   5  11  -4    5.36    0.48
  -5  11   4    6.95    0.53
  -5  11   4    6.09    0.42
  -5  11   4    6.23    0.58
   5  11  -4    5.76    0.42
  -5  11   4    5.83    0.43
   5  11  -4    6.44    0.50
   5 -11  -4    6.73    0.47
   5 -11  -4    6.19    0.42
   5 -11  -4    7.02    0.45
   5 -11  -4    5.96    0.43
   5 -11  -4    7.66    0.63
   5 -11  -4    6.54    0.44
   5  11  -3   52.11    1.40
  -5  11   3   50.56    1.24
   5  11  -3   50.14    1.18
  -5  11   3   49.88    1.18
   5  11  -3   47.43    1.29
  -5  11   3   48.63    1.26
   5 -11  -3   50.28    1.52
   5 -11  -3   49.55    1.13
  -5 -11   3   48.48    1.11
   5 -11  -3   49.07    1.13
   5 -11  -3   49.95    1.15
   5 -11  -3   47.83    1.28
  -5 -11   3   49.46    1.72
   5  11  -2    0.79    0.32
   5  11  -2    0.93    0.28
  -5  11   2    0.73    0.26
  -5  11   2    0.79    0.27
   5  11  -2    0.55    0.26
  -5  11   2    1.47    0.28
  -5 -11   2    0.72    0.26
   5 -11  -2    1.12    0.34
   5 -11  -2    0.94    0.27
   5 -11  -2    1.11    0.33
  -5 -11   2    1.19    0.43
   5 -11  -2    0.71    0.27
   5 -11  -2    1.17    0.27
   5  11  -1   11.19    0.52
   5  11  -1   10.15    0.51
  -5  11   1   12.25    0.54
  -5  11   1   10.85    0.54
   5  11  -1   11.49    0.69
   5  11  -1   12.42    0.59
   5  11  -1   11.73    0.71
  -5  11   1   11.18    0.51
   5 -11  -1   11.73    0.50
   5 -11  -1   10.74    0.58
   5 -11  -1   11.06    0.52
  -5 -11   1   11.06    0.61
   5 -11  -1   11.63    0.55
  -5 -11   1   11.13    0.58
   5  11   0    2.97    0.34
   5  11   0    3.44    0.35
  -5  11   0    2.41    0.29
   5  11   0    2.88    0.44
  -5  11   0    2.71    0.30
   5  11   0    2.08    0.41
  -5  11   0    2.79    0.32
  -5 -11   0    2.71    0.31
   5 -11   0    3.49    0.34
   5 -11   0    3.03    0.42
   5 -11   0    2.59    0.34
  -5 -11   0    1.83    0.35
  -5 -11   0    3.64    0.40
   5 -11   0    2.08    0.33
  -5 -11   0    2.20    0.33
   5  11   1    6.26    0.44
  -5  11  -1    6.67    0.45
  -5  11  -1    6.52    0.43
  -5  11  -1    6.30    0.44
  -5  11  -1    5.84    0.50
  -5  11  -1    5.60    0.42
  -5 -11  -1    5.74    0.48
   5 -11   1    6.23    0.43
  -5 -11  -1    5.65    0.51
  -5 -11  -1    5.77    0.41
  -5 -11  -1    5.62    0.45
   5 -11   1    6.17    0.50
   5 -11   1    6.58    0.46
   5 -11   1    7.04    0.43
  -5  11  -2    3.86    0.41
  -5  11  -2    4.08    0.33
  -5  11  -2    3.35    0.47
  -5  11  -2    3.41    0.33
  -5  11  -2    3.56    0.29
   5  11   2    3.00    0.41
  -5 -11  -2    3.73    0.46
   5 -11   2    3.77    0.40
  -5 -11  -2    3.32    0.36
  -5 -11  -2    3.46    0.47
   5 -11   2    3.64    0.48
  -5 -11  -2    3.85    0.43
   5 -11   2    3.33    0.40
  -5  11  -3   37.29    1.32
  -5  11  -3   35.63    0.92
   5  11   3   37.93    1.12
  -5  11  -3   37.11    1.12
  -5 -11  -3   38.56    1.23
   5 -11   3   38.44    1.03
   5 -11   3   37.63    1.07
   5 -11   3   35.64    1.14
  -5 -11  -3   38.88    1.29
  -5 -11  -3   35.93    1.06
  -5 -11  -3   38.91    1.19
   5  12  -6    7.31    0.59
   5  12  -6    8.03    0.51
   5  12  -6    7.47    0.57
  -5  12   6    7.85    0.58
   5 -12  -6    7.57    0.64
   5 -12  -6    7.77    0.54
   5 -12  -6    7.67    0.51
   5  12  -5   -0.15    0.33
   5  12  -5    0.25    0.27
  -5  12   5   -0.25    0.33
   5 -12  -5   -0.11    0.31
   5 -12  -5    0.05    0.40
   5 -12  -5   -0.45    0.29
   5 -12  -5   -0.23    0.32
   5  12  -4    2.72    0.43
  -5  12   4    2.96    0.37
  -5  12   4    2.97    0.35
   5  12  -4    2.74    0.33
  -5  12   4    3.29    0.40
   5 -12  -4    2.51    0.33
   5 -12  -4    3.40    0.39
   5 -12  -4    2.86    0.39
   5 -12  -4    2.91    0.34
  -5 -12   4    2.52    0.35
   5 -12  -4    2.58    0.34
  -5  12   3    2.53    0.34
  -5  12   3    2.49    0.36
   5  12  -3    2.39    0.42
   5  12  -3    2.46    0.32
  -5  12   3    2.41    0.37
   5 -12  -3    2.64    0.34
   5 -12  -3    2.64    0.35
   5 -12  -3    2.87    0.40
   5 -12  -3    2.78    0.34
  -5 -12   3    2.64    0.32
  -5  12   2   31.86    0.97
  -5  12   2   31.36    0.94
   5  12  -2   30.29    1.01
   5  12  -2   31.11    0.90
  -5  12   2   32.39    0.91
  -5 -12   2   32.64    0.84
   5 -12  -2   33.16    0.90
   5 -12  -2   33.81    1.03
   5 -12  -2   32.41    0.89
   5 -12  -2   30.81    0.87
   5  12  -1   17.95    0.73
   5  12  -1   17.73    0.67
  -5  12   1   17.00    0.66
  -5  12   1   16.84    0.70
   5  12  -1   16.80    0.66
  -5  12   1   18.35    0.69
   5 -12  -1   18.51    0.68
  -5 -12   1   15.75    0.77
  -5 -12   1   17.47    0.72
   5 -12  -1   19.23    0.77
   5 -12  -1   18.82    0.72
   5 -12  -1   18.58    0.69
  -5  12   0   28.82    0.88
  -5  12   0   28.64    0.84
   5  12   0   29.07    0.89
   5  12   0   28.24    0.97
  -5  12   0   29.59    0.86
   5  12   0   29.44    0.90
  -5 -12   0   28.66    0.85
  -5 -12   0   30.22    0.97
  -5 -12   0   28.23    0.96
   5 -12   0   27.41    0.88
   5 -12   0   28.47    0.96
   5 -12   0   27.21    0.87
   5 -12   0   28.64    0.84
  -5 -12   0   32.01    1.04
  -5  12  -1   27.85    0.93
  -5  12  -1   26.64    0.80
  -5  12  -1   25.91    0.81
   5  12   1   28.10    0.90
  -5  12  -1   24.98    0.81
  -5  12  -1   27.45    0.99
   5 -12   1   26.86    0.82
  -5 -12  -1   27.50    0.98
  -5 -12  -1   28.27    1.03
  -5 -12  -1   26.07    0.85
   5 -12   1   26.04    0.89
   5 -12   1   26.92    0.94
  -5 -12  -1   27.51    0.94
   5 -12   1   26.59    0.88
  -5  12  -2    8.70    0.67
  -5  12  -2    8.33    0.50
   5  12   2    8.83    0.57
  -5  12  -2    8.29    0.58
  -5  12  -2    9.07    0.51
  -5  12  -2    7.89    0.47
  -5 -12  -2    8.70    0.55
   5 -12   2    8.01    0.56
   5 -12   2    8.09    0.63
  -5 -12  -2    8.40    0.65
   5 -12   2    7.58    0.53
  -5 -12  -2   10.44    0.67
  -5 -12  -2    9.37    0.73
   5  13  -5    3.60    0.39
  -5  13   5    4.38    0.48
   5 -13  -5    3.06    0.41
   5 -13  -5    3.48    0.45
  -5 -13   5    3.36    0.43
   5 -13  -5    3.41    0.46
   5  13  -4   46.61    1.18
  -5  13   4   45.55    1.18
   5  13  -4   44.54    1.36
  -5  13   4   45.90    1.28
  -5  13   4   46.42    1.26
   5 -13  -4   44.61    1.28
   5 -13  -4   44.90    1.14
   5 -13  -4   46.29    1.41
  -5 -13   4   45.45    1.13
   5 -13  -4   44.71    1.13
   5 -13  -4   44.71    1.14
  -5  13   3    0.67    0.35
  -5  13   3    0.91    0.34
   5  13  -3    0.64    0.39
  -5  13   3    0.95    0.33
   5  13  -3    0.84    0.32
   5 -13  -3    0.65    0.32
   5 -13  -3    0.66    0.35
   5 -13  -3    0.68    0.33
   5 -13  -3    0.87    0.39
  -5 -13   3    0.58    0.33
  -5  13   2   13.90    0.65
   5  13  -2   14.09    0.65
  -5  13   2   13.11    0.64
  -5  13   2   15.26    0.71
   5  13  -2   15.87    0.72
   5 -13  -2   14.86    0.64
   5 -13  -2   13.14    0.66
  -5 -13   2   13.73    0.56
   5 -13  -2   14.27    0.73
   5 -13  -2   12.76    0.66
   5  13  -1    1.75    0.39
   5  13  -1    1.48    0.34
  -5  13   1    0.80    0.32
  -5  13   1    1.90    0.34
  -5  13   1    1.46    0.34
   5 -13  -1    0.57    0.36
   5 -13  -1    1.78    0.42
   5 -13  -1    0.97    0.35
   5 -13  -1    0.86    0.36
  -5  13   0   -0.12    0.30
  -5  13   0   -0.37    0.29
   5  13   0    0.51    0.36
   5  13   0    0.01    0.33
  -5  13   0   -0.35    0.28
   5 -13   0    0.05    0.32
   5 -13   0   -0.67    0.36
  -5 -13   0    0.13    0.32
   5 -13   0   -0.25    0.34
  -5 -13   0   -0.72    0.34
  -5 -13   0   -0.28    0.32
   5 -13   0   -0.03    0.42
   5  13   1    1.79    0.39
  -5  13  -1    1.65    0.31
  -5  13  -1    1.58    0.35
  -5  13  -1    2.12    0.43
  -5  13  -1    2.39    0.36
   5 -13   1    1.21    0.43
   5 -13   1    2.30    0.48
   5 -13   1    1.33    0.42
   5 -13   1    1.62    0.37
  -5 -13  -1    2.07    0.39
  -5 -13  -1    1.78    0.41
  -5 -13  -1    1.90    0.46
  -5 -13  -1    1.50    0.38
   5  14  -2    9.13    0.60
  -5  14   2    7.60    0.52
  -5  14   2    7.76    0.57
  -5  14   2    7.90    0.58
  -5 -14   2    8.59    0.55
   5 -14  -2    8.50    0.64
   5 -14  -2    7.12    0.52
   5 -14  -2    8.17    0.53
   5 -14  -2    7.35    0.53
   5 -14  -1   31.55    1.02
   6   0  -9    0.07    0.20
   6   0  -9   -0.14    0.27
   6   0  -9    0.21    0.31
   6   0  -9   -0.16    0.19
   6   0  -9   -0.17    0.27
   6   0  -8    0.24    0.19
   6   0  -8    0.37    0.18
   6   0  -8    0.34    0.23
   6   0  -8    0.63    0.26
   6   0  -8    0.50    0.25
  -6   0   8    0.61    0.33
   6   0  -7    0.15    0.20
   6   0  -7   -0.01    0.17
   6   0  -7    0.28    0.20
   6   0  -7    0.01    0.21
   6   0  -7   -0.05    0.16
  -6   0   7   -0.28    0.26
   6   0  -6   75.66    1.45
  -6   0   6   74.70    2.06
   6   0  -6   77.04    1.51
   6   0  -6   73.76    1.72
   6   0  -6   72.96    1.90
  -6   0   5    0.13    0.20
   6   0  -5    0.11    0.16
   6   0  -5   -0.07    0.16
   6   0  -5   -0.09    0.13
   6   0  -4  332.03    7.86
   6   0  -4  328.79    7.71
   6   0  -4  332.86    6.96
   6   0  -4  331.63    5.93
  -6   0   4  318.47    8.30
  -6   0   4  332.61    7.72
  -6   0   4  332.65    6.51
  -6   0   3    0.22    0.13
  -6   0   3    0.07    0.15
   6   0  -3    0.39    0.16
  -6   0   3    0.36    0.17
   6   0  -3    0.68    0.13
  -6   0   2  177.48    4.24
   6   0  -2  183.86    4.32
  -6   0   2  177.42    3.57
   6   0  -2  178.25    4.24
   6   0  -2  177.63    3.79
   6   0  -2  179.80    3.25
  -6   0   2  177.34    4.55
  -6   0   2  177.26    3.85
  -6   0   1    0.02    0.13
  -6   0   1    0.04    0.15
   6   0  -1    0.01    0.15
   6   0  -1   -0.11    0.13
  -6   0   1    0.07    0.12
   6   0  -1    0.08    0.15
  -6   0   1   -0.21    0.13
  -6   0   1    0.04    0.13
   6   0   0    7.23    0.38
   6   0   0    7.02    0.27
  -6   0   0    7.31    0.32
  -6   0   0    6.92    0.35
  -6   0   0    7.13    0.30
  -6   0   0    7.29    0.34
  -6   0  -1    0.07    0.13
  -6   0  -1    0.22    0.17
   6   0   1    0.07    0.18
   6   0   1   -0.08    0.13
  -6   0  -1    0.00    0.15
  -6   0  -1    0.18    0.15
  -6   0  -2   58.74    1.43
  -6   0  -2   58.59    1.45
  -6   0  -2   57.74    1.28
  -6   0  -2   58.54    1.39
   6   0   2   59.94    1.54
  -6   0  -2   60.22    1.20
  -6   0  -3    0.03    0.17
  -6   0  -3    0.21    0.31
  -6   0  -3   -0.24    0.22
  -6   0  -3    0.16    0.19
  -6   0  -3    0.00    0.21
  -6   0  -3    0.24    0.16
   6   0   3    0.07    0.20
  -6   0  -4   17.30    0.75
  -6   0  -4   17.24    0.50
  -6   0  -4   17.17    0.55
  -6   0  -4   16.82    0.59
  -6   0  -4   16.89    0.60
  -6   0  -4   17.93    0.65
  -6   0  -5   -0.10    0.30
  -6   0  -5    0.34    0.41
  -6   0  -5    0.28    0.29
   6   1  -9   18.42    0.53
   6   1  -9   17.67    0.76
   6   1  -9   18.66    0.72
   6   1  -9   18.38    0.74
   6   1  -9   17.73    0.55
   6   1  -9   20.02    0.74
   6  -1  -9   18.46    0.55
   6  -1  -9   18.27    0.72
   6  -1  -9   18.78    0.72
   6  -1  -9   17.69    0.68
   6  -1  -9   18.14    0.55
   6   1  -8   38.63    0.86
   6   1  -8   37.95    1.05
   6   1  -8   39.12    1.06
   6   1  -8   37.37    0.85
   6   1  -8   37.88    1.08
   6  -1  -8   36.66    0.85
   6  -1  -8   38.04    1.06
   6  -1  -8   38.40    0.87
  -6  -1   8   37.31    1.28
   6  -1  -8   37.79    1.04
   6  -1  -8   37.83    1.04
   6   1  -7   33.75    0.94
   6   1  -7   35.07    0.77
   6   1  -7   35.37    0.93
  -6   1   7   34.52    1.11
   6   1  -7   35.02    0.97
   6   1  -7   34.19    0.78
   6  -1  -7   34.19    0.78
  -6  -1   7   33.98    1.10
   6  -1  -7   33.61    0.93
   6  -1  -7   34.00    0.93
   6  -1  -7   34.98    0.79
   6  -1  -7   34.73    0.94
   6   1  -6   54.51    1.32
   6   1  -6   55.99    1.14
  -6   1   6   55.39    1.57
   6  -1  -6   56.11    1.15
   6  -1  -6   54.23    1.10
  -6  -1   6   54.98    1.58
   6  -1  -6   53.10    1.31
   6   1  -5   10.54    0.39
   6   1  -5    9.34    0.33
  -6   1   5    9.60    0.47
   6   1  -5   10.02    0.42
  -6  -1   5    9.64    0.49
   6  -1  -5   10.74    0.41
   6  -1  -5   10.24    0.33
   6  -1  -5   10.26    0.43
   6   1  -4    0.40    0.16
   6   1  -4    0.44    0.14
   6   1  -4    0.42    0.17
  -6   1   4    0.64    0.19
  -6   1   4    0.13    0.16
  -6   1   4    0.42    0.14
   6  -1  -4    0.83    0.15
   6  -1  -4    0.51    0.17
   6  -1  -4    0.36    0.17
   6  -1  -4    0.42    0.13
  -6  -1   4    0.34    0.20
   6   1  -3    6.74    0.27
  -6   1   3    6.14    0.28
   6   1  -3    6.04    0.33
  -6   1   3    6.12    0.35
   6   1  -3    6.38    0.35
   6   1  -3    6.76    0.29
  -6   1   3    5.99    0.32
  -6  -1   3    6.00    0.34
   6  -1  -3    6.76    0.26
   6  -1  -3    6.67    0.34
  -6  -1   3    6.00    0.37
   6  -1  -3    6.76    0.27
  -6  -1   3    6.10    0.28
   6  -1  -3    6.62    0.34
  -6  -1   3    6.34    0.31
   6   1  -2  133.91    2.45
  -6   1   2  133.07    2.69
  -6   1   2  132.09    3.41
   6   1  -2  132.95    3.25
  -6   1   2  132.08    3.19
   6   1  -2  133.47    3.19
   6   1  -2  132.69    2.85
   6  -1  -2  128.97    2.83
  -6  -1   2  130.29    3.43
  -6  -1   2  135.27    2.69
   6  -1  -2  132.44    3.19
  -6  -1   2  135.34    2.90
   6  -1  -2  135.37    3.25
   6  -1  -2  135.97    2.49
  -6  -1   2  129.64    3.19
   6   1  -1   49.04    1.30
  -6   1   1   48.97    1.17
  -6   1   1   49.28    1.35
   6   1  -1   48.67    1.13
  -6   1   1   48.28    1.16
   6   1  -1   48.23    1.28
   6   1  -1   50.51    0.98
  -6   1   1   49.24    1.27
  -6   1   1   48.58    1.07
   6  -1  -1   49.72    0.98
  -6  -1   1   49.26    1.39
  -6  -1   1   50.27    1.17
   6  -1  -1   48.76    1.30
   6  -1  -1   49.49    0.99
   6  -1  -1   47.82    1.28
  -6  -1   1   48.56    1.28
  -6  -1   1   50.54    1.08
  -6  -1   1   50.48    1.18
  -6   1   0  144.49    3.13
  -6   1   0  140.25    2.88
   6   1   0  143.17    2.64
   6   1   0  140.78    3.50
  -6   1   0  141.09    3.42
  -6   1   0  138.39    3.11
  -6  -1   0  142.83    3.12
  -6  -1   0  147.67    3.14
  -6  -1   0  145.50    2.90
  -6  -1   0  145.37    3.43
   6  -1   0  145.12    3.49
  -6  -1   0  139.04    3.72
   6  -1   0  143.80    2.66
   6  -1   0  144.70    2.63
  -6   1  -1   72.28    1.69
  -6   1  -1   75.28    1.86
  -6   1  -1   72.69    1.57
   6   1   1   75.13    1.90
  -6   1  -1   74.21    1.73
  -6  -1  -1   74.99    1.88
  -6  -1  -1   76.77    1.74
   6  -1   1   74.50    1.89
  -6  -1  -1   74.53    1.58
  -6  -1  -1   73.84    1.71
   6  -1   1   74.94    1.45
   6  -1   1   75.62    1.43
  -6   1  -2   13.16    0.47
  -6   1  -2   14.26    0.44
  -6   1  -2   14.45    0.59
   6   1   2   14.57    0.53
  -6   1  -2   13.40    0.50
  -6   1  -2   14.29    0.39
  -6  -1  -2   13.63    0.50
  -6  -1  -2   13.42    0.48
   6  -1   2   14.26    0.52
  -6  -1  -2   13.79    0.59
  -6  -1  -2   13.60    0.45
  -6  -1  -2   13.76    0.40
  -6   1  -3   44.96    1.25
  -6   1  -3   48.15    1.16
  -6   1  -3   46.84    0.99
  -6   1  -3   46.46    1.05
  -6   1  -3   44.64    1.13
  -6   1  -3   45.77    1.20
   6   1   3   47.63    1.27
  -6  -1  -3   47.09    1.21
  -6  -1  -3   46.43    1.08
  -6  -1  -3   46.59    1.26
  -6  -1  -3   47.53    1.16
   6  -1   3   47.99    1.25
  -6  -1  -3   46.36    1.16
  -6  -1  -3   46.74    1.00
  -6   1  -4    1.20    0.38
  -6   1  -4    0.41    0.25
  -6   1  -4    0.44    0.17
   6   1   4    0.48    0.23
  -6   1  -4    0.50    0.26
  -6  -1  -4    0.47    0.26
  -6  -1  -4    0.33    0.21
  -6  -1  -4    0.60    0.38
  -6  -1  -4    0.59    0.23
  -6  -1  -4    0.81    0.20
  -6  -1  -4    0.72    0.28
  -6   1  -5    7.00    0.57
  -6   1  -5    7.24    0.47
  -6   1  -5    7.67    0.49
  -6   1  -5    8.81    0.69
  -6  -1  -5    7.07    0.59
  -6  -1  -5    6.67    0.39
  -6  -1  -5    7.83    0.52
  -6  -1  -5    6.95    0.64
  -6  -1  -5    8.28    0.52
   6   2  -9    1.92    0.34
   6   2  -9    1.87    0.37
   6   2  -9    1.74    0.22
   6   2  -9    2.24    0.34
   6   2  -9    1.92    0.27
   6  -2  -9    1.81    0.33
   6  -2  -9    2.08    0.35
   6  -2  -9    2.09    0.25
   6  -2  -9    1.88    0.34
   6  -2  -9    1.57    0.25
   6   2  -8    0.54    0.27
   6   2  -8    0.30    0.26
   6   2  -8    0.05    0.26
   6   2  -8    0.25    0.20
   6   2  -8    0.31    0.18
   6  -2  -8   -0.04    0.24
   6  -2  -8    0.46    0.26
   6  -2  -8    0.34    0.19
   6  -2  -8    0.59    0.20
   6  -2  -8    0.34    0.25
   6   2  -7   20.85    0.66
   6   2  -7   21.02    0.69
   6   2  -7   22.15    0.68
   6   2  -7   22.23    0.64
   6   2  -7   20.35    0.55
  -6   2   7   20.97    0.81
   6   2  -7   20.93    0.56
  -6  -2   7   21.21    0.81
   6  -2  -7   21.84    0.57
   6  -2  -7   20.26    0.66
   6  -2  -7   21.49    0.68
   6  -2  -7   20.87    0.57
   6   2  -6    2.62    0.25
   6   2  -6    2.95    0.21
   6   2  -6    2.75    0.22
  -6   2   6    2.69    0.31
   6  -2  -6    2.63    0.20
  -6  -2   6    3.08    0.33
   6  -2  -6    3.09    0.22
   6  -2  -6    2.51    0.24
   6  -2  -6    2.29    0.22
  -6   2   5  145.15    3.82
  -6   2   5  146.84    2.99
   6   2  -5  146.97    3.21
   6   2  -5  148.17    3.53
  -6  -2   5  144.47    3.83
   6  -2  -5  148.57    3.55
   6  -2  -5  148.55    2.72
   6  -2  -5  148.51    3.62
   6  -2  -5  149.44    3.20
  -6   2   4   14.93    0.45
   6   2  -4   15.42    0.54
   6   2  -4   15.80    0.49
  -6   2   4   15.02    0.57
   6   2  -4   15.29    0.41
  -6   2   4   15.69    0.53
   6   2  -4   15.57    0.53
   6  -2  -4   15.50    0.41
   6  -2  -4   15.98    0.47
   6  -2  -4   15.87    0.42
  -6  -2   4   15.35    0.49
  -6  -2   4   14.90    0.53
   6  -2  -4   15.42    0.54
  -6  -2   4   15.43    0.46
   6  -2  -4   16.13    0.56
  -6  -2   4   15.06    0.60
  -6   2   3  208.43    4.13
   6   2  -3  210.49    4.42
  -6   2   3  205.40    5.25
  -6   2   3  203.37    4.90
   6   2  -3  210.41    4.90
   6   2  -3  208.58    4.99
   6   2  -3  211.50    3.77
   6  -2  -3  207.06    3.76
   6  -2  -3  204.41    4.39
   6  -2  -3  207.83    3.81
  -6  -2   3  208.23    4.46
  -6  -2   3  206.96    4.90
  -6  -2   3  208.66    4.13
   6  -2  -3  202.89    4.90
  -6  -2   3  200.78    5.27
   6  -2  -3  207.35    4.99
   6   2  -2    8.20    0.29
  -6   2   2    7.76    0.30
  -6   2   2    7.29    0.36
   6   2  -2    7.54    0.37
   6   2  -2    7.60    0.37
   6   2  -2    7.76    0.32
  -6   2   2    8.86    0.33
  -6   2   2    8.66    0.37
   6  -2  -2    7.87    0.28
   6  -2  -2    7.48    0.37
   6  -2  -2    7.62    0.37
  -6  -2   2    7.82    0.37
  -6  -2   2    8.21    0.32
  -6  -2   2    7.79    0.34
  -6  -2   2    6.99    0.40
   6  -2  -2    7.23    0.28
  -6   2   1  104.53    2.56
   6   2  -1  107.38    1.97
   6   2  -1  107.55    2.62
  -6   2   1  107.31    2.35
  -6   2   1  107.23    2.17
   6   2  -1  104.50    2.57
  -6  -2   1  105.50    2.79
  -6  -2   1  106.74    2.17
   6  -2  -1  100.82    2.62
   6  -2  -1  105.16    2.57
  -6  -2   1  103.52    2.34
   6  -2  -1  105.00    1.97
   6  -2  -1  105.99    2.00
  -6  -2   1  106.08    2.34
  -6  -2   1  104.77    2.57
   6   2   0    1.51    0.21
  -6   2   0    1.33    0.20
   6   2   0    1.60    0.21
   6   2   0    1.76    0.17
  -6   2   0    1.63    0.18
  -6   2   0    1.84    0.17
  -6   2   0    1.50    0.19
   6  -2   0    1.31    0.21
  -6  -2   0    1.50    0.17
  -6  -2   0    1.59    0.26
  -6  -2   0    1.81    0.21
   6  -2   0    1.53    0.17
   6  -2   0    1.86    0.17
  -6  -2   0    1.57    0.19
  -6  -2   0    1.68    0.20
  -6   2  -1   11.75    0.39
  -6   2  -1   11.43    0.45
  -6   2  -1   11.44    0.41
   6   2   1   11.41    0.49
   6   2   1   11.91    0.49
  -6   2  -1   11.39    0.44
  -6  -2  -1   12.14    0.48
  -6  -2  -1   11.55    0.51
  -6  -2  -1   12.25    0.41
  -6  -2  -1   11.40    0.45
   6  -2   1   12.15    0.37
  -6  -2  -1   12.22    0.44
   6  -2   1   11.95    0.37
   6  -2   1   11.85    0.48
  -6   2  -2    0.41    0.19
  -6   2  -2    0.44    0.15
  -6   2  -2    0.32    0.15
  -6   2  -2    0.56    0.17
   6   2   2    0.35    0.20
  -6  -2  -2    0.14    0.18
  -6  -2  -2    0.51    0.16
  -6  -2  -2    0.25    0.17
  -6  -2  -2    0.58    0.21
   6  -2   2    0.39    0.19
  -6  -2  -2    0.81    0.29
   6   2   3    8.74    0.47
  -6   2  -3    8.77    0.55
  -6   2  -3    8.86    0.40
  -6   2  -3    9.09    0.33
  -6   2  -3    9.96    0.45
  -6   2  -3    8.06    0.39
  -6   2  -3    8.80    0.36
   6  -2   3    9.17    0.44
  -6  -2  -3    8.79    0.46
  -6  -2  -3    9.02    0.45
  -6  -2  -3    9.83    0.57
  -6  -2  -3    9.16    0.42
  -6  -2  -3    8.77    0.36
  -6   2  -4    1.65    0.19
  -6   2  -4    1.73    0.29
  -6   2  -4    1.06    0.39
  -6   2  -4    1.63    0.28
  -6  -2  -4    1.33    0.27
  -6  -2  -4    1.80    0.46
  -6  -2  -4    1.94    0.32
  -6  -2  -4    1.56    0.30
  -6  -2  -4    1.99    0.26
  -6  -2  -4    1.80    0.23
  -6  -2  -4    1.50    0.40
  -6   2  -5   29.60    0.92
  -6   2  -5   30.97    0.93
  -6   2  -5   30.14    1.20
  -6   2  -5   31.60    1.06
   6   2   5   30.17    0.89
  -6  -2  -5   31.92    1.10
  -6  -2  -5   30.72    0.98
  -6  -2  -5   30.96    0.79
  -6  -2  -5   31.47    0.96
  -6  -2  -5   31.97    1.17
   6   3  -9   21.31    0.59
   6   3  -9   21.26    0.63
   6   3  -9   20.67    0.75
   6   3  -9   21.32    0.82
   6   3  -9   22.40    0.81
   6  -3  -9   21.73    0.78
   6  -3  -9   21.00    0.75
   6  -3  -9   20.81    0.78
   6  -3  -9   21.89    0.63
   6  -3  -9   21.61    0.63
   6   3  -8   19.66    0.67
   6   3  -8   19.18    0.70
   6   3  -8   19.09    0.63
   6   3  -8   20.47    0.54
   6   3  -8   18.82    0.55
   6   3  -8   18.56    0.71
   6  -3  -8   19.20    0.69
   6  -3  -8   18.88    0.66
   6  -3  -8   18.49    0.68
   6  -3  -8   19.50    0.57
   6  -3  -8   19.23    0.56
   6   3  -7   53.70    1.39
  -6   3   7   56.66    1.66
   6   3  -7   59.16    1.48
   6   3  -7   58.97    1.34
   6   3  -7   55.36    1.15
   6   3  -7   56.37    1.39
   6   3  -7   55.01    1.18
  -6  -3   7   56.49    1.66
   6  -3  -7   55.94    1.15
   6  -3  -7   55.20    1.38
   6  -3  -7   57.98    1.21
   6  -3  -7   55.80    1.39
   6   3  -6   20.50    0.53
   6   3  -6   20.85    0.53
   6   3  -6   19.75    0.63
  -6   3   6   20.23    0.77
   6  -3  -6   20.14    0.63
   6  -3  -6   20.99    0.52
   6  -3  -6   20.37    0.51
  -6  -3   6   20.68    0.78
   6  -3  -6   21.00    0.56
  -6   3   5   22.57    0.80
  -6   3   5   25.36    0.64
   6   3  -5   24.26    0.74
   6   3  -5   24.27    0.69
   6  -3  -5   25.56    0.68
  -6  -3   5   22.81    0.83
   6  -3  -5   25.51    0.75
   6  -3  -5   23.89    0.77
   6  -3  -5   25.18    0.58
   6  -3  -5   24.24    0.58
  -6   3   4    0.17    0.17
  -6   3   4    0.48    0.16
   6   3  -4    0.16    0.17
   6   3  -4    0.16    0.16
   6   3  -4    0.14    0.15
  -6   3   4    0.35    0.18
   6  -3  -4    0.12    0.14
   6  -3  -4    0.24    0.17
   6  -3  -4    0.25    0.17
  -6  -3   4    0.58    0.22
   6  -3  -4    0.42    0.15
   6  -3  -4   -0.02    0.14
  -6  -3   4    0.16    0.15
  -6  -3   4    0.00    0.15
  -6  -3   4    0.14    0.18
  -6   3   3    4.86    0.30
  -6   3   3    3.83    0.31
  -6   3   3    4.68    0.32
  -6   3   3    4.41    0.27
   6   3  -3    4.50    0.32
   6   3  -3    4.84    0.32
   6   3  -3    4.89    0.29
  -6  -3   3    4.96    0.28
  -6  -3   3    4.32    0.30
   6  -3  -3    5.64    0.34
  -6  -3   3    4.36    0.32
   6  -3  -3    5.11    0.26
   6  -3  -3    4.83    0.25
   6  -3  -3    5.35    0.24
   6  -3  -3    5.07    0.32
  -6  -3   3    4.36    0.38
  -6   3   2   24.52    0.67
   6   3  -2   23.28    0.54
  -6   3   2   22.61    0.71
  -6   3   2   24.56    0.60
   6   3  -2   23.05    0.71
   6   3  -2   24.23    0.73
   6   3  -2   22.96    0.71
  -6   3   2   23.88    0.71
  -6  -3   2   23.12    0.71
   6  -3  -2   23.83    0.55
   6  -3  -2   23.34    0.72
   6  -3  -2   23.07    0.71
  -6  -3   2   22.72    0.79
   6  -3  -2   24.11    0.55
  -6  -3   2   22.84    0.60
  -6  -3   2   23.02    0.65
   6   3  -1   53.25    1.03
   6   3  -1   51.59    1.37
   6   3  -1   51.08    1.35
  -6   3   1   51.45    1.23
  -6   3   1   50.03    1.33
   6   3  -1   51.58    1.35
  -6   3   1   51.75    1.13
  -6  -3   1   52.07    1.14
  -6  -3   1   51.42    1.49
   6  -3  -1   49.75    1.36
  -6  -3   1   52.24    1.23
  -6  -3   1   50.92    1.22
   6  -3  -1   50.70    1.33
   6  -3  -1   51.84    1.03
   6  -3  -1   51.44    1.05
  -6  -3   1   51.32    1.35
   6   3   0   61.21    1.59
   6   3   0   61.84    1.57
  -6   3   0   59.13    1.53
  -6   3   0   60.26    1.30
   6   3   0   59.97    1.18
  -6   3   0   60.59    1.43
  -6  -3   0   59.25    1.43
   6  -3   0   61.35    1.21
  -6  -3   0   60.48    1.32
   6  -3   0   60.92    1.57
  -6  -3   0   60.12    1.74
  -6  -3   0   59.99    1.56
   6  -3   0   62.13    1.20
  -6  -3   0   59.62    1.42
  -6   3  -1   63.07    1.46
  -6   3  -1   63.57    1.60
  -6   3  -1   62.91    1.50
   6   3   1   63.27    1.66
   6   3   1   63.76    1.63
  -6   3  -1   62.30    1.35
  -6  -3  -1   63.85    1.51
   6  -3   1   66.26    1.27
  -6  -3  -1   61.45    1.49
   6  -3   1   64.19    1.64
  -6  -3  -1   63.27    1.39
  -6  -3  -1   62.73    1.30
  -6  -3  -1   61.19    1.49
   6  -3   1   65.08    1.25
  -6   3  -2   37.19    0.78
  -6   3  -2   35.24    0.83
   6   3   2   35.68    1.03
   6   3   2   34.64    1.01
  -6   3  -2   34.95    0.94
  -6   3  -2   35.52    0.89
  -6  -3  -2   34.89    0.88
  -6  -3  -2   35.50    0.95
  -6  -3  -2   35.98    1.02
  -6  -3  -2   34.39    0.80
   6  -3   2   35.92    1.00
  -6  -3  -2   36.12    0.97
  -6   3  -3   34.89    0.97
  -6   3  -3   34.29    1.03
   6   3   3   35.49    1.04
  -6   3  -3   35.62    0.79
   6   3   3   36.81    1.03
  -6   3  -3   36.20    0.94
  -6   3  -3   34.70    0.83
  -6   3  -3   34.30    0.89
   6  -3   3   36.58    1.00
  -6  -3  -3   36.45    1.15
  -6  -3  -3   35.17    0.82
  -6  -3  -3   33.83    0.97
  -6  -3  -3   35.54    1.13
  -6  -3  -3   36.16    0.91
  -6  -3  -3   34.12    1.00
  -6  -3  -3   36.44    1.07
  -6   3  -4    1.41    0.29
   6   3   4    2.23    0.33
  -6   3  -4    1.71    0.19
  -6   3  -4    1.28    0.28
  -6   3  -4    1.66    0.40
  -6  -3  -4    2.12    0.44
  -6  -3  -4    1.61    0.32
  -6  -3  -4    1.89    0.27
  -6  -3  -4    2.20    0.25
  -6  -3  -4    1.88    0.43
  -6  -3  -4    2.55    0.46
  -6  -3  -4    1.45    0.29
  -6   3  -5    6.50    0.49
   6   3   5    4.74    0.45
  -6   3  -5    6.01    0.44
  -6   3  -5    6.02    0.58
  -6   3  -5    6.35    0.62
  -6  -3  -5    6.06    0.42
  -6  -3  -5    5.90    0.61
  -6  -3  -5    5.92    0.47
  -6  -3  -5    5.67    0.60
  -6  -3  -5    6.15    0.59
  -6  -3  -5    6.04    0.45
   6   4  -9    1.05    0.33
   6   4  -9    0.60    0.34
   6   4  -9    1.01    0.21
   6   4  -9    0.71    0.33
   6  -4  -9    0.89    0.30
   6  -4  -9    0.62    0.32
   6  -4  -9    1.15    0.24
   6  -4  -9    1.26    0.32
   6  -4  -9    1.18    0.25
   6   4  -8    1.29    0.32
   6   4  -8    0.91    0.28
   6   4  -8    1.36    0.23
   6   4  -8    1.79    0.29
   6   4  -8    1.24    0.20
   6   4  -8    1.52    0.29
   6  -4  -8    1.51    0.24
   6  -4  -8    1.46    0.24
   6  -4  -8    2.38    0.32
   6  -4  -8    1.79    0.30
   6   4  -7    0.12    0.17
   6   4  -7    0.19    0.19
   6   4  -7    0.40    0.23
  -6   4   7    0.20    0.27
   6   4  -7    0.23    0.27
   6   4  -7   -0.24    0.23
   6   4  -7    0.05    0.22
   6  -4  -7    0.33    0.23
  -6  -4   7   -0.12    0.28
   6  -4  -7    0.21    0.19
   6  -4  -7    0.30    0.21
   6  -4  -7    0.06    0.18
   6   4  -6   68.15    1.60
   6   4  -6   69.23    1.55
  -6   4   6   67.43    1.91
   6   4  -6   67.35    1.61
   6   4  -6   67.40    1.33
   6   4  -6   69.03    1.38
   6  -4  -6   69.22    1.34
   6  -4  -6   66.65    1.33
   6  -4  -6   67.98    1.41
  -6  -4   6   67.80    1.92
   6  -4  -6   66.45    1.59
   6  -4  -6   66.68    1.60
   6   4  -5    4.41    0.33
  -6   4   5    5.02    0.39
   6   4  -5    5.08    0.34
  -6   4   5    4.92    0.33
   6  -4  -5    4.80    0.32
   6  -4  -5    4.73    0.36
   6  -4  -5    4.65    0.26
   6  -4  -5    4.92    0.38
   6  -4  -5    4.53    0.26
  -6  -4   5    4.90    0.41
   6   4  -4  199.85    4.82
  -6   4   4  203.88    4.75
  -6   4   4  194.38    5.07
  -6   4   4  201.68    4.00
   6   4  -4  201.39    4.73
   6   4  -4  201.12    4.29
   6  -4  -4  194.89    3.63
  -6  -4   4  199.07    3.99
   6  -4  -4  203.42    4.25
  -6  -4   4  195.19    5.11
   6  -4  -4  201.23    4.83
   6  -4  -4  196.87    3.68
   6  -4  -4  197.03    4.74
  -6  -4   4  195.72    4.30
   6   4  -3    6.86    0.37
  -6   4   3    5.58    0.31
  -6   4   3    6.20    0.35
   6   4  -3    6.42    0.36
   6   4  -3    6.50    0.36
  -6   4   3    6.00    0.35
  -6   4   3    6.41    0.37
  -6  -4   3    5.92    0.31
  -6  -4   3    6.47    0.37
   6  -4  -3    6.36    0.28
   6  -4  -3    6.35    0.27
   6  -4  -3    6.39    0.27
  -6  -4   3    6.13    0.33
  -6  -4   3    6.14    0.43
   6  -4  -3    6.73    0.39
   6  -4  -3    6.26    0.37
  -6   4   2  150.14    3.04
  -6   4   2  154.31    3.30
  -6   4   2  148.15    3.83
   6   4  -2  150.78    3.62
   6   4  -2  147.57    3.63
  -6   4   2  149.52    3.61
   6   4  -2  146.94    3.68
  -6  -4   2  152.61    3.05
  -6  -4   2  146.70    3.92
   6  -4  -2  151.41    3.68
   6  -4  -2  147.11    3.61
  -6  -4   2  148.76    3.61
   6  -4  -2  152.47    2.78
  -6  -4   2  156.76    3.30
   6  -4  -2  150.46    2.81
  -6   4   1    0.39    0.18
   6   4  -1    0.40    0.19
  -6   4   1    0.15    0.17
   6   4  -1    0.24    0.18
  -6   4   1    0.03    0.14
   6   4  -1    0.30    0.18
   6  -4  -1    0.03    0.15
  -6  -4   1    0.14    0.18
  -6  -4   1    0.51    0.23
  -6  -4   1    0.16    0.15
  -6  -4   1    0.07    0.16
   6  -4  -1    0.14    0.15
   6  -4  -1    0.01    0.17
  -6  -4   1    0.16    0.16
  -6   4   0   11.26    0.45
  -6   4   0   12.39    0.39
   6   4   0   12.61    0.52
  -6   4   0   11.59    0.43
   6   4   0   11.27    0.49
  -6  -4   0   12.27    0.45
   6  -4   0   11.41    0.47
  -6  -4   0   11.58    0.59
   6  -4   0   11.14    0.36
  -6  -4   0   11.36    0.46
   6  -4   0   11.47    0.38
  -6  -4   0   11.63    0.49
  -6  -4   0   11.73    0.42
  -6   4  -1    1.51    0.17
  -6   4  -1    1.18    0.17
   6   4   1    1.78    0.25
  -6   4  -1    1.46    0.21
   6   4   1    1.18    0.24
  -6  -4  -1    1.37    0.27
  -6  -4  -1    1.54    0.18
   6  -4   1    1.58    0.20
   6  -4   1    1.14    0.19
  -6  -4  -1    1.16    0.21
  -6  -4  -1    1.40    0.20
   6  -4   1    1.33    0.23
  -6  -4  -1    0.90    0.29
  -6  -4  -1    1.70    0.25
  -6   4  -2   20.18    0.60
   6   4   2   20.14    0.69
  -6   4  -2   18.61    0.57
  -6   4  -2   19.40    0.54
  -6   4  -2   20.88    0.51
   6   4   2   20.90    0.71
  -6   4  -2   19.38    0.64
  -6  -4  -2   19.03    0.71
  -6  -4  -2   18.61    0.54
   6  -4   2   21.11    0.66
  -6  -4  -2   19.26    0.66
  -6  -4  -2   20.02    0.61
  -6  -4  -2   18.65    0.65
  -6   4  -3    0.20    0.17
  -6   4  -3    0.11    0.22
   6   4   3    0.15    0.24
  -6   4  -3   -0.17    0.20
   6   4   3    0.22    0.24
  -6   4  -3    0.13    0.15
   6   4   3    0.32    0.24
  -6   4  -3    0.38    0.16
  -6  -4  -3    0.60    0.21
  -6  -4  -3   -0.03    0.21
  -6  -4  -3    0.90    0.35
   6  -4   3    0.39    0.22
  -6  -4  -3    0.38    0.26
  -6  -4  -3    0.05    0.23
  -6  -4  -3    0.00    0.36
  -6   4  -4   32.43    1.20
   6   4   4   33.43    0.94
  -6   4  -4   33.37    0.96
  -6   4  -4   34.91    1.07
  -6   4  -4   34.46    0.97
  -6  -4  -4   34.54    1.19
  -6  -4  -4   34.38    1.10
  -6  -4  -4   32.78    0.85
  -6  -4  -4   35.40    1.17
  -6  -4  -4   33.86    0.94
  -6  -4  -4   32.66    1.02
  -6  -4  -4   33.73    1.02
   6   5  -9   11.06    0.64
   6   5  -9   11.56    0.44
   6   5  -9   10.50    0.61
   6   5  -9   10.30    0.57
   6  -5  -9   10.93    0.63
   6  -5  -9   11.25    0.51
   6  -5  -9   11.09    0.57
   6  -5  -9   10.94    0.49
   6   5  -8   34.20    1.09
   6   5  -8   35.02    0.82
   6   5  -8   34.18    1.01
   6   5  -8   35.70    0.99
   6   5  -8   35.24    1.04
   6  -5  -8   35.02    1.01
   6  -5  -8   35.41    0.87
   6  -5  -8   35.49    1.02
   6  -5  -8   34.62    0.82
  -6   5   7   13.59    0.68
   6   5  -7   13.91    0.54
   6   5  -7   13.77    0.54
   6   5  -7   13.59    0.59
   6   5  -7   14.06    0.64
   6   5  -7   13.68    0.44
   6  -5  -7   14.24    0.50
   6  -5  -7   13.26    0.47
   6  -5  -7   13.68    0.57
  -6  -5   7   13.54    0.69
   6  -5  -7   13.47    0.54
   6   5  -6   35.45    0.95
   6   5  -6   34.97    0.97
  -6   5   6   34.34    1.12
   6   5  -6   35.02    0.92
   6   5  -6   35.01    0.80
  -6  -5   6   35.96    1.15
   6  -5  -6   35.20    0.94
   6  -5  -6   34.93    0.77
   6  -5  -6   34.78    0.94
   6  -5  -6   35.86    0.78
   6  -5  -6   34.26    0.84
   6  -5  -6   35.13    0.79
   6   5  -5    4.03    0.30
  -6   5   5    4.21    0.38
   6   5  -5    3.53    0.25
   6   5  -5    3.48    0.29
  -6   5   5    4.04    0.27
   6  -5  -5    4.01    0.28
   6  -5  -5    3.95    0.33
   6  -5  -5    4.93    0.33
  -6  -5   5    3.97    0.36
   6  -5  -5    4.46    0.27
   6  -5  -5    4.24    0.27
   6  -5  -5    4.13    0.26
  -6   5   4    0.42    0.18
   6   5  -4   -0.02    0.17
  -6   5   4    0.38    0.20
   6   5  -4    0.29    0.19
  -6   5   4    0.40    0.20
   6  -5  -4    0.22    0.15
  -6  -5   4    0.71    0.24
   6  -5  -4    0.55    0.22
   6  -5  -4    0.39    0.16
   6  -5  -4    0.58    0.15
   6  -5  -4    0.38    0.20
   6   5  -3    0.27    0.17
  -6   5   3    0.15    0.17
   6   5  -3    0.42    0.18
   6   5  -3    0.21    0.18
  -6   5   3   -0.02    0.18
  -6   5   3    0.02    0.16
  -6   5   3   -0.04    0.21
   6  -5  -3    0.14    0.14
   6  -5  -3    0.53    0.16
  -6  -5   3    0.03    0.17
  -6  -5   3    0.12    0.22
   6  -5  -3    0.22    0.19
  -6  -5   3    0.25    0.19
  -6  -5   3    0.06    0.16
   6  -5  -3    0.63    0.20
   6   5  -2   53.41    1.44
  -6   5   2   54.65    1.32
   6   5  -2   54.72    1.44
   6   5  -2   54.44    1.47
  -6   5   2   53.57    1.43
  -6   5   2   54.25    1.21
   6  -5  -2   53.42    1.45
  -6  -5   2   55.05    1.21
  -6  -5   2   55.91    1.44
  -6  -5   2   53.61    1.59
   6  -5  -2   53.27    1.43
   6  -5  -2   54.20    1.10
   6  -5  -2   53.21    1.11
  -6  -5   2   56.16    1.31
   6   5  -1    9.99    0.47
  -6   5   1    9.27    0.39
  -6   5   1    9.90    0.37
  -6   5   1   10.49    0.43
   6   5  -1   10.00    0.47
   6   5  -1    9.64    0.45
   6  -5  -1    9.40    0.35
  -6  -5   1    9.22    0.55
  -6  -5   1    9.53    0.45
  -6  -5   1    9.31    0.41
   6  -5  -1    9.98    0.35
  -6  -5   1    9.64    0.39
  -6  -5   1    9.31    0.38
   6  -5  -1    9.67    0.46
  -6   5   0  119.88    2.97
  -6   5   0  118.31    2.72
  -6   5   0  123.68    2.37
   6   5   0  122.74    3.01
   6   5   0  124.64    3.06
  -6   5   0  121.03    2.50
  -6  -5   0  123.39    2.73
   6  -5   0  123.99    2.33
   6  -5   0  123.07    3.02
  -6  -5   0  121.38    3.00
  -6  -5   0  120.83    2.40
  -6  -5   0  122.31    3.32
   6  -5   0  120.25    2.30
  -6  -5   0  121.78    2.73
  -6  -5   0  122.68    2.54
  -6   5  -1   38.00    0.83
   6   5   1   37.27    1.08
   6   5   1   37.12    0.88
  -6   5  -1   36.26    0.87
   6   5   1   36.90    1.09
  -6   5  -1   34.78    0.97
  -6  -5  -1   38.55    0.93
  -6  -5  -1   33.41    0.96
  -6  -5  -1   37.87    1.26
  -6  -5  -1   37.41    1.01
   6  -5   1   38.66    1.05
   6  -5   1   38.02    0.83
  -6  -5  -1   37.12    0.86
   6  -5   1   37.96    0.84
  -6  -5  -1   37.75    1.01
  -6   5  -2   64.12    1.38
   6   5   2   63.18    1.70
  -6   5  -2   65.80    1.49
   6   5   2   62.93    1.40
   6   5   2   62.81    1.72
  -6   5  -2   65.22    1.55
  -6   5  -2   64.22    1.31
  -6  -5  -2   62.69    1.35
   6  -5   2   65.36    1.68
  -6  -5  -2   64.68    1.46
  -6  -5  -2   62.88    1.59
  -6  -5  -2   62.78    1.56
  -6  -5  -2   64.20    1.57
   6  -5   2   64.71    1.29
   6  -5   2   65.46    1.31
  -6   5  -3   26.55    0.77
   6   5   3   24.40    0.76
  -6   5  -3   25.20    0.77
  -6   5  -3   24.68    0.69
  -6   5  -3   25.00    0.64
  -6   5  -3   25.58    0.61
  -6  -5  -3   24.97    0.69
  -6  -5  -3   24.68    0.82
  -6  -5  -3   26.25    0.95
  -6  -5  -3   25.64    0.88
  -6  -5  -3   24.33    0.76
   6  -5   3   26.17    0.80
  -6  -5  -3   24.59    0.82
  -6   5  -4   10.56    0.68
   6   5   4    9.96    0.54
  -6   5  -4   10.26    0.53
  -6  -5  -4   10.30    0.60
  -6  -5  -4   10.09    0.73
  -6  -5  -4   12.41    0.73
  -6  -5  -4   11.00    0.50
  -6  -5  -4   10.83    0.76
  -6  -5  -4   12.45    0.63
  -6  -5  -4   11.39    0.58
   6   6  -9    1.62    0.38
   6   6  -9    1.22    0.39
   6   6  -9    2.17    0.24
   6  -6  -9    1.88    0.35
   6  -6  -9    1.75    0.31
   6  -6  -9    1.67    0.27
   6   6  -8    0.15    0.28
   6   6  -8    0.19    0.30
   6   6  -8    0.03    0.31
   6   6  -8    0.27    0.28
   6   6  -8   -0.08    0.19
   6  -6  -8    0.09    0.23
   6  -6  -8    0.02    0.28
   6  -6  -8    0.27    0.26
   6  -6  -8    0.26    0.28
   6   6  -7   10.34    0.48
   6   6  -7    9.48    0.47
   6   6  -7   10.01    0.55
   6   6  -7   10.28    0.38
   6   6  -7    9.35    0.55
   6  -6  -7    9.56    0.52
   6  -6  -7    9.42    0.45
   6  -6  -7    9.05    0.42
   6  -6  -7    9.21    0.48
  -6  -6   7    9.64    0.64
   6  -6  -7    9.18    0.55
   6   6  -6    4.55    0.35
  -6   6   6    4.86    0.47
   6   6  -6    4.98    0.38
   6   6  -6    4.81    0.30
   6   6  -6    4.32    0.35
   6  -6  -6    4.98    0.36
   6  -6  -6    4.56    0.37
   6  -6  -6    4.51    0.31
   6  -6  -6    6.68    0.35
   6  -6  -6    4.72    0.30
  -6  -6   6    4.94    0.43
   6  -6  -6    5.25    0.40
   6  -6  -6    4.80    0.31
  -6   6   5   67.92    1.45
  -6   6   5   61.37    1.81
   6   6  -5   68.04    1.52
   6   6  -5   63.18    1.56
   6   6  -5   63.88    1.53
   6   6  -5   63.11    1.34
   6  -6  -5   64.01    1.51
   6  -6  -5   64.52    1.29
   6  -6  -5   63.39    1.74
   6  -6  -5   63.82    1.28
  -6  -6   5   65.57    1.85
   6  -6  -5   64.36    1.37
   6  -6  -5   64.92    1.31
   6   6  -4   13.00    0.42
  -6   6   4   13.12    0.55
  -6   6   4   12.48    0.54
  -6   6   4   12.47    0.46
   6   6  -4   12.52    0.49
   6  -6  -4   13.15    0.45
   6  -6  -4   13.18    0.54
  -6  -6   4   12.69    0.62
   6  -6  -4   13.05    0.56
   6  -6  -4   13.09    0.41
   6  -6  -4   12.63    0.41
  -6   6   3   91.21    2.44
   6   6  -3   92.72    2.36
  -6   6   3   92.05    2.32
   6   6  -3   91.81    2.32
   6   6  -3   92.86    2.32
  -6   6   3   92.60    1.96
  -6  -6   3   94.10    1.96
  -6  -6   3   90.50    2.31
   6  -6  -3   93.40    1.78
  -6  -6   3   93.35    2.11
   6  -6  -3   91.65    2.31
  -6  -6   3   90.82    2.53
   6  -6  -3   92.35    1.80
   6  -6  -3   94.35    2.37
  -6   6   2   15.55    0.54
  -6   6   2   15.29    0.49
   6   6  -2   14.88    0.57
  -6   6   2   14.85    0.56
   6   6  -2   14.44    0.59
   6   6  -2   15.35    0.58
   6  -6  -2   15.02    0.45
   6  -6  -2   15.09    0.46
   6  -6  -2   14.24    0.56
  -6  -6   2   15.26    0.58
  -6  -6   2   14.04    0.67
   6  -6  -2   14.84    0.59
  -6  -6   2   15.36    0.50
  -6  -6   2   14.74    0.53
  -6   6   1   63.03    1.48
   6   6  -1   59.43    1.65
  -6   6   1   62.03    1.63
   6   6  -1   60.71    1.62
  -6   6   1   61.81    1.27
  -6   6   1   60.48    1.35
   6   6  -1   62.02    1.63
  -6  -6   1   60.46    1.48
  -6  -6   1   62.54    1.46
  -6  -6   1   61.60    1.62
  -6  -6   1   62.27    1.82
   6  -6  -1   60.86    1.26
  -6  -6   1   61.10    1.37
   6  -6  -1   60.90    1.24
   6  -6  -1   60.66    1.63
   6   6   0    6.11    0.43
  -6   6   0    6.12    0.32
  -6   6   0    5.78    0.34
  -6   6   0    6.79    0.30
  -6   6   0    6.08    0.34
   6   6   0    5.75    0.42
  -6  -6   0    6.19    0.37
  -6  -6   0    6.26    0.32
   6  -6   0    6.03    0.34
   6  -6   0    6.37    0.34
  -6  -6   0    5.93    0.41
  -6  -6   0    6.28    0.55
  -6  -6   0    6.43    0.37
   6  -6   0    5.60    0.41
  -6   6  -1    6.24    0.31
   6   6   1    6.02    0.37
   6   6   1    6.04    0.47
  -6   6  -1    6.27    0.35
   6   6   1    5.56    0.45
  -6   6  -1    5.92    0.32
   6  -6   1    6.22    0.42
  -6  -6  -1    5.75    0.34
  -6  -6  -1    5.92    0.41
   6  -6   1    5.89    0.35
  -6  -6  -1    5.55    0.54
  -6  -6  -1    5.58    0.40
  -6  -6  -1    6.08    0.43
   6  -6   1    5.27    0.35
   6  -6   1    5.55    0.35
   6   6   2    0.54    0.26
  -6   6  -2    0.42    0.22
  -6   6  -2    0.23    0.16
  -6   6  -2    0.46    0.22
   6   6   2    0.38    0.27
  -6   6  -2    0.31    0.16
   6   6   2    0.00    0.23
   6  -6   2    0.64    0.22
  -6  -6  -2    0.14    0.20
  -6  -6  -2    0.21    0.23
  -6  -6  -2    0.20    0.27
  -6  -6  -2    0.53    0.22
   6  -6   2    0.04    0.20
   6  -6   2    0.29    0.23
  -6   6  -3   15.17    0.48
  -6   6  -3   15.22    0.58
  -6   6  -3   15.21    0.59
   6   6   3   17.03    0.61
  -6   6  -3   15.65    0.52
  -6   6  -3   16.58    0.47
  -6  -6  -3   14.81    0.54
  -6  -6  -3   14.73    0.72
  -6  -6  -3   16.47    0.69
  -6  -6  -3   14.18    0.75
  -6  -6  -3   16.57    0.64
  -6  -6  -3   15.66    0.67
  -6   6  -4    0.13    0.41
  -6   6  -4   -0.14    0.28
  -6   6  -4    0.05    0.28
   6   6   4    0.92    0.36
  -6   6  -4    0.02    0.26
  -6  -6  -4   -0.21    0.28
  -6  -6  -4   -0.15    0.38
  -6  -6  -4   -0.02    0.30
  -6  -6  -4    0.23    0.34
  -6  -6  -4    0.44    0.44
  -6  -6  -4    0.00    0.26
   6   7  -8    3.96    0.28
   6   7  -8    3.79    0.41
   6   7  -8    4.39    0.42
   6   7  -8    3.35    0.43
   6   7  -8    4.95    0.43
   6  -7  -8    3.63    0.35
   6  -7  -8    4.47    0.43
   6  -7  -8    3.61    0.32
   6  -7  -8    4.20    0.39
   6   7  -7   37.43    1.03
   6   7  -7   35.72    1.07
   6   7  -7   36.73    0.85
   6   7  -7   36.91    1.14
   6   7  -7   36.44    1.04
   6  -7  -7   36.65    0.94
   6  -7  -7   36.16    1.06
   6  -7  -7   36.07    1.03
   6  -7  -7   36.46    0.87
   6  -7  -7   35.09    1.12
   6   7  -6    3.65    0.25
   6   7  -6    3.28    0.33
  -6   7   6    3.28    0.38
   6   7  -6    3.58    0.34
   6   7  -6    3.04    0.32
  -6  -7   6    3.65    0.41
   6  -7  -6    3.91    0.26
   6  -7  -6    3.59    0.31
   6  -7  -6    3.53    0.31
   6  -7  -6    4.88    0.34
   6  -7  -6    3.89    0.35
   6  -7  -6    3.57    0.27
   6  -7  -6    3.56    0.27
   6   7  -5   13.68    0.52
   6   7  -5   14.00    0.58
  -6   7   5   14.54    0.48
  -6   7   5   13.36    0.63
   6   7  -5   13.06    0.51
   6   7  -5   12.23    0.42
  -6   7   5   13.56    0.52
   6  -7  -5   13.13    0.45
  -6  -7   5   13.51    0.68
   6  -7  -5   12.74    0.48
   6  -7  -5   14.31    0.52
   6  -7  -5   14.35    0.63
   6  -7  -5   13.76    0.50
   6  -7  -5   12.93    0.44
   6  -7  -5   12.56    0.43
   6  -7  -5   13.27    0.51
  -6   7   4    0.74    0.23
   6   7  -4    0.50    0.18
  -6   7   4    0.18    0.19
   6   7  -4    0.53    0.23
  -6   7   4    0.59    0.18
  -6   7   4    0.44    0.24
   6  -7  -4    0.35    0.20
   6  -7  -4    0.39    0.19
   6  -7  -4    0.53    0.25
  -6  -7   4    0.31    0.29
   6  -7  -4    0.52    0.18
   6  -7  -4    0.50    0.20
   6  -7  -4   -0.01    0.21
   6  -7  -4    0.44    0.23
   6  -7  -4    0.56    0.19
  -6   7   3    2.82    0.26
   6   7  -3    3.02    0.28
   6   7  -3    2.83    0.30
   6   7  -3    3.17    0.30
  -6   7   3    2.71    0.29
  -6   7   3    2.83    0.25
   6   7  -3    3.27    0.24
  -6   7   3    2.86    0.24
  -6  -7   3    2.71    0.27
  -6  -7   3    2.65    0.25
   6  -7  -3    3.02    0.31
   6  -7  -3    2.93    0.30
   6  -7  -3    2.75    0.27
  -6  -7   3    3.16    0.37
   6  -7  -3    2.75    0.24
   6  -7  -3    2.65    0.23
   6   7  -2   22.38    0.77
  -6   7   2   22.75    0.61
   6   7  -2   22.53    0.78
  -6   7   2   22.40    0.64
   6   7  -2   22.89    0.78
  -6   7   2   22.32    0.60
  -6  -7   2   22.17    0.77
   6  -7  -2   21.91    0.77
  -6  -7   2   23.61    0.90
  -6  -7   2   22.84    0.66
   6  -7  -2   22.72    0.60
  -6  -7   2   23.08    0.71
   6  -7  -2   22.71    0.67
   6  -7  -2   21.96    0.59
   6   7  -1   34.68    1.06
   6   7  -1   34.91    1.08
  -6   7   1   34.65    0.96
  -6   7   1   34.54    0.84
   6   7  -1   35.47    1.06
  -6   7   1   34.57    0.81
  -6   7   1   35.64    0.87
  -6  -7   1   35.12    0.83
  -6  -7   1   35.24    0.90
  -6  -7   1   35.64    0.97
   6  -7  -1   35.41    0.92
  -6  -7   1   35.32    1.22
   6  -7  -1   34.90    1.04
   6  -7  -1   35.84    0.83
  -6  -7   1   35.27    0.94
  -6  -7   1   35.64    1.06
   6  -7  -1   35.82    0.82
   6   7   0   36.58    1.12
  -6   7   0   37.37    0.83
   6   7   0   36.58    0.89
  -6   7   0   36.22    0.97
   6   7   0   35.84    1.10
  -6   7   0   34.88    0.88
  -6   7   0   36.87    0.87
  -6  -7   0   36.27    0.87
   6  -7   0   35.54    0.85
  -6  -7   0   34.09    0.98
   6  -7   0   36.18    1.08
   6  -7   0   35.65    0.96
  -6  -7   0   37.14    1.01
  -6  -7   0   37.38    0.94
   6  -7   0   37.08    0.85
  -6  -7   0   38.43    1.32
   6   7   1   72.74    1.95
   6   7   1   72.06    1.56
  -6   7  -1   68.46    1.54
  -6   7  -1   69.88    1.70
  -6   7  -1   71.36    1.47
  -6   7  -1   70.88    1.53
   6   7   1   71.08    1.91
   6  -7   1   72.02    1.48
   6  -7   1   70.66    1.45
   6  -7   1   70.83    1.65
  -6  -7  -1   70.17    1.74
  -6  -7  -1   72.50    1.62
  -6  -7  -1   73.00    1.75
   6  -7   1   73.48    1.88
  -6  -7  -1   72.50    2.14
  -6  -7  -1   71.41    1.51
  -6   7  -2   16.20    0.58
  -6   7  -2   15.28    0.59
   6   7   2   15.84    0.61
  -6   7  -2   15.49    0.47
  -6   7  -2   15.38    0.49
   6  -7   2   15.49    0.53
   6  -7   2   14.81    0.52
  -6  -7  -2   16.40    0.62
   6  -7   2   15.90    0.61
   6  -7   2   16.18    0.64
  -6  -7  -2   16.05    0.67
  -6  -7  -2   15.46    0.55
  -6  -7  -2   15.90    0.82
  -6  -7  -2   15.21    0.66
  -6   7  -3   43.40    1.17
  -6   7  -3   44.30    1.17
  -6   7  -3   43.26    0.96
   6   7   3   42.85    1.10
  -6   7  -3   44.35    1.39
  -6  -7  -3   43.44    1.17
  -6  -7  -3   42.99    1.06
  -6  -7  -3   43.63    1.26
  -6  -7  -3   43.34    1.24
  -6   7  -4    1.42    0.36
  -6   7  -4    1.57    0.32
  -6   7  -4    1.50    0.49
   6   7   4    1.14    0.36
  -6  -7  -4    1.82    0.38
  -6  -7  -4    1.65    0.33
  -6  -7  -4    1.43    0.34
  -6  -7  -4    1.17    0.39
   6   8  -8    2.04    0.42
   6   8  -8    1.99    0.38
   6   8  -8    1.96    0.26
   6   8  -8    2.05    0.38
   6   8  -8    1.71    0.39
   6  -8  -8    2.33    0.37
   6  -8  -8    1.93    0.44
   6  -8  -8    1.77    0.30
   6  -8  -8    1.68    0.37
   6  -8  -8    1.66    0.35
   6   8  -7    0.36    0.29
   6   8  -7    0.55    0.31
   6   8  -7    0.42    0.31
   6   8  -7    0.73    0.22
   6   8  -7    0.63    0.32
   6  -8  -7    0.49    0.30
   6  -8  -7    0.41    0.28
   6  -8  -7    0.06    0.28
   6  -8  -7    0.55    0.25
   6  -8  -7    0.40    0.37
   6   8  -6   33.28    0.95
   6   8  -6   31.80    0.94
  -6   8   6   31.17    1.10
  -6   8   6   32.02    0.85
   6   8  -6   31.84    0.79
   6   8  -6   30.63    0.96
   6  -8  -6   30.83    0.78
   6  -8  -6   31.83    0.87
   6  -8  -6   32.31    0.92
   6  -8  -6   32.04    0.96
   6  -8  -6   31.66    0.87
   6   8  -5   10.60    0.50
   6   8  -5   10.46    0.57
   6   8  -5   11.13    0.51
   6   8  -5   11.59    0.44
  -6   8   5   10.63    0.59
  -6   8   5   12.21    0.46
  -6   8   5   11.06    0.51
  -6  -8   5   12.31    0.69
   6  -8  -5   13.03    0.55
   6  -8  -5   11.02    0.44
   6  -8  -5   10.85    0.43
   6  -8  -5   10.00    0.49
   6  -8  -5   11.51    0.51
   6  -8  -5   11.06    0.43
   6  -8  -5   11.51    0.61
   6  -8  -5   11.91    0.47
   6   8  -4  102.94    2.32
  -6   8   4   93.81    2.70
  -6   8   4  102.43    2.17
  -6   8   4  101.45    2.04
  -6   8   4  102.15    2.10
   6   8  -4  101.41    2.26
   6   8  -4   98.51    2.03
   6  -8  -4   98.13    1.98
   6  -8  -4  100.84    1.96
   6  -8  -4  101.26    2.23
  -6  -8   4  104.01    2.79
   6  -8  -4  101.12    2.62
   6  -8  -4  103.75    2.34
   6  -8  -4  100.33    1.94
   6  -8  -4  100.91    2.06
  -6   8   3   13.05    0.46
  -6   8   3   12.65    0.52
   6   8  -3   13.26    0.51
   6   8  -3   14.17    0.49
  -6   8   3   13.51    0.50
   6  -8  -3   12.72    0.45
  -6  -8   3   13.54    0.70
   6  -8  -3   14.76    0.63
   6  -8  -3   14.26    0.53
   6  -8  -3   13.56    0.47
   6  -8  -3   14.71    0.47
   6  -8  -3   12.83    0.60
  -6   8   2   87.09    1.90
   6   8  -2   84.33    1.96
  -6   8   2   87.69    1.79
  -6   8   2   87.06    1.84
   6   8  -2   89.46    2.28
   6   8  -2   86.73    1.81
   6   8  -2   88.55    2.31
   6  -8  -2   85.81    2.29
   6  -8  -2   88.28    1.98
  -6  -8   2   88.17    2.07
  -6  -8   2   90.20    1.92
   6  -8  -2   86.07    1.76
  -6  -8   2   86.79    2.26
   6  -8  -2   87.89    1.74
  -6  -8   2   90.74    2.51
   6  -8  -2   87.80    1.70
  -6   8   1   10.15    0.43
   6   8  -1    8.80    0.57
  -6   8   1    9.58    0.42
   6   8  -1    9.14    0.54
  -6   8   1    9.24    0.38
   6   8  -1   10.40    0.46
  -6  -8   1   10.07    0.46
  -6  -8   1   10.59    0.68
  -6  -8   1   10.29    0.51
   6  -8  -1    8.80    0.40
  -6  -8   1    9.62    0.42
   6  -8  -1    9.64    0.54
  -6  -8   1    9.62    0.47
   6  -8  -1    9.59    0.42
   6  -8  -1   10.37    0.47
   6   8   0    9.03    0.58
  -6   8   0    9.01    0.41
   6   8   0    9.18    0.44
   6   8   0    8.69    0.58
  -6   8   0    9.95    0.39
  -6   8   0    9.30    0.41
  -6   8   0    9.49    0.47
  -6  -8   0    9.19    0.47
   6  -8   0    9.90    0.44
  -6  -8   0   10.00    0.71
  -6  -8   0    9.77    0.48
  -6  -8   0    9.92    0.44
  -6  -8   0   10.23    0.53
   6  -8   0    9.56    0.44
   6  -8   0    9.67    0.53
   6  -8   0    9.77    0.45
  -6   8  -1    4.17    0.30
   6   8   1    3.26    0.39
  -6   8  -1    3.33    0.25
   6   8   1    3.67    0.33
  -6   8  -1    3.10    0.29
  -6   8  -1    3.00    0.31
   6   8   1    3.41    0.39
  -6  -8  -1    3.46    0.33
   6  -8   1    3.65    0.30
  -6  -8  -1    3.34    0.36
   6  -8   1    2.97    0.34
  -6  -8  -1    3.42    0.47
   6  -8   1    3.68    0.31
   6  -8   1    3.35    0.34
  -6  -8  -1    2.93    0.34
  -6  -8  -1    3.62    0.31
  -6   8  -2    5.57    0.41
  -6   8  -2    5.67    0.34
  -6   8  -2    5.61    0.34
  -6   8  -2    6.06    0.41
   6   8   2    6.02    0.45
  -6  -8  -2    7.17    0.44
   6  -8   2    5.59    0.36
   6  -8   2    5.90    0.43
  -6  -8  -2    5.78    0.44
   6  -8   2    6.21    0.43
  -6  -8  -2    5.32    0.46
  -6  -8  -2    5.46    0.54
  -6  -8  -2    5.54    0.40
  -6   8  -3    0.82    0.41
  -6   8  -3    1.07    0.29
  -6   8  -3    0.25    0.30
  -6   8  -3    1.14    0.21
   6   8   3    0.83    0.34
  -6  -8  -3    1.15    0.35
  -6  -8  -3    1.00    0.38
  -6  -8  -3    1.15    0.33
  -6  -8  -3    1.14    0.30
   6   9  -7    3.59    0.31
   6   9  -7    3.36    0.40
   6   9  -7    4.01    0.42
   6   9  -7    3.77    0.41
   6   9  -7    3.15    0.45
   6  -9  -7    4.01    0.33
   6  -9  -7    3.95    0.38
   6  -9  -7    3.75    0.39
   6  -9  -7    4.54    0.50
   6  -9  -7    3.87    0.43
   6   9  -6   24.49    0.84
   6   9  -6   24.78    0.71
   6   9  -6   27.55    0.91
  -6   9   6   26.10    0.77
   6   9  -6   24.79    0.86
   6  -9  -6   24.56    0.84
   6  -9  -6   24.60    0.83
   6  -9  -6   26.93    0.81
   6  -9  -6   25.04    0.72
   6  -9  -6   26.18    0.78
   6   9  -5    1.47    0.30
   6   9  -5    1.53    0.29
  -6   9   5    1.99    0.29
   6   9  -5    1.64    0.25
  -6   9   5    1.60    0.33
  -6   9   5    2.00    0.30
   6  -9  -5    1.55    0.29
   6  -9  -5    1.36    0.24
   6  -9  -5    1.80    0.30
   6  -9  -5    1.95    0.34
   6  -9  -5    1.31    0.23
   6  -9  -5    1.42    0.26
   6   9  -4    5.06    0.36
   6   9  -4    5.32    0.41
   6   9  -4    5.17    0.39
  -6   9   4    4.72    0.36
  -6   9   4    5.13    0.37
  -6   9   4    5.53    0.36
   6  -9  -4    5.37    0.37
  -6  -9   4    5.10    0.48
   6  -9  -4    5.01    0.34
   6  -9  -4    4.40    0.36
   6  -9  -4    5.32    0.44
   6  -9  -4    5.45    0.37
   6  -9  -4    4.66    0.32
  -6   9   3    0.72    0.25
   6   9  -3    0.75    0.23
   6   9  -3    1.03    0.28
  -6   9   3    0.86    0.23
  -6   9   3    0.68    0.23
   6   9  -3    0.91    0.25
  -6  -9   3    0.85    0.35
   6  -9  -3    0.77    0.23
   6  -9  -3    0.46    0.21
   6  -9  -3    0.72    0.29
   6  -9  -3    1.12    0.23
   6  -9  -3    0.90    0.27
   6   9  -2   16.09    0.55
  -6   9   2   16.44    0.57
   6   9  -2   16.27    0.71
   6   9  -2   15.61    0.58
  -6   9   2   16.42    0.54
  -6   9   2   16.73    0.59
   6   9  -2   15.81    0.72
  -6  -9   2   15.31    0.63
   6  -9  -2   17.03    0.54
   6  -9  -2   15.81    0.55
  -6  -9   2   16.24    0.59
  -6  -9   2   16.89    0.82
   6  -9  -2   15.93    0.60
   6  -9  -2   17.37    0.70
   6  -9  -2   16.37    0.55
   6   9  -1   11.32    0.51
  -6   9   1   10.90    0.45
   6   9  -1   11.06    0.48
   6   9  -1   11.79    0.49
   6   9  -1   11.76    0.65
   6   9  -1   11.89    0.65
  -6   9   1   10.93    0.47
  -6   9   1   10.77    0.49
  -6  -9   1   11.58    0.53
  -6  -9   1   12.04    0.75
   6  -9  -1   11.98    0.47
   6  -9  -1   12.14    0.52
   6  -9  -1   11.32    0.60
  -6  -9   1   12.16    0.48
   6  -9  -1   12.61    0.50
  -6  -9   1   11.38    0.58
  -6  -9   1   11.93    0.53
   6  -9  -1   11.53    0.46
   6   9   0   57.47    1.64
  -6   9   0   55.53    1.30
  -6   9   0   56.63    1.24
  -6   9   0   54.17    1.31
   6   9   0   55.80    1.31
   6   9   0   58.13    1.67
  -6  -9   0   57.85    1.50
  -6  -9   0   56.07    1.28
  -6  -9   0   57.83    1.84
   6  -9   0   56.44    1.25
  -6  -9   0   58.18    1.46
  -6  -9   0   56.66    1.38
   6  -9   0   54.54    1.60
   6  -9   0   58.72    1.41
   6  -9   0   56.12    1.26
  -6   9  -1    4.58    0.37
  -6   9  -1    5.28    0.34
  -6   9  -1    4.82    0.35
  -6   9  -1    4.38    0.30
   6   9   1    5.31    0.39
  -6  -9  -1    5.20    0.43
  -6  -9  -1    4.30    0.37
  -6  -9  -1    4.64    0.43
   6  -9   1    4.54    0.36
   6  -9   1    4.86    0.37
  -6  -9  -1    4.65    0.35
   6  -9   1    5.36    0.41
  -6   9  -2   34.91    0.90
  -6   9  -2   36.59    1.02
  -6   9  -2   35.85    1.04
   6   9   2   35.01    1.01
  -6   9  -2   35.18    0.87
  -6   9  -2   36.25    1.20
  -6  -9  -2   37.00    0.97
   6  -9   2   36.11    0.94
  -6  -9  -2   39.27    1.07
   6  -9   2   35.01    1.03
  -6  -9  -2   36.12    1.13
  -6  -9  -2   38.42    1.15
   6  -9   2   35.40    0.94
   6   9   3    0.11    0.36
  -6   9  -3    0.13    0.21
  -6   9  -3    0.08    0.31
  -6   9  -3   -0.06    0.38
  -6  -9  -3   -0.11    0.32
  -6  -9  -3    0.23    0.38
  -6  -9  -3   -0.22    0.34
  -6  -9  -3    0.07    0.30
   6  10  -7    7.70    0.48
   6  10  -7    7.90    0.65
   6  10  -7    8.20    0.60
   6  10  -7    8.40    0.57
  -6  10   7    8.06    0.59
   6 -10  -7    8.94    0.53
   6 -10  -7    8.89    0.60
   6 -10  -7    9.07    0.63
   6 -10  -7    9.04    0.70
  -6  10   6    1.36    0.33
   6  10  -6    0.63    0.33
   6  10  -6    0.69    0.34
   6  10  -6    0.70    0.26
   6  10  -6    0.99    0.33
   6 -10  -6    1.39    0.33
   6 -10  -6    0.07    0.32
   6 -10  -6    0.78    0.40
   6 -10  -6    0.78    0.34
   6 -10  -6    0.57    0.27
  -6  10   5   46.02    1.15
  -6  10   5   44.48    1.17
  -6  10   5   42.24    1.43
   6  10  -5   43.71    1.07
   6  10  -5   43.26    1.24
   6  10  -5   45.26    1.22
   6 -10  -5   45.48    1.18
   6 -10  -5   44.98    1.04
   6 -10  -5   43.79    1.02
   6 -10  -5   44.14    1.03
   6 -10  -5   45.79    1.15
   6  10  -4   10.46    0.56
   6  10  -4   11.09    0.50
  -6  10   4   11.10    0.51
   6  10  -4   10.58    0.56
  -6  10   4   11.26    0.57
  -6  10   4   10.01    0.50
   6 -10  -4   10.35    0.48
   6 -10  -4   10.50    0.49
   6 -10  -4   10.02    0.55
   6 -10  -4   10.24    0.50
   6 -10  -4   11.62    0.55
   6 -10  -4   11.34    0.69
   6  10  -3   67.98    1.50
  -6  10   3   67.78    1.49
   6  10  -3   70.80    1.71
  -6  10   3   69.93    1.55
   6  10  -3   65.44    1.64
  -6  10   3   66.98    1.59
   6 -10  -3   68.03    1.42
   6 -10  -3   67.60    1.43
   6 -10  -3   66.56    1.46
   6 -10  -3   66.64    1.64
   6 -10  -3   68.44    1.92
   6  10  -2   16.58    0.60
  -6  10   2   15.55    0.55
   6  10  -2   14.36    0.60
  -6  10   2   16.55    0.59
  -6  10   2   16.19    0.62
   6  10  -2   18.53    0.68
   6 -10  -2   15.68    0.65
   6 -10  -2   15.72    0.59
  -6 -10   2   14.94    0.66
   6 -10  -2   15.73    0.55
   6 -10  -2   15.44    0.58
  -6 -10   2   15.86    0.62
  -6  10   1   14.52    0.57
  -6  10   1   14.52    0.58
   6  10  -1   12.91    0.56
   6  10  -1   14.77    0.59
   6  10  -1   14.24    0.74
   6  10  -1   15.00    0.78
   6  10  -1   14.83    0.57
  -6  10   1   14.28    0.53
   6 -10  -1   13.66    0.62
   6 -10  -1   14.52    0.58
   6 -10  -1   14.61    0.54
  -6 -10   1   14.36    0.67
   6 -10  -1   15.07    0.59
  -6 -10   1   12.57    0.55
  -6 -10   1   13.29    0.61
   6  10   0    2.92    0.34
  -6  10   0    2.75    0.30
  -6  10   0    2.58    0.28
  -6  10   0    2.70    0.29
  -6 -10   0    2.88    0.38
  -6 -10   0    2.76    0.31
   6 -10   0    3.31    0.40
  -6 -10   0    2.29    0.32
   6 -10   0    3.27    0.31
   6 -10   0    2.24    0.32
   6 -10   0    2.42    0.33
  -6 -10   0    3.11    0.37
  -6  10  -1    2.93    0.33
  -6  10  -1    3.34    0.29
  -6  10  -1    3.16    0.31
  -6  10  -1    2.98    0.43
   6  10   1    3.90    0.39
   6 -10   1    3.24    0.36
  -6 -10  -1    3.06    0.40
  -6 -10  -1    3.31    0.37
  -6 -10  -1    3.06    0.42
  -6 -10  -1    3.63    0.35
   6 -10   1    3.01    0.36
   6 -10   1    4.44    0.44
  -6  10  -2   -0.15    0.26
   6  10   2    0.37    0.34
  -6  10  -2   -0.13    0.36
  -6  10  -2    0.38    0.32
  -6  10  -2   -0.03    0.23
  -6  10  -2    0.01    0.21
   6 -10   2    0.01    0.32
  -6 -10  -2    0.35    0.31
  -6 -10  -2    0.37    0.35
  -6 -10  -2    0.23    0.32
   6 -10   2    0.30    0.35
   6 -10   2   -0.35    0.31
  -6 -10  -2    0.10    0.38
  -6  11   6    0.33    0.31
   6  11  -6    0.22    0.37
   6  11  -6    0.12    0.36
   6  11  -6    0.62    0.38
   6  11  -6    0.06    0.28
   6 -11  -6   -0.24    0.41
   6 -11  -6    0.28    0.36
   6 -11  -6    0.31    0.30
   6  11  -5    6.75    0.52
   6  11  -5    5.25    0.47
  -6  11   5    5.96    0.45
   6  11  -5    5.71    0.40
  -6  11   5    6.29    0.45
   6 -11  -5    4.98    0.41
   6 -11  -5    6.60    0.41
   6 -11  -5    5.99    0.39
   6 -11  -5    6.44    0.48
   6 -11  -5    6.36    0.46
   6  11  -4    0.91    0.28
   6  11  -4    0.65    0.35
  -6  11   4    1.24    0.31
   6  11  -4    0.95    0.33
  -6  11   4    0.74    0.31
  -6  11   4    0.72    0.30
   6 -11  -4    0.97    0.29
   6 -11  -4    0.88    0.31
   6 -11  -4    1.01    0.28
   6 -11  -4    1.06    0.30
  -6  11   3   11.66    0.56
   6  11  -3   11.56    0.56
  -6  11   3   11.45    0.61
   6  11  -3   12.63    0.62
   6  11  -3   12.05    0.56
  -6  11   3   11.37    0.53
   6 -11  -3   12.03    0.59
   6 -11  -3   11.10    0.52
   6 -11  -3   12.34    0.53
   6 -11  -3   12.11    0.55
   6  11  -2    1.12    0.32
   6  11  -2    1.69    0.37
  -6  11   2    1.59    0.31
  -6  11   2    1.61    0.30
   6  11  -2    1.21    0.29
  -6  11   2    1.55    0.31
   6 -11  -2    1.12    0.30
  -6 -11   2    1.97    0.29
   6 -11  -2    2.02    0.32
   6 -11  -2    1.21    0.32
   6 -11  -2    1.47    0.35
  -6  11   1   59.95    1.40
  -6  11   1   60.85    1.44
   6  11  -1   59.95    1.52
   6  11  -1   61.20    1.42
   6  11  -1   61.53    1.45
  -6  11   1   62.15    1.48
   6 -11  -1   61.82    1.34
  -6 -11   1   62.67    1.52
  -6 -11   1   60.72    1.41
   6 -11  -1   61.09    1.40
  -6 -11   1   61.69    1.64
   6 -11  -1   63.14    1.40
   6 -11  -1   62.10    1.57
   6  11   0    4.49    0.41
  -6  11   0    3.87    0.34
  -6  11   0    4.67    0.45
  -6  11   0    4.86    0.37
  -6  11   0    3.95    0.37
   6 -11   0    3.34    0.39
  -6 -11   0    4.09    0.44
   6 -11   0    4.19    0.41
   6 -11   0    5.03    0.48
  -6 -11   0    4.45    0.45
   6 -11   0    4.27    0.37
  -6 -11   0    4.42    0.41
  -6 -11   0    4.37    0.38
  -6  11  -1   43.40    1.07
  -6  11  -1   41.53    1.09
  -6  11  -1   43.66    1.34
  -6  11  -1   42.08    1.11
   6  11   1   41.63    1.15
  -6 -11  -1   44.53    1.33
   6 -11   1   45.27    1.15
  -6 -11  -1   43.12    1.23
  -6 -11  -1   43.14    1.13
   6 -11   1   43.76    1.13
   6 -11   1   42.10    1.25
  -6 -11  -1   44.60    1.33
   6  12  -5   15.35    0.64
   6  12  -5   15.03    0.77
  -6  12   5   14.34    0.69
   6 -12  -5   15.54    0.62
   6 -12  -5   15.13    0.68
   6 -12  -5   14.38    0.72
   6 -12  -5   14.59    0.64
   6 -12  -5   15.11    0.65
   6  12  -4   19.16    0.72
  -6  12   4   22.23    0.81
  -6  12   4   18.46    0.78
  -6  12   4   19.67    0.70
   6  12  -4   20.54    0.86
   6  12  -4   19.40    0.78
   6 -12  -4   19.43    0.71
   6 -12  -4   19.44    0.69
   6 -12  -4   20.24    0.71
   6 -12  -4   18.77    0.79
  -6  12   3   20.92    0.82
   6  12  -3   21.79    0.77
   6  12  -3   22.97    0.87
  -6  12   3   21.58    0.77
  -6  12   3   22.69    0.84
   6 -12  -3   22.38    0.83
  -6 -12   3   22.47    0.73
   6 -12  -3   23.13    0.76
   6 -12  -3   22.80    0.76
   6 -12  -3   21.57    0.73
   6  12  -2   20.66    0.84
  -6  12   2   19.62    0.74
  -6  12   2   20.32    0.74
  -6  12   2   20.43    0.77
   6  12  -2   20.05    0.75
   6 -12  -2   20.33    0.83
  -6 -12   2   20.64    0.68
   6 -12  -2   20.36    0.75
   6 -12  -2   20.53    0.73
   6 -12  -2   19.28    0.74
  -6  12   1    3.87    0.38
  -6  12   1    3.68    0.40
   6  12  -1    4.67    0.41
  -6  12   1    4.14    0.40
   6  12  -1    3.66    0.39
   6 -12  -1    4.02    0.42
   6 -12  -1    3.94    0.39
   6 -12  -1    3.93    0.49
  -6 -12   1    3.66    0.45
  -6 -12   1    3.88    0.43
   6 -12  -1    4.18    0.43
   6  12   0    6.42    0.47
  -6  12   0    7.02    0.52
  -6  12   0    7.03    0.48
  -6  12   0    7.50    0.52
  -6 -12   0    6.68    0.54
   6 -12   0    5.88    0.48
   6 -12   0    7.33    0.46
  -6 -12   0    7.30    0.62
   6 -12   0    6.98    0.56
  -6 -12   0    6.10    0.45
  -6 -12   0    6.82    0.51
   6 -12   0    6.57    0.49
  -6  13   3    0.49    0.34
  -6  13   3    0.33    0.35
  -6  13   3   -0.22    0.36
   6  13  -3   -0.09    0.32
   6  13  -3   -0.19    0.35
   6 -13  -3    0.36    0.35
   6 -13  -3    0.18    0.41
  -6 -13   3    0.13    0.30
   6 -13  -3    0.31    0.35
   6 -13  -3    0.05    0.34
  -6  13   2    2.74    0.39
  -6  13   2    2.59    0.39
  -6  13   2    2.18    0.38
   6  13  -2    3.03    0.48
   6  13  -2    2.59    0.39
  -6 -13   2    2.61    0.35
   6 -13  -2    2.75    0.41
   6 -13  -2    2.17    0.39
   6 -13  -2    1.95    0.40
   6 -13  -2    2.76    0.49
   6 -13  -1    1.70    0.41
   6 -13  -1    1.11    0.40
   7   0  -9    0.12    0.30
   7   0  -9   -0.06    0.22
   7   0  -9    0.18    0.29
   7   0  -9    0.10    0.28
   7   0  -9    0.29    0.23
   7   0  -8   82.77    1.67
   7   0  -8   85.03    2.00
   7   0  -8   86.71    2.06
   7   0  -8   82.66    2.01
   7   0  -8   85.24    1.91
   7   0  -8   85.30    1.74
   7   0  -7    0.63    0.23
  -7   0   7    0.14    0.29
   7   0  -7   -0.07    0.18
   7   0  -7    0.39    0.20
   7   0  -7   -0.08    0.21
   7   0  -7    0.16    0.22
   7   0  -7   -0.05    0.21
   7   0  -6   31.15    0.81
  -7   0   6   31.91    1.01
   7   0  -6   29.23    0.69
   7   0  -6   29.60    0.83
   7   0  -6   29.06    0.72
   7   0  -6   29.70    0.69
  -7   0   5    0.00    0.23
   7   0  -5   -0.11    0.16
   7   0  -5    0.83    0.19
   7   0  -5    0.17    0.16
  -7   0   4    6.04    0.32
   7   0  -4    6.38    0.38
   7   0  -4    5.60    0.32
   7   0  -4    5.82    0.28
  -7   0   4    6.34    0.42
  -7   0   4    6.37    0.35
   7   0  -4    5.39    0.36
  -7   0   4    5.58    0.37
   7   0  -3   -0.20    0.18
   7   0  -3   -0.09    0.13
  -7   0   3   -0.02    0.17
   7   0  -3   -0.17    0.15
  -7   0   3   -0.04    0.18
  -7   0   3   -0.18    0.16
  -7   0   3   -0.25    0.15
  -7   0   3    0.05    0.18
   7   0  -3   -0.10    0.18
   7   0  -2   10.28    0.46
  -7   0   2   10.30    0.48
  -7   0   2   10.81    0.41
   7   0  -2   10.96    0.36
   7   0  -2    9.86    0.47
  -7   0   2   10.34    0.45
  -7   0   2   10.75    0.39
  -7   0   2   10.58    0.42
  -7   0   1    0.04    0.19
  -7   0   1   -0.38    0.16
  -7   0   1    0.12    0.16
   7   0  -1    0.04    0.15
   7   0  -1    0.00    0.19
  -7   0   1   -0.18    0.16
   7   0   0   16.80    0.45
  -7   0   0   15.02    0.52
  -7   0   0   16.89    0.46
  -7   0   0   15.57    0.49
  -7   0   0   15.13    0.53
   7   0   0   16.56    0.59
   7   0   1    0.11    0.21
  -7   0  -1    0.21    0.17
  -7   0  -1   -0.10    0.20
  -7   0  -1    0.14    0.15
  -7   0  -1    0.06    0.18
   7   0   2   55.44    1.51
  -7   0  -2   56.40    1.19
  -7   0  -2   56.52    1.43
  -7   0  -2   56.62    1.28
  -7   0  -2   55.99    1.37
  -7   0  -2   58.37    1.36
  -7   0  -3   -0.04    0.27
  -7   0  -3    0.06    0.25
  -7   0  -3   -0.13    0.18
  -7   0  -3    0.03    0.21
  -7   0  -3    0.41    0.40
  -7   0  -3    0.11    0.20
  -7   0  -4   33.24    0.98
  -7   0  -4   34.02    1.15
  -7   0  -4   33.34    0.82
  -7   0  -4   32.60    1.02
   7   1  -9    4.02    0.42
   7   1  -9    3.66    0.39
   7   1  -9    3.95    0.43
   7   1  -9    3.93    0.29
   7   1  -9    4.09    0.33
   7  -1  -9    3.99    0.30
   7  -1  -9    3.67    0.39
   7  -1  -9    4.35    0.42
   7  -1  -9    3.81    0.32
   7  -1  -9    3.71    0.38
   7   1  -8    1.99    0.28
   7   1  -8    2.01    0.23
   7   1  -8    1.86    0.31
   7   1  -8    1.70    0.26
   7   1  -8    1.92    0.31
   7   1  -8    2.02    0.31
   7  -1  -8    1.71    0.31
   7  -1  -8    1.60    0.29
   7  -1  -8    1.77    0.28
   7  -1  -8    1.95    0.24
   7  -1  -8    2.21    0.25
   7  -1  -8    1.86    0.30
   7   1  -7    0.09    0.19
  -7   1   7    0.52    0.30
   7   1  -7    0.41    0.23
   7   1  -7    0.51    0.25
   7   1  -7    0.33    0.18
   7   1  -7    0.31    0.22
   7   1  -7    0.32    0.23
   7  -1  -7    0.41    0.19
   7  -1  -7    0.22    0.19
   7  -1  -7    0.48    0.20
   7  -1  -7    0.67    0.23
   7  -1  -7    0.17    0.22
   7  -1  -7    0.28    0.22
   7  -1  -7    0.30    0.23
  -7  -1   7    0.47    0.30
   7   1  -6   53.81    1.28
   7   1  -6   54.54    1.10
   7   1  -6   53.95    1.12
  -7   1   6   55.38    1.58
   7   1  -6   53.39    1.15
   7   1  -6   54.76    1.32
   7   1  -6   53.00    1.31
   7  -1  -6   55.80    1.11
   7  -1  -6   55.29    1.28
  -7  -1   6   52.83    1.59
   7  -1  -6   53.57    1.31
   7  -1  -6   53.93    1.11
   7  -1  -6   52.90    1.31
   7  -1  -6   53.68    1.16
  -7   1   5   32.87    1.06
   7   1  -5   34.32    0.76
   7   1  -5   34.98    0.89
   7   1  -5   35.22    0.79
  -7   1   5   34.34    0.84
   7  -1  -5   34.91    1.05
   7  -1  -5   33.27    0.76
  -7  -1   5   34.27    1.09
   7  -1  -5   34.82    0.89
   7  -1  -5   34.51    0.79
   7   1  -4   41.77    1.00
  -7   1   4   40.12    1.03
  -7   1   4   43.63    1.13
  -7   1   4   41.12    0.95
   7   1  -4   41.21    1.13
   7   1  -4   39.56    0.86
  -7   1   4   39.48    1.21
   7   1  -4   40.86    1.15
  -7  -1   4   42.45    0.96
   7  -1  -4   40.72    1.12
  -7  -1   4   41.35    1.03
   7  -1  -4   39.24    1.14
  -7  -1   4   41.31    1.23
  -7  -1   4   39.99    1.12
   7  -1  -4   40.01    0.86
   7  -1  -4   41.27    0.99
  -7   1   3  123.32    2.50
   7   1  -3  117.82    3.01
  -7   1   3  121.58    2.70
  -7   1   3  121.00    3.17
  -7   1   3  123.47    2.96
   7   1  -3  121.83    2.28
   7   1  -3  123.15    2.64
   7   1  -3  119.97    2.96
   7  -1  -3  122.07    2.28
  -7  -1   3  120.73    3.19
   7  -1  -3  118.18    2.64
  -7  -1   3  125.32    2.96
   7  -1  -3  117.86    3.02
  -7  -1   3  123.64    2.50
   7  -1  -3  123.29    2.97
  -7  -1   3  119.73    2.69
  -7  -1   3  123.26    2.69
   7   1  -2   12.05    0.49
  -7   1   2   12.86    0.45
   7   1  -2   11.19    0.50
   7   1  -2   11.77    0.38
  -7   1   2   11.72    0.41
  -7   1   2   11.90    0.49
  -7   1   2   11.72    0.45
  -7   1   2   11.98    0.48
  -7  -1   2   12.11    0.42
  -7  -1   2   11.73    0.53
  -7  -1   2   11.72    0.43
   7  -1  -2   10.93    0.36
   7  -1  -2   11.41    0.49
   7  -1  -2   11.47    0.49
  -7  -1   2   12.47    0.49
  -7  -1   2   12.08    0.45
  -7   1   1  110.53    2.66
  -7   1   1  111.53    2.44
  -7   1   1  107.53    2.24
   7   1  -1  107.57    2.03
   7   1  -1  106.77    2.70
  -7   1   1  106.70    2.41
  -7  -1   1  107.28    2.24
   7  -1  -1  108.05    2.70
  -7  -1   1  105.31    2.41
  -7  -1   1  109.23    2.66
  -7  -1   1  108.31    2.42
   7  -1  -1  107.07    2.06
   7  -1  -1  108.02    2.04
   7   1   0   21.13    0.53
  -7   1   0   21.24    0.58
   7   1   0   20.59    0.69
  -7   1   0   20.50    0.65
  -7   1   0   20.59    0.62
  -7   1   0   21.07    0.53
  -7  -1   0   20.74    0.54
   7  -1   0   20.79    0.53
  -7  -1   0   21.04    0.58
   7  -1   0   21.28    0.54
   7  -1   0   20.86    0.70
  -7  -1   0   21.12    0.66
  -7  -1   0   20.61    0.63
  -7   1  -1   16.78    0.57
  -7   1  -1   16.37    0.51
   7   1   1   16.16    0.61
  -7   1  -1   16.66    0.47
  -7   1  -1   17.13    0.55
  -7  -1  -1   16.16    0.47
  -7  -1  -1   16.32    0.52
  -7  -1  -1   15.66    0.57
   7  -1   1   16.30    0.60
  -7  -1  -1   15.96    0.56
  -7   1  -2    5.83    0.39
  -7   1  -2    5.93    0.36
  -7   1  -2    4.99    0.36
  -7   1  -2    5.75    0.38
  -7   1  -2    5.95    0.30
   7   1   2    6.08    0.44
  -7  -1  -2    5.49    0.40
  -7  -1  -2    5.69    0.39
  -7  -1  -2    5.58    0.38
   7  -1   2    5.73    0.42
  -7  -1  -2    5.35    0.36
  -7  -1  -2    5.78    0.33
  -7   1  -3    1.12    0.28
  -7   1  -3    1.37    0.21
  -7   1  -3    1.25    0.22
  -7   1  -3    1.37    0.30
  -7   1  -3    0.95    0.23
  -7  -1  -3    1.37    0.43
  -7  -1  -3    1.14    0.24
  -7  -1  -3    1.54    0.23
  -7  -1  -3    0.98    0.26
  -7  -1  -3    1.18    0.31
  -7  -1  -3    1.67    0.30
  -7   1  -4    4.32    0.29
  -7   1  -4    4.20    0.40
  -7   1  -4    4.97    0.57
  -7   1  -4    3.34    0.38
  -7  -1  -4    4.38    0.43
  -7  -1  -4    4.04    0.30
  -7  -1  -4    3.76    0.38
  -7  -1  -4    4.40    0.57
   7   2  -9   27.42    0.75
   7   2  -9   27.93    0.91
   7   2  -9   26.35    0.71
   7   2  -9   28.52    0.93
   7   2  -9   26.13    0.95
   7  -2  -9   28.23    0.74
   7  -2  -9   27.82    0.90
   7  -2  -9   27.06    0.89
   7  -2  -9   28.46    0.92
   7  -2  -9   27.92    0.74
   7   2  -8    3.48    0.33
   7   2  -8    3.42    0.36
   7   2  -8    4.09    0.37
   7   2  -8    3.56    0.29
   7   2  -8    3.74    0.27
   7   2  -8    3.28    0.37
   7  -2  -8    3.56    0.37
   7  -2  -8    3.96    0.29
   7  -2  -8    3.70    0.34
   7  -2  -8    4.08    0.30
  -7   2   7   80.18    2.32
   7   2  -7   85.67    1.95
   7   2  -7   84.60    2.03
   7   2  -7   82.05    1.69
   7   2  -7   83.78    1.63
   7   2  -7   82.38    1.88
   7   2  -7   82.96    1.96
   7  -2  -7   82.07    1.70
   7  -2  -7   85.50    1.87
   7  -2  -7   82.19    1.94
   7  -2  -7   83.33    1.63
   7  -2  -7   83.80    1.95
  -7  -2   7   84.17    2.33
   7  -2  -7   82.54    1.63
   7   2  -6    0.28    0.17
  -7   2   6    0.23    0.24
   7   2  -6    0.13    0.20
   7   2  -6    0.01    0.19
   7   2  -6    0.14    0.24
   7   2  -6    0.11    0.20
   7   2  -6    0.20    0.17
   7  -2  -6    0.10    0.17
   7  -2  -6    0.09    0.16
   7  -2  -6    0.18    0.19
   7  -2  -6   -0.18    0.20
   7  -2  -6    0.04    0.18
   7  -2  -6    0.08    0.20
  -7  -2   6    0.21    0.25
   7   2  -5   94.53    2.15
  -7   2   5   95.98    2.01
   7   2  -5   94.21    1.90
   7   2  -5   98.02    2.09
  -7   2   5   93.84    2.57
  -7  -2   5   97.70    2.59
   7  -2  -5   93.21    2.43
   7  -2  -5   94.83    1.80
   7  -2  -5   95.77    2.14
   7  -2  -5   99.89    2.09
   7  -2  -5   94.97    1.91
   7  -2  -5   94.51    1.83
  -7   2   4    1.69    0.20
   7   2  -4    2.19    0.25
   7   2  -4    2.61    0.23
  -7   2   4    2.42    0.26
   7   2  -4    2.31    0.26
   7   2  -4    2.37    0.20
  -7   2   4    2.35    0.25
  -7   2   4    2.41    0.26
   7  -2  -4    2.32    0.26
  -7  -2   4    1.88    0.27
  -7  -2   4    2.01    0.24
   7  -2  -4    2.45    0.20
   7  -2  -4    2.44    0.21
  -7  -2   4    2.29    0.23
   7  -2  -4    1.95    0.24
  -7  -2   4    1.87    0.21
   7   2  -3   15.26    0.58
  -7   2   3   16.08    0.57
  -7   2   3   14.92    0.58
  -7   2   3   16.22    0.53
   7   2  -3   15.78    0.49
   7   2  -3   15.49    0.43
   7   2  -3   15.97    0.57
  -7   2   3   16.22    0.49
   7  -2  -3   14.74    0.43
   7  -2  -3   15.57    0.58
  -7  -2   3   15.66    0.52
  -7  -2   3   15.55    0.49
  -7  -2   3   15.20    0.63
  -7  -2   3   16.50    0.58
  -7  -2   3   14.45    0.49
   7  -2  -3   15.73    0.57
   7  -2  -3   14.68    0.43
  -7   2   2    1.36    0.21
  -7   2   2    1.36    0.22
   7   2  -2    1.56    0.23
   7   2  -2    1.58    0.23
   7   2  -2    1.27    0.18
  -7   2   2    1.43    0.18
   7   2  -2    1.51    0.18
  -7  -2   2    1.16    0.19
   7  -2  -2    1.16    0.18
  -7  -2   2    2.00    0.27
   7  -2  -2    1.52    0.22
  -7  -2   2    1.32    0.22
  -7  -2   2    1.30    0.20
   7  -2  -2    1.31    0.19
  -7  -2   2    1.48    0.19
   7  -2  -2    1.43    0.22
   7   2  -1   37.91    1.08
  -7   2   1   37.48    1.06
  -7   2   1   37.21    0.82
  -7   2   1   36.88    0.95
  -7   2   1   36.77    0.88
   7   2  -1   38.58    0.81
  -7   2   1   38.19    0.98
  -7  -2   1   36.40    0.84
  -7  -2   1   36.35    1.15
  -7  -2   1   36.77    0.96
  -7  -2   1   36.90    0.89
  -7  -2   1   37.68    0.97
   7  -2  -1   38.27    0.81
   7  -2  -1   38.04    1.07
   7  -2  -1   36.96    0.81
  -7  -2   1   37.31    1.05
   7   2   0    2.19    0.20
  -7   2   0    2.73    0.21
  -7   2   0    2.47    0.23
   7   2   0    2.68    0.28
  -7   2   0    2.59    0.27
  -7   2   0    2.76    0.22
  -7  -2   0    2.16    0.26
   7  -2   0    2.43    0.26
  -7  -2   0    2.59    0.25
   7  -2   0    2.63    0.22
  -7  -2   0    2.41    0.22
   7  -2   0    2.34    0.21
  -7  -2   0    2.61    0.21
  -7   2  -1  118.83    2.65
  -7   2  -1  122.01    2.70
   7   2   1  116.24    2.98
  -7   2  -1  116.43    2.46
  -7   2  -1  120.17    2.33
  -7  -2  -1  117.35    2.68
  -7  -2  -1  120.27    2.71
  -7  -2  -1  117.87    2.48
   7  -2   1  119.82    2.24
   7  -2   1  120.56    2.27
  -7  -2  -1  119.94    2.34
   7  -2   1  120.73    2.96
  -7   2  -2    1.19    0.27
  -7   2  -2    1.43    0.20
  -7   2  -2    1.03    0.21
  -7   2  -2    1.20    0.25
  -7   2  -2    0.91    0.19
   7   2   2    1.03    0.26
  -7  -2  -2    0.84    0.20
  -7  -2  -2    0.95    0.27
   7  -2   2    1.26    0.26
  -7  -2  -2    0.90    0.37
  -7  -2  -2    1.11    0.24
  -7  -2  -2    1.07    0.22
  -7   2  -3   62.30    1.51
  -7   2  -3   64.91    1.53
  -7   2  -3   62.67    1.32
  -7   2  -3   63.25    1.59
  -7   2  -3   59.94    1.39
  -7  -2  -3   66.83    1.68
  -7  -2  -3   63.47    1.54
  -7  -2  -3   62.65    1.45
  -7  -2  -3   63.23    1.61
  -7  -2  -3   63.92    1.35
  -7  -2  -3   62.29    1.56
  -7   2  -4    1.56    0.23
  -7   2  -4    1.43    0.34
  -7   2  -4    1.14    0.32
  -7  -2  -4    1.89    0.37
  -7  -2  -4    1.22    0.31
  -7  -2  -4    1.16    0.28
  -7  -2  -4    1.82    0.27
  -7  -2  -4    1.30    0.33
  -7  -2  -4    1.82    0.49
   7   3  -9    5.80    0.47
   7   3  -9    6.26    0.38
   7   3  -9    6.03    0.46
   7   3  -9    5.51    0.36
   7   3  -9    5.98    0.51
   7  -3  -9    6.10    0.40
   7  -3  -9    6.85    0.54
   7  -3  -9    6.46    0.52
   7  -3  -9    6.71    0.45
   7   3  -8    0.58    0.26
   7   3  -8    0.05    0.27
   7   3  -8    0.36    0.27
   7   3  -8    0.48    0.30
   7   3  -8    0.44    0.23
   7   3  -8    0.48    0.21
   7  -3  -8    0.18    0.23
   7  -3  -8    0.53    0.28
   7  -3  -8    0.45    0.23
   7  -3  -8   -0.13    0.28
  -7   3   7    0.58    0.30
   7   3  -7    0.09    0.24
   7   3  -7    0.69    0.31
   7   3  -7    0.32    0.19
   7   3  -7    0.00    0.19
   7   3  -7    0.07    0.24
   7   3  -7    0.66    0.23
   7  -3  -7    0.46    0.25
   7  -3  -7    0.40    0.21
   7  -3  -7    0.27    0.19
   7  -3  -7    0.44    0.22
   7  -3  -7    0.23    0.22
   7  -3  -7    0.12    0.22
  -7  -3   7    0.26    0.30
   7   3  -6    8.08    0.40
   7   3  -6    8.02    0.42
   7   3  -6    8.31    0.39
   7   3  -6    7.60    0.35
   7   3  -6    8.02    0.34
  -7   3   6    7.38    0.50
   7  -3  -6    8.39    0.39
  -7  -3   6    7.39    0.52
   7  -3  -6    7.03    0.42
   7  -3  -6    7.13    0.39
   7  -3  -6    7.77    0.36
   7  -3  -6    7.80    0.39
   7  -3  -6    7.67    0.34
   7   3  -5   28.55    0.81
  -7   3   5   27.86    0.94
   7   3  -5   28.68    0.68
   7   3  -5   27.99    0.70
   7   3  -5   30.51    0.80
  -7   3   5   28.70    0.75
   7  -3  -5   28.71    0.77
   7  -3  -5   29.19    0.68
  -7  -3   5   29.51    0.98
   7  -3  -5   28.93    0.70
   7  -3  -5   28.21    0.91
   7  -3  -5   29.17    0.67
   7  -3  -5   28.59    0.77
   7   3  -4   42.30    1.18
   7   3  -4   43.50    1.06
  -7   3   4   43.78    1.19
  -7   3   4   43.70    1.11
  -7   3   4   41.24    1.25
  -7   3   4   44.23    1.01
   7   3  -4   42.20    1.20
   7  -3  -4   42.00    1.20
   7  -3  -4   42.89    0.91
   7  -3  -4   42.26    0.92
  -7  -3   4   43.78    1.00
  -7  -3   4   42.01    1.17
   7  -3  -4   42.61    1.03
  -7  -3   4   40.85    1.29
  -7  -3   4   42.79    1.08
   7  -3  -4   43.64    1.19
  -7   3   3   92.08    1.92
   7   3  -3   93.42    2.04
   7   3  -3   91.08    2.32
  -7   3   3   91.59    2.09
   7   3  -3   89.42    1.75
   7   3  -3   89.97    2.27
  -7   3   3   87.79    2.40
  -7   3   3   91.22    2.27
   7  -3  -3   91.00    1.77
  -7  -3   3   89.40    2.46
   7  -3  -3   89.90    1.75
  -7  -3   3   92.14    2.07
   7  -3  -3   93.82    2.27
  -7  -3   3   92.60    1.92
  -7  -3   3   83.43    2.03
  -7  -3   3   91.99    2.27
   7  -3  -3   90.79    2.31
  -7   3   2   36.56    0.87
   7   3  -2   36.53    0.79
  -7   3   2   36.97    0.95
   7   3  -2   36.15    1.02
  -7   3   2   35.59    1.02
   7   3  -2   35.81    1.05
  -7  -3   2   35.19    1.13
  -7  -3   2   35.39    0.93
  -7  -3   2   35.44    0.92
   7  -3  -2   36.16    1.05
   7  -3  -2   35.78    0.78
  -7  -3   2   35.37    0.86
   7  -3  -2   35.67    0.80
   7  -3  -2   34.27    1.02
  -7  -3   2   34.84    1.02
   7   3  -1   80.75    1.57
  -7   3   1   80.41    1.89
   7   3  -1   83.46    2.11
  -7   3   1   82.33    1.74
  -7   3   1   80.75    1.63
   7  -3  -1   81.47    2.10
  -7  -3   1   80.64    1.88
  -7  -3   1   82.33    1.75
   7  -3  -1   82.94    1.59
   7  -3  -1   83.08    1.61
  -7  -3   1   79.29    1.64
  -7  -3   1   81.41    2.27
  -7  -3   1   80.28    1.88
  -7   3   0    3.31    0.22
  -7   3   0    2.55    0.27
   7   3   0    2.73    0.30
  -7   3   0    2.88    0.23
   7   3   0    3.01    0.30
  -7   3   0    3.22    0.25
   7   3   0    3.26    0.22
   7  -3   0    2.69    0.23
  -7  -3   0    2.80    0.25
   7  -3   0    3.04    0.29
  -7  -3   0    3.11    0.29
   7  -3   0    2.74    0.24
  -7  -3   0    3.00    0.27
  -7  -3   0    3.40    0.24
  -7   3  -1   11.62    0.47
  -7   3  -1   12.02    0.44
  -7   3  -1   11.88    0.51
  -7   3  -1   12.35    0.40
   7   3   1   12.36    0.56
  -7  -3  -1   11.29    0.47
  -7  -3  -1   13.07    0.52
   7  -3   1   11.91    0.53
  -7  -3  -1   12.21    0.52
   7  -3   1   12.22    0.42
  -7  -3  -1   12.11    0.43
   7  -3   1   12.47    0.42
  -7   3  -2    1.06    0.21
  -7   3  -2    1.27    0.20
  -7   3  -2    1.17    0.27
  -7   3  -2    1.49    0.19
  -7   3  -2    1.30    0.25
   7  -3   2    1.55    0.26
  -7  -3  -2    1.34    0.24
  -7  -3  -2    1.80    0.23
  -7  -3  -2    1.36    0.31
  -7  -3  -2    0.78    0.39
  -7  -3  -2    1.17    0.26
  -7   3  -3    2.80    0.27
  -7   3  -3    3.07    0.26
  -7   3  -3    2.77    0.35
  -7   3  -3    3.62    0.25
  -7   3  -3    4.06    0.35
  -7  -3  -3    3.86    0.30
  -7  -3  -3    2.45    0.37
  -7  -3  -3    2.82    0.30
  -7  -3  -3    3.08    0.33
  -7  -3  -3    4.15    0.50
  -7   3  -4    5.09    0.35
   7   3   4    5.24    0.44
  -7  -3  -4    4.98    0.34
  -7  -3  -4    5.50    0.43
  -7  -3  -4    4.75    0.38
   7   4  -9    1.62    0.34
   7   4  -9    1.46    0.25
   7   4  -9    1.18    0.34
   7   4  -9    1.34    0.34
   7   4  -9    1.40    0.39
   7  -4  -9    1.69    0.37
   7  -4  -9    1.17    0.34
   7  -4  -9    1.53    0.29
   7  -4  -9    1.03    0.26
   7   4  -8   47.52    1.30
   7   4  -8   48.26    1.07
   7   4  -8   47.34    1.29
   7   4  -8   50.90    1.26
   7   4  -8   47.24    1.36
   7   4  -8   47.14    1.07
   7  -4  -8   47.87    1.11
   7  -4  -8   50.05    1.30
   7  -4  -8   47.46    1.06
   7  -4  -8   48.27    1.28
   7   4  -7    1.13    0.21
   7   4  -7    1.47    0.34
   7   4  -7    0.83    0.27
   7   4  -7    1.26    0.27
   7   4  -7    0.64    0.25
   7   4  -7    1.02    0.22
   7  -4  -7    0.57    0.23
   7  -4  -7    0.73    0.22
   7  -4  -7    0.63    0.27
   7  -4  -7    1.25    0.26
   7  -4  -7    1.17    0.25
   7   4  -6   56.94    1.35
   7   4  -6   55.08    1.38
   7   4  -6   55.75    1.37
  -7   4   6   56.11    1.63
   7   4  -6   56.76    1.16
   7   4  -6   55.43    1.20
   7  -4  -6   54.91    1.15
   7  -4  -6   55.73    1.36
   7  -4  -6   58.32    1.33
   7  -4  -6   54.56    1.22
   7  -4  -6   54.55    1.37
  -7  -4   6   56.69    1.66
   7  -4  -6   55.48    1.15
   7   4  -5    0.23    0.20
   7   4  -5    0.25    0.20
   7   4  -5    0.11    0.17
  -7   4   5    0.28    0.20
   7   4  -5   -0.03    0.16
  -7   4   5    0.57    0.24
   7  -4  -5   -0.02    0.20
  -7  -4   5    0.05    0.25
   7  -4  -5    0.27    0.23
   7  -4  -5    0.00    0.17
   7  -4  -5    0.18    0.21
   7  -4  -5    0.23    0.18
   7  -4  -5    0.12    0.17
   7  -4  -5    0.13    0.18
  -7   4   4    6.79    0.43
   7   4  -4    7.07    0.39
  -7   4   4    7.32    0.44
  -7   4   4    7.25    0.39
   7   4  -4    7.52    0.43
   7   4  -4    6.75    0.34
   7   4  -4    7.44    0.36
   7  -4  -4    7.42    0.43
   7  -4  -4    7.92    0.45
  -7  -4   4    7.38    0.40
  -7  -4   4    7.82    0.49
   7  -4  -4    7.61    0.36
  -7  -4   4    7.27    0.37
   7  -4  -4    7.18    0.34
   7  -4  -4    7.10    0.34
   7   4  -3    0.14    0.18
  -7   4   3    0.25    0.18
  -7   4   3    0.47    0.21
   7   4  -3   -0.10    0.20
   7   4  -3    0.04    0.20
   7   4  -3   -0.03    0.20
  -7   4   3    0.06    0.20
   7  -4  -3    0.23    0.19
  -7  -4   3    0.14    0.19
   7  -4  -3    0.24    0.17
  -7  -4   3    0.18    0.24
   7  -4  -3    0.25    0.22
  -7  -4   3   -0.04    0.17
   7  -4  -3    0.01    0.16
  -7  -4   3    0.04    0.20
   7   4  -2   16.55    0.61
   7   4  -2   16.31    0.62
  -7   4   2   16.27    0.56
   7   4  -2   17.80    0.63
  -7   4   2   15.91    0.52
  -7   4   2   16.08    0.46
   7  -4  -2   15.91    0.62
  -7  -4   2   16.73    0.56
   7  -4  -2   16.44    0.48
  -7  -4   2   16.96    0.52
   7  -4  -2   17.14    0.48
  -7  -4   2   15.48    0.70
  -7  -4   2   15.52    0.52
  -7  -4   2   16.77    0.61
  -7   4   1   -0.27    0.16
  -7   4   1   -0.05    0.15
   7   4  -1    0.19    0.22
   7   4  -1    0.05    0.20
  -7   4   1   -0.10    0.18
   7  -4  -1    0.22    0.17
  -7  -4   1    0.09    0.16
  -7  -4   1    0.02    0.18
  -7  -4   1   -0.01    0.20
  -7  -4   1   -0.07    0.19
  -7  -4   1    0.00    0.25
   7  -4  -1    0.19    0.21
   7  -4  -1    0.21    0.18
  -7   4   0   52.14    1.31
   7   4   0   53.50    1.44
  -7   4   0   52.79    1.12
  -7   4   0   52.01    1.19
   7   4   0   53.47    1.47
   7  -4   0   54.10    1.44
   7  -4   0   53.64    1.12
  -7  -4   0   52.67    1.14
  -7  -4   0   52.20    1.32
  -7  -4   0   52.30    1.22
   7  -4   0   54.17    1.11
  -7  -4   0   52.11    1.32
  -7  -4   0   52.03    1.72
  -7   4  -1    0.98    0.24
  -7   4  -1    0.81    0.18
  -7   4  -1    1.04    0.20
   7   4   1    1.29    0.28
   7   4   1    0.98    0.27
  -7   4  -1    0.95    0.19
  -7  -4  -1    1.24    0.21
   7  -4   1    0.73    0.25
  -7  -4  -1    1.11    0.27
  -7  -4  -1    0.65    0.22
  -7  -4  -1    1.17    0.25
   7  -4   1    0.81    0.21
   7  -4   1    0.81    0.22
  -7   4  -2   52.60    1.19
  -7   4  -2   53.38    1.29
  -7   4  -2   51.59    1.28
  -7   4  -2   51.42    1.34
  -7   4  -2   52.69    1.12
   7  -4   2   52.15    1.43
  -7  -4  -2   52.11    1.37
  -7  -4  -2   52.40    1.26
  -7  -4  -2   52.66    1.16
  -7  -4  -2   53.19    1.41
  -7  -4  -2   53.91    1.36
  -7   4  -3    1.98    0.23
  -7   4  -3    2.04    0.33
  -7   4  -3    2.78    0.32
  -7   4  -3    2.06    0.23
  -7   4  -3    2.02    0.25
   7   4   3    2.67    0.36
  -7  -4  -3    1.91    0.36
  -7  -4  -3    1.83    0.32
  -7  -4  -3    2.24    0.30
  -7  -4  -3    2.14    0.28
  -7  -4  -3    2.13    0.47
   7   5  -8   -0.55    0.28
   7   5  -8    0.16    0.33
   7   5  -8   -0.27    0.29
   7   5  -8    0.16    0.27
   7   5  -8   -0.14    0.21
   7  -5  -8    0.01    0.25
   7  -5  -8   -0.23    0.27
   7  -5  -8   -0.45    0.28
   7  -5  -8    0.03    0.22
   7   5  -7    1.34    0.35
   7   5  -7    1.33    0.29
   7   5  -7    0.96    0.21
   7   5  -7    0.87    0.29
   7   5  -7    1.35    0.28
   7  -5  -7    1.32    0.24
   7  -5  -7    1.21    0.27
   7  -5  -7    1.17    0.25
   7  -5  -7    1.04    0.29
   7  -5  -7    1.10    0.26
   7   5  -6   26.75    0.77
  -7   5   6   24.91    0.92
   7   5  -6   25.55    0.67
   7   5  -6   25.38    0.76
   7   5  -6   25.63    0.81
   7  -5  -6   26.37    0.77
   7  -5  -6   25.75    0.66
   7  -5  -6   25.57    0.76
   7  -5  -6   26.30    0.65
   7  -5  -6   26.93    0.74
   7  -5  -6   24.26    0.70
  -7  -5   6   26.94    0.98
   7  -5  -6   25.00    0.64
   7   5  -5   11.87    0.44
  -7   5   5   10.96    0.55
   7   5  -5   11.92    0.51
   7   5  -5   11.04    0.46
   7   5  -5   11.23    0.40
  -7   5   5   11.03    0.46
   7  -5  -5   11.26    0.44
   7  -5  -5   11.35    0.40
   7  -5  -5   10.91    0.41
   7  -5  -5   12.08    0.58
   7  -5  -5   11.42    0.46
  -7  -5   5   11.31    0.62
   7  -5  -5   11.72    0.42
   7  -5  -5   11.77    0.47
   7   5  -4   86.47    1.90
  -7   5   4   87.13    1.83
  -7   5   4   87.66    2.17
   7   5  -4   82.93    1.95
   7   5  -4   82.65    1.71
  -7   5   4   82.66    2.28
   7  -5  -4   85.71    1.88
   7  -5  -4   84.21    2.17
   7  -5  -4   83.91    1.75
  -7  -5   4   84.89    2.35
   7  -5  -4   84.82    1.62
   7  -5  -4   84.77    1.68
   7  -5  -4   83.05    1.65
   7  -5  -4   84.02    2.20
  -7   5   3   65.62    1.62
   7   5  -3   65.95    1.78
   7   5  -3   66.56    1.53
  -7   5   3   65.78    1.39
  -7   5   3   66.41    1.48
   7   5  -3   65.09    1.75
   7   5  -3   66.61    1.40
  -7  -5   3   66.99    1.92
  -7  -5   3   69.05    1.48
   7  -5  -3   65.97    1.34
  -7  -5   3   68.31    1.59
   7  -5  -3   68.10    1.53
  -7  -5   3   68.37    1.75
   7  -5  -3   65.68    1.36
   7  -5  -3   64.98    1.74
   7  -5  -3   68.42    1.78
   7   5  -2   84.53    2.23
   7   5  -2   86.72    2.18
  -7   5   2   86.45    1.84
  -7   5   2   86.39    2.01
   7   5  -2   85.37    2.19
  -7   5   2   84.67    1.76
  -7   5   2   84.98    1.73
  -7  -5   2   84.47    2.39
   7  -5  -2   86.23    1.70
   7  -5  -2   83.65    2.21
  -7  -5   2   88.14    1.85
  -7  -5   2   88.44    2.19
  -7  -5   2   83.38    1.95
   7  -5  -2   84.46    1.68
   7  -5  -2   85.23    1.90
  -7  -5   2   87.48    1.99
  -7   5   1   44.01    1.03
  -7   5   1   44.19    0.97
   7   5  -1   42.54    1.24
   7   5  -1   44.23    1.27
  -7   5   1   43.92    1.00
  -7   5   1   43.60    1.13
   7  -5  -1   43.71    0.96
   7  -5  -1   44.57    0.97
   7  -5  -1   42.78    1.24
  -7  -5   1   44.16    0.98
  -7  -5   1   43.96    1.14
  -7  -5   1   42.79    1.11
  -7  -5   1   44.29    1.05
  -7  -5   1   45.57    1.42
   7  -5  -1   43.38    1.08
  -7   5   0   39.72    0.95
   7   5   0   39.73    1.16
  -7   5   0   39.90    0.89
  -7   5   0   37.80    1.04
   7   5   0   40.24    1.18
  -7  -5   0   39.49    1.06
   7  -5   0   39.91    0.90
  -7  -5   0   39.93    1.35
  -7  -5   0   39.59    0.92
   7  -5   0   40.44    1.15
  -7  -5   0   40.54    0.99
   7  -5   0   39.85    0.89
   7  -5   0   40.20    1.00
  -7  -5   0   38.86    1.06
   7   5   1    1.16    0.28
   7   5   1    0.88    0.26
   7   5   1    1.15    0.29
  -7   5  -1    1.16    0.25
  -7   5  -1    1.37    0.20
  -7   5  -1    1.15    0.20
   7  -5   1    1.05    0.25
  -7  -5  -1    1.23    0.23
   7  -5   1    1.11    0.23
   7  -5   1    0.88    0.23
  -7  -5  -1    0.91    0.25
   7  -5   1    0.99    0.26
  -7  -5  -1    1.34    0.30
  -7  -5  -1    1.11    0.24
  -7   5  -2    5.32    0.38
   7   5   2    4.64    0.37
  -7   5  -2    5.18    0.32
  -7   5  -2    5.16    0.42
  -7   5  -2    5.66    0.38
  -7   5  -2    4.67    0.35
  -7  -5  -2    5.24    0.50
  -7  -5  -2    4.47    0.41
  -7  -5  -2    5.24    0.39
  -7  -5  -2    5.29    0.38
  -7  -5  -2    5.37    0.37
  -7   5  -3    3.35    0.36
  -7   5  -3    3.29    0.26
  -7   5  -3    3.36    0.37
   7   5   3    2.71    0.37
  -7  -5  -3    3.64    0.33
  -7  -5  -3    2.75    0.40
  -7  -5  -3    2.09    0.35
  -7  -5  -3    2.87    0.33
  -7  -5  -3    3.39    0.51
   7   6  -8    3.88    0.41
   7   6  -8    4.30    0.42
   7   6  -8    4.08    0.30
   7   6  -8    4.21    0.41
   7   6  -8    3.42    0.48
   7  -6  -8    3.77    0.42
   7  -6  -8    3.32    0.37
   7  -6  -8    4.24    0.36
   7  -6  -8    4.58    0.33
   7   6  -7   47.34    1.27
   7   6  -7   44.87    1.23
   7   6  -7   47.05    1.05
   7   6  -7   45.26    1.34
   7   6  -7   47.59    1.23
   7  -6  -7   46.53    1.22
   7  -6  -7   45.53    1.24
   7  -6  -7   45.75    1.03
   7  -6  -7   47.78    1.17
   7  -6  -7   45.74    1.09
   7   6  -6    6.93    0.37
   7   6  -6    6.37    0.41
   7   6  -6    6.67    0.41
  -7   6   6    6.73    0.52
   7   6  -6    6.26    0.48
   7  -6  -6    5.90    0.35
   7  -6  -6    6.46    0.39
   7  -6  -6    6.86    0.42
   7  -6  -6    6.24    0.39
   7  -6  -6    6.02    0.35
   7  -6  -6    6.25    0.43
   7  -6  -6    6.17    0.42
   7   6  -5   67.53    1.42
  -7   6   5   67.44    1.91
  -7   6   5   69.12    1.52
  -7   6   5   68.35    1.45
   7   6  -5   66.94    1.64
   7   6  -5   68.17    1.58
   7   6  -5   68.89    1.62
  -7  -6   5   67.35    1.96
   7  -6  -5   66.99    1.62
   7  -6  -5   67.81    1.84
   7  -6  -5   66.43    1.44
   7  -6  -5   65.46    1.37
   7  -6  -5   67.37    1.58
   7  -6  -5   69.49    1.57
   7  -6  -5   68.02    1.36
   7  -6  -5   65.57    1.39
   7   6  -4    4.17    0.27
   7   6  -4    4.76    0.36
  -7   6   4    4.65    0.33
   7   6  -4    4.11    0.32
  -7   6   4    4.16    0.30
  -7   6   4    3.50    0.27
   7  -6  -4    4.67    0.33
   7  -6  -4    3.91    0.35
   7  -6  -4    4.04    0.27
  -7  -6   4    4.29    0.41
   7  -6  -4    4.33    0.29
   7  -6  -4    3.69    0.30
   7  -6  -4    3.89    0.27
   7   6  -3    5.78    0.46
   7   6  -3    5.51    0.43
  -7   6   3    6.76    0.33
  -7   6   3    6.21    0.39
   7   6  -3    5.70    0.35
  -7   6   3    5.88    0.34
   7   6  -3    5.94    0.36
   7  -6  -3    6.08    0.44
  -7  -6   3    6.16    0.39
  -7  -6   3    6.08    0.41
   7  -6  -3    6.26    0.36
   7  -6  -3    6.16    0.33
  -7  -6   3    5.29    0.43
  -7  -6   3    6.53    0.54
   7  -6  -3    5.90    0.36
   7  -6  -3    5.89    0.46
   7  -6  -3    5.14    0.32
  -7   6   2    0.81    0.19
   7   6  -2    0.68    0.25
   7   6  -2    0.95    0.25
   7   6  -2    0.94    0.22
  -7   6   2    0.91    0.21
  -7   6   2    0.56    0.20
   7   6  -2    0.67    0.21
  -7   6   2    0.92    0.25
   7  -6  -2    0.89    0.26
   7  -6  -2    0.66    0.20
   7  -6  -2    0.47    0.20
  -7  -6   2    0.77    0.23
  -7  -6   2    0.67    0.21
  -7  -6   2    0.71    0.31
  -7  -6   2    0.30    0.20
  -7  -6   2    0.59    0.22
   7  -6  -2    1.00    0.24
  -7   6   1   41.42    1.12
   7   6  -1   42.55    1.24
  -7   6   1   42.18    0.96
  -7   6   1   41.21    1.02
  -7   6   1   42.19    0.99
   7   6  -1   44.00    1.00
   7   6  -1   42.47    1.26
   7  -6  -1   43.88    1.24
  -7  -6   1   43.28    1.14
  -7  -6   1   42.16    1.11
   7  -6  -1   41.75    0.95
   7  -6  -1   42.17    0.96
  -7  -6   1   45.40    1.43
   7  -6  -1   43.04    1.08
  -7  -6   1   41.18    0.98
  -7  -6   1   42.78    1.05
   7   6   0    0.36    0.25
  -7   6   0    0.17    0.19
  -7   6   0    0.44    0.23
   7   6   0   -0.01    0.22
   7   6   0    0.19    0.26
  -7   6   0    0.45    0.19
  -7  -6   0    0.18    0.25
   7  -6   0    0.50    0.23
  -7  -6   0   -0.10    0.23
   7  -6   0    0.07    0.25
   7  -6   0    0.44    0.24
  -7  -6   0    0.72    0.22
  -7  -6   0    0.79    0.36
  -7  -6   0    0.32    0.22
   7  -6   0    0.38    0.22
   7   6   1   78.58    1.68
  -7   6  -1   73.46    1.67
  -7   6  -1   77.45    1.59
  -7   6  -1   74.28    1.85
  -7  -6  -1   79.73    1.75
   7  -6   1   79.00    1.57
  -7  -6  -1   76.85    1.88
  -7  -6  -1   77.52    1.63
  -7  -6  -1   79.63    1.89
   7  -6   1   76.36    1.77
   7  -6   1   78.52    1.59
  -7   6  -2    4.06    0.29
  -7   6  -2    4.39    0.37
  -7   6  -2    4.24    0.28
   7   6   2    3.38    0.35
  -7   6  -2    3.78    0.27
  -7   6  -2    3.84    0.34
  -7  -6  -2    4.40    0.35
  -7  -6  -2    3.83    0.37
  -7  -6  -2    3.66    0.41
  -7  -6  -2    4.04    0.32
   7   6   3   27.29    0.87
  -7   6  -3   29.58    0.92
  -7   6  -3   29.54    0.73
  -7   6  -3   29.46    0.88
  -7  -6  -3   29.76    0.97
  -7  -6  -3   30.14    0.92
  -7  -6  -3   29.21    1.00
  -7  -6  -3   29.55    0.83
   7   7  -8    0.07    0.32
   7   7  -8    0.04    0.32
   7   7  -8    0.43    0.31
   7   7  -8    0.16    0.22
   7   7  -8    0.12    0.37
   7  -7  -8    0.01    0.28
   7  -7  -8   -0.21    0.28
   7  -7  -8    0.13    0.27
   7  -7  -8    0.13    0.35
   7   7  -7    0.07    0.27
   7   7  -7   -0.09    0.28
   7   7  -7    0.16    0.22
   7   7  -7   -0.15    0.29
   7  -7  -7   -0.21    0.27
   7  -7  -7   -0.07    0.26
   7  -7  -7   -0.08    0.28
   7  -7  -7    0.09    0.27
   7  -7  -7    0.33    0.24
   7   7  -6    8.39    0.51
   7   7  -6    8.39    0.55
   7   7  -6    8.90    0.48
  -7   7   6    7.64    0.57
   7   7  -6    8.80    0.41
   7  -7  -6    8.52    0.48
   7  -7  -6    8.16    0.44
   7  -7  -6    8.60    0.40
   7  -7  -6    8.91    0.42
   7  -7  -6    8.23    0.48
   7  -7  -6    8.47    0.46
   7  -7  -6    9.09    0.47
   7   7  -5   23.78    0.65
   7   7  -5   23.42    0.73
  -7   7   5   22.50    0.72
   7   7  -5   24.23    0.73
   7   7  -5   23.42    0.79
  -7   7   5   23.85    0.67
  -7   7   5   22.16    0.86
   7  -7  -5   24.27    0.87
   7  -7  -5   22.86    0.74
   7  -7  -5   23.13    0.70
   7  -7  -5   22.54    0.62
  -7  -7   5   23.81    0.96
   7  -7  -5   21.98    0.68
   7  -7  -5   22.18    0.63
   7  -7  -5   22.93    0.62
   7   7  -4   23.76    0.66
   7   7  -4   24.33    0.75
  -7   7   4   24.24    0.67
  -7   7   4   24.57    0.73
   7   7  -4   24.47    0.73
  -7   7   4   23.93    0.68
   7  -7  -4   23.76    0.66
  -7  -7   4   25.32    0.97
   7  -7  -4   23.06    0.66
   7  -7  -4   24.45    0.63
   7  -7  -4   24.22    0.73
   7  -7  -4   24.87    0.88
   7  -7  -4   24.43    0.65
  -7   7   3   98.06    2.08
  -7   7   3   99.64    2.01
  -7   7   3   95.27    1.96
   7   7  -3   94.78    2.51
   7   7  -3   93.44    2.14
   7   7  -3   95.55    2.47
   7   7  -3   96.08    1.97
   7  -7  -3   95.46    2.51
   7  -7  -3   97.95    1.86
   7  -7  -3   99.36    1.90
  -7  -7   3   99.30    2.71
  -7  -7   3   96.19    2.24
   7  -7  -3   97.26    1.92
   7  -7  -3   96.89    2.16
  -7  -7   3   93.50    2.08
   7   7  -2   20.79    0.79
   7   7  -2   20.30    0.78
  -7   7   2   20.59    0.64
  -7   7   2   21.69    0.71
  -7   7   2   20.38    0.59
   7   7  -2   19.79    0.64
  -7   7   2   19.67    0.61
   7   7  -2   20.62    0.63
   7  -7  -2   20.03    0.59
   7  -7  -2   20.75    0.76
  -7  -7   2   22.21    0.92
  -7  -7   2   20.60    0.71
   7  -7  -2   19.52    0.65
   7  -7  -2   20.25    0.60
   7  -7  -2   21.14    0.56
  -7  -7   2   21.15    0.60
  -7  -7   2   21.55    0.66
  -7   7   1   63.03    1.43
   7   7  -1   63.02    1.77
  -7   7   1   62.86    1.58
   7   7  -1   63.12    1.74
  -7   7   1   64.09    1.36
  -7   7   1   64.17    1.41
   7   7  -1   63.91    1.40
  -7  -7   1   67.17    1.97
   7  -7  -1   63.53    1.73
  -7  -7   1   64.51    1.59
  -7  -7   1   64.65    1.38
   7  -7  -1   62.06    1.50
  -7  -7   1   63.11    1.55
   7  -7  -1   62.88    1.33
  -7  -7   1   65.80    1.48
   7  -7  -1   61.80    1.35
  -7   7   0    3.42    0.30
   7   7   0    3.72    0.33
   7   7   0    3.76    0.38
  -7   7   0    2.97    0.26
  -7   7   0    3.48    0.26
  -7   7   0    3.41    0.33
   7   7   0    3.48    0.39
  -7  -7   0    3.98    0.49
  -7  -7   0    3.44    0.29
  -7  -7   0    2.90    0.34
  -7  -7   0    3.58    0.37
   7  -7   0    2.73    0.29
   7  -7   0    3.65    0.33
   7  -7   0    3.41    0.30
  -7  -7   0    3.16    0.32
  -7   7  -1    2.84    0.26
  -7   7  -1    3.16    0.26
  -7   7  -1    3.53    0.35
   7   7   1    2.84    0.34
  -7  -7  -1    3.38    0.31
  -7  -7  -1    3.11    0.39
   7  -7   1    3.15    0.31
  -7  -7  -1    2.98    0.32
   7  -7   1    3.92    0.33
   7  -7   1    2.96    0.33
  -7  -7  -1    2.83    0.34
  -7   7  -2    1.05    0.22
  -7   7  -2    0.97    0.21
  -7   7  -2    0.94    0.32
   7   7   2    1.40    0.33
  -7   7  -2    0.79    0.30
  -7  -7  -2    0.80    0.36
  -7  -7  -2    0.66    0.27
  -7  -7  -2    1.01    0.33
  -7  -7  -2    0.83    0.30
   7  -7   2    1.24    0.28
   7  -7   2    1.22    0.30
   7   8  -7    3.34    0.31
   7   8  -7    3.49    0.41
   7   8  -7    2.92    0.38
   7   8  -7    3.27    0.39
   7  -8  -7    3.30    0.36
   7  -8  -7    2.79    0.36
   7  -8  -7    2.65    0.32
   7  -8  -7    2.81    0.38
   7   8  -6   38.01    1.07
   7   8  -6   38.18    1.08
   7   8  -6   38.14    0.94
  -7   8   6   37.38    0.96
   7   8  -6   39.82    1.14
   7  -8  -6   38.43    1.03
   7  -8  -6   37.68    1.05
   7  -8  -6   38.29    0.90
   7  -8  -6   38.05    0.91
   7  -8  -6   38.56    0.92
   7  -8  -6   37.75    0.97
   7  -8  -6   37.57    1.10
  -7   8   5    8.08    0.45
   7   8  -5    8.66    0.45
   7   8  -5    8.60    0.47
  -7   8   5    8.25    0.49
   7   8  -5    8.43    0.43
   7   8  -5    8.30    0.55
   7  -8  -5    8.65    0.59
   7  -8  -5    8.09    0.41
   7  -8  -5    7.94    0.41
   7  -8  -5    8.15    0.50
   7  -8  -5    8.49    0.44
   7  -8  -5    7.59    0.44
   7  -8  -5    7.15    0.41
  -7   8   4    8.95    0.44
  -7   8   4    9.57    0.46
  -7   8   4    8.79    0.49
   7   8  -4    8.20    0.44
   7   8  -4    8.60    0.45
   7   8  -4    8.62    0.45
   7  -8  -4    8.24    0.43
   7  -8  -4    8.71    0.41
   7  -8  -4    8.46    0.45
   7  -8  -4    8.67    0.43
   7  -8  -4    9.10    0.58
   7  -8  -4    8.40    0.43
  -7   8   3    1.14    0.23
   7   8  -3    1.27    0.25
  -7   8   3    1.07    0.24
   7   8  -3    1.02    0.27
  -7   8   3    0.74    0.24
   7  -8  -3    1.03    0.25
   7  -8  -3    1.09    0.31
  -7  -8   3    1.11    0.30
   7  -8  -3    1.54    0.25
  -7  -8   3    1.37    0.28
   7  -8  -3    1.52    0.29
  -7  -8   3    1.03    0.36
   7  -8  -3    1.20    0.24
   7   8  -2    5.47    0.36
   7   8  -2    5.35    0.42
  -7   8   2    4.37    0.32
  -7   8   2    5.04    0.37
  -7   8   2    4.85    0.32
   7   8  -2    4.87    0.43
   7   8  -2    5.04    0.38
   7  -8  -2    4.54    0.34
   7  -8  -2    5.63    0.49
  -7  -8   2    5.55    0.52
  -7  -8   2    3.97    0.35
  -7  -8   2    4.58    0.34
   7  -8  -2    5.71    0.37
   7  -8  -2    4.21    0.32
   7  -8  -2    5.53    0.42
  -7  -8   2    5.03    0.33
  -7   8   1    5.35    0.37
  -7   8   1    5.66    0.42
   7   8  -1    5.26    0.45
   7   8  -1    5.07    0.45
   7   8  -1    5.74    0.42
  -7   8   1    6.02    0.38
  -7   8   1    5.56    0.40
   7  -8  -1    5.57    0.39
  -7  -8   1    6.18    0.58
  -7  -8   1    6.19    0.46
   7  -8  -1    5.35    0.35
   7  -8  -1    5.41    0.43
  -7  -8   1    5.46    0.41
  -7  -8   1    5.16    0.43
  -7  -8   1    5.76    0.41
  -7   8   0   38.48    0.97
  -7   8   0   38.47    0.96
  -7   8   0   38.84    0.92
   7   8   0   38.49    0.99
  -7   8   0   37.10    1.07
   7  -8   0   37.37    0.92
  -7  -8   0   38.19    0.95
  -7  -8   0   36.59    1.09
  -7  -8   0   37.63    1.03
   7  -8   0   37.77    0.94
   7  -8   0   38.33    1.04
  -7  -8   0   39.04    1.12
  -7   8  -1    8.56    0.42
   7   8   1    9.28    0.55
  -7   8  -1    8.75    0.44
  -7   8  -1    8.49    0.51
   7  -8   1    9.11    0.49
   7  -8   1    9.15    0.49
  -7  -8  -1    8.28    0.59
  -7  -8  -1    8.72    0.49
  -7  -8  -1    9.29    0.56
   7  -8   1    8.31    0.50
  -7  -8  -1    9.40    0.57
   7   8   2   40.51    1.09
  -7   8  -2   38.82    0.94
  -7   8  -2   41.18    1.14
  -7   8  -2   40.12    0.98
   7  -8   2   39.42    0.98
  -7  -8  -2   38.87    1.21
  -7  -8  -2   38.82    1.21
   7  -8   2   38.44    1.00
  -7  -8  -2   38.97    1.12
  -7  -8  -2   40.37    1.04
   7   9  -7    0.66    0.35
   7   9  -7    0.77    0.27
   7   9  -7    0.51    0.33
   7   9  -7    0.53    0.37
   7  -9  -7    1.05    0.38
   7  -9  -7    0.99    0.31
   7  -9  -7    0.58    0.34
   7  -9  -7    0.69    0.42
   7  -9  -7    0.76    0.31
  -7   9   6    8.91    0.51
   7   9  -6    8.78    0.54
   7   9  -6    8.80    0.53
   7   9  -6    8.69    0.63
   7   9  -6    8.77    0.47
   7  -9  -6    8.30    0.53
   7  -9  -6    8.70    0.45
   7  -9  -6    9.09    0.50
   7  -9  -6    8.86    0.56
   7  -9  -6    9.24    0.51
   7  -9  -6    7.94    0.44
   7   9  -5    5.04    0.45
  -7   9   5    4.65    0.37
  -7   9   5    5.17    0.38
   7   9  -5    4.49    0.40
   7   9  -5    4.75    0.34
   7   9  -5    4.62    0.41
   7  -9  -5    4.59    0.36
   7  -9  -5    4.61    0.34
   7  -9  -5    4.66    0.39
   7  -9  -5    5.32    0.35
   7  -9  -5    5.26    0.41
   7   9  -4   41.49    1.03
  -7   9   4   43.49    1.06
   7   9  -4   40.17    1.14
   7   9  -4   42.71    1.15
  -7   9   4   40.27    1.08
  -7   9   4   41.36    1.02
   7  -9  -4   42.73    0.98
   7  -9  -4   43.02    1.14
   7  -9  -4   42.10    0.99
   7  -9  -4   41.28    1.00
  -7   9   3    2.05    0.29
  -7   9   3    2.56    0.30
   7   9  -3    2.81    0.33
   7   9  -3    2.87    0.32
  -7   9   3    2.94    0.30
   7  -9  -3    2.41    0.34
   7  -9  -3    3.43    0.31
   7  -9  -3    2.54    0.31
   7  -9  -3    2.70    0.31
   7   9  -2   56.81    1.61
   7   9  -2   54.41    1.36
  -7   9   2   55.52    1.34
  -7   9   2   56.48    1.30
  -7   9   2   55.20    1.25
   7   9  -2   57.43    1.64
   7  -9  -2   55.48    1.23
   7  -9  -2   54.62    1.39
  -7  -9   2   55.93    1.26
   7  -9  -2   53.90    1.25
   7  -9  -2   55.95    1.18
  -7  -9   2   54.12    1.44
  -7  -9   2   54.47    1.34
  -7   9   1    0.93    0.26
   7   9  -1    0.90    0.28
  -7   9   1    0.74    0.24
  -7   9   1    1.34    0.26
   7  -9  -1    0.86    0.29
  -7  -9   1    0.69    0.29
  -7  -9   1    0.43    0.27
   7  -9  -1    0.84    0.31
   7  -9  -1    0.62    0.28
  -7  -9   1    0.61    0.25
   7  -9  -1    0.51    0.25
  -7  -9   1    0.83    0.34
   7   9   0   30.64    0.86
  -7   9   0   29.94    0.84
  -7   9   0   31.44    0.87
  -7   9   0   29.62    0.80
  -7   9   0   30.91    0.96
  -7  -9   0   29.66    0.85
  -7  -9   0   30.33    0.96
  -7  -9   0   29.83    0.92
   7  -9   0   30.53    0.86
   7  -9   0   30.40    0.84
   7  -9   0   30.55    0.94
  -7  -9   0   30.66    1.00
  -7   9  -1   -0.10    0.21
  -7   9  -1   -0.24    0.22
   7   9   1   -0.05    0.32
  -7   9  -1   -0.02    0.30
   7  -9   1    0.33    0.33
  -7  -9  -1    0.20    0.27
  -7  -9  -1   -0.19    0.32
  -7  -9  -1    0.14    0.30
  -7  -9  -1    0.10    0.36
   7  -9   1    0.09    0.29
   7  -9   1    0.17    0.31
   7  10  -6    6.16    0.50
   7  10  -6    6.24    0.51
  -7  10   6    6.27    0.46
   7  10  -6    5.81    0.51
   7  10  -6    6.76    0.43
   7 -10  -6    5.53    0.38
   7 -10  -6    6.55    0.40
   7 -10  -6    6.28    0.49
   7 -10  -6    6.12    0.42
   7 -10  -6    5.50    0.45
   7  10  -5    5.70    0.47
  -7  10   5    6.19    0.43
  -7  10   5    5.78    0.43
   7  10  -5    5.63    0.47
   7  10  -5    5.74    0.40
   7 -10  -5    5.70    0.39
   7 -10  -5    6.38    0.42
   7 -10  -5    6.67    0.41
   7 -10  -5    6.59    0.50
   7 -10  -5    5.46    0.44
  -7  10   4    2.56    0.33
   7  10  -4    2.56    0.36
   7  10  -4    2.87    0.39
  -7  10   4    2.35    0.33
  -7  10   4    3.10    0.35
   7  10  -4    2.75    0.33
   7 -10  -4    2.91    0.32
   7 -10  -4    2.66    0.33
   7 -10  -4    2.53    0.32
   7 -10  -4    2.63    0.38
   7  10  -3    1.18    0.28
  -7  10   3    0.82    0.28
   7  10  -3    0.87    0.31
  -7  10   3    1.28    0.29
  -7  10   3    0.56    0.28
   7 -10  -3    1.13    0.28
   7 -10  -3    0.98    0.32
   7 -10  -3    0.66    0.29
   7 -10  -3    0.99    0.29
  -7  10   2    1.43    0.29
  -7  10   2    0.70    0.27
  -7  10   2    1.00    0.27
   7  10  -2    0.76    0.30
   7  10  -2    0.76    0.29
   7 -10  -2    0.94    0.31
   7 -10  -2    1.09    0.28
   7 -10  -2    1.00    0.34
   7 -10  -2    0.57    0.30
  -7 -10   2    0.89    0.32
  -7 -10   2    0.83    0.29
  -7  10   1   11.50    0.56
  -7  10   1    9.68    0.54
  -7  10   1   10.33    0.51
   7  10  -1   10.87    0.55
  -7 -10   1   10.09    0.53
   7 -10  -1   11.25    0.57
  -7 -10   1   10.89    0.60
  -7 -10   1   10.50    0.65
   7 -10  -1   11.98    0.59
   7 -10  -1   10.81    0.56
   7 -10  -1   10.62    0.50
  -7  10   0    0.96    0.29
   7  10   0    0.94    0.33
  -7  10   0    0.54    0.25
  -7  10   0    1.29    0.28
   7 -10   0    0.85    0.38
  -7 -10   0    0.29    0.32
  -7 -10   0    0.99    0.36
  -7 -10   0    1.19    0.30
   7 -10   0    0.46    0.32
   7 -10   0    1.31    0.33
  -7 -10   0    1.06    0.36
  -7  10  -1   18.97    0.66
  -7  10  -1   20.64    0.73
  -7  10  -1   19.97    0.67
   7  10   1   20.99    0.77
  -7 -10  -1   18.97    0.82
  -7 -10  -1   19.71    0.73
   7 -10   1   20.68    0.75
   7 -10   1   20.27    0.73
   7 -10   1   20.07    0.81
  -7 -10  -1   19.19    0.84
  -7 -10  -1   18.54    0.88
   7  11  -5   27.29    0.96
  -7  11   5   28.29    0.93
  -7  11   5   27.01    0.89
   7  11  -5   27.47    0.95
   7 -11  -5   27.11    0.81
   7 -11  -5   27.92    0.91
   7 -11  -5   26.72    0.89
   7 -11  -5   27.89    0.82
   7 -11  -5   26.40    0.82
  -7  11   4    6.89    0.49
  -7  11   4    6.61    0.46
   7  11  -4    6.70    0.52
   7  11  -4    7.27    0.51
   7  11  -4    6.03    0.43
  -7  11   4    7.91    0.52
   7 -11  -4    7.47    0.55
   7 -11  -4    7.10    0.46
   7 -11  -4    7.87    0.53
   7 -11  -4    7.37    0.52
  -7  11   3   30.81    0.90
  -7  11   3   31.84    0.97
   7  11  -3   29.94    0.98
   7  11  -3   31.66    0.89
  -7  11   3   32.28    0.94
   7 -11  -3   31.68    0.90
   7 -11  -3   30.31    0.98
   7 -11  -3   31.62    0.86
   7 -11  -3   31.31    0.90
  -7  11   2    8.32    0.55
   7  11  -2    7.33    0.52
  -7  11   2    8.38    0.57
  -7  11   2    7.96    0.52
   7  11  -2    7.07    0.51
   7 -11  -2    8.37    0.48
   7 -11  -2    7.91    0.55
   7 -11  -2    7.18    0.47
   7 -11  -2    6.92    0.54
   7  11  -1   20.08    0.75
  -7  11   1   20.72    0.70
  -7  11   1   21.12    0.76
  -7  11   1   20.10    0.75
  -7 -11   1   20.63    0.72
   7 -11  -1   20.57    0.76
   7 -11  -1   20.06    0.69
   7 -11  -1   19.56    0.84
  -7 -11   1   19.39    0.85
   7 -11  -1   21.22    0.75
  -7 -11   1   19.81    0.80
  -7  11   0    0.04    0.29
  -7  11   0   -0.22    0.29
   7  11   0    0.09    0.36
  -7  11   0    0.01    0.29
   7 -11   0    0.36    0.35
  -7 -11   0    0.12    0.34
   7 -11   0    0.08    0.41
   7 -11   0   -0.37    0.33
  -7 -11   0   -0.05    0.30
  -7 -11   0   -0.24    0.36
  -7  12   3   -0.23    0.35
  -7  12   3    0.62    0.33
   7  12  -3   -0.01    0.34
  -7  12   3   -0.36    0.32
   7  12  -3   -0.04    0.32
   7 -12  -3   -0.24    0.33
   7 -12  -3   -0.49    0.33
   7 -12  -3    0.10    0.41
   7 -12  -3   -0.28    0.33
  -7 -12   3    0.07    0.30
   8   0  -9   -0.13    0.31
   8   0  -9   -0.13    0.30
   8   0  -9    0.04    0.24
   8   0  -9    0.13    0.25
   8   0  -9    0.26    0.31
   8   0  -8    1.71    0.26
   8   0  -8    1.14    0.30
   8   0  -8    1.60    0.25
   8   0  -8    1.10    0.30
   8   0  -8    1.43    0.30
   8   0  -8    1.40    0.32
   8   0  -7   -0.10    0.25
   8   0  -7   -0.26    0.21
   8   0  -7   -0.28    0.24
   8   0  -7   -0.07    0.21
   8   0  -7    0.30    0.26
   8   0  -7    0.18    0.21
   8   0  -6    3.19    0.28
   8   0  -6    2.47    0.25
   8   0  -6    2.67    0.29
   8   0  -6    2.82    0.25
  -8   0   6    2.84    0.35
   8   0  -6    2.96    0.29
   8   0  -6    2.64    0.24
   8   0  -5    0.20    0.19
   8   0  -5    0.02    0.19
   8   0  -5    0.18    0.19
   8   0  -5   -0.17    0.19
   8   0  -5   -0.01    0.21
  -8   0   5    0.16    0.25
  -8   0   4   20.28    0.71
   8   0  -4   20.96    0.73
  -8   0   4   18.78    0.75
  -8   0   4   19.32    0.63
  -8   0   4   20.11    0.65
   8   0  -4   21.52    0.58
  -8   0   4   21.11    0.60
   8   0  -4   20.24    0.62
   8   0  -4   19.97    0.60
   8   0  -4   20.16    0.55
  -8   0   3   -0.35    0.16
   8   0  -3    0.35    0.20
   8   0  -3    0.24    0.22
  -8   0   3    0.36    0.20
  -8   0   3    0.24    0.23
   8   0  -3   -0.07    0.21
  -8   0   3    0.09    0.18
  -8   0   3    0.30    0.21
   8   0  -3    0.27    0.18
   8   0  -2  131.85    3.28
  -8   0   2  132.10    2.93
   8   0  -2  129.97    2.80
   8   0  -2  131.13    2.47
  -8   0   2  132.36    2.95
  -8   0   2  130.10    2.71
  -8   0   2  130.79    2.56
  -8   0   1    0.02    0.20
   8   0  -1   -0.17    0.19
  -8   0   1    0.06    0.19
  -8   0   1    0.03    0.17
   8   0  -1    0.34    0.21
  -8   0   1    0.16    0.23
   8   0  -1    0.22    0.23
  -8   0   0   66.68    1.39
  -8   0   0   64.01    1.59
   8   0   0   67.28    1.34
  -8   0   0   68.45    1.64
   8   0   0   66.92    1.77
  -8   0   0   65.10    1.48
  -8   0  -1    0.05    0.22
  -8   0  -1    0.00    0.19
  -8   0  -1   -0.05    0.21
  -8   0  -1   -0.01    0.27
  -8   0  -2    3.48    0.27
  -8   0  -2    3.01    0.37
  -8   0  -2    3.21    0.29
  -8   0  -2    2.67    0.33
  -8   0  -2    3.09    0.31
  -8   0  -3   -0.26    0.25
  -8   0  -3    0.05    0.23
  -8   0  -3   -0.39    0.23
   8   1  -9   10.99    0.61
   8   1  -9   11.46    0.65
   8   1  -9   12.03    0.50
   8   1  -9   10.88    0.62
   8   1  -9   10.67    0.50
   8   1  -9   11.48    0.56
   8  -1  -9   10.93    0.61
   8  -1  -9   10.39    0.58
   8  -1  -9   11.43    0.51
   8  -1  -9   11.37    0.63
   8  -1  -9   11.18    0.50
   8   1  -8    2.59    0.34
   8   1  -8    2.65    0.33
   8   1  -8    2.49    0.34
   8   1  -8    1.94    0.26
   8   1  -8    2.62    0.28
   8   1  -8    2.31    0.33
   8  -1  -8    2.61    0.34
   8  -1  -8    2.55    0.33
   8  -1  -8    1.91    0.26
   8  -1  -8    2.28    0.28
   8  -1  -8    2.31    0.34
   8   1  -7   51.47    1.15
   8   1  -7   51.67    1.36
   8   1  -7   51.27    1.32
   8   1  -7   53.46    1.32
   8   1  -7   51.50    1.11
   8   1  -7   54.11    1.30
   8  -1  -7   52.12    1.28
   8  -1  -7   50.18    1.31
   8  -1  -7   52.51    1.32
   8  -1  -7   52.04    1.10
   8  -1  -7   50.48    1.16
   8  -1  -7   49.97    1.11
   8   1  -6   15.50    0.56
   8   1  -6   16.30    0.51
   8   1  -6   17.29    0.60
   8   1  -6   16.54    0.52
  -8   1   6   16.45    0.73
   8   1  -6   16.51    0.57
   8   1  -6   17.09    0.49
  -8  -1   6   16.64    0.74
   8  -1  -6   16.52    0.49
   8  -1  -6   16.27    0.59
   8  -1  -6   15.85    0.56
   8  -1  -6   15.56    0.50
   8  -1  -6   16.52    0.57
   8  -1  -6   16.68    0.53
   8   1  -5   58.68    1.19
   8   1  -5   59.61    1.41
  -8   1   5   58.58    1.33
   8   1  -5   59.63    1.26
   8   1  -5   58.65    1.23
  -8   1   5   59.46    1.70
   8   1  -5   59.80    1.41
   8  -1  -5   57.51    1.40
   8  -1  -5   60.44    1.40
  -8  -1   5   58.84    1.72
   8  -1  -5   58.06    1.22
   8  -1  -5   58.80    1.19
   8  -1  -5   59.38    1.27
   8   1  -4   48.68    1.18
  -8   1   4   47.76    1.43
   8   1  -4   49.66    1.37
  -8   1   4   48.73    1.07
   8   1  -4   47.10    1.17
   8   1  -4   49.28    1.08
  -8   1   4   50.49    1.23
   8   1  -4   47.65    1.04
  -8   1   4   49.67    1.36
  -8   1   4   47.31    1.22
  -8   1   4   50.40    1.14
  -8  -1   4   47.89    1.45
  -8  -1   4   49.96    1.14
  -8  -1   4   48.07    1.34
   8  -1  -4   49.31    1.37
   8  -1  -4   48.67    1.04
   8  -1  -4   48.60    1.00
   8  -1  -4   48.70    1.18
   8  -1  -4   49.07    1.08
  -8  -1   4   50.46    1.23
  -8   1   3   12.16    0.50
  -8   1   3   12.95    0.47
   8   1  -3   12.81    0.56
  -8   1   3   12.00    0.49
   8   1  -3   12.81    0.46
   8   1  -3   12.77    0.43
   8   1  -3   11.80    0.56
  -8   1   3   12.82    0.41
  -8  -1   3   12.87    0.60
  -8  -1   3   12.28    0.43
  -8  -1   3   12.63    0.50
   8  -1  -3   12.34    0.46
  -8  -1   3   12.73    0.48
   8  -1  -3   12.22    0.56
  -8  -1   3   12.98    0.52
   8  -1  -3   11.90    0.43
   8  -1  -3   12.36    0.54
  -8   1   2    4.55    0.35
  -8   1   2    4.35    0.36
   8   1  -2    4.08    0.34
  -8   1   2    4.59    0.31
   8   1  -2    4.84    0.33
   8   1  -2    4.52    0.28
  -8   1   2    4.72    0.31
  -8  -1   2    4.82    0.37
   8  -1  -2    4.94    0.34
   8  -1  -2    4.48    0.30
  -8  -1   2    5.07    0.36
   8  -1  -2    4.40    0.35
  -8  -1   2    4.60    0.34
  -8  -1   2    4.51    0.31
  -8   1   1    1.71    0.24
   8   1  -1    1.89    0.22
   8   1  -1    1.92    0.28
  -8   1   1    1.74    0.22
  -8   1   1    2.03    0.28
  -8   1   1    1.87    0.22
   8   1  -1    1.65    0.24
  -8  -1   1    1.96    0.25
  -8  -1   1    2.11    0.28
   8  -1  -1    2.05    0.28
   8  -1  -1    2.13    0.26
  -8  -1   1    1.60    0.23
  -8  -1   1    2.04    0.22
   8  -1  -1    1.95    0.23
   8   1   0   17.43    0.52
  -8   1   0   17.40    0.61
  -8   1   0   16.80    0.52
  -8   1   0   16.83    0.56
  -8   1   0   17.64    0.62
   8   1   0   18.89    0.69
  -8  -1   0   18.10    0.53
  -8  -1   0   18.60    0.65
  -8  -1   0   16.89    0.56
  -8  -1   0   17.25    0.62
   8  -1   0   16.93    0.68
   8  -1   0   17.22    0.51
  -8   1  -1   14.85    0.62
  -8   1  -1   14.29    0.48
  -8   1  -1   15.32    0.58
  -8   1  -1   15.13    0.54
  -8  -1  -1   14.86    0.54
  -8  -1  -1   14.80    0.59
  -8  -1  -1   14.96    0.49
  -8  -1  -1   15.70    0.63
  -8   1  -2   23.28    0.70
  -8   1  -2   22.38    0.64
  -8   1  -2   22.60    0.74
  -8   1  -2   23.64    0.81
  -8  -1  -2   23.42    0.70
  -8  -1  -2   21.44    0.75
  -8  -1  -2   22.20    0.72
  -8  -1  -2   22.79    0.66
  -8  -1  -2   22.98    0.81
  -8   1  -3   13.21    0.51
  -8   1  -3   12.79    0.55
  -8   1  -3   13.21    0.58
  -8  -1  -3   13.02    0.50
  -8  -1  -3   12.92    0.62
  -8  -1  -3   12.91    0.57
   8   2  -9   25.68    0.83
   8   2  -9   25.79    0.92
   8   2  -9   25.94    0.73
   8   2  -9   27.02    0.75
   8   2  -9   24.22    0.91
   8  -2  -9   25.52    0.77
   8  -2  -9   26.29    0.91
   8  -2  -9   26.57    0.75
   8   2  -8    0.04    0.26
   8   2  -8    0.12    0.29
   8   2  -8   -0.03    0.28
   8   2  -8    0.01    0.22
   8   2  -8   -0.20    0.30
   8   2  -8    0.29    0.23
   8  -2  -8    0.26    0.27
   8  -2  -8    0.05    0.23
   8  -2  -8    0.18    0.29
   8  -2  -8    0.16    0.28
   8  -2  -8    0.14    0.24
   8   2  -7    2.29    0.31
   8   2  -7    2.51    0.31
   8   2  -7    2.61    0.27
   8   2  -7    2.41    0.26
   8   2  -7    2.41    0.32
   8   2  -7    2.91    0.37
   8  -2  -7    2.43    0.32
   8  -2  -7    2.68    0.26
   8  -2  -7    2.46    0.26
   8  -2  -7    2.22    0.30
   8  -2  -7    2.15    0.27
   8  -2  -7    2.60    0.31
   8   2  -6    1.65    0.24
   8   2  -6    1.78    0.29
   8   2  -6    2.14    0.28
   8   2  -6    1.89    0.24
  -8   2   6    1.93    0.32
   8   2  -6    1.83    0.26
   8   2  -6    2.30    0.32
   8  -2  -6    2.09    0.26
  -8  -2   6    2.21    0.35
   8  -2  -6    2.17    0.26
   8  -2  -6    1.77    0.27
   8  -2  -6    2.30    0.24
   8  -2  -6    2.13    0.27
   8  -2  -6    1.88    0.24
   8   2  -5   34.28    0.93
   8   2  -5   35.25    0.92
   8   2  -5   35.23    0.81
  -8   2   5   35.76    1.12
   8   2  -5   36.82    0.79
  -8   2   5   31.70    0.96
   8   2  -5   35.88    0.83
  -8   2   5   34.94    0.89
   8  -2  -5   34.88    0.84
  -8  -2   5   35.10    1.15
   8  -2  -5   34.40    0.80
   8  -2  -5   35.82    1.07
   8  -2  -5   35.57    0.79
   8  -2  -5   35.58    0.92
   8  -2  -5   34.46    0.91
  -8   2   4    0.11    0.23
  -8   2   4   -0.16    0.17
   8   2  -4    0.12    0.23
   8   2  -4    0.17    0.19
  -8   2   4   -0.19    0.19
  -8   2   4    0.45    0.24
   8   2  -4    0.11    0.18
   8   2  -4    0.48    0.19
   8   2  -4    0.20    0.18
   8   2  -4    0.30    0.21
  -8  -2   4    0.01    0.20
  -8  -2   4    0.26    0.23
   8  -2  -4   -0.02    0.20
   8  -2  -4    0.14    0.23
  -8  -2   4    0.05    0.19
   8  -2  -4   -0.01    0.18
  -8  -2   4    0.13    0.27
   8  -2  -4    0.03    0.19
   8  -2  -4    0.42    0.18
  -8   2   3  125.72    2.52
   8   2  -3  132.15    2.45
  -8   2   3  127.61    2.67
   8   2  -3  132.19    3.24
  -8   2   3  127.10    2.90
   8   2  -3  130.50    2.54
   8   2  -3  133.15    2.77
  -8  -2   3  129.30    2.88
   8  -2  -3  126.77    3.17
   8  -2  -3  129.25    2.44
   8  -2  -3  130.98    2.76
  -8  -2   3  130.79    2.68
   8  -2  -3  128.67    3.23
  -8  -2   3  121.90    2.86
  -8  -2   3  132.75    2.53
  -8  -2   3  123.05    3.41
  -8   2   2    4.52    0.29
  -8   2   2    4.60    0.30
   8   2  -2    4.71    0.30
   8   2  -2    4.62    0.34
  -8   2   2    4.41    0.34
  -8   2   2    4.36    0.32
   8   2  -2    5.28    0.42
   8  -2  -2    4.86    0.42
  -8  -2   2    4.97    0.46
  -8  -2   2    4.94    0.39
  -8  -2   2    4.77    0.36
   8  -2  -2    4.49    0.32
   8  -2  -2    5.13    0.34
  -8  -2   2    4.83    0.35
  -8  -2   2    4.73    0.30
   8  -2  -2    4.40    0.28
  -8   2   1  106.25    2.13
   8   2  -1  107.24    2.73
  -8   2   1  108.03    2.25
  -8   2   1  107.37    2.46
  -8   2   1  108.70    2.43
   8   2  -1  109.44    2.05
   8   2  -1  102.12    2.31
   8  -2  -1  105.62    2.71
  -8  -2   1  110.54    2.27
  -8  -2   1  108.07    2.44
   8  -2  -1  106.46    2.08
   8  -2  -1  107.81    2.33
   8  -2  -1  106.34    2.05
  -8  -2   1  105.91    2.45
  -8  -2   1  105.75    2.13
  -8   2   0    2.04    0.31
   8   2   0    2.09    0.24
  -8   2   0    2.00    0.22
  -8   2   0    1.82    0.23
  -8   2   0    1.94    0.26
   8   2   0    1.85    0.28
   8  -2   0    1.77    0.29
  -8  -2   0    1.78    0.23
   8  -2   0    1.69    0.24
  -8  -2   0    1.79    0.29
   8  -2   0    1.82    0.24
  -8  -2   0    1.42    0.26
  -8  -2   0    1.75    0.25
  -8   2  -1   30.00    0.76
  -8   2  -1   30.18    0.86
  -8   2  -1   31.16    0.93
  -8   2  -1   30.29    0.80
  -8  -2  -1   30.38    0.77
  -8  -2  -1   30.05    0.83
  -8  -2  -1   29.83    0.89
  -8  -2  -1   29.32    0.92
  -8   2  -2    1.47    0.24
  -8   2  -2    1.34    0.25
  -8   2  -2    1.21    0.26
  -8   2  -2    1.27    0.33
  -8  -2  -2    1.36    0.28
  -8  -2  -2    1.21    0.25
  -8  -2  -2    1.10    0.26
  -8  -2  -2    1.40    0.29
  -8  -2  -2    0.79    0.33
   8   3  -8   10.35    0.55
   8   3  -8   10.21    0.53
   8   3  -8   10.38    0.57
   8   3  -8   10.95    0.50
   8   3  -8   10.10    0.61
   8   3  -8   10.45    0.46
   8  -3  -8   10.77    0.55
   8  -3  -8    9.65    0.57
   8  -3  -8   10.04    0.46
   8  -3  -8   10.18    0.49
   8  -3  -8   10.71    0.52
   8   3  -7   39.16    1.08
   8   3  -7   39.45    0.91
   8   3  -7   39.46    1.15
   8   3  -7   39.92    1.07
   8   3  -7   40.16    1.10
   8   3  -7   39.64    0.94
   8  -3  -7   39.46    1.08
   8  -3  -7   39.10    0.91
   8  -3  -7   39.53    0.92
   8  -3  -7   42.35    1.06
   8  -3  -7   39.18    0.96
   8  -3  -7   38.83    1.08
   8   3  -6   14.47    0.57
   8   3  -6   15.24    0.50
   8   3  -6   14.84    0.57
   8   3  -6   14.82    0.54
  -8   3   6   15.04    0.69
   8   3  -6   14.68    0.47
  -8  -3   6   14.57    0.74
   8  -3  -6   15.10    0.53
   8  -3  -6   15.09    0.49
   8  -3  -6   13.30    0.55
   8  -3  -6   15.52    0.50
   8  -3  -6   15.24    0.56
   8  -3  -6   13.89    0.54
   8   3  -5   50.56    1.26
   8   3  -5   50.34    1.12
  -8   3   5   51.18    1.49
  -8   3   5   49.59    1.18
   8   3  -5   49.67    1.05
   8   3  -5   51.28    1.25
   8  -3  -5   50.39    1.06
   8  -3  -5   50.12    1.24
  -8  -3   5   49.60    1.52
   8  -3  -5   49.80    1.12
   8  -3  -5   51.61    1.44
   8  -3  -5   49.80    1.07
   8   3  -4    6.32    0.38
  -8   3   4    6.60    0.40
   8   3  -4    6.91    0.38
  -8   3   4    6.71    0.33
  -8   3   4    7.55    0.44
   8   3  -4    7.46    0.33
   8   3  -4    7.33    0.48
   8   3  -4    7.47    0.40
  -8   3   4    6.87    0.46
  -8  -3   4    6.90    0.42
  -8  -3   4    6.85    0.52
  -8  -3   4    6.84    0.39
   8  -3  -4    6.27    0.37
  -8  -3   4    6.74    0.44
   8  -3  -4    7.32    0.37
   8  -3  -4    6.55    0.38
   8  -3  -4    6.93    0.36
   8  -3  -4    6.64    0.31
   8  -3  -4    6.71    0.46
  -8   3   3   11.58    0.46
  -8   3   3   10.83    0.50
   8   3  -3   11.08    0.42
   8   3  -3   10.49    0.41
   8   3  -3   11.08    0.46
   8   3  -3   10.65    0.46
   8   3  -3   11.22    0.54
  -8   3   3   10.83    0.41
   8  -3  -3   10.75    0.42
   8  -3  -3   10.14    0.54
  -8  -3   3   11.41    0.42
   8  -3  -3   10.74    0.42
  -8  -3   3   11.90    0.51
   8  -3  -3   10.94    0.53
  -8  -3   3   11.88    0.61
  -8  -3   3   10.67    0.45
   8  -3  -3   11.22    0.46
  -8  -3   3   11.22    0.47
  -8   3   2   -0.25    0.22
  -8   3   2    0.28    0.21
  -8   3   2    0.04    0.17
   8   3  -2   -0.05    0.19
   8   3  -2    0.34    0.22
   8   3  -2   -0.18    0.23
  -8  -3   2    0.06    0.21
  -8  -3   2    0.02    0.19
   8  -3  -2   -0.26    0.21
   8  -3  -2    0.10    0.23
  -8  -3   2    0.11    0.22
   8  -3  -2    0.11    0.20
   8  -3  -2    0.02    0.20
  -8  -3   2    0.43    0.27
  -8  -3   2    0.07    0.21
  -8   3   1    4.76    0.33
   8   3  -1    4.85    0.34
   8   3  -1    5.21    0.47
   8   3  -1    4.83    0.34
  -8   3   1    4.86    0.40
  -8   3   1    5.35    0.37
  -8   3   1    4.87    0.32
   8  -3  -1    5.05    0.30
  -8  -3   1    5.12    0.32
   8  -3  -1    5.26    0.35
  -8  -3   1    5.42    0.39
  -8  -3   1    4.52    0.35
  -8  -3   1    5.41    0.42
   8  -3  -1    5.56    0.45
   8  -3  -1    5.27    0.33
  -8   3   0   16.15    0.50
  -8   3   0   15.51    0.54
  -8   3   0   16.47    0.62
  -8   3   0   15.50    0.58
  -8  -3   0   15.09    0.61
  -8  -3   0   16.58    0.53
  -8  -3   0   16.19    0.57
  -8  -3   0   17.75    0.62
   8  -3   0   16.54    0.51
   8  -3   0   16.03    0.55
   8  -3   0   16.86    0.52
  -8   3  -1   27.44    0.72
  -8   3  -1   28.43    0.77
  -8   3  -1   28.57    0.83
  -8   3  -1   28.50    0.88
  -8  -3  -1   27.87    0.86
  -8  -3  -1   28.51    0.90
  -8  -3  -1   28.05    0.81
  -8  -3  -1   27.63    0.74
  -8   3  -2   27.26    0.72
  -8   3  -2   28.03    0.76
  -8   3  -2   27.36    0.88
  -8   3  -2   27.29    0.82
  -8  -3  -2   26.19    0.81
  -8  -3  -2   27.20    0.88
  -8  -3  -2   28.01    0.92
  -8  -3  -2   26.55    0.74
   8   4  -8    4.19    0.45
   8   4  -8    4.15    0.38
   8   4  -8    4.09    0.32
   8   4  -8    4.46    0.34
   8   4  -8    3.74    0.40
   8   4  -8    4.17    0.40
   8  -4  -8    3.19    0.34
   8  -4  -8    3.58    0.37
   8  -4  -8    4.18    0.39
   8  -4  -8    4.61    0.38
   8  -4  -8    4.09    0.33
   8   4  -7    0.38    0.28
   8   4  -7    0.36    0.31
   8   4  -7    0.12    0.22
   8   4  -7   -0.05    0.22
   8   4  -7    0.28    0.28
   8   4  -7    0.22    0.27
   8  -4  -7    0.13    0.26
   8  -4  -7    0.22    0.24
   8  -4  -7    0.14    0.21
   8  -4  -7    0.39    0.25
   8  -4  -7    0.02    0.25
   8  -4  -7   -0.01    0.25
   8   4  -6    1.71    0.30
   8   4  -6    2.50    0.30
   8   4  -6    1.96    0.25
  -8   4   6    1.46    0.31
   8   4  -6    2.07    0.31
   8   4  -6    1.54    0.25
   8  -4  -6    1.41    0.29
   8  -4  -6    1.52    0.25
   8  -4  -6    1.83    0.27
   8  -4  -6    1.66    0.27
   8  -4  -6    1.96    0.27
   8  -4  -6    1.67    0.24
  -8   4   5   -0.12    0.21
   8   4  -5    0.38    0.22
  -8   4   5    0.26    0.26
   8   4  -5    0.21    0.21
   8   4  -5   -0.36    0.18
   8   4  -5    0.28    0.24
   8  -4  -5    0.54    0.25
   8  -4  -5    0.51    0.20
   8  -4  -5    0.04    0.20
   8  -4  -5    0.33    0.21
  -8  -4   5    0.06    0.30
   8  -4  -5    0.36    0.21
   8  -4  -5    0.14    0.25
  -8   4   4   39.23    0.90
   8   4  -4   39.02    0.92
   8   4  -4   40.09    1.03
   8   4  -4   39.30    1.03
  -8   4   4   38.88    0.91
  -8   4   4   39.62    0.99
   8   4  -4   39.04    1.17
   8   4  -4   39.12    0.84
  -8   4   4   40.95    1.09
   8  -4  -4   38.94    0.90
  -8  -4   4   40.78    0.99
   8  -4  -4   40.13    1.19
   8  -4  -4   38.10    0.92
   8  -4  -4   39.10    0.89
   8  -4  -4   39.15    0.86
   8  -4  -4   37.93    1.00
  -8  -4   4   39.09    1.06
  -8  -4   4   39.38    1.27
  -8   4   3    1.56    0.22
  -8   4   3    1.11    0.20
   8   4  -3    1.56    0.23
   8   4  -3    1.63    0.29
  -8   4   3    1.04    0.23
  -8   4   3    1.40    0.29
   8   4  -3    0.63    0.22
   8   4  -3    1.36    0.26
  -8  -4   3    1.14    0.22
   8  -4  -3    1.67    0.29
   8  -4  -3    0.99    0.21
  -8  -4   3    1.85    0.34
   8  -4  -3    1.44    0.23
  -8  -4   3    1.20    0.24
  -8  -4   3    1.18    0.25
   8  -4  -3    1.32    0.20
   8  -4  -3    1.48    0.26
  -8   4   2  104.95    2.13
  -8   4   2  109.84    2.48
  -8   4   2  108.90    2.27
   8   4  -2  107.37    2.75
   8   4  -2  103.36    2.34
   8  -4  -2  106.73    2.07
  -8  -4   2  106.18    2.45
   8  -4  -2  107.35    2.10
  -8  -4   2  105.32    2.44
   8  -4  -2  107.02    2.74
  -8  -4   2  108.91    2.15
  -8  -4   2  105.39    2.28
  -8  -4   2  110.66    2.95
   8  -4  -2  108.94    2.36
  -8   4   1    3.30    0.26
  -8   4   1    2.95    0.27
   8   4  -1    3.21    0.35
  -8   4   1    2.91    0.32
   8  -4  -1    2.85    0.33
  -8  -4   1    3.41    0.29
  -8  -4   1    2.88    0.27
   8  -4  -1    3.49    0.31
  -8  -4   1    3.81    0.32
  -8  -4   1    3.71    0.33
   8  -4  -1    3.35    0.28
   8  -4  -1    3.72    0.29
  -8   4   0   68.31    1.42
  -8   4   0   67.84    1.50
  -8   4   0   67.59    1.67
  -8   4   0   68.17    1.62
  -8  -4   0   69.75    1.66
  -8  -4   0   65.75    1.66
   8  -4   0   66.74    1.40
  -8  -4   0   68.37    1.44
   8  -4   0   66.47    1.38
   8  -4   0   63.15    1.55
  -8  -4   0   69.25    1.54
  -8   4  -1    0.66    0.21
  -8   4  -1    0.53    0.23
  -8   4  -1    0.72    0.30
  -8   4  -1    0.58    0.21
   8  -4   1    0.60    0.25
   8  -4   1    0.97    0.26
  -8  -4  -1    0.82    0.32
  -8  -4  -1    0.58    0.27
  -8  -4  -1    0.66    0.23
  -8  -4  -1    0.95    0.25
  -8   4  -2    2.83    0.27
  -8   4  -2    2.55    0.29
  -8   4  -2    3.19    0.38
  -8   4  -2    2.90    0.27
   8   4   2    2.92    0.36
  -8  -4  -2    2.80    0.33
  -8  -4  -2    2.80    0.36
  -8  -4  -2    3.77    0.32
  -8  -4  -2    2.89    0.40
   8   5  -8   18.26    0.78
   8   5  -8   18.59    0.72
   8   5  -8   17.57    0.80
   8   5  -8   19.17    0.61
   8   5  -8   17.83    0.70
   8  -5  -8   18.43    0.61
   8  -5  -8   18.76    0.74
   8  -5  -8   17.88    0.67
   8  -5  -8   18.68    0.66
   8  -5  -8   17.62    0.70
   8   5  -7   32.32    0.94
   8   5  -7   30.91    0.81
   8   5  -7   31.15    0.97
   8   5  -7   32.02    1.06
   8   5  -7   31.93    0.93
   8  -5  -7   30.16    0.89
   8  -5  -7   32.07    0.93
   8  -5  -7   30.10    0.93
   8  -5  -7   30.75    0.78
   8  -5  -7   31.43    0.80
   8  -5  -7   30.31    0.85
   8   5  -6   44.82    1.03
   8   5  -6   44.16    1.20
   8   5  -6   44.80    1.16
  -8   5   6   44.90    1.39
   8   5  -6   44.69    1.15
   8  -5  -6   45.51    1.15
   8  -5  -6   43.51    1.15
   8  -5  -6   41.10    1.15
   8  -5  -6   44.92    0.98
   8  -5  -6   42.87    0.99
   8  -5  -6   42.84    1.05
  -8   5   5   21.49    0.68
   8   5  -5   20.91    0.62
  -8   5   5   20.81    0.81
   8   5  -5   20.93    0.70
  -8   5   5   21.56    0.60
   8   5  -5   20.96    0.71
   8  -5  -5   21.95    0.68
   8  -5  -5   20.14    0.60
   8  -5  -5   21.84    0.80
   8  -5  -5   20.31    0.60
   8  -5  -5   22.82    0.58
   8  -5  -5   20.58    0.64
  -8   5   4   52.12    1.20
  -8   5   4   49.97    1.13
   8   5  -4   52.13    1.26
  -8   5   4   48.85    1.10
   8   5  -4   48.25    1.26
   8   5  -4   50.28    1.13
  -8  -5   4   50.57    1.56
   8  -5  -4   48.13    1.12
   8  -5  -4   49.22    1.24
   8  -5  -4   50.45    1.05
   8  -5  -4   48.36    1.08
   8  -5  -4   49.69    1.10
   8  -5  -4   51.05    1.44
   8   5  -3    0.89    0.22
  -8   5   3    0.97    0.30
   8   5  -3    1.04    0.24
   8   5  -3    0.98    0.25
   8   5  -3    1.47    0.29
  -8   5   3    1.19    0.21
  -8   5   3    0.87    0.22
  -8   5   3    0.71    0.22
  -8  -5   3    1.08    0.26
   8  -5  -3    1.16    0.25
   8  -5  -3    0.89    0.23
  -8  -5   3    1.55    0.34
   8  -5  -3    0.90    0.21
  -8  -5   3    0.93    0.24
   8  -5  -3    0.96    0.28
  -8  -5   3    1.37    0.22
   8  -5  -3    1.02    0.24
   8   5  -2    8.47    0.53
  -8   5   2    7.36    0.47
   8   5  -2    7.40    0.52
   8   5  -2    7.61    0.41
  -8   5   2    6.96    0.42
  -8   5   2    7.86    0.38
   8  -5  -2    8.18    0.41
   8  -5  -2    7.41    0.41
  -8  -5   2    9.36    0.62
   8  -5  -2    7.01    0.52
  -8  -5   2    8.12    0.40
  -8  -5   2    7.79    0.41
  -8  -5   2    8.10    0.48
  -8  -5   2    7.63    0.45
   8  -5  -2    7.95    0.41
  -8   5   1    2.55    0.33
   8   5  -1    2.70    0.34
   8   5  -1    2.70    0.35
  -8   5   1    2.45    0.25
  -8   5   1    2.60    0.26
   8  -5  -1    2.39    0.27
  -8  -5   1    2.49    0.29
  -8  -5   1    2.89    0.42
   8  -5  -1    2.85    0.28
  -8  -5   1    2.73    0.27
  -8  -5   1    2.60    0.31
  -8  -5   1    2.88    0.33
   8  -5  -1    3.50    0.33
  -8   5   0   12.10    0.49
  -8   5   0   12.83    0.56
  -8   5   0   11.60    0.45
   8   5   0   12.27    0.51
  -8  -5   0   12.69    0.55
  -8  -5   0   12.32    0.57
  -8  -5   0   12.16    0.59
   8  -5   0   12.59    0.48
   8  -5   0   11.28    0.49
   8  -5   0   12.46    0.49
  -8  -5   0   12.14    0.50
  -8   5  -1    8.26    0.39
  -8   5  -1    7.76    0.51
  -8   5  -1    7.26    0.43
   8   5   1    7.95    0.51
  -8   5  -1    8.34    0.47
  -8  -5  -1    7.00    0.49
  -8  -5  -1    7.58    0.54
  -8  -5  -1    8.73    0.46
   8  -5   1    7.49    0.43
   8  -5   1    7.84    0.44
  -8  -5  -1    7.87    0.54
  -8   5  -2   27.46    0.72
  -8   5  -2   26.86    0.75
   8   5   2   25.33    0.85
  -8   5  -2   26.35    0.81
  -8   5  -2   27.77    0.89
  -8  -5  -2   24.83    0.91
  -8  -5  -2   26.54    0.85
  -8  -5  -2   27.05    0.78
  -8  -5  -2   26.85    0.91
   8   6  -8    1.33    0.28
   8   6  -8    1.04    0.35
   8   6  -8    1.08    0.36
   8   6  -8    1.00    0.44
   8  -6  -8    1.14    0.33
   8  -6  -8    0.88    0.31
   8  -6  -8    0.99    0.28
   8   6  -7    0.87    0.30
   8   6  -7    0.81    0.33
   8   6  -7    0.30    0.24
   8   6  -7    0.75    0.32
   8  -6  -7    0.84    0.29
   8  -6  -7    0.95    0.30
   8  -6  -7    1.21    0.29
   8  -6  -7    0.55    0.29
   8  -6  -7    0.74    0.24
   8  -6  -7    0.77    0.32
   8   6  -6    0.24    0.27
   8   6  -6    0.31    0.27
   8   6  -6    0.70    0.24
   8   6  -6    0.35    0.26
   8  -6  -6    0.18    0.25
   8  -6  -6    0.46    0.28
   8  -6  -6    0.75    0.28
   8  -6  -6    0.12    0.22
   8  -6  -6    0.36    0.22
   8  -6  -6    0.63    0.24
   8   6  -5   26.90    0.83
  -8   6   5   27.22    0.80
  -8   6   5   26.55    0.73
   8   6  -5   27.52    0.72
   8   6  -5   26.39    0.85
   8  -6  -5   27.96    0.82
   8  -6  -5   26.40    0.77
   8  -6  -5   26.83    0.69
   8  -6  -5   27.16    0.73
   8  -6  -5   27.62    0.96
   8  -6  -5   27.62    0.70
  -8   6   4    0.81    0.24
  -8   6   4    1.05    0.21
   8   6  -4    0.88    0.26
   8   6  -4    0.72    0.28
   8   6  -4    0.99    0.23
  -8   6   4    0.67    0.24
   8  -6  -4    1.57    0.26
   8  -6  -4    1.12    0.31
   8  -6  -4    0.90    0.25
   8  -6  -4    1.18    0.27
   8  -6  -4    1.42    0.25
   8  -6  -4    1.15    0.23
  -8   6   3   66.01    1.44
   8   6  -3   64.87    1.43
   8   6  -3   64.62    1.55
  -8   6   3   63.20    1.40
  -8   6   3   64.64    1.66
   8   6  -3   66.54    1.79
   8   6  -3   65.64    1.81
  -8   6   3   64.80    1.50
  -8  -6   3   66.23    1.51
   8  -6  -3   65.99    1.57
   8  -6  -3   65.38    1.32
   8  -6  -3   63.44    1.37
  -8  -6   3   65.75    1.41
  -8  -6   3   67.12    1.62
  -8  -6   3   68.02    1.98
   8  -6  -3   68.20    1.82
   8  -6  -3   65.62    1.38
  -8   6   2   10.34    0.44
   8   6  -2   10.36    0.46
   8   6  -2   11.25    0.58
   8   6  -2    9.92    0.47
   8   6  -2   10.75    0.61
  -8   6   2   10.07    0.44
  -8   6   2   10.10    0.54
  -8   6   2   10.81    0.48
   8  -6  -2   10.22    0.44
  -8  -6   2   10.25    0.43
   8  -6  -2    9.92    0.49
   8  -6  -2   10.50    0.47
  -8  -6   2   10.18    0.52
  -8  -6   2   11.00    0.55
  -8  -6   2    9.14    0.47
  -8  -6   2   11.82    0.70
   8   6  -1   55.04    1.23
  -8   6   1   53.64    1.18
  -8   6   1   53.65    1.25
  -8   6   1   53.07    1.40
  -8  -6   1   51.90    1.38
  -8  -6   1   55.29    1.73
  -8  -6   1   53.07    1.20
   8  -6  -1   53.05    1.18
   8  -6  -1   52.64    1.17
  -8  -6   1   52.13    1.28
   8  -6  -1   51.91    1.31
  -8  -6   1   53.57    1.37
  -8   6   0    9.44    0.46
  -8   6   0    9.27    0.44
  -8   6   0    9.25    0.53
   8   6   0    9.77    0.52
   8  -6   0    8.93    0.47
   8  -6   0    8.76    0.47
  -8  -6   0    9.30    0.57
   8  -6   0    9.26    0.49
  -8  -6   0    9.02    0.56
  -8  -6   0    9.63    0.53
  -8  -6   0    9.26    0.45
  -8   6  -1   13.79    0.58
  -8   6  -1   14.56    0.53
   8   6   1   13.86    0.60
  -8   6  -1   14.30    0.54
  -8   6  -1   14.47    0.64
  -8  -6  -1   14.22    0.66
   8  -6   1   13.61    0.57
  -8  -6  -1   14.80    0.64
  -8  -6  -1   14.73    0.57
  -8  -6  -1   15.04    0.69
   8  -6   1   14.65    0.56
   8   7  -7   40.27    0.97
   8   7  -7   39.23    1.18
   8   7  -7   39.77    1.13
   8   7  -7   39.71    1.14
   8  -7  -7   38.12    0.95
   8  -7  -7   37.92    1.13
   8  -7  -7   38.95    0.93
   8  -7  -7   36.98    1.02
   8  -7  -7   38.99    0.95
   8  -7  -7   40.01    1.11
   8  -7  -7   40.13    1.10
   8   7  -6   10.75    0.63
   8   7  -6   10.05    0.49
   8   7  -6   10.22    0.48
   8   7  -6   10.65    0.56
   8  -7  -6   10.13    0.52
   8  -7  -6   10.23    0.50
   8  -7  -6   10.83    0.47
   8  -7  -6   10.37    0.47
   8  -7  -6   10.37    0.56
   8  -7  -6   10.19    0.46
   8   7  -5   30.76    0.97
  -8   7   5   32.37    0.83
   8   7  -5   31.48    0.83
  -8   7   5   30.59    0.89
   8   7  -5   30.65    0.92
  -8   7   5   32.78    0.87
   8   7  -5   31.07    0.94
   8  -7  -5   30.67    0.90
   8  -7  -5   31.75    0.78
   8  -7  -5   30.90    0.84
   8  -7  -5   32.04    1.08
   8  -7  -5   32.07    0.80
   8  -7  -5   30.83    0.80
   8   7  -4    3.05    0.30
  -8   7   4    3.81    0.33
  -8   7   4    3.43    0.31
  -8   7   4    3.63    0.30
   8   7  -4    3.68    0.36
   8   7  -4    3.40    0.35
   8  -7  -4    3.40    0.31
   8  -7  -4    3.89    0.37
   8  -7  -4    3.69    0.30
   8  -7  -4    3.80    0.31
  -8   7   3    5.38    0.36
  -8   7   3    5.56    0.40
   8   7  -3    5.37    0.49
  -8   7   3    5.69    0.40
   8   7  -3    4.70    0.38
   8   7  -3    5.54    0.37
   8   7  -3    5.20    0.43
   8  -7  -3    4.49    0.34
   8  -7  -3    4.68    0.34
   8  -7  -3    4.60    0.38
  -8  -7   3    4.66    0.35
  -8  -7   3    4.84    0.38
   8  -7  -3    4.92    0.31
  -8   7   2    0.65    0.24
   8   7  -2    0.60    0.27
   8   7  -2    0.57    0.33
   8   7  -2    0.06    0.32
   8   7  -2    0.20    0.26
  -8   7   2    0.30    0.23
  -8   7   2    0.50    0.24
  -8   7   2    0.07    0.31
   8  -7  -2    0.21    0.27
   8  -7  -2    0.34    0.26
  -8  -7   2    0.30    0.25
  -8  -7   2    0.23    0.24
   8  -7  -2    0.50    0.27
  -8  -7   2    0.53    0.28
   8   7  -1    3.37    0.33
  -8   7   1    2.92    0.29
  -8   7   1    3.21    0.30
  -8   7   1    3.37    0.31
  -8   7   1    3.13    0.38
   8  -7  -1    3.60    0.32
   8  -7  -1    2.61    0.35
  -8  -7   1    2.86    0.30
  -8  -7   1    2.93    0.36
  -8  -7   1    2.81    0.33
   8  -7  -1    3.08    0.32
  -8  -7   1    3.15    0.35
  -8   7   0    3.99    0.31
  -8   7   0    4.55    0.32
   8   7   0    4.58    0.38
  -8   7   0    4.32    0.41
  -8  -7   0    4.28    0.41
  -8  -7   0    3.51    0.37
   8  -7   0    4.58    0.36
  -8  -7   0    3.73    0.41
  -8  -7   0    3.63    0.33
   8  -7   0    4.43    0.36
   8  -7   0    4.40    0.39
   8   7   1   27.46    0.86
  -8   7  -1   26.20    0.77
  -8   7  -1   26.51    0.74
  -8   7  -1   26.98    0.89
  -8  -7  -1   26.01    0.93
   8  -7   1   27.39    0.80
   8  -7   1   25.31    0.83
  -8  -7  -1   26.95    0.78
  -8  -7  -1   26.82    0.87
   8  -7   1   26.78    0.79
  -8  -7  -1   28.27    0.95
   8   8  -7    0.16    0.33
   8   8  -7   -0.25    0.27
   8   8  -7    0.26    0.33
   8  -8  -7    0.15    0.32
   8  -8  -7   -0.13    0.29
   8  -8  -7   -0.14    0.31
   8   8  -6    1.64    0.36
   8   8  -6    1.69    0.34
   8   8  -6    1.61    0.30
  -8   8   6    1.84    0.29
   8   8  -6    2.51    0.39
   8  -8  -6    1.42    0.33
   8  -8  -6    1.46    0.37
   8  -8  -6    1.78    0.31
   8  -8  -6    1.30    0.34
   8  -8  -6    1.50    0.28
   8  -8  -6    1.45    0.28
   8   8  -5    2.95    0.31
  -8   8   5    2.99    0.32
   8   8  -5    3.69    0.40
   8   8  -5    3.39    0.35
  -8   8   5    3.20    0.34
   8   8  -5    3.26    0.39
  -8   8   5    2.98    0.31
   8  -8  -5    2.71    0.30
   8  -8  -5    3.12    0.35
   8  -8  -5    2.75    0.30
   8  -8  -5    2.84    0.36
   8  -8  -5    2.84    0.30
  -8   8   4   34.74    0.90
  -8   8   4   34.44    0.91
  -8   8   4   34.60    0.97
   8   8  -4   35.93    0.92
   8   8  -4   34.02    1.00
   8  -8  -4   34.60    0.86
   8  -8  -4   34.90    0.89
   8  -8  -4   35.44    0.99
   8  -8  -4   33.51    0.86
  -8   8   3    6.36    0.41
   8   8  -3    6.60    0.43
   8   8  -3    6.01    0.39
  -8   8   3    6.11    0.43
  -8   8   3    6.81    0.48
   8  -8  -3    6.31    0.43
   8  -8  -3    7.14    0.42
   8  -8  -3    5.92    0.47
   8  -8  -3    5.50    0.38
  -8  -8   3    6.63    0.47
  -8  -8   3    5.78    0.43
  -8   8   2   57.86    1.36
  -8   8   2   57.54    1.32
   8   8  -2   63.46    1.38
  -8   8   2   59.09    1.40
   8   8  -2   56.38    1.44
   8  -8  -2   58.08    1.32
  -8  -8   2   59.53    1.34
   8  -8  -2   58.75    1.31
   8  -8  -2   59.57    1.26
  -8  -8   2   58.69    1.43
  -8  -8   2   59.54    1.54
   8  -8  -2   60.53    1.49
  -8   8   1   11.10    0.60
  -8   8   1   10.75    0.50
   8   8  -1   11.77    0.55
  -8   8   1   11.26    0.54
  -8   8   1   11.40    0.53
  -8  -8   1   10.77    0.58
  -8  -8   1   11.09    0.50
  -8  -8   1   10.98    0.63
   8  -8  -1   10.96    0.54
   8  -8  -1   10.50    0.54
   8  -8  -1   10.47    0.56
  -8  -8   1   11.18    0.59
  -8   8   0   26.45    0.89
  -8   8   0   24.51    0.76
   8   8   0   24.96    0.79
  -8   8   0   25.43    0.73
  -8  -8   0   25.81    0.91
   8  -8   0   24.64    0.84
  -8  -8   0   25.53    0.91
   8  -8   0   25.78    0.77
   8  -8   0   26.44    0.78
  -8  -8   0   25.87    0.78
  -8  -8   0   26.40    0.85
   8   9  -6   37.57    1.15
  -8   9   6   34.26    0.97
   8   9  -6   34.77    1.05
   8   9  -6   34.40    1.09
   8   9  -6   35.52    0.95
   8  -9  -6   33.17    0.89
   8  -9  -6   34.97    0.93
   8  -9  -6   34.75    0.92
   8  -9  -6   34.95    0.98
   8  -9  -6   36.53    1.05
   8   9  -5    2.65    0.34
  -8   9   5    2.94    0.33
   8   9  -5    2.56    0.36
   8   9  -5    2.76    0.41
   8   9  -5    2.68    0.39
  -8   9   5    2.60    0.34
  -8   9   5    2.79    0.33
   8  -9  -5    2.90    0.33
   8  -9  -5    2.07    0.36
   8  -9  -5    2.85    0.33
   8  -9  -5    2.58    0.38
   8  -9  -5    2.98    0.32
  -8   9   4   30.12    0.89
   8   9  -4   29.21    0.85
  -8   9   4   28.30    0.80
  -8   9   4   28.99    0.85
   8   9  -4   29.58    0.93
   8  -9  -4   28.35    0.90
   8  -9  -4   27.55    0.82
   8  -9  -4   28.59    0.77
   8  -9  -4   28.83    0.82
  -8   9   3    0.13    0.26
  -8   9   3   -0.36    0.25
  -8   9   3    0.13    0.25
   8   9  -3    0.18    0.30
   8   9  -3    0.32    0.29
   8  -9  -3   -0.15    0.29
   8  -9  -3   -0.11    0.32
   8  -9  -3    0.33    0.29
   8  -9  -3    0.27    0.27
  -8   9   2    0.39    0.25
   8   9  -2    0.50    0.31
  -8   9   2    0.02    0.28
  -8   9   2    0.79    0.28
   8  -9  -2    0.59    0.28
  -8  -9   2    0.29    0.28
   8  -9  -2    0.23    0.30
   8  -9  -2    0.25    0.26
  -8  -9   2    0.60    0.28
  -8  -9   2    0.37    0.30
   8  -9  -2    0.48    0.32
  -8   9   1    1.68    0.29
  -8   9   1    2.07    0.34
  -8   9   1    1.78    0.29
   8   9  -1    1.77    0.34
   8  -9  -1    1.63    0.34
   8  -9  -1    1.94    0.37
  -8  -9   1    2.04    0.31
  -8  -9   1    1.23    0.31
   8  -9  -1    1.75    0.32
  -8  -9   1    1.78    0.35
  -8   9   0   10.87    0.53
   8   9   0   11.60    0.58
  -8   9   0   10.27    0.56
   8  -9   0   10.86    0.58
  -8  -9   0   11.38    0.68
  -8  -9   0   10.75    0.58
   8  -9   0   12.70    0.61
  -8  -9   0   10.61    0.63
   8  -9   0   11.46    0.62
  -8  10   5    4.26    0.41
   8  10  -5    4.93    0.41
  -8  10   5    4.16    0.41
   8  10  -5    4.60    0.47
  -8  10   5    4.09    0.39
   8 -10  -5    4.39    0.39
   8 -10  -5    4.04    0.38
   8 -10  -5    4.45    0.38
   8 -10  -5    4.76    0.46
  -8  10   4    2.85    0.38
  -8  10   4    3.00    0.38
   8  10  -4    2.59    0.37
  -8  10   4    2.20    0.34
   8  10  -4    2.98    0.40
   8 -10  -4    2.63    0.36
   8 -10  -4    2.44    0.33
   8 -10  -4    3.06    0.42
   8 -10  -4    2.60    0.35
   8  10  -3   25.33    0.86
  -8  10   3   25.27    0.80
  -8  10   3   25.81    0.82
  -8  10   3   25.24    0.85
   8 -10  -3   25.50    0.90
   8 -10  -3   25.79    0.81
   8 -10  -3   24.70    0.74
   8 -10  -3   25.70    0.81
  -8  10   2   13.49    0.62
  -8  10   2   12.93    0.59
   8  10  -2   12.66    0.61
  -8  10   2   12.72    0.62
   8  10  -2   12.86    0.63
   8 -10  -2   12.24    0.58
   8 -10  -2   12.44    0.63
   8 -10  -2   12.95    0.63
  -8 -10   2   12.14    0.63
  -8 -10   2   12.55    0.69
   8 -10  -2   12.69    0.56
   9   0  -8   13.88    0.61
   9   0  -8   13.44    0.52
   9   0  -8   13.02    0.56
   9   0  -8   12.42    0.65
   9   0  -8   13.13    0.61
   9   0  -7   -0.18    0.23
   9   0  -7    0.13    0.26
   9   0  -7    0.70    0.25
   9   0  -7    0.04    0.28
   9   0  -7   -0.07    0.27
   9   0  -7   -0.26    0.25
   9   0  -6   68.88    1.48
   9   0  -6   69.15    1.63
   9   0  -6   66.79    1.38
   9   0  -6   67.71    1.41
   9   0  -6   68.24    1.64
  -9   0   5    0.07    0.26
  -9   0   5   -0.06    0.24
   9   0  -5    0.04    0.23
  -9   0   5    0.30    0.29
   9   0  -5   -0.23    0.19
   9   0  -5   -0.12    0.24
   9   0  -5    0.10    0.21
   9   0  -4   46.22    1.37
  -9   0   4   47.23    1.05
  -9   0   4   46.38    1.21
   9   0  -4   46.33    1.17
   9   0  -4   45.53    1.02
   9   0  -4   45.89    1.06
  -9   0   4   45.05    1.21
  -9   0   4   47.02    1.12
  -9   0   4   47.17    1.45
   9   0  -4   47.30    0.98
   9   0  -3    0.03    0.25
  -9   0   3    0.43    0.27
   9   0  -3    0.02    0.21
  -9   0   3   -0.17    0.22
  -9   0   3   -0.17    0.21
   9   0  -3    0.36    0.27
  -9   0   3   -0.10    0.24
  -9   0   2    7.87    0.47
   9   0  -2    7.31    0.40
  -9   0   2    7.15    0.44
   9   0  -2    7.41    0.41
  -9   0   2    7.95    0.38
  -9   0   2    7.42    0.47
   9   0  -1   -0.35    0.23
   9   0  -1    0.10    0.22
  -9   0   1   -0.14    0.23
  -9   0   1   -0.02    0.28
  -9   0   1    0.06    0.25
  -9   0   1    0.05    0.22
  -9   0   0    3.44    0.29
   9   0   0    3.62    0.32
  -9   0   0    3.69    0.40
  -9   0   0    2.93    0.30
  -9   0   0    3.55    0.33
  -9   0  -1    0.12    0.25
  -9   0  -1    0.03    0.24
  -9   0  -1   -0.30    0.26
  -9   0  -1   -0.05    0.32
   9   1  -8   16.89    0.62
   9   1  -8   18.04    0.71
   9   1  -8   17.54    0.74
   9   1  -8   19.20    0.73
   9   1  -8   17.29    0.60
   9  -1  -8   19.01    0.70
   9  -1  -8   18.26    0.60
   9  -1  -8   17.86    0.71
   9  -1  -8   18.45    0.63
   9  -1  -8   18.39    0.60
   9  -1  -8   18.63    0.74
   9   1  -7    4.98    0.36
   9   1  -7    5.27    0.39
   9   1  -7    4.80    0.39
   9   1  -7    5.38    0.34
   9   1  -7    4.85    0.41
   9  -1  -7    5.89    0.45
   9  -1  -7    5.55    0.40
   9  -1  -7    5.51    0.38
   9  -1  -7    5.59    0.37
   9  -1  -7    5.22    0.35
   9   1  -6    0.85    0.25
   9   1  -6    0.55    0.25
   9   1  -6    0.54    0.29
   9   1  -6    0.53    0.22
   9   1  -6    0.29    0.25
   9  -1  -6    0.43    0.26
   9  -1  -6    0.58    0.23
   9  -1  -6    0.69    0.26
   9  -1  -6    0.65    0.24
   9  -1  -6    0.58    0.25
  -9   1   5    0.16    0.23
   9   1  -5    0.36    0.27
  -9   1   5    0.38    0.25
   9   1  -5    0.61    0.24
   9   1  -5    0.57    0.25
   9   1  -5    0.50    0.24
  -9   1   5    0.56    0.29
   9   1  -5    0.40    0.21
   9  -1  -5    0.38    0.20
   9  -1  -5    0.15    0.26
  -9  -1   5    0.24    0.30
   9  -1  -5    0.39    0.25
   9  -1  -5    0.25    0.23
   9   1  -4   11.78    0.61
   9   1  -4   11.49    0.49
   9   1  -4   10.82    0.40
   9   1  -4   11.27    0.47
  -9   1   4   11.06    0.53
  -9   1   4   11.87    0.46
  -9   1   4   10.74    0.50
   9   1  -4   11.12    0.46
  -9   1   4   10.58    0.51
  -9  -1   4   11.22    0.45
   9  -1  -4   11.41    0.44
   9  -1  -4   10.30    0.39
  -9  -1   4   10.74    0.54
   9  -1  -4   10.95    0.46
  -9  -1   4   11.19    0.64
   9  -1  -4   11.45    0.59
   9  -1  -4   11.55    0.51
  -9  -1   4   10.89    0.50
  -9   1   3   18.01    0.66
  -9   1   3   17.64    0.55
   9   1  -3   16.67    0.55
  -9   1   3   18.26    0.62
   9   1  -3   18.38    0.75
  -9   1   3   18.76    0.67
   9   1  -3   18.15    0.61
  -9  -1   3   18.79    0.67
  -9  -1   3   18.65    0.62
   9  -1  -3   18.77    0.75
  -9  -1   3   18.46    0.64
  -9  -1   3   18.22    0.56
   9  -1  -3   16.99    0.57
   9  -1  -3   18.29    0.61
   9   1  -2   28.63    0.73
  -9   1   2   29.09    0.75
  -9   1   2   28.38    0.87
  -9   1   2   29.16    0.89
  -9   1   2   29.86    0.81
   9   1  -2   28.23    0.82
  -9  -1   2   28.35    0.80
   9  -1  -2   31.09    0.75
  -9  -1   2   29.46    0.89
  -9  -1   2   29.50    0.75
   9  -1  -2   30.08    0.84
  -9  -1   2   29.66    0.88
   9   1  -1   32.62    0.78
  -9   1   1   30.43    0.79
  -9   1   1   32.47    0.87
  -9   1   1   31.80    0.97
  -9   1   1   32.78    0.93
   9   1  -1   31.42    0.89
  -9  -1   1   32.05    0.95
  -9  -1   1   31.30    0.80
   9  -1  -1   29.95    0.86
  -9  -1   1   31.67    0.87
  -9  -1   1   32.47    0.94
   9  -1  -1   29.81    0.77
  -9   1   0   37.98    1.05
  -9   1   0   36.84    0.98
  -9   1   0   37.52    0.91
  -9   1   0   38.81    1.11
  -9  -1   0   37.84    0.92
   9  -1   0   36.11    0.89
  -9  -1   0   39.10    0.99
  -9  -1   0   38.29    1.11
  -9  -1   0   37.32    1.06
  -9   1  -1   17.61    0.73
  -9   1  -1   15.96    0.67
  -9   1  -1   16.26    0.57
  -9   1  -1   16.24    0.62
  -9  -1  -1   16.82    0.64
  -9  -1  -1   16.56    0.71
  -9  -1  -1   16.35    0.67
  -9  -1  -1   17.05    0.58
   9   2  -8    0.38    0.26
   9   2  -8    0.38    0.26
   9   2  -8    0.20    0.30
   9   2  -8    0.32    0.30
   9   2  -8    0.64    0.33
   9   2  -8    0.91    0.34
   9  -2  -8    0.62    0.32
   9  -2  -8    0.78    0.26
   9  -2  -8    0.15    0.28
   9  -2  -8    0.33    0.28
   9  -2  -8   -0.13    0.28
   9  -2  -8    0.21    0.29
   9   2  -7   44.81    1.18
   9   2  -7   42.91    1.18
   9   2  -7   44.31    1.21
   9   2  -7   44.14    1.00
   9   2  -7   44.18    1.06
   9  -2  -7   45.31    1.02
   9  -2  -7   44.30    1.01
   9  -2  -7   45.02    1.18
   9  -2  -7   44.55    1.19
   9  -2  -7   44.24    1.07
   9   2  -6    0.81    0.30
   9   2  -6    1.46    0.28
   9   2  -6    0.80    0.26
   9   2  -6    1.60    0.25
   9  -2  -6    1.69    0.26
   9  -2  -6    1.12    0.27
   9  -2  -6    1.35    0.29
   9  -2  -6    1.31    0.25
  -9   2   5   79.57    1.74
  -9   2   5   76.82    2.21
   9   2  -5   78.82    1.65
  -9   2   5   73.58    1.89
   9   2  -5   80.14    1.60
   9   2  -5   76.12    1.83
   9   2  -5   79.52    1.81
   9   2  -5   80.00    1.55
   9  -2  -5   79.79    2.12
   9  -2  -5   77.91    1.81
   9  -2  -5   78.14    1.59
   9  -2  -5   79.14    1.66
   9  -2  -5   80.53    1.56
   9   2  -4    1.58    0.32
  -9   2   4    1.46    0.31
   9   2  -4    1.97    0.26
   9   2  -4    2.19    0.23
   9   2  -4    1.63    0.27
  -9   2   4    1.72    0.25
  -9   2   4    1.32    0.28
   9   2  -4    1.53    0.28
  -9   2   4    1.63    0.26
   9  -2  -4    1.59    0.27
  -9  -2   4    1.66    0.26
   9  -2  -4    1.71    0.23
  -9  -2   4    1.42    0.27
   9  -2  -4    1.98    0.33
   9  -2  -4    1.65    0.26
  -9  -2   4    1.84    0.25
  -9  -2   4    1.63    0.35
   9  -2  -4    1.40    0.29
   9   2  -3   45.24    1.03
  -9   2   3   47.16    1.06
  -9   2   3   47.27    1.24
   9   2  -3   45.35    1.17
  -9   2   3   45.72    1.21
  -9   2   3   44.63    1.12
   9   2  -3   46.03    1.36
   9  -2  -3   45.99    1.16
  -9  -2   3   44.71    1.20
   9  -2  -3   46.11    1.03
  -9  -2   3   46.73    1.13
  -9  -2   3   44.74    1.05
   9  -2  -3   48.73    1.42
  -9  -2   3   47.03    1.22
  -9   2   2    6.30    0.38
   9   2  -2    6.55    0.41
  -9   2   2    6.63    0.47
  -9   2   2    6.68    0.47
   9   2  -2    6.50    0.42
  -9   2   2    6.33    0.44
  -9  -2   2    6.84    0.48
  -9  -2   2    6.11    0.45
  -9  -2   2    6.43    0.44
   9  -2  -2    6.29    0.37
  -9  -2   2    6.22    0.39
   9  -2  -2    6.29    0.42
  -9   2   1    1.75    0.26
   9   2  -1    1.89    0.27
  -9   2   1    2.19    0.28
  -9   2   1    2.03    0.34
  -9   2   1    2.13    0.30
  -9  -2   1    2.21    0.27
   9  -2  -1    1.71    0.30
  -9  -2   1    1.97    0.28
   9  -2  -1    1.81    0.27
  -9  -2   1    1.78    0.32
  -9  -2   1    2.16    0.31
  -9   2   0    3.18    0.29
  -9   2   0    3.52    0.30
  -9   2   0    3.33    0.39
  -9   2   0    3.04    0.32
  -9  -2   0    3.76    0.39
   9  -2   0    3.28    0.30
  -9  -2   0    2.69    0.33
  -9  -2   0    3.05    0.30
  -9  -2   0    3.09    0.31
  -9   2  -1    8.19    0.57
  -9   2  -1    7.46    0.51
  -9   2  -1    7.22    0.42
  -9   2  -1    7.32    0.48
  -9  -2  -1    6.92    0.47
  -9  -2  -1    6.56    0.49
  -9  -2  -1    6.21    0.53
  -9  -2  -1    8.13    0.56
   9   3  -8    4.93    0.44
   9   3  -8    4.71    0.43
   9   3  -8    4.56    0.48
   9   3  -8    4.92    0.36
   9   3  -8    5.21    0.38
   9  -3  -8    4.88    0.41
   9  -3  -8    5.16    0.35
   9  -3  -8    4.43    0.37
   9  -3  -8    4.48    0.41
   9  -3  -8    5.27    0.37
   9   3  -7    5.39    0.37
   9   3  -7    5.28    0.43
   9   3  -7    5.57    0.40
   9   3  -7    6.22    0.44
   9   3  -7    5.43    0.42
   9   3  -7    6.67    0.51
   9  -3  -7    5.36    0.39
   9  -3  -7    6.44    0.47
   9  -3  -7    5.88    0.36
   9  -3  -7    6.16    0.49
   9  -3  -7    6.86    0.45
   9   3  -6   -0.14    0.24
   9   3  -6   -0.25    0.28
   9   3  -6    0.14    0.26
   9   3  -6   -0.05    0.22
   9  -3  -6   -0.43    0.23
   9  -3  -6   -0.21    0.26
   9  -3  -6   -0.08    0.28
   9  -3  -6    0.23    0.24
   9   3  -5    1.95    0.32
   9   3  -5    1.89    0.29
   9   3  -5    1.90    0.28
  -9   3   5    1.64    0.27
   9   3  -5    2.27    0.26
   9  -3  -5    2.00    0.26
   9  -3  -5    2.39    0.34
   9  -3  -5    2.43    0.27
   9  -3  -5    1.92    0.28
   9  -3  -5    2.05    0.30
  -9   3   4   19.35    0.72
   9   3  -4   20.82    0.79
   9   3  -4   19.96    0.63
  -9   3   4   18.94    0.66
   9   3  -4   20.02    0.68
  -9   3   4   20.03    0.61
   9  -3  -4   18.32    0.67
  -9  -3   4   20.59    0.71
   9  -3  -4   20.66    0.80
   9  -3  -4   19.84    0.57
   9  -3  -4   19.98    0.65
   9  -3  -4   20.65    0.61
  -9  -3   4   19.71    0.65
  -9  -3   4   18.65    0.84
  -9   3   3   31.20    0.80
  -9   3   3   30.86    0.85
   9   3  -3   30.93    0.87
   9   3  -3   31.71    1.03
  -9   3   3   31.46    0.95
  -9  -3   3   31.04    1.12
   9  -3  -3   30.99    0.88
  -9  -3   3   32.04    0.80
   9  -3  -3   31.85    0.79
  -9  -3   3   30.80    0.92
  -9  -3   3   29.17    0.89
  -9  -3   3   30.43    0.85
   9   3  -2   30.59    0.87
  -9   3   2   32.19    0.93
  -9   3   2   31.52    0.79
  -9   3   2   31.74    0.85
  -9   3   2   31.49    0.95
  -9  -3   2   30.43    0.81
   9  -3  -2   32.53    0.81
   9  -3  -2   30.43    0.89
  -9  -3   2   30.34    0.87
   9  -3  -2   30.71    0.79
  -9  -3   2   30.58    0.91
  -9  -3   2   31.72    0.94
  -9   3   1   39.59    0.96
  -9   3   1   41.85    1.03
  -9   3   1   42.77    1.11
  -9   3   1   38.86    1.12
   9  -3  -1   39.32    0.94
  -9  -3   1   38.40    1.11
  -9  -3   1   40.89    1.04
  -9  -3   1   39.66    0.97
   9  -3  -1   37.87    1.05
   9  -3  -1   40.91    0.96
  -9  -3   1   40.52    1.12
  -9   3   0    6.51    0.45
  -9   3   0    5.78    0.47
  -9   3   0    5.82    0.40
  -9   3   0    6.52    0.48
  -9  -3   0    5.70    0.46
  -9  -3   0    6.11    0.43
   9  -3   0    6.12    0.43
  -9  -3   0    6.27    0.47
  -9  -3   0    6.32    0.51
  -9   3  -1   15.12    0.54
  -9   3  -1   14.34    0.63
  -9   3  -1   14.49    0.68
  -9   3  -1   14.31    0.59
  -9  -3  -1   15.32    0.68
  -9  -3  -1   14.05    0.63
  -9  -3  -1   14.96    0.57
  -9  -3  -1   15.98    0.71
   9   4  -7    0.80    0.31
   9   4  -7    0.78    0.26
   9   4  -7    1.15    0.34
   9   4  -7    0.97    0.39
   9   4  -7    0.44    0.26
   9   4  -7    0.78    0.32
   9  -4  -7    0.68    0.29
   9  -4  -7    0.60    0.26
   9  -4  -7    0.73    0.26
   9  -4  -7    1.06    0.32
   9   4  -6   65.17    1.61
   9   4  -6   65.45    1.64
   9   4  -6   66.45    1.37
   9   4  -6   65.43    1.45
   9  -4  -6   66.98    1.39
   9  -4  -6   66.27    1.59
   9  -4  -6   65.36    1.47
   9  -4  -6   66.74    1.37
   9   4  -5    1.97    0.25
   9   4  -5    1.67    0.31
  -9   4   5    1.74    0.29
   9   4  -5    1.95    0.27
   9   4  -5    1.65    0.29
   9  -4  -5    1.96    0.36
   9  -4  -5    1.78    0.29
   9  -4  -5    1.80    0.25
   9  -4  -5    1.66    0.30
   9  -4  -5    2.03    0.28
   9   4  -4   51.74    1.31
  -9   4   4   54.09    1.40
   9   4  -4   53.48    1.59
  -9   4   4   51.17    1.25
   9   4  -4   52.14    1.19
  -9   4   4   50.47    1.16
   9   4  -4   50.86    1.30
   9  -4  -4   51.65    1.16
   9  -4  -4   52.79    1.31
  -9  -4   4   51.98    1.25
  -9  -4   4   51.75    1.35
   9  -4  -4   51.89    1.15
   9  -4  -4   50.94    1.09
   9   4  -3    0.09    0.25
  -9   4   3    0.38    0.31
  -9   4   3    0.26    0.23
   9   4  -3    0.55    0.25
  -9   4   3   -0.03    0.23
   9  -4  -3    0.28    0.25
  -9  -4   3    0.40    0.25
   9  -4  -3    0.20    0.24
  -9  -4   3    0.11    0.31
   9  -4  -3    0.20    0.26
  -9  -4   3    0.27    0.24
  -9  -4   3   -0.05    0.27
  -9   4   2    2.89    0.27
  -9   4   2    3.28    0.38
  -9   4   2    2.89    0.29
   9   4  -2    2.22    0.31
  -9  -4   2    2.31    0.29
   9  -4  -2    1.94    0.29
   9  -4  -2    2.57    0.29
  -9  -4   2    2.62    0.32
  -9  -4   2    2.73    0.29
   9  -4  -2    2.49    0.32
  -9  -4   2    2.41    0.32
  -9   4   1    0.86    0.26
  -9   4   1    0.58    0.24
  -9   4   1    1.02    0.31
  -9   4   1    0.92    0.24
  -9  -4   1    0.95    0.26
  -9  -4   1    0.93    0.27
  -9  -4   1    1.48    0.33
   9  -4  -1    0.70    0.27
   9  -4  -1    1.12    0.27
   9  -4  -1    1.01    0.29
  -9  -4   1    1.35    0.30
  -9   4   0    4.64    0.37
  -9   4   0    4.39    0.33
  -9   4   0    4.39    0.33
  -9   4   0    4.93    0.42
  -9  -4   0    3.88    0.36
  -9  -4   0    3.90    0.39
  -9  -4   0    4.10    0.43
   9  -4   0    4.82    0.35
   9  -4   0    4.56    0.36
  -9  -4   0    4.58    0.34
   9   5  -7    0.99    0.42
   9   5  -7    1.37    0.35
   9   5  -7    1.26    0.33
   9   5  -7    1.58    0.34
   9   5  -7    1.35    0.29
   9  -5  -7    1.61    0.32
   9  -5  -7    1.18    0.33
   9  -5  -7    1.35    0.28
   9  -5  -7    2.15    0.30
   9   5  -6    1.67    0.33
   9   5  -6    1.84    0.29
   9   5  -6    1.70    0.33
   9  -5  -6    1.60    0.32
   9  -5  -6    1.36    0.27
   9  -5  -6    1.81    0.31
   9  -5  -6    1.69    0.27
  -9   5   5    0.19    0.22
   9   5  -5    0.15    0.25
   9   5  -5    0.49    0.29
  -9   5   5    0.37    0.24
  -9   5   5    0.44    0.25
   9   5  -5    0.24    0.27
   9  -5  -5    0.38    0.31
   9  -5  -5    0.70    0.26
   9  -5  -5    0.71    0.28
   9  -5  -5    0.56    0.25
   9  -5  -5    0.63    0.25
  -9   5   4   13.46    0.52
   9   5  -4   13.15    0.52
   9   5  -4   13.70    0.56
  -9   5   4   13.26    0.51
  -9   5   4   13.32    0.66
  -9   5   4   12.97    0.57
   9   5  -4   12.94    0.59
   9  -5  -4   13.71    0.49
   9  -5  -4   13.63    0.51
   9  -5  -4   14.01    0.58
   9  -5  -4   13.14    0.53
   9   5  -3    9.43    0.49
  -9   5   3    8.48    0.45
   9   5  -3    7.82    0.45
  -9   5   3    8.71    0.55
  -9   5   3    9.71    0.51
   9  -5  -3    8.85    0.44
   9  -5  -3    9.02    0.50
  -9  -5   3    8.75    0.50
  -9  -5   3    9.57    0.55
  -9  -5   3    7.62    0.42
   9  -5  -3    8.46    0.47
  -9   5   2   30.70    0.96
   9   5  -2   29.69    0.88
  -9   5   2   31.88    0.88
  -9   5   2   30.62    0.82
   9  -5  -2   32.16    0.82
   9  -5  -2   30.32    0.89
   9  -5  -2   30.64    0.81
  -9  -5   2   30.78    0.83
  -9  -5   2   31.71    0.97
  -9  -5   2   31.44    0.94
  -9  -5   2   32.18    0.90
  -9   5   1   15.24    0.59
  -9   5   1   16.23    0.55
  -9   5   1   15.86    0.66
  -9  -5   1   15.80    0.66
   9  -5  -1   16.69    0.59
  -9  -5   1   15.93    0.59
   9  -5  -1   15.22    0.63
   9  -5  -1   15.73    0.59
  -9  -5   1   15.96    0.65
  -9  -5   1   16.23    0.69
  -9   5   0   22.52    0.77
  -9   5   0   21.55    0.67
   9   5   0   21.68    0.72
  -9   5   0   21.76    0.81
  -9   5   0   21.69    0.71
   9  -5   0   23.35    0.72
  -9  -5   0   22.95    0.77
   9  -5   0   21.59    0.69
   9  -5   0   20.73    0.74
  -9  -5   0   22.32    0.69
  -9  -5   0   22.34    0.82
  -9  -5   0   23.63    0.83
   9  -6  -7   22.58    0.80
   9  -6  -7   23.51    0.70
   9   6  -6    6.18    0.46
   9   6  -6    6.12    0.46
   9   6  -6    5.88    0.42
   9  -6  -6    5.40    0.37
   9  -6  -6    5.88    0.40
   9  -6  -6    6.40    0.45
   9  -6  -6    5.83    0.38
   9  -6  -6    5.52    0.44
   9   6  -5   41.66    1.18
  -9   6   5   42.98    1.03
   9   6  -5   42.58    1.15
   9   6  -5   41.48    1.03
  -9   6   5   41.62    1.11
  -9   6   5   43.03    1.03
   9  -6  -5   42.13    0.97
   9  -6  -5   43.41    1.02
   9  -6  -5   42.10    1.15
   9  -6  -5   40.17    1.04
   9  -6  -5   41.71    0.99
  -9   6   4    5.98    0.43
  -9   6   4    5.84    0.37
  -9   6   4    6.09    0.40
   9   6  -4    6.14    0.47
   9   6  -4    6.48    0.45
   9   6  -4    6.20    0.51
   9  -6  -4    6.72    0.41
   9  -6  -4    5.18    0.37
   9  -6  -4    5.69    0.38
   9  -6  -4    5.93    0.47
  -9   6   3   19.87    0.77
  -9   6   3   17.81    0.62
  -9   6   3   19.95    0.68
   9   6  -3   17.26    0.67
   9   6  -3   18.34    0.65
  -9  -6   3   18.71    0.63
   9  -6  -3   17.81    0.69
   9  -6  -3   19.54    0.64
   9  -6  -3   18.81    0.61
  -9  -6   3   18.46    0.73
  -9  -6   3   18.53    0.68
   9   6  -2    2.59    0.33
   9   6  -2    2.37    0.32
  -9   6   2    2.63    0.30
  -9   6   2    3.18    0.39
  -9   6   2    2.20    0.30
   9  -6  -2    2.74    0.32
   9  -6  -2    2.65    0.35
  -9  -6   2    2.39    0.31
  -9  -6   2    3.00    0.41
   9  -6  -2    2.76    0.32
  -9  -6   2    2.88    0.34
  -9  -6   2    2.84    0.36
  -9   6   1    0.35    0.33
  -9   6   1   -0.06    0.24
  -9   6   1    0.79    0.26
   9   6  -1    0.26    0.29
   9  -6  -1    0.40    0.31
  -9  -6   1    0.03    0.27
  -9  -6   1    0.40    0.28
  -9  -6   1    0.03    0.32
   9  -6  -1    0.55    0.30
  -9  -6   1    0.33    0.31
   9  -6  -1    0.79    0.29
   9   6   0    1.66    0.36
  -9   6   0    2.01    0.35
  -9   6   0    1.74    0.31
  -9   6   0    1.75    0.29
  -9  -6   0    1.74    0.32
   9  -6   0    1.63    0.33
   9  -6   0    1.82    0.34
   9  -6   0    2.05    0.34
   9   7  -6    0.19    0.31
   9   7  -6    0.52    0.33
   9   7  -6   -0.04    0.27
   9  -7  -6    0.34    0.28
   9  -7  -6    0.13    0.27
   9  -7  -6   -0.11    0.30
   9  -7  -6    0.07    0.29
   9  -7  -6    0.13    0.27
   9   7  -5    3.02    0.38
  -9   7   5    2.94    0.33
  -9   7   5    2.18    0.34
  -9   7   5    2.96    0.32
   9   7  -5    2.83    0.34
   9   7  -5    2.72    0.39
   9  -7  -5    2.74    0.33
   9  -7  -5    2.43    0.37
   9  -7  -5    2.82    0.32
   9  -7  -5    2.65    0.32
   9   7  -4    4.00    0.39
   9   7  -4    3.60    0.40
   9   7  -4    3.74    0.35
  -9   7   4    4.54    0.35
  -9   7   4    4.03    0.36
  -9   7   4    3.54    0.34
   9  -7  -4    4.11    0.42
   9  -7  -4    3.71    0.34
   9  -7  -4    3.41    0.35
   9  -7  -4    3.60    0.32
   9   7  -3   35.49    0.95
   9   7  -3   35.00    1.02
  -9   7   3   36.39    1.00
  -9   7   3   36.00    0.96
  -9   7   3   35.06    0.93
   9  -7  -3   36.62    0.91
   9  -7  -3   36.26    0.86
  -9  -7   3   36.01    1.09
   9  -7  -3   35.84    1.03
  -9  -7   3   36.03    1.01
   9  -7  -3   35.71    0.94
   9   7  -2    9.73    0.53
  -9   7   2   10.77    0.54
  -9   7   2   11.59    0.64
  -9   7   2   10.27    0.50
   9  -7  -2   10.35    0.50
  -9  -7   2   10.42    0.54
   9  -7  -2   10.97    0.54
  -9  -7   2    9.73    0.63
   9  -7  -2   10.58    0.58
  -9  -7   2   11.06    0.59
  -9   7   1   29.23    0.87
  -9   7   1   31.23    0.99
  -9   7   1   29.45    0.82
   9   7  -1   30.10    0.87
  -9  -7   1   30.06    0.93
   9  -7  -1   29.63    0.85
   9  -7  -1   29.55    0.91
  -9  -7   1   30.16    1.01
  -9  -7   1   29.34    0.98
   9  -7  -1   29.31    0.83
  -9  -7   1   28.79    0.85
  -9   8   5   10.09    0.53
  -9   8   5    9.20    0.53
   9   8  -5   10.42    0.61
   9   8  -5   10.13    0.66
   9   8  -5    9.37    0.52
  -9   8   5    9.73    0.58
   9  -8  -5   10.45    0.57
   9  -8  -5   10.79    0.53
   9  -8  -5    9.90    0.54
   9  -8  -5   10.18    0.55
   9   8  -4   25.19    0.79
   9   8  -4   23.21    0.84
   9   8  -4   24.81    0.90
  -9   8   4   25.13    0.77
  -9   8   4   25.38    0.79
  -9   8   4   26.58    0.84
   9  -8  -4   24.54    0.83
   9  -8  -4   24.36    0.77
   9  -8  -4   24.23    0.72
   9  -8  -4   24.41    0.76
   9   8  -3    1.41    0.34
   9   8  -3    1.17    0.34
  -9   8   3    1.38    0.31
  -9   8   3    0.89    0.31
  -9   8   3    1.68    0.33
   9  -8  -3    1.76    0.33
   9  -8  -3    1.57    0.36
   9  -8  -3    1.91    0.34
  -9  -8   3    1.12    0.32
  -9  -8   3    1.62    0.36
   9  -8  -3    1.67    0.30
  -9   8   2    5.90    0.40
  -9   8   2    5.78    0.42
  -9  -8   2    6.53    0.49
   9  -8  -2    4.95    0.42
  -9  -8   2    5.80    0.41
   9  -8  -2    6.12    0.43
  -9  -8   2    6.20    0.45
   9  -8  -2    5.00    0.46
  10   0  -7    0.40    0.33
  10   0  -7   -0.08    0.27
  10   0  -7   -0.04    0.29
  10   0  -7   -0.10    0.28
  10   0  -7    0.14    0.26
  10   0  -6    9.56    0.47
  10   0  -6   10.36    0.51
  10   0  -6    9.44    0.52
  10   0  -6    9.66    0.56
  10   0  -5   -0.10    0.26
  10   0  -5   -0.35    0.24
  10   0  -5    0.17    0.30
  10   0  -5    0.09    0.22
  10   0  -4    3.88    0.34
  10   0  -4    4.29    0.38
 -10   0   4    3.91    0.40
 -10   0   4    3.69    0.34
 -10   0   4    3.60    0.36
 -10   0   4    3.96    0.33
  10   0  -3    0.06    0.26
 -10   0   3    0.24    0.26
  10   0  -3    0.08    0.29
 -10   0   3    0.17    0.28
 -10   0   3    0.07    0.25
 -10   0   3   -0.38    0.29
  10   0  -2   48.93    1.09
  10   0  -2   45.07    1.22
 -10   0   2   48.12    1.30
 -10   0   2   48.44    1.20
 -10   0   2   47.87    1.31
 -10   0   2   47.20    1.12
 -10   0   1    0.03    0.26
 -10   0   1   -0.27    0.26
  10   0  -1    0.02    0.27
 -10   0   1    0.25    0.28
 -10   0   1    0.27    0.35
  10   1  -7   10.01    0.61
  10   1  -7    9.55    0.50
  10   1  -7    9.71    0.51
  10   1  -7    9.61    0.58
  10  -1  -7   10.22    0.52
  10  -1  -7   10.08    0.58
  10  -1  -7    8.68    0.54
  10  -1  -7    8.90    0.47
  10   1  -6   19.89    0.68
  10   1  -6   20.20    0.62
  10   1  -6   20.51    0.66
  10   1  -6   19.29    0.73
  10  -1  -6   19.57    0.68
  10  -1  -6   20.20    0.74
  10  -1  -6   20.61    0.65
  10  -1  -6   20.28    0.62
  10   1  -5   27.05    0.78
  10   1  -5   26.06    0.83
 -10   1   5   26.24    0.81
 -10   1   5   26.20    0.88
  10   1  -5   26.80    0.75
  10   1  -5   26.02    0.68
  10  -1  -5   25.46    0.84
  10  -1  -5   26.91    0.70
  10  -1  -5   26.53    0.73
  10  -1  -5   27.20    0.78
  10   1  -4   43.74    1.03
 -10   1   4   44.60    1.12
  10   1  -4   42.90    1.15
 -10   1   4   44.84    1.23
 -10   1   4   42.55    1.04
 -10   1   4   45.61    1.21
 -10  -1   4   43.41    1.12
 -10  -1   4   45.34    1.21
 -10  -1   4   43.02    1.05
  10  -1  -4   42.33    1.16
  10  -1  -4   42.89    1.01
 -10   1   3   25.89    0.86
  10   1  -3   25.26    0.72
 -10   1   3   25.81    0.86
  10   1  -3   24.30    0.80
 -10   1   3   24.05    0.73
 -10   1   3   24.42    0.79
 -10  -1   3   24.58    0.84
  10  -1  -3   24.84    0.72
 -10  -1   3   26.70    0.80
  10  -1  -3   23.12    0.79
 -10  -1   3   24.84    0.73
 -10  -1   3   27.32    0.87
  10   1  -2   11.75    0.53
  10   1  -2   11.54    0.56
 -10   1   2   13.07    0.53
 -10   1   2   12.42    0.58
 -10   1   2   13.25    0.63
  10  -1  -2   11.92    0.56
 -10  -1   2   12.66    0.63
 -10  -1   2   12.00    0.62
 -10  -1   2   12.68    0.59
  10  -1  -2   12.87    0.54
 -10  -1   2   12.75    0.54
 -10   1   1    7.54    0.47
 -10   1   1    7.69    0.57
 -10   1   1    7.85    0.51
 -10   1   1    7.34    0.54
  10   1  -1    6.79    0.46
 -10  -1   1    7.56    0.57
  10  -1  -1    7.52    0.47
 -10  -1   1    7.84    0.57
 -10  -1   1    7.19    0.53
 -10  -1   1    6.71    0.46
  10   2  -6    5.34    0.35
  10   2  -6    4.56    0.44
  10   2  -6    5.17    0.39
  10  -2  -6    4.77    0.39
  10  -2  -6    5.39    0.36
  10  -2  -6    5.38    0.38
  10  -2  -6    5.02    0.44
 -10   2   5    2.17    0.38
  10   2  -5    2.29    0.27
 -10   2   5    1.49    0.33
  10   2  -5    1.76    0.36
 -10   2   5    1.60    0.31
  10   2  -5    1.60    0.31
  10  -2  -5    1.84    0.35
  10  -2  -5    2.00    0.28
  10  -2  -5    2.05    0.31
  10  -2  -5    1.42    0.29
  10   2  -4   -0.01    0.25
 -10   2   4    0.20    0.26
 -10   2   4    0.00    0.26
  10   2  -4    0.29    0.28
 -10   2   4    0.39    0.33
 -10   2   4    0.01    0.28
  10   2  -4    0.09    0.27
 -10  -2   4    0.19    0.25
 -10  -2   4    0.02    0.25
 -10  -2   4   -0.26    0.27
  10  -2  -4    0.19    0.26
  10  -2  -4    0.95    0.32
  10   2  -3    7.29    0.47
 -10   2   3    8.02    0.54
 -10   2   3    7.27    0.54
 -10   2   3    6.59    0.46
 -10   2   3    7.37    0.50
  10   2  -3    7.17    0.47
 -10  -2   3    7.29    0.51
  10  -2  -3    7.88    0.51
 -10  -2   3    7.95    0.56
  10  -2  -3    7.14    0.44
 -10  -2   3    7.86    0.52
 -10  -2   3    7.06    0.45
 -10   2   2    3.56    0.41
  10   2  -2    2.91    0.35
 -10   2   2    2.63    0.35
 -10   2   2    3.15    0.33
  10   2  -2    2.97    0.33
 -10   2   2    2.26    0.31
 -10  -2   2    2.71    0.36
 -10  -2   2    2.67    0.39
  10  -2  -2    2.78    0.33
 -10  -2   2    3.19    0.35
  10  -2  -2    2.10    0.35
 -10  -2   2    2.63    0.31
 -10   2   1   31.37    0.85
  10   2  -1   30.27    0.81
 -10   2   1   33.05    1.03
  10  -2  -1   31.97    0.85
 -10  -2   1   31.96    0.97
 -10  -2   1   30.56    1.00
 -10  -2   1   30.17    0.85
 -10  -2   1   31.73    1.04
  10  -2  -1   29.66    0.91
  10   3  -6    7.92    0.45
  10   3  -6    7.10    0.49
  10   3  -6    7.77    0.50
  10   3  -6    7.26    0.55
  10  -3  -6    7.03    0.51
  10  -3  -6    8.10    0.49
  10  -3  -6    7.80    0.54
  10  -3  -6    7.46    0.46
 -10   3   5   23.87    0.87
  10   3  -5   22.88    0.71
 -10   3   5   23.25    0.78
  10   3  -5   22.73    0.80
  10   3  -5   22.53    0.65
 -10   3   5   24.27    0.85
  10  -3  -5   22.77    0.74
  10  -3  -5   24.24    0.81
  10  -3  -5   24.45    0.73
  10  -3  -5   22.84    0.64
 -10   3   4    3.64    0.34
  10   3  -4    3.78    0.40
 -10   3   4    3.33    0.37
 -10   3   4    3.43    0.33
 -10   3   4    4.65    0.45
  10   3  -4    3.27    0.33
 -10  -3   4    3.75    0.34
  10  -3  -4    4.16    0.34
 -10  -3   4    4.34    0.40
  10  -3  -4    3.44    0.39
 -10  -3   4    3.93    0.36
 -10   3   3   19.15    0.64
 -10   3   3   19.57    0.69
  10   3  -3   17.85    0.69
 -10   3   3   20.39    0.75
 -10   3   3   19.42    0.77
  10  -3  -3   19.08    0.70
 -10  -3   3   19.05    0.65
  10  -3  -3   19.19    0.65
 -10  -3   3   17.97    0.74
 -10  -3   3   19.77    0.71
 -10  -3   3   21.27    0.77
 -10   3   2    3.63    0.43
 -10   3   2    3.06    0.33
  10   3  -2    2.46    0.36
 -10   3   2    2.50    0.33
 -10   3   2    3.36    0.37
  10  -3  -2    2.85    0.33
 -10  -3   2    3.20    0.33
  10  -3  -2    3.73    0.39
 -10  -3   2    3.07    0.34
 -10  -3   2    3.85    0.41
 -10  -3   2    3.25    0.37
  10   4  -6    2.59    0.31
  10   4  -6    2.33    0.34
  10   4  -6    2.32    0.34
  10   4  -6    2.41    0.39
  10  -4  -6    2.59    0.36
  10  -4  -6    3.67    0.41
  10  -4  -6    3.12    0.33
  10  -4  -6    2.27    0.32
 -10   4   5   -0.08    0.28
 -10   4   5    0.49    0.28
  10   4  -5    0.54    0.33
  10   4  -5    0.45    0.28
  10  -4  -5    0.53    0.29
  10  -4  -5    0.91    0.32
  10  -4  -5    0.57    0.26
  10   4  -4    0.51    0.30
  10   4  -4    0.50    0.29
 -10   4   4    0.56    0.27
 -10   4   4    0.63    0.29
 -10   4   4    0.30    0.37
 -10  -4   4   -0.08    0.31
  10  -4  -4    0.38    0.29
 -10  -4   4    0.17    0.29
  10  -4  -4    0.19    0.34
  10   4  -3    0.00    0.29
 -10   4   3   -0.55    0.28
 -10   4   3   -0.10    0.35
 -10   4   3   -0.09    0.27
 -10   4   3    0.11    0.26
 -10  -4   3   -0.24    0.27
 -10  -4   3   -0.17    0.27
  10  -4  -3    0.03    0.29
 -10  -4   3    0.06    0.30
  10  -4  -3   -0.08    0.29
 -10   4   2   13.47    0.68
  10   4  -2   12.06    0.56
 -10   4   2   12.48    0.59
 -10   4   2   12.22    0.64
 -10   4   2   12.08    0.56
 -10  -4   2   12.58    0.66
  10  -4  -2   13.16    0.57
  10  -4  -2   11.81    0.59
 -10  -4   2   12.16    0.61
 -10  -4   2   13.34    0.67
 -10  -4   2   13.44    0.54
 -10   5   5   14.22    0.60
  10   5  -5   13.96    0.66
  10   5  -5   15.22    0.61
 -10   5   5   15.67    0.66
  10  -5  -5   14.72    0.53
  10  -5  -5   14.75    0.61
  10  -5  -5   13.95    0.63
  10   5  -4   29.58    0.94
  10   5  -4   29.96    0.87
 -10   5   4   30.07    0.85
 -10   5   4   30.91    0.92
 -10   5   4   33.34    1.07
  10  -5  -4   29.38    0.84
  10  -5  -4   30.98    0.85
  10  -5  -4   29.96    0.96
 -10   5   3   12.62    0.57
  10   5  -3   12.34    0.60
 -10   5   3   13.22    0.62
 -10   5   3   14.26    0.71
 -10  -5   3   13.77    0.63
  10  -5  -3   14.92    0.61
  10  -5  -3   14.23    0.61
 -10  -5   3   14.36    0.59
 -10  -5   3   13.55    0.68
  10  -5  -3   12.50    0.62
   0   0   0    0.00    0.00
;
_shelx_hkl_checksum              49935
_shelx_res_file
;
    AX0217.res created by SHELXL-2014/7
TITL AX0217_multiscan_m in P2(1)/c
CELL 0.71073 7.8821 11.7480 7.4169 90.000 113.906 90.000
ZERR 4.00 0.0002 0.0003 0.0002 0.000 0.001 0.000
LATT 1
SYMM -x, y+1/2, -z+1/2
SFAC C  H  N  Br
UNIT 24 12 8 4
OMIT 1   0   0
L.S. 14
ACTA
BOND $H
FMAP 2
PLAN -1
SIZE 0.216 0.393 0.434
HTAB
CONF
TEMP -123.130
WGHT    0.019800    0.304500
FVAR       0.22890
BR1   4    0.301448    0.367828    0.198529    11.00000    0.02029    0.02140 =
         0.02829   -0.00295    0.01069   -0.00458
C1    1    0.087903    0.162458    0.169727    11.00000    0.02330    0.02170 =
         0.02354    0.00022    0.00937    0.00231
C2    1    0.083893    0.280600    0.163058    11.00000    0.02190    0.02129 =
         0.02224   -0.00109    0.00865   -0.00095
C3    1   -0.081150    0.336234    0.132261    11.00000    0.02770    0.02110 =
         0.03136    0.00028    0.01043    0.00397
AFIX  43
H3    2   -0.088492    0.416967    0.127434    11.00000   -1.20000
AFIX   0
C4    1   -0.234360    0.270702    0.108848    11.00000    0.02260    0.03008 =
         0.03297    0.00154    0.01100    0.00532
AFIX  43
H4    2   -0.349880    0.305777    0.085987    11.00000   -1.20000
AFIX   0
C5    1   -0.217314    0.152952    0.119159    11.00000    0.02309    0.02782 =
         0.03543    0.00223    0.01212    0.00058
AFIX  43
H5    2   -0.323517    0.109004    0.103652    11.00000   -1.20000
AFIX   0
C6    1    0.257420    0.100011    0.204923    11.00000    0.02732    0.02383 =
         0.03198   -0.00170    0.01293    0.00170
N1    3   -0.059510    0.098296    0.149720    11.00000    0.02555    0.02325 =
         0.03620    0.00233    0.01358    0.00128
N2    3    0.390678    0.050122    0.236281    11.00000    0.03113    0.03539 =
         0.04848   -0.00396    0.01606    0.00775
HKLF 4 1 1 0 0 0 1 0 0 0 1
REM  AX0217_multiscan_m in P2(1)/c
REM R1 =  0.0160 for    1577 Fo > 4sig(Fo)  and  0.0169 for all    1637 data
REM     82 parameters refined using      0 restraints
END
WGHT      0.0198      0.3045
REM Instructions for potential hydrogen bonds
EQIV $1 -x, y+1/2, -z+1/2
HTAB C3 N1_$1
REM Highest difference peak  0.382,  deepest hole -0.373,  1-sigma level  0.076
Q1    1   0.3231  0.3140  0.2285  11.00000  0.05    0.38
;
_shelx_res_checksum              76548
loop_
_space_group_symop_operation_xyz
'x, y, z'
'-x, y+1/2, -z+1/2'
'-x, -y, -z'
'x, -y-1/2, z-1/2'
loop_
_atom_site_type_symbol
_atom_site_label
_atom_site_fract_x
_atom_site_fract_y
_atom_site_fract_z
_atom_site_U_iso_or_equiv
_atom_site_adp_type
_atom_site_calc_flag
_atom_site_occupancy
Br Br1 0.30145(2) 0.36783(2) 0.19853(2) 0.02306(6) Uani d 1
C C1 0.0879(2) 0.16246(12) 0.1697(2) 0.0229(3) Uani d 1
C C2 0.08389(19) 0.28060(12) 0.1631(2) 0.0219(3) Uani d 1
C C3 -0.0811(2) 0.33623(13) 0.1323(2) 0.0272(3) Uani d 1
H H3 -0.0885 0.4170 0.1274 0.033 Uiso calc 1
C C4 -0.2344(2) 0.27070(14) 0.1088(2) 0.0286(3) Uani d 1
H H4 -0.3499 0.3058 0.0860 0.034 Uiso calc 1
C C5 -0.2173(2) 0.15295(14) 0.1192(3) 0.0287(3) Uani d 1
H H5 -0.3235 0.1090 0.1037 0.034 Uiso calc 1
C C6 0.2574(2) 0.10001(14) 0.2049(2) 0.0274(3) Uani d 1
N N1 -0.05951(18) 0.09830(12) 0.1497(2) 0.0280(3) Uani d 1
N N2 0.3907(2) 0.05012(14) 0.2363(2) 0.0384(3) Uani d 1
loop_
_atom_site_aniso_label
_atom_site_aniso_U_11
_atom_site_aniso_U_22
_atom_site_aniso_U_33
_atom_site_aniso_U_12
_atom_site_aniso_U_13
_atom_site_aniso_U_23
Br1 0.02029(8) 0.02140(8) 0.02829(9) -0.00458(5) 0.01069(6) -0.00295(5)
C1 0.0233(6) 0.0217(6) 0.0235(7) 0.0023(5) 0.0094(5) 0.0002(5)
C2 0.0219(6) 0.0213(6) 0.0222(6) -0.0009(5) 0.0087(5) -0.0011(5)
C3 0.0277(7) 0.0211(6) 0.0314(8) 0.0040(5) 0.0104(6) 0.0003(6)
C4 0.0226(6) 0.0301(8) 0.0330(8) 0.0053(6) 0.0110(6) 0.0015(6)
C5 0.0231(7) 0.0278(7) 0.0354(8) 0.0006(6) 0.0121(6) 0.0022(6)
C6 0.0273(7) 0.0238(7) 0.0320(8) 0.0017(6) 0.0129(6) -0.0017(6)
N1 0.0255(6) 0.0233(6) 0.0362(7) 0.0013(5) 0.0136(5) 0.0023(5)
N2 0.0311(7) 0.0354(8) 0.0485(9) 0.0077(6) 0.0161(7) -0.0040(7)
loop_
_atom_type_symbol
_atom_type_description
_atom_type_scat_dispersion_real
_atom_type_scat_dispersion_imag
_atom_type_scat_source
C C 0.0033 0.0016 'International Tables Vol C Tables 4.2.6.8 and 6.1.1.4'
H H 0.0000 0.0000 'International Tables Vol C Tables 4.2.6.8 and 6.1.1.4'
N N 0.0061 0.0033 'International Tables Vol C Tables 4.2.6.8 and 6.1.1.4'
Br Br -0.2901 2.4595 'International Tables Vol C Tables 4.2.6.8 and 6.1.1.4'
loop_
_geom_angle_atom_site_label_1
_geom_angle_atom_site_label_2
_geom_angle_atom_site_label_3
_geom_angle
N1 C1 C2 123.46(14)
N1 C1 C6 115.37(13)
C2 C1 C6 121.15(14)
C1 C2 C3 118.83(13)
C1 C2 Br1 121.45(11)
C3 C2 Br1 119.71(11)
C4 C3 C2 118.08(14)
C4 C3 H3 121.0
C2 C3 H3 121.0
C3 C4 C5 119.18(14)
C3 C4 H4 120.4
C5 C4 H4 120.4
N1 C5 C4 123.44(15)
N1 C5 H5 118.3
C4 C5 H5 118.3
N2 C6 C1 178.55(19)
C5 N1 C1 117.00(14)
loop_
_geom_bond_atom_site_label_1
_geom_bond_atom_site_label_2
_geom_bond_distance
Br1 C2 1.9220(14)
C1 N1 1.3418(19)
C1 C2 1.389(2)
C1 C6 1.452(2)
C2 C3 1.390(2)
C3 C4 1.382(2)
C3 H3 0.9500
C4 C5 1.389(2)
C4 H4 0.9500
C5 N1 1.335(2)
C5 H5 0.9500
C6 N2 1.141(2)
loop_
_geom_torsion_atom_site_label_1
_geom_torsion_atom_site_label_2
_geom_torsion_atom_site_label_3
_geom_torsion_atom_site_label_4
_geom_torsion
N1 C1 C2 C3 -0.6(2)
C6 C1 C2 C3 -178.91(14)
N1 C1 C2 Br1 178.61(11)
C6 C1 C2 Br1 0.3(2)
C1 C2 C3 C4 -0.3(2)
Br1 C2 C3 C4 -179.52(12)
C2 C3 C4 C5 0.7(2)
C3 C4 C5 N1 -0.4(3)
C4 C5 N1 C1 -0.5(2)
C2 C1 N1 C5 1.0(2)
C6 C1 N1 C5 179.35(14)
