#------------------------------------------------------------------------------
#$Date: 2019-11-11 23:21:18 +0200 (Mon, 11 Nov 2019) $
#$Revision: 227431 $
#$URL: file:///home/coder/svn-repositories/cod/cif/1/55/27/1552799.cif $
#------------------------------------------------------------------------------
#
# This file is available in the Crystallography Open Database (COD),
# http://www.crystallography.net/
#
# All data on this site have been placed in the public domain by the
# contributors.
#
data_1552799
loop_
_publ_author_name
'Tu, Ting-Husn'
'Chen, Yi-Ting'
'Shen, Jiun-Yi'
'Lin, Ta-Chun'
'Chou, Pi-Tai'
_publ_section_title
;
 Excited-State Proton Transfer in 3-Cyano-7-azaindole: From Aqueous
 Solution to Ice.
;
_journal_issue                   9
_journal_name_full               'The journal of physical chemistry. A'
_journal_page_first              2479
_journal_page_last               2484
_journal_paper_doi               10.1021/acs.jpca.8b00379
_journal_volume                  122
_journal_year                    2018
_chemical_formula_sum            'C8 H5 N3'
_chemical_formula_weight         143.15
_space_group_crystal_system      triclinic
_space_group_IT_number           2
_space_group_name_Hall           '-P 1'
_space_group_name_H-M_alt        'P -1'
_atom_sites_solution_hydrogens   mixed
_audit_creation_method           SHELXL-2014/7
_cell_angle_alpha                104.868(3)
_cell_angle_beta                 96.052(3)
_cell_angle_gamma                96.718(3)
_cell_formula_units_Z            2
_cell_length_a                   3.8354(5)
_cell_length_b                   9.2168(12)
_cell_length_c                   9.8872(13)
_cell_measurement_reflns_used    1336
_cell_measurement_temperature    200(2)
_cell_measurement_theta_max      26.60
_cell_measurement_theta_min      2.31
_cell_volume                     332.14(8)
_computing_cell_refinement       'Bruker SAINT'
_computing_data_collection       'Bruker SMART'
_computing_data_reduction        'Bruker SAINT'
_computing_molecular_graphics    'Bruker SHELXTL'
_computing_publication_material  'Bruker SHELXTL'
_computing_structure_refinement  'SHELXL-2014/7 (Sheldrick, 2014)'
_computing_structure_solution    'SHELXS-97 (Sheldrick 2008)'
_diffrn_ambient_temperature      200(2)
_diffrn_measured_fraction_theta_full 1.000
_diffrn_measured_fraction_theta_max 0.999
_diffrn_measurement_device_type  'BRUKER SMART APEXCCD area detector'
_diffrn_measurement_method       '\f and \w scans'
_diffrn_radiation_type           MoK\a
_diffrn_radiation_wavelength     0.71073
_diffrn_reflns_av_R_equivalents  0.0262
_diffrn_reflns_av_unetI/netI     0.0298
_diffrn_reflns_Laue_measured_fraction_full 1.000
_diffrn_reflns_Laue_measured_fraction_max 0.999
_diffrn_reflns_limit_h_max       4
_diffrn_reflns_limit_h_min       -4
_diffrn_reflns_limit_k_max       11
_diffrn_reflns_limit_k_min       -11
_diffrn_reflns_limit_l_max       12
_diffrn_reflns_limit_l_min       -12
_diffrn_reflns_number            4305
_diffrn_reflns_point_group_measured_fraction_full 1.000
_diffrn_reflns_point_group_measured_fraction_max 0.999
_diffrn_reflns_theta_full        25.242
_diffrn_reflns_theta_max         27.499
_diffrn_reflns_theta_min         2.153
_exptl_absorpt_coefficient_mu    0.093
_exptl_absorpt_correction_T_max  0.7654
_exptl_absorpt_correction_T_min  0.6674
_exptl_absorpt_correction_type   multi-scan
_exptl_absorpt_process_details   SADABS
_exptl_crystal_colour            colorless
_exptl_crystal_density_diffrn    1.431
_exptl_crystal_description       plate
_exptl_crystal_F_000             148
_exptl_crystal_size_max          0.500
_exptl_crystal_size_mid          0.270
_exptl_crystal_size_min          0.080
_refine_diff_density_max         0.216
_refine_diff_density_min         -0.250
_refine_diff_density_rms         0.058
_refine_ls_extinction_method     none
_refine_ls_goodness_of_fit_ref   1.057
_refine_ls_hydrogen_treatment    constr
_refine_ls_matrix_type           full
_refine_ls_number_parameters     100
_refine_ls_number_reflns         1510
_refine_ls_number_restraints     0
_refine_ls_restrained_S_all      1.057
_refine_ls_R_factor_all          0.0491
_refine_ls_R_factor_gt           0.0427
_refine_ls_shift/su_max          0.000
_refine_ls_shift/su_mean         0.000
_refine_ls_structure_factor_coef Fsqd
_refine_ls_weighting_details
'w=1/[\s^2^(Fo^2^)+(0.0618P)^2^+0.0568P] where P=(Fo^2^+2Fc^2^)/3'
_refine_ls_weighting_scheme      calc
_refine_ls_wR_factor_gt          0.1098
_refine_ls_wR_factor_ref         0.1146
_reflns_Friedel_coverage         0.000
_reflns_number_gt                1309
_reflns_number_total             1510
_reflns_threshold_expression     'I > 2\s(I)'
_cod_data_source_file            jp8b00379_si_002.cif
_cod_data_source_block           ic16994
_cod_database_code               1552799
_shelx_shelxl_version_number     2014/7
_shelx_space_group_comment
; 
The symmetry employed for this shelxl refinement is uniquely defined 
by the following loop, which should always be used as a source of 
symmetry information in preference to the above space-group names. 
They are only intended as comments. 
;
_shelx_estimated_absorpt_t_min   0.955
_shelx_estimated_absorpt_t_max   0.993
_shelx_res_file
; 
  
    ic16994.res created by SHELXL-2014/7 
  
  
TITL ic16994 in P-1 
CELL 0.71073   3.83540   9.21680   9.88720 104.8680  96.0516  96.7180 
ZERR    2.00   0.00050   0.00120   0.00130   0.0025   0.0028   0.0027 
LATT 1 
SFAC C  H  N 
UNIT 16 10 6 
OMIT  -3.00  55.00 
L.S. 4 
ACTA 
BOND 
SIZE 0.50 0.27 0.08 
FMAP 2 
PLAN 20 
EQIV $1 -x, -y+1, -z 
HTAB N1 N7_$1 
EQIV $2 -x+2, -y+2, -z 
HTAB C7 N2_$2 
TEMP -73 
WGHT    0.061800    0.056800 
FVAR       0.43545 
N1    3    0.325656    0.673478    0.027035    11.00000    0.03341    0.02602 = 
         0.02342    0.00438    0.00167   -0.00051 
AFIX   3 
H1    2    0.202426    0.605698   -0.050515    11.00000   -1.20000 
AFIX   0 
N2    3    1.048637    1.143780    0.253669    11.00000    0.04344    0.03429 = 
         0.03799    0.00913    0.00140   -0.00687 
N7    3    0.148665    0.544778    0.196860    11.00000    0.03062    0.02554 = 
         0.02904    0.00705    0.00391    0.00063 
C1    1    0.189899    0.556022    0.335497    11.00000    0.03378    0.03160 = 
         0.03053    0.01260    0.00632    0.00141 
AFIX  43 
H1A   2    0.075433    0.475299    0.365870    11.00000   -1.20000 
AFIX   0 
C2    1    0.390714    0.679036    0.438255    11.00000    0.03573    0.03662 = 
         0.02519    0.01030    0.00400    0.00430 
AFIX  43 
H2A   2    0.408639    0.679993    0.535057    11.00000   -1.20000 
AFIX   0 
C3    1    0.562947    0.798994    0.400040    11.00000    0.02868    0.02952 = 
         0.02550    0.00404    0.00046    0.00246 
AFIX  43 
H3    2    0.698967    0.883774    0.468841    11.00000   -1.20000 
AFIX   0 
C4    1    0.529905    0.791140    0.256671    11.00000    0.02376    0.02371 = 
         0.02690    0.00611    0.00259    0.00398 
C5    1    0.320693    0.661465    0.162464    11.00000    0.02540    0.02369 = 
         0.02603    0.00602    0.00355    0.00469 
C6    1    0.659563    0.882379    0.169710    11.00000    0.02588    0.02561 = 
         0.02896    0.00841    0.00243    0.00274 
C7    1    0.527943    0.805789    0.031807    11.00000    0.03080    0.02838 = 
         0.02807    0.00976    0.00388    0.00280 
AFIX  43 
H7    2    0.572308    0.840517   -0.048187    11.00000   -1.20000 
AFIX   0 
C8    1    0.877500    1.026542    0.215996    11.00000    0.03034    0.03004 = 
         0.02763    0.01009    0.00232    0.00231 
  
HKLF 4 
  
REM  ic16994 in P-1 
REM R1 =  0.0427 for    1309 Fo > 4sig(Fo)  and  0.0491 for all    1510 data 
REM    100 parameters refined using      0 restraints 
  
END 
  
WGHT      0.0618      0.0568 
  
REM Highest difference peak  0.216,  deepest hole -0.250,  1-sigma level  0.058 
Q1    1   0.5036  0.8750  0.1057  11.00000  0.05    0.22 
Q2    1   0.3719  0.7584  0.4240  11.00000  0.05    0.17 
Q3    1   0.8720  1.1063  0.2822  11.00000  0.05    0.16 
Q4    1   0.3723  0.7378  0.2174  11.00000  0.05    0.16 
Q5    1   0.6973  0.8257  0.0977  11.00000  0.05    0.14 
Q6    1   0.6491  0.8402  0.2217  11.00000  0.05    0.14 
Q7    1   0.7403  0.6185  0.0393  11.00000  0.05    0.13 
Q8    1   0.1830  0.8413  0.3618  11.00000  0.05    0.13 
Q9    1   0.4800  0.5550 -0.1643  11.00000  0.05    0.13 
Q10   1   0.4584  0.8163  0.3269  11.00000  0.05    0.12 
Q11   1   0.2167  0.6499  0.3965  11.00000  0.05    0.12 
Q12   1   0.5624  0.5342 -0.0864  11.00000  0.05    0.12 
Q13   1   0.0982  0.7485  0.5549  11.00000  0.05    0.12 
Q14   1   0.3230  0.9241  0.3197  11.00000  0.05    0.12 
Q15   1   0.1260  0.8017  0.4134  11.00000  0.05    0.12 
Q16   1   1.0586  1.2332  0.3434  11.00000  0.05    0.12 
Q17   1  -0.3406  0.5171  0.3658  11.00000  0.05    0.12 
Q18   1  -0.2245  0.5748  0.3119  11.00000  0.05    0.12 
Q19   1   0.9877  0.7797 -0.0574  11.00000  0.05    0.12 
Q20   1   0.4425  0.9491  0.5167  11.00000  0.05    0.11 
;
_shelx_res_checksum              63021
_shelx_hkl_file
; 
  -1   0   0   81.46    2.49 
  -1   0   0   79.34    2.46 
   1   0   0   80.44    2.50 
   1   0   0   80.16    2.30 
  -2   0   0    3.50    0.22 
   2   0   0    3.92    0.23 
  -2   0   0    3.44    0.17 
   2   0   0    3.76    0.18 
   3   0   0    0.52    0.09 
   3   0   0    0.24    0.09 
  -3   0   0    0.45    0.11 
  -4   0   0    2.57    0.29 
   4   0   0    2.63    0.30 
  -4   1   0    1.12    0.19 
   4  -1   0    1.39    0.22 
   3  -1   0    9.53    0.49 
  -3   1   0    9.71    0.48 
   3  -1   0   10.31    0.38 
  -3   1   0   10.79    0.43 
  -2   1   0   34.22    1.15 
  -2   1   0   35.46    1.18 
   2  -1   0   34.82    1.20 
   2  -1   0   34.69    1.04 
  -1   1   0   42.97    1.35 
  -1   1   0   42.95    1.37 
   1  -1   0   43.39    1.37 
   1  -1   0   42.71    1.24 
   0   1   0    3.03    0.11 
   0  -1   0    3.22    0.11 
   0   1   0    3.23    0.12 
   1   1   0   14.99    0.49 
  -1  -1   0   15.05    0.53 
  -1  -1   0   15.42    0.49 
   1   1   0   15.61    0.48 
  -1  -1   0   15.01    0.54 
   2   1   0   24.01    0.87 
  -2  -1   0   23.32    0.86 
   2   1   0   23.94    0.77 
  -2  -1   0   23.38    0.77 
   3   1   0    3.23    0.28 
  -3  -1   0    3.43    0.29 
   3   1   0    3.40    0.21 
   4   1   0    3.67    0.35 
  -4  -1   0    3.33    0.34 
  -4   2   0    1.00    0.18 
   4  -2   0    1.18    0.21 
  -3   2   0    0.02    0.05 
   3  -2   0    0.05    0.07 
  -3   2   0    0.06    0.06 
   2  -2   0  124.65    3.90 
  -2   2   0  126.44    3.85 
   2  -2   0  122.16    3.55 
  -2   2   0  125.48    3.92 
   1  -2   0  875.35   28.36 
  -1   2   0  955.65   28.01 
  -1   2   0  933.30   26.51 
  -1   2   0 1000.00   28.75 
   0  -2   0   47.25    1.46 
   0  -2   0   48.13    1.46 
   0   2   0   46.90    1.38 
   0   2   0   47.24    1.49 
  -1  -2   0    0.61    0.03 
  -1  -2   0    0.65    0.08 
  -1  -2   0    0.51    0.07 
   1   2   0    0.56    0.07 
  -2  -2   0    0.12    0.05 
  -2  -2   0    0.04    0.06 
   2   2   0    0.15    0.06 
   3   2   0   18.05    0.78 
  -3  -2   0   18.47    0.78 
   3   2   0   18.54    0.69 
   4   2   0    4.71    0.29 
   4   2   0    4.42    0.39 
  -4  -2   0    4.31    0.39 
  -4   3   0    0.40    0.12 
   4  -3   0    0.62    0.17 
  -3   3   0    8.93    0.44 
  -3   3   0    9.12    0.45 
   3  -3   0   10.07    0.48 
  -2   3   0   94.22    3.04 
   2  -3   0   93.85    2.71 
   2  -3   0   98.06    3.01 
  -2   3   0   93.40    2.97 
  -1   3   0   18.61    0.57 
  -1   3   0   18.48    0.67 
   1  -3   0   18.98    0.63 
   1  -3   0   18.53    0.65 
   0   3   0   26.54    0.84 
   0  -3   0   28.30    0.89 
   0   3   0   27.12    0.90 
   0  -3   0   26.73    0.85 
  -1  -3   0    4.38    0.22 
   1   3   0    4.53    0.17 
  -1  -3   0    4.69    0.23 
  -2  -3   0    5.23    0.29 
   2   3   0    5.35    0.28 
  -2  -3   0    4.93    0.29 
   3   3   0   19.47    0.74 
   3   3   0   19.68    0.83 
  -3  -3   0   19.09    0.83 
  -4  -3   0   16.42    0.83 
   4   3   0   16.61    0.83 
   4   3   0   19.97    0.76 
   4  -4   0    0.12    0.10 
  -4   4   0    0.02    0.08 
  -4   4   0    0.15    0.11 
  -3   4   0   63.29    2.15 
   3  -4   0   67.43    2.19 
  -3   4   0   64.04    2.19 
  -2   4   0   87.46    2.81 
  -2   4   0   82.15    2.72 
  -2   4   0   87.71    2.47 
   2  -4   0   87.78    2.74 
   1  -4   0   11.36    0.41 
  -1   4   0   11.15    0.47 
   1  -4   0   11.42    0.44 
  -1   4   0   11.88    0.38 
   0   4   0    8.37    0.32 
   0  -4   0    8.32    0.34 
   0  -4   0    8.36    0.29 
   0   4   0    7.78    0.33 
   1   4   0   16.76    0.56 
  -1  -4   0   16.35    0.60 
   1   4   0   15.72    0.59 
  -1  -4   0   17.55    0.63 
   2   4   0   23.76    0.85 
  -2  -4   0   24.32    0.90 
  -2  -4   0   23.07    0.90 
   3   4   0    1.44    0.19 
  -3  -4   0    1.14    0.19 
   3   4   0    1.45    0.21 
   4   4   0    0.48    0.14 
  -4  -4   0    0.41    0.14 
   4   4   0    0.38    0.14 
   4  -5   0    7.08    0.44 
  -4   5   0    7.98    0.45 
  -4   5   0    6.84    0.44 
  -3   5   0   32.64    1.22 
  -3   5   0   32.05    1.20 
   3  -5   0   32.75    1.19 
   2  -5   0    3.13    0.19 
  -2   5   0    3.36    0.15 
  -2   5   0    3.22    0.23 
   2  -5   0    3.36    0.23 
   1  -5   0   15.67    0.53 
  -1   5   0   15.43    0.51 
  -1   5   0   14.60    0.60 
   1  -5   0   14.25    0.57 
   0  -5   0    0.48    0.06 
   0  -5   0    0.49    0.09 
   0   5   0    0.37    0.07 
   0   5   0    0.63    0.09 
  -1  -5   0    0.03    0.04 
  -1  -5   0    0.10    0.05 
   1   5   0    0.06    0.04 
   1   5   0    0.00    0.04 
   2   5   0   79.40    2.39 
  -2  -5   0   70.62    2.51 
  -2  -5   0   81.71    2.54 
   3   5   0    9.19    0.47 
  -3  -5   0    8.34    0.50 
   3   5   0    9.19    0.51 
   4   5   0    0.14    0.14 
   4   5   0    0.26    0.13 
  -4  -5   0    0.25    0.14 
   4  -6   0   12.41    0.61 
  -4   6   0   12.71    0.64 
  -4   6   0   11.92    0.63 
   3  -6   0    7.76    0.40 
  -3   6   0    8.42    0.47 
   3  -6   0    7.93    0.44 
   2  -6   0    0.08    0.06 
   2  -6   0    0.00    0.04 
  -2   6   0    0.04    0.07 
  -1   6   0    0.67    0.09 
   1  -6   0    0.67    0.08 
  -1   6   0    0.46    0.10 
   1  -6   0    0.85    0.12 
   0   6   0   42.29    1.45 
   0   6   0   43.37    1.36 
   0  -6   0   44.05    1.37 
   1   6   0   10.63    0.42 
  -1  -6   0   11.05    0.44 
   1   6   0   11.03    0.48 
  -1  -6   0   10.51    0.49 
  -2  -6   0    1.62    0.18 
  -2  -6   0    1.41    0.20 
   2   6   0    1.36    0.19 
   3   6   0    0.78    0.17 
  -3  -6   0    0.91    0.18 
   3   6   0    1.09    0.20 
  -4   7   0    5.18    0.43 
   4  -7   0    4.40    0.39 
  -3   7   0    0.15    0.09 
   3  -7   0   -0.03    0.06 
   3  -7   0    0.04    0.07 
   2  -7   0    1.62    0.20 
   2  -7   0    1.68    0.14 
  -2   7   0    1.66    0.22 
   1  -7   0    0.38    0.06 
   1  -7   0    0.27    0.09 
  -1   7   0    0.23    0.10 
  -1   7   0    0.40    0.08 
   0   7   0    0.11    0.06 
   0   7   0    0.03    0.06 
   0  -7   0    0.11    0.08 
   0  -7   0    0.09    0.03 
  -1  -7   0   90.60    2.96 
  -1  -7   0   93.42    2.90 
   1   7   0   92.31    2.91 
   1   7   0   89.71    2.80 
  -2  -7   0    1.88    0.20 
  -2  -7   0    1.91    0.24 
   2   7   0    1.99    0.24 
  -3  -7   0    0.28    0.11 
   3   7   0    0.20    0.14 
   4  -8   0    0.93    0.19 
  -4   8   0    0.74    0.19 
  -3   8   0    0.64    0.17 
   3  -8   0    0.64    0.15 
   2  -8   0    0.27    0.10 
  -2   8   0    0.42    0.13 
   1  -8   0   18.58    0.77 
  -1   8   0   19.00    0.67 
  -1   8   0   17.40    0.77 
   0  -8   0   15.61    0.67 
   0   8   0   15.26    0.65 
   0   8   0   15.68    0.62 
   1   8   0    0.47    0.12 
  -1  -8   0    0.74    0.15 
  -2  -8   0    0.18    0.08 
   2   8   0    0.16    0.11 
   3   8   0    4.59    0.43 
  -3  -8   0    5.70    0.46 
  -3   9   0    0.30    0.14 
   3  -9   0    0.16    0.10 
  -2   9   0    3.07    0.32 
   2  -9   0    2.85    0.28 
   1  -9   0    6.86    0.42 
  -1   9   0    6.63    0.34 
  -1   9   0    6.00    0.39 
   0  -9   0   26.00    1.07 
   0   9   0   29.22    1.08 
   0   9   0   28.13    1.01 
   1   9   0    1.20    0.18 
  -1  -9   0    1.40    0.21 
  -2  -9   0    0.46    0.15 
   2   9   0    0.57    0.15 
  -3  10   0    0.23    0.14 
   3 -10   0    0.51    0.15 
  -2  10   0    5.31    0.44 
   2 -10   0    5.21    0.41 
   1 -10   0   17.73    0.82 
  -1  10   0   18.84    0.84 
   0  10   0    0.30    0.12 
   0 -10   0    0.05    0.08 
   0  10   0    0.44    0.14 
   1  10   0    3.02    0.31 
  -1 -10   0    3.09    0.32 
  -2  11   0    6.94    0.49 
   2 -11   0    5.94    0.48 
   1 -11   0    4.54    0.41 
  -1  11   0    5.14    0.43 
   0 -11   0    0.16    0.10 
   0  11   0    0.23    0.12 
  -1 -11   1    1.01    0.21 
   1  11  -1    0.98    0.18 
   0  11  -1    0.19    0.12 
   0 -11   1    0.07    0.09 
  -1  11  -1    0.67    0.19 
   1 -11   1    0.54    0.16 
   2 -11   1    4.83    0.43 
  -2  11  -1    4.93    0.46 
   2  10  -1    0.15    0.12 
  -2 -10   1    0.20    0.11 
   1  10  -1    0.24    0.11 
  -1 -10   1    0.05    0.08 
   0 -10   1    1.06    0.19 
   0  10  -1    1.23    0.19 
   0  10  -1    1.39    0.20 
  -1  10  -1   14.99    0.62 
   1 -10   1   15.22    0.71 
  -1  10  -1   14.60    0.72 
   2 -10   1    0.50    0.15 
  -2  10  -1    0.62    0.19 
   3 -10   1    0.10    0.10 
  -3  10  -1    0.12    0.14 
   2   9  -1    4.54    0.38 
  -2  -9   1    4.71    0.39 
  -1  -9   1    1.86    0.24 
   1   9  -1    1.54    0.21 
   0   9  -1    7.17    0.38 
   0   9  -1    7.67    0.41 
   0  -9   1    6.99    0.42 
  -1   9  -1    2.98    0.23 
   1  -9   1    2.92    0.29 
  -1   9  -1    3.06    0.30 
   2  -9   1    0.08    0.08 
  -2   9  -1    0.07    0.11 
  -3   9  -1    0.57    0.16 
   3  -9   1    0.45    0.14 
   3   8  -1    0.11    0.14 
  -3  -8   1    0.16    0.12 
  -2  -8   1    0.62    0.14 
   2   8  -1    0.71    0.16 
   1   8  -1    7.88    0.41 
  -1  -8   1    7.15    0.42 
   0  -8   1   35.20    1.27 
   0   8  -1   35.23    1.25 
   0   8  -1   34.27    1.18 
  -1   8  -1    9.66    0.50 
   1  -8   1   10.19    0.50 
  -1   8  -1    9.72    0.42 
   2  -8   1    0.05    0.06 
  -2   8  -1    0.02    0.09 
   3  -8   1    1.03    0.18 
  -3   8  -1    1.25    0.21 
  -4   8  -1   -0.04    0.13 
   4  -8   1    0.23    0.12 
   3   7  -1    2.29    0.27 
  -3  -7   1    2.21    0.29 
  -2  -7   1    2.19    0.25 
   2   7  -1    2.30    0.25 
  -1  -7   1    6.91    0.40 
   1   7  -1    7.63    0.35 
   1   7  -1    8.23    0.39 
   0   7  -1    7.79    0.38 
   0   7  -1    7.11    0.35 
   0  -7   1    8.04    0.40 
   1  -7   1    1.05    0.15 
  -1   7  -1    0.78    0.14 
  -1   7  -1    1.12    0.12 
  -2   7  -1   -0.03    0.07 
   2  -7   1    0.05    0.05 
   3  -7   1   -0.09    0.06 
  -3   7  -1    0.08    0.10 
   4  -7   1    0.21    0.11 
  -4   7  -1    0.15    0.12 
  -3  -6   1    0.03    0.08 
   3   6  -1    0.14    0.11 
   3   6  -1    0.25    0.11 
   2   6  -1   45.91    1.51 
  -2  -6   1   45.67    1.60 
   2   6  -1   44.16    1.56 
  -1  -6   1   12.80    0.56 
   1   6  -1   13.20    0.50 
   1   6  -1   12.30    0.52 
  -1  -6   1   14.32    0.51 
   0   6  -1   13.74    0.56 
   0  -6   1   13.80    0.47 
   0  -6   1   14.34    0.58 
   0   6  -1   15.05    0.54 
   1  -6   1    0.04    0.05 
  -1   6  -1    0.07    0.04 
   1  -6   1    0.06    0.03 
  -1   6  -1    0.04    0.05 
  -2   6  -1    3.46    0.17 
  -2   6  -1    2.94    0.26 
   2  -6   1    3.72    0.20 
   2  -6   1    3.07    0.22 
  -3   6  -1   -0.20    0.06 
   3  -6   1    0.21    0.09 
   3  -6   1    0.17    0.09 
  -4   6  -1    7.13    0.44 
  -4   6  -1    6.56    0.44 
   4  -6   1    6.90    0.43 
   4   5  -1   -0.05    0.12 
  -4  -5   1    0.00    0.10 
   4   5  -1    0.12    0.11 
   3   5  -1    0.12    0.11 
  -3  -5   1    0.07    0.08 
   3   5  -1    0.22    0.11 
   2   5  -1    0.39    0.10 
  -2  -5   1    0.55    0.12 
   2   5  -1    0.55    0.10 
  -1  -5   1   40.20    1.31 
   1   5  -1   39.93    1.28 
   1   5  -1   39.81    1.30 
   0   5  -1    6.82    0.29 
   0   5  -1    6.72    0.31 
   0  -5   1    6.49    0.31 
   0  -5   1    7.11    0.24 
  -1   5  -1    0.89    0.12 
   1  -5   1    0.93    0.12 
   1  -5   1    0.90    0.07 
  -1   5  -1    0.94    0.09 
  -2   5  -1   -0.01    0.05 
   2  -5   1    0.08    0.05 
  -2   5  -1    0.00    0.03 
   2  -5   1    0.05    0.05 
  -3   5  -1    2.82    0.26 
   3  -5   1    2.41    0.23 
  -3   5  -1    2.56    0.25 
  -4   5  -1    0.54    0.13 
   4  -5   1    0.27    0.12 
  -4   5  -1    0.58    0.15 
   4   4  -1    0.51    0.16 
  -4  -4   1    0.22    0.12 
   4   4  -1    0.44    0.15 
  -3  -4   1   68.07    2.32 
   3   4  -1   69.24    2.14 
   3   4  -1   66.83    2.31 
   2   4  -1    0.17    0.08 
   2   4  -1    0.24    0.07 
  -2  -4   1    0.17    0.07 
   1   4  -1    8.75    0.37 
  -1  -4   1    9.68    0.37 
  -1  -4   1    8.78    0.39 
   0  -4   1    8.70    0.35 
   0   4  -1    8.19    0.34 
   0  -4   1    8.16    0.28 
   0   4  -1    8.29    0.32 
   1  -4   1    0.12    0.04 
  -1   4  -1    0.04    0.04 
   1  -4   1    0.07    0.03 
  -1   4  -1    0.07    0.03 
   2  -4   1    9.13    0.40 
  -2   4  -1    9.27    0.42 
  -2   4  -1    9.44    0.43 
  -2   4  -1    9.46    0.33 
  -3   4  -1    9.24    0.46 
  -3   4  -1    9.73    0.46 
   3  -4   1    9.11    0.46 
  -4   4  -1    0.60    0.13 
   4  -4   1    0.58    0.15 
  -4   4  -1    0.52    0.13 
   4   3  -1    1.44    0.19 
  -4  -3   1    1.19    0.21 
   4   3  -1    1.05    0.20 
   3   3  -1    0.81    0.15 
   3   3  -1    0.94    0.15 
  -3  -3   1    1.02    0.17 
   2   3  -1   29.87    1.04 
   2   3  -1   27.61    0.95 
  -2  -3   1   28.69    1.03 
  -2  -3   1   29.06    0.93 
  -1  -3   1    0.63    0.06 
   1   3  -1    0.62    0.08 
  -1  -3   1    0.74    0.09 
  -1  -3   1    0.59    0.08 
   0   3  -1    1.93    0.11 
   0   3  -1    1.69    0.11 
   0  -3   1    1.92    0.12 
   1  -3   1    0.31    0.05 
  -1   3  -1    0.27    0.06 
  -1   3  -1    0.22    0.04 
   1  -3   1    0.36    0.06 
  -2   3  -1   94.41    2.97 
  -2   3  -1   92.46    2.68 
  -2   3  -1   93.36    2.91 
   2  -3   1   91.46    2.94 
  -3   3  -1    1.98    0.19 
   3  -3   1    1.52    0.19 
  -3   3  -1    1.73    0.20 
  -4   3  -1    0.20    0.09 
   4  -3   1    0.15    0.11 
  -4  -2   1   24.84    1.09 
   4   2  -1   26.66    1.10 
  -3  -2   1    0.61    0.14 
   3   2  -1    0.72    0.12 
   3   2  -1    0.70    0.14 
   2   2  -1    4.70    0.23 
  -2  -2   1    4.45    0.26 
  -2  -2   1    4.79    0.20 
   2   2  -1    5.19    0.28 
  -1  -2   1   54.33    1.70 
  -1  -2   1   54.28    1.71 
   1   2  -1   54.18    1.60 
   1   2  -1   54.20    1.72 
   0  -2   1   52.48    1.58 
   0   2  -1   50.72    1.62 
   0   2  -1   50.84    1.49 
  -1   2  -1  126.21    3.98 
   1  -2   1  126.55    3.92 
  -1   2  -1  131.03    3.65 
  -1   2  -1  128.66    3.88 
  -2   2  -1    5.16    0.27 
  -2   2  -1    5.29    0.25 
   2  -2   1    4.78    0.21 
   2  -2   1    5.14    0.27 
  -3   2  -1    1.66    0.16 
   3  -2   1    1.79    0.13 
   3  -2   1    1.65    0.20 
  -3   2  -1    1.55    0.19 
   4  -2   1    4.93    0.39 
  -4   2  -1    4.43    0.37 
  -4  -1   1    3.75    0.35 
   4   1  -1    4.18    0.37 
  -3  -1   1    3.74    0.30 
   3   1  -1    3.65    0.20 
   3   1  -1    3.39    0.28 
   2   1  -1   -0.02    0.04 
   2   1  -1   -0.01    0.03 
  -2  -1   1    0.05    0.03 
  -2  -1   1    0.00    0.04 
   1   1  -1    3.25    0.14 
  -1  -1   1    3.30    0.14 
   1   1  -1    3.36    0.16 
  -1  -1   1    2.92    0.16 
   0   1  -1  133.24    3.83 
   0  -1   1  137.11    4.13 
   0  -1   1  130.80    4.05 
   0   1  -1  134.38    4.14 
   0   1  -1  140.11    4.16 
  -1   1  -1  416.90   11.57 
  -1   1  -1  413.55   12.56 
  -1   1  -1  405.80   12.42 
  -1   1  -1  405.24   12.26 
   2  -1   1   14.81    0.50 
   2  -1   1   15.00    0.59 
  -2   1  -1   13.97    0.57 
  -2   1  -1   15.37    0.53 
   3  -1   1    2.24    0.23 
   3  -1   1    2.05    0.16 
  -3   1  -1    2.18    0.22 
  -3   1  -1    2.13    0.15 
  -4   1  -1    2.74    0.29 
   4  -1   1    2.05    0.28 
   4   0  -1    1.00    0.19 
  -4   0   1    0.85    0.17 
   3   0  -1    0.11    0.07 
   3   0  -1    0.04    0.04 
  -3   0   1    0.01    0.04 
  -3   0   1   -0.01    0.05 
  -2   0   1    4.78    0.22 
   2   0  -1    4.98    0.27 
   2   0  -1    5.06    0.20 
  -2   0   1    4.37    0.25 
   1   0  -1   17.69    0.52 
  -1   0   1   16.89    0.59 
  -1   0   1   17.62    0.59 
   1   0  -1   17.50    0.60 
   0   0  -1   39.30    1.22 
   0   0  -1   39.54    1.14 
   0   0   1   40.40    1.24 
   1   0   1   39.74    1.16 
  -1   0  -1   39.28    1.23 
  -1   0  -1   38.66    1.26 
  -1   0  -1   39.01    1.24 
  -2   0  -1   32.85    1.14 
   2   0   1   32.24    1.04 
  -2   0  -1   34.40    1.07 
  -2   0  -1   33.29    1.16 
   3   0   1    5.87    0.37 
   3   0   1    6.19    0.30 
  -3   0  -1    6.38    0.36 
   4   0   1    0.56    0.16 
  -4   0  -1    0.35    0.12 
   4  -1  -1    0.08    0.10 
  -4   1   1    0.14    0.09 
   3  -1  -1    1.94    0.11 
  -3   1   1    1.42    0.18 
   3  -1  -1    1.80    0.21 
  -3   1   1    1.85    0.16 
  -2   1   1    0.72    0.09 
   2  -1  -1    0.76    0.11 
  -2   1   1    0.87    0.12 
   2  -1  -1    0.76    0.06 
   1  -1  -1  638.45   19.76 
  -1   1   1  676.08   20.03 
  -1   1   1  650.15   19.51 
   0   1   1  189.01    5.73 
   0   1   1  188.54    5.28 
   0  -1  -1  191.30    5.65 
   0  -1  -1  177.01    5.58 
   1   1   1    2.86    0.15 
  -1  -1  -1    3.19    0.16 
  -1  -1  -1    2.97    0.16 
   2   1   1    2.15    0.16 
  -2  -1  -1    2.29    0.19 
  -2  -1  -1    1.77    0.17 
  -3  -1  -1    1.78    0.22 
   3   1   1    1.50    0.17 
   3   1   1    1.83    0.22 
  -4  -1  -1    0.00    0.08 
   4   1   1    0.12    0.10 
  -4   2   1    1.13    0.20 
   4  -2  -1    1.46    0.23 
   3  -2  -1    1.74    0.21 
  -3   2   1    2.11    0.21 
  -3   2   1    1.43    0.16 
   2  -2  -1    2.87    0.19 
  -2   2   1    2.28    0.18 
  -2   2   1    2.59    0.17 
  -1   2   1   10.92    0.40 
   1  -2  -1   11.12    0.40 
  -1   2   1   10.83    0.33 
   0   2   1   68.64    2.16 
   0  -2  -1   69.63    2.12 
   0  -2  -1   68.56    2.10 
   0   2   1   68.58    1.99 
  -1  -2  -1  125.99    3.85 
  -1  -2  -1  123.27    3.80 
  -2  -2  -1    7.45    0.37 
  -2  -2  -1    7.71    0.38 
   2   2   1    7.44    0.34 
   3   2   1   -0.03    0.06 
  -3  -2  -1    0.03    0.06 
   3   2   1    0.19    0.08 
   4   2   1    0.04    0.11 
   4   2   1    0.00    0.10 
  -4  -2  -1    0.16    0.11 
   4  -3  -1    0.45    0.14 
  -4   3   1    0.64    0.13 
  -4   3   1    0.54    0.12 
   3  -3  -1    1.21    0.17 
  -3   3   1    1.65    0.19 
  -3   3   1    1.43    0.17 
   2  -3  -1  293.77    9.00 
  -2   3   1  295.64    9.13 
  -2   3   1  293.86    8.89 
   1  -3  -1   17.74    0.61 
  -1   3   1   16.61    0.64 
  -1   3   1   17.64    0.53 
   1  -3  -1   17.73    0.60 
   0  -3  -1    3.16    0.15 
   0   3   1    3.05    0.16 
   0  -3  -1    3.08    0.16 
  -1  -3  -1    5.49    0.27 
  -1  -3  -1    6.13    0.27 
   1   3   1    5.55    0.21 
   1   3   1    5.86    0.27 
   2   3   1    2.18    0.19 
  -2  -3  -1    2.29    0.20 
  -2  -3  -1    2.71    0.21 
  -3  -3  -1    4.06    0.33 
   3   3   1    4.40    0.29 
  -3  -3  -1    4.24    0.34 
  -4  -3  -1    0.80    0.18 
   4   3   1    0.93    0.18 
   4   3   1    1.27    0.23 
   4  -4  -1    1.33    0.21 
  -4   4   1    1.19    0.19 
  -4   4   1    0.97    0.17 
  -3   4   1   13.66    0.59 
  -3   4   1   12.60    0.59 
   3  -4  -1   13.31    0.59 
  -2   4   1    0.86    0.13 
   2  -4  -1    0.75    0.11 
  -2   4   1    0.74    0.12 
   1  -4  -1    0.71    0.08 
  -1   4   1    0.74    0.11 
  -1   4   1    0.74    0.07 
   1  -4  -1    0.75    0.10 
   0   4   1   48.97    1.54 
   0  -4  -1   51.86    1.61 
   0  -4  -1   51.81    1.63 
   0   4   1   51.53    1.66 
   1   4   1   12.08    0.42 
  -1  -4  -1   12.15    0.47 
  -1  -4  -1   12.05    0.49 
   2   4   1    0.38    0.10 
  -2  -4  -1    0.36    0.09 
  -2  -4  -1    0.28    0.08 
  -3  -4  -1    8.41    0.48 
   3   4   1    8.38    0.44 
  -3  -4  -1    8.17    0.47 
   4   4   1    1.91    0.25 
   4   4   1    1.60    0.26 
  -4  -4  -1    1.67    0.26 
   4  -5  -1    7.56    0.44 
  -4   5   1    6.63    0.43 
  -4   5   1    6.97    0.44 
  -3   5   1   47.47    1.64 
  -3   5   1   45.52    1.67 
   3  -5  -1   47.38    1.62 
   2  -5  -1    4.07    0.25 
  -2   5   1    4.16    0.27 
   2  -5  -1    4.16    0.23 
  -1   5   1    8.20    0.41 
  -1   5   1    8.97    0.33 
   1  -5  -1    9.00    0.39 
   1  -5  -1    9.25    0.36 
   0   5   1    1.87    0.16 
   0  -5  -1    1.70    0.12 
   0  -5  -1    1.91    0.16 
   0   5   1    1.88    0.15 
   1   5   1   11.20    0.47 
  -1  -5  -1   10.93    0.48 
  -1  -5  -1   10.79    0.45 
   1   5   1   11.73    0.42 
   2   5   1    8.26    0.41 
  -2  -5  -1    7.19    0.39 
  -2  -5  -1    7.30    0.41 
  -3  -5  -1    0.23    0.10 
   3   5   1    0.16    0.10 
  -3  -5  -1    0.16    0.10 
  -4   6   1   12.84    0.67 
   4  -6  -1   13.28    0.64 
   3  -6  -1    0.07    0.08 
  -3   6   1    0.08    0.09 
   3  -6  -1    0.15    0.08 
  -2   6   1    2.40    0.25 
   2  -6  -1    2.54    0.18 
   2  -6  -1    1.72    0.19 
   1  -6  -1   10.64    0.47 
  -1   6   1    9.99    0.49 
   1  -6  -1   11.21    0.42 
  -1   6   1   11.11    0.41 
   0  -6  -1    0.62    0.08 
   0   6   1    0.61    0.10 
   0  -6  -1    0.53    0.11 
   0   6   1    0.62    0.10 
   1   6   1    6.37    0.28 
  -1  -6  -1    6.27    0.31 
  -1  -6  -1    5.75    0.33 
   1   6   1    5.54    0.32 
  -2  -6  -1    8.22    0.44 
   2   6   1    9.15    0.46 
  -2  -6  -1    7.71    0.44 
   3   6   1    1.31    0.22 
  -3  -6  -1    1.40    0.23 
   4  -7  -1    6.60    0.40 
   4  -7  -1    6.05    0.42 
  -4   7   1    6.09    0.44 
   3  -7  -1    0.32    0.12 
   3  -7  -1    0.37    0.10 
  -3   7   1    0.23    0.11 
   2  -7  -1    2.53    0.24 
   2  -7  -1    2.37    0.18 
  -2   7   1    2.81    0.28 
  -1   7   1    2.75    0.18 
   1  -7  -1    3.12    0.25 
  -1   7   1    2.82    0.26 
   1  -7  -1    3.00    0.18 
   0   7   1    1.90    0.19 
   0  -7  -1    2.23    0.21 
   0  -7  -1    2.00    0.14 
   0   7   1    1.89    0.19 
  -1  -7  -1    0.01    0.06 
   1   7   1    0.08    0.08 
  -1  -7  -1   -0.01    0.04 
  -2  -7  -1    1.86    0.21 
   2   7   1    1.48    0.22 
  -2  -7  -1    1.32    0.20 
   3   7   1    4.11    0.38 
  -3  -7  -1    4.22    0.39 
   4  -8  -1    0.11    0.10 
   3  -8  -1    0.94    0.18 
  -3   8   1    0.68    0.18 
  -2   8   1    1.81    0.25 
   2  -8  -1    2.27    0.24 
  -1   8   1    1.33    0.15 
  -1   8   1    1.10    0.18 
   1  -8  -1    1.41    0.20 
   0   8   1   26.64    1.00 
   0   8   1   26.33    0.95 
   0  -8  -1   26.60    1.02 
   1   8   1    0.78    0.15 
  -1  -8  -1    0.70    0.15 
   2   8   1    0.27    0.12 
  -2  -8  -1    0.04    0.07 
  -3   9   1    0.69    0.19 
   3  -9  -1    0.91    0.18 
  -2   9   1    3.18    0.34 
   2  -9  -1    3.66    0.32 
  -1   9   1    1.25    0.16 
   1  -9  -1    1.68    0.23 
  -1   9   1    1.26    0.21 
   0  -9  -1    1.46    0.21 
   0   9   1    1.77    0.22 
   0   9   1    1.41    0.19 
   1   9   1    0.98    0.18 
  -1  -9  -1    1.40    0.21 
  -2  -9  -1    8.28    0.52 
   2   9   1    8.30    0.50 
  -2  10   1   -0.07    0.13 
   2 -10  -1    0.03    0.10 
  -1  10   1   14.93    0.73 
   1 -10  -1   15.78    0.74 
   0  10   1    0.19    0.11 
   0 -10  -1    0.12    0.10 
  -1 -10  -1    0.43    0.14 
   1  10   1    0.43    0.15 
  -1  11   1    0.07    0.14 
   1 -11  -1    0.24    0.13 
   0  11   1    0.22    0.12 
   0 -11  -1    0.17    0.10 
   1  11  -2    0.13    0.11 
  -1 -11   2    0.05    0.09 
   0  11  -2    0.10    0.12 
   0 -11   2    0.03    0.09 
   0  11  -2   -0.12    0.10 
  -1  11  -2    0.11    0.09 
   1 -11   2    0.11    0.12 
  -1  11  -2    0.40    0.16 
  -2  11  -2    4.38    0.43 
   2 -11   2    4.81    0.42 
   2  10  -2    0.01    0.11 
  -2 -10   2    0.25    0.11 
  -1 -10   2    3.58    0.34 
   1  10  -2    3.63    0.33 
   0 -10   2    3.56    0.31 
   0  10  -2    3.39    0.29 
   0  10  -2    3.46    0.31 
  -1  10  -2    0.84    0.19 
  -1  10  -2    1.03    0.16 
   1 -10   2    1.18    0.20 
  -2  10  -2    3.45    0.36 
   2 -10   2    3.19    0.32 
  -3  10  -2    4.05    0.41 
   3 -10   2    3.92    0.37 
   2   9  -2    0.07    0.11 
  -2  -9   2    0.24    0.12 
   1   9  -2   -0.06    0.07 
  -1  -9   2   -0.10    0.05 
   0  -9   2    4.90    0.34 
   0   9  -2    6.16    0.34 
   0   9  -2    5.40    0.34 
   1  -9   2    2.95    0.29 
  -1   9  -2    3.23    0.25 
  -1   9  -2    3.01    0.29 
   2  -9   2    0.31    0.11 
  -2   9  -2    0.30    0.13 
  -3   9  -2    1.36    0.24 
   3  -9   2    1.03    0.19 
   3   8  -2    2.01    0.28 
  -3  -8   2    1.89    0.29 
   2   8  -2   -0.01    0.09 
  -2  -8   2   -0.06    0.06 
   1   8  -2    1.05    0.13 
   1   8  -2    0.71    0.14 
  -1  -8   2    0.82    0.15 
   0   8  -2    0.62    0.12 
   0   8  -2    0.57    0.12 
   0  -8   2    0.44    0.11 
  -1   8  -2    9.67    0.42 
  -1   8  -2    9.51    0.49 
   1  -8   2    9.82    0.48 
  -2   8  -2   14.26    0.67 
   2  -8   2   13.80    0.63 
   3  -8   2    0.09    0.08 
  -3   8  -2    0.05    0.10 
   4  -8   2    0.04    0.11 
  -4   8  -2   -0.12    0.12 
   3   7  -2    0.79    0.18 
  -3  -7   2    0.99    0.20 
  -2  -7   2    1.02    0.17 
   2   7  -2    1.34    0.18 
   1   7  -2   32.60    1.12 
  -1  -7   2   31.58    1.17 
   1   7  -2   32.37    1.11 
   0  -7   2    4.42    0.28 
   0   7  -2    4.04    0.24 
   0   7  -2    3.89    0.25 
  -1   7  -2    0.17    0.08 
  -1   7  -2    0.10    0.06 
   1  -7   2    0.25    0.08 
  -2   7  -2    2.41    0.25 
   2  -7   2    2.51    0.23 
  -2   7  -2    2.92    0.18 
   3  -7   2    0.57    0.14 
  -3   7  -2    0.57    0.15 
  -4   7  -2    0.22    0.14 
   4  -7   2    0.14    0.11 
   3   6  -2    2.32    0.26 
   3   6  -2    2.42    0.26 
  -3  -6   2    2.06    0.27 
   2   6  -2    0.01    0.08 
  -2  -6   2    0.03    0.05 
   2   6  -2    0.07    0.07 
   1   6  -2    7.22    0.29 
   1   6  -2    6.58    0.33 
  -1  -6   2    6.43    0.35 
   0   6  -2   23.22    0.84 
   0   6  -2   22.63    0.78 
   0  -6   2   23.29    0.85 
  -1   6  -2   21.47    0.92 
  -1   6  -2   28.34    0.84 
   1  -6   2   26.20    0.91 
  -2   6  -2    0.01    0.04 
   2  -6   2    0.07    0.05 
   2  -6   2    0.04    0.04 
  -2   6  -2    0.10    0.07 
   3  -6   2    4.05    0.28 
  -3   6  -2    5.37    0.34 
   3  -6   2    4.45    0.31 
  -4   6  -2    0.12    0.10 
  -4   6  -2    0.30    0.13 
   4  -6   2    0.38    0.13 
   4   5  -2    0.18    0.13 
  -4  -5   2    0.10    0.12 
   4   5  -2    0.06    0.12 
  -3  -5   2    0.53    0.13 
   3   5  -2    0.42    0.13 
   3   5  -2    0.41    0.12 
  -2  -5   2   25.69    0.99 
   2   5  -2   25.27    0.91 
   2   5  -2   27.08    0.96 
  -1  -5   2   28.45    0.95 
   1   5  -2   26.91    0.93 
   1   5  -2   27.90    0.93 
  -1  -5   2   27.40    0.98 
   0  -5   2    2.95    0.18 
   0   5  -2    2.04    0.15 
   0   5  -2    2.28    0.16 
   1  -5   2   18.23    0.68 
  -1   5  -2   17.31    0.70 
  -1   5  -2   19.39    0.62 
   1  -5   2   18.81    0.60 
  -2   5  -2   10.39    0.49 
   2  -5   2   11.48    0.49 
   2  -5   2   10.64    0.45 
  -2   5  -2   11.59    0.41 
  -3   5  -2    1.74    0.21 
   3  -5   2    1.48    0.19 
  -3   5  -2    1.26    0.18 
   4  -5   2    1.06    0.20 
  -4   5  -2    1.38    0.21 
  -4   5  -2    1.10    0.19 
  -4  -4   2    1.06    0.22 
   4   4  -2    1.02    0.20 
   4   4  -2    0.92    0.17 
   3   4  -2    3.49    0.27 
  -3  -4   2    3.29    0.31 
   3   4  -2    3.62    0.30 
  -2  -4   2    0.24    0.08 
  -2  -4   2    0.35    0.05 
   2   4  -2    0.27    0.08 
   2   4  -2    0.25    0.08 
  -1  -4   2   70.62    2.17 
   1   4  -2   68.55    2.14 
  -1  -4   2   67.37    2.16 
   1   4  -2   66.52    2.04 
   0   4  -2   18.05    0.60 
   0  -4   2   19.06    0.64 
   0   4  -2   17.15    0.64 
  -1   4  -2    1.73    0.11 
   1  -4   2    1.77    0.10 
  -1   4  -2    1.58    0.14 
   1  -4   2    1.51    0.12 
  -2   4  -2   29.30    1.01 
  -2   4  -2   29.54    0.90 
   2  -4   2   27.54    1.00 
  -2   4  -2   28.14    1.02 
   3  -4   2    0.23    0.09 
  -3   4  -2    0.19    0.09 
  -3   4  -2    0.26    0.09 
   4  -4   2    0.78    0.17 
  -4   4  -2    0.81    0.16 
  -4  -3   2    7.99    0.51 
   4   3  -2    7.90    0.50 
  -3  -3   2    1.58    0.21 
   3   3  -2    1.44    0.20 
   3   3  -2    1.46    0.17 
   2   3  -2   19.72    0.70 
  -2  -3   2   20.57    0.78 
  -2  -3   2   19.98    0.69 
   2   3  -2   20.72    0.77 
   1   3  -2    4.55    0.21 
  -1  -3   2    4.36    0.22 
  -1  -3   2    4.48    0.20 
   1   3  -2    4.32    0.20 
   0   3  -2   32.65    1.08 
   0  -3   2   33.12    1.06 
  -1   3  -2   17.84    0.56 
  -1   3  -2   17.72    0.63 
   1  -3   2   16.36    0.60 
  -1   3  -2   17.61    0.59 
   2  -3   2    5.89    0.29 
  -2   3  -2    5.16    0.27 
  -2   3  -2    5.56    0.28 
  -2   3  -2    5.32    0.23 
  -3   3  -2    8.01    0.39 
   3  -3   2    7.15    0.41 
   3  -3   2    8.02    0.33 
  -3   3  -2    7.95    0.41 
  -4   3  -2    4.27    0.35 
   4  -3   2    4.99    0.39 
  -4  -2   2    4.93    0.42 
   4   2  -2    4.69    0.40 
  -3  -2   2    1.62    0.21 
   3   2  -2    1.76    0.16 
   3   2  -2    1.63    0.20 
  -2  -2   2   35.95    1.23 
   2   2  -2   35.47    1.11 
  -2  -2   2   35.83    1.18 
   2   2  -2   35.77    1.24 
  -1  -2   2   13.32    0.49 
   1   2  -2   13.17    0.45 
  -1  -2   2   13.61    0.47 
   1   2  -2   13.80    0.49 
   0  -2   2  112.85    3.38 
   0   2  -2  111.58    3.21 
   0   2  -2  112.95    3.41 
   0   2  -2  111.17    3.48 
  -1   2  -2    6.22    0.26 
  -1   2  -2    6.32    0.25 
  -1   2  -2    6.19    0.24 
  -1   2  -2    6.00    0.26 
   2  -2   2    6.08    0.26 
  -2   2  -2    5.52    0.30 
  -2   2  -2    5.93    0.27 
  -2   2  -2    5.73    0.29 
   3  -2   2    1.72    0.21 
   3  -2   2    1.53    0.14 
  -3   2  -2    1.22    0.17 
  -3   2  -2    1.89    0.16 
  -4   2  -2    1.18    0.20 
   4  -2   2    1.45    0.23 
  -4  -1   2    0.01    0.08 
   4   1  -2    0.05    0.09 
  -3  -1   2   11.73    0.48 
  -3  -1   2   12.42    0.57 
   3   1  -2   12.50    0.46 
   3   1  -2   12.15    0.57 
   2   1  -2    2.13    0.12 
   2   1  -2    2.31    0.19 
  -2  -1   2    2.15    0.14 
  -2  -1   2    2.32    0.19 
  -1  -1   2    0.80    0.07 
  -1  -1   2    0.76    0.08 
   1   1  -2    0.99    0.07 
   1   1  -2    0.87    0.08 
   0   1  -2   31.19    0.94 
   0   1  -2   32.26    1.00 
   0  -1   2   32.04    0.97 
  -1   1  -2    5.10    0.21 
  -1   1  -2    5.07    0.21 
  -1   1  -2    5.35    0.23 
  -1   1  -2    5.14    0.22 
  -2   1  -2    9.71    0.36 
  -2   1  -2    8.81    0.40 
   2  -1   2    8.88    0.35 
  -2   1  -2    8.94    0.41 
   3  -1   2   20.07    0.71 
  -3   1  -2   19.66    0.80 
   3  -1   2   19.91    0.83 
   4  -1   2    1.04    0.20 
  -4   1  -2    0.76    0.17 
   4   0  -2    0.78    0.18 
  -4   0   2    0.80    0.16 
   3   0  -2    4.64    0.20 
  -3   0   2    4.43    0.29 
   3   0  -2    3.96    0.29 
  -3   0   2    4.40    0.25 
   2   0  -2    5.15    0.28 
   2   0  -2    4.81    0.19 
  -2   0   2    4.91    0.24 
  -2   0   2    4.69    0.26 
   1   0  -2  166.51    4.78 
  -1   0   2  168.18    5.09 
   1   0  -2  171.06    5.16 
  -1   0   2  170.08    5.23 
   0   0  -2   69.90    2.01 
   0   0  -2   68.60    2.15 
   0   0   2   71.14    2.18 
   1   0   2  117.11    3.31 
  -1   0  -2  118.87    3.49 
   1   0   2  109.14    3.55 
  -1   0  -2  114.43    3.55 
  -2   0  -2    0.43    0.08 
  -2   0  -2    0.49    0.05 
   2   0   2    0.55    0.09 
  -2   0  -2    0.49    0.09 
  -3   0  -2    2.65    0.25 
  -3   0  -2    3.36    0.29 
   3   0   2    2.76    0.21 
   4   0   2   -0.01    0.09 
  -4   0  -2    0.04    0.09 
   4  -1  -2    3.95    0.35 
  -4   1   2    3.27    0.32 
   3  -1  -2    1.94    0.22 
  -3   1   2    2.58    0.24 
  -3   1   2    2.33    0.19 
   2  -1  -2    1.13    0.13 
  -2   1   2    1.17    0.13 
   2  -1  -2    1.28    0.06 
  -2   1   2    1.12    0.12 
   1  -1  -2   33.81    1.10 
  -1   1   2   33.94    1.08 
  -1   1   2   34.06    1.13 
   1  -1  -2   34.20    0.98 
   0   1   2    9.91    0.37 
   0  -1  -2    9.71    0.36 
   0  -1  -2   10.27    0.33 
   0   1   2   10.22    0.34 
  -1  -1  -2   34.01    1.09 
   1   1   2   33.83    1.06 
   1   1   2   33.38    1.05 
  -1  -1  -2   33.49    1.12 
  -2  -1  -2   36.79    1.25 
   2   1   2   37.65    1.17 
  -2  -1  -2   34.62    1.26 
  -3  -1  -2    1.55    0.21 
   3   1   2    0.90    0.14 
  -3  -1  -2    1.78    0.21 
   4   1   2    7.94    0.41 
   4   1   2    7.35    0.49 
  -4  -1  -2    6.92    0.46 
   4  -2  -2    1.35    0.23 
  -4   2   2    1.13    0.18 
  -4   2   2    1.41    0.18 
  -3   2   2    0.87    0.14 
   3  -2  -2    1.12    0.16 
  -3   2   2    1.08    0.15 
  -2   2   2    1.31    0.15 
   2  -2  -2    1.19    0.14 
  -2   2   2    1.47    0.14 
  -1   2   2   17.08    0.57 
   1  -2  -2   15.99    0.57 
  -1   2   2   16.21    0.49 
  -1   2   2   15.90    0.61 
   0  -2  -2   98.29    3.02 
   0  -2  -2  101.17    3.07 
   0   2   2   98.93    2.87 
   0   2   2  100.11    3.12 
  -1  -2  -2    4.09    0.21 
   1   2   2    4.11    0.16 
  -1  -2  -2    3.99    0.20 
   1   2   2    4.00    0.21 
  -2  -2  -2    8.51    0.44 
  -2  -2  -2   10.76    0.46 
   2   2   2   10.88    0.44 
   3   2   2    1.18    0.17 
  -3  -2  -2    1.24    0.19 
  -3  -2  -2    1.00    0.18 
   4   2   2    3.52    0.31 
   4   2   2    3.07    0.35 
  -4  -2  -2    3.34    0.35 
  -4   3   2   -0.04    0.06 
  -4   3   2    0.00    0.08 
   4  -3  -2    0.04    0.08 
   3  -3  -2    0.76    0.14 
  -3   3   2    0.49    0.12 
  -3   3   2    0.84    0.14 
  -2   3   2    0.68    0.11 
   2  -3  -2    0.68    0.10 
  -2   3   2    0.58    0.09 
  -1   3   2    6.63    0.24 
   1  -3  -2    6.70    0.29 
   1  -3  -2    6.89    0.29 
  -1   3   2    7.19    0.33 
   0  -3  -2   92.16    2.85 
   0  -3  -2   90.99    2.81 
   0   3   2   91.48    2.89 
   0   3   2   92.11    2.67 
   1   3   2   23.51    0.78 
  -1  -3  -2   24.06    0.84 
  -1  -3  -2   24.36    0.83 
   1   3   2   23.95    0.81 
  -2  -3  -2    0.06    0.05 
   2   3   2    0.15    0.08 
  -2  -3  -2    0.06    0.06 
  -3  -3  -2   14.27    0.69 
  -3  -3  -2   14.45    0.68 
   3   3   2   14.77    0.63 
   4   3   2    2.32    0.27 
   4   3   2    1.83    0.28 
  -4  -3  -2    1.83    0.27 
  -4   4   2    1.70    0.23 
   4  -4  -2    1.82    0.23 
  -4   4   2    1.37    0.21 
  -3   4   2    9.57    0.48 
  -3   4   2   10.40    0.51 
   3  -4  -2   10.54    0.49 
   2  -4  -2    0.11    0.06 
   2  -4  -2    0.03    0.04 
  -2   4   2    0.06    0.05 
   1  -4  -2   21.50    0.76 
  -1   4   2   21.97    0.68 
   1  -4  -2   21.71    0.76 
  -1   4   2   21.33    0.81 
   0  -4  -2    1.93    0.14 
   0  -4  -2    2.15    0.14 
   0   4   2    2.07    0.15 
   0   4   2    2.10    0.14 
  -1  -4  -2    3.20    0.20 
   1   4   2    3.34    0.16 
  -1  -4  -2    3.07    0.20 
   1   4   2    3.08    0.20 
   2   4   2    1.26    0.17 
  -2  -4  -2    0.87    0.14 
  -2  -4  -2    1.18    0.16 
  -3  -4  -2    4.70    0.36 
  -3  -4  -2    3.71    0.33 
   3   4   2    3.92    0.33 
   4   4   2    0.18    0.11 
  -4  -4  -2    0.20    0.12 
   4   4   2    0.06    0.13 
  -4   5   2    0.10    0.11 
   4  -5  -2    0.12    0.09 
  -4   5   2    0.03    0.09 
  -3   5   2    1.69    0.21 
   3  -5  -2    2.05    0.21 
  -3   5   2    1.47    0.20 
   2  -5  -2    2.53    0.22 
  -2   5   2    3.60    0.28 
   2  -5  -2    3.23    0.21 
   1  -5  -2   33.89    1.13 
   1  -5  -2   33.14    1.14 
  -1   5   2   33.56    1.04 
  -1   5   2   33.67    1.21 
   0   5   2   15.04    0.61 
   0  -5  -2   16.06    0.59 
   0  -5  -2   16.66    0.62 
   0   5   2   16.05    0.58 
  -1  -5  -2    8.73    0.40 
   1   5   2    8.27    0.33 
   1   5   2    7.95    0.39 
  -1  -5  -2    7.69    0.37 
   2   5   2    2.28    0.24 
  -2  -5  -2    2.60    0.23 
  -2  -5  -2    2.25    0.23 
  -3  -5  -2    7.21    0.46 
  -3  -5  -2    7.80    0.47 
   3   5   2    7.75    0.45 
   4  -6  -2    5.22    0.37 
  -4   6   2    5.71    0.41 
   4  -6  -2    5.14    0.41 
  -3   6   2   -0.16    0.07 
   3  -6  -2    0.00    0.07 
   3  -6  -2    0.05    0.08 
  -2   6   2    9.49    0.50 
   2  -6  -2    9.95    0.44 
   2  -6  -2    9.92    0.47 
   1  -6  -2    0.10    0.06 
  -1   6   2    0.08    0.07 
   1  -6  -2    0.15    0.06 
  -1   6   2    0.04    0.04 
   0  -6  -2    0.29    0.07 
   0   6   2    0.20    0.08 
   0   6   2    0.37    0.09 
   0  -6  -2    0.21    0.08 
  -1  -6  -2   16.36    0.66 
   1   6   2   17.23    0.68 
  -1  -6  -2   16.95    0.69 
   2   6   2    0.80    0.16 
  -2  -6  -2    0.77    0.15 
  -2  -6  -2    0.76    0.15 
  -3  -6  -2    0.14    0.11 
   3   6   2    0.06    0.13 
  -3  -6  -2    0.14    0.11 
  -4   7   2    0.01    0.11 
   4  -7  -2    0.23    0.12 
   4  -7  -2    0.03    0.10 
   3  -7  -2    0.08    0.08 
   3  -7  -2    0.06    0.09 
  -3   7   2    0.10    0.11 
   2  -7  -2    6.60    0.38 
   2  -7  -2    6.83    0.35 
  -2   7   2    6.60    0.42 
   1  -7  -2    3.63    0.26 
  -1   7   2    3.84    0.21 
  -1   7   2    3.28    0.29 
   1  -7  -2    3.72    0.22 
   0   7   2    7.51    0.39 
   0  -7  -2    7.98    0.36 
   0   7   2    7.90    0.38 
   0  -7  -2    7.71    0.40 
   1   7   2   -0.08    0.08 
  -1  -7  -2    0.17    0.08 
  -1  -7  -2    0.10    0.07 
   2   7   2    8.67    0.49 
  -2  -7  -2    9.98    0.51 
  -2  -7  -2    9.89    0.53 
  -3  -7  -2    0.28    0.13 
  -3  -7  -2    0.04    0.09 
   3   7   2    0.08    0.14 
   3  -8  -2    3.23    0.31 
  -3   8   2    3.14    0.34 
   2  -8  -2    0.02    0.08 
  -2   8   2    0.07    0.12 
  -1   8   2    0.02    0.10 
   1  -8  -2    0.25    0.11 
  -1   8   2    0.17    0.08 
   0  -8  -2    9.10    0.47 
   0   8   2    9.63    0.47 
   0   8   2    9.29    0.45 
   1   8   2    1.36    0.20 
  -1  -8  -2    1.88    0.23 
  -2  -8  -2    0.21    0.10 
   2   8   2    0.14    0.11 
   3  -9  -2    1.84    0.25 
  -3   9   2    1.73    0.29 
  -2   9   2    0.07    0.12 
   2  -9  -2    0.11    0.10 
   1  -9  -2    0.17    0.10 
  -1   9   2    0.11    0.12 
   0   9   2    0.20    0.11 
   0  -9  -2    0.19    0.09 
   0   9   2    0.11    0.10 
  -1  -9  -2    2.58    0.28 
   1   9   2    2.96    0.31 
  -2  -9  -2   -0.06    0.09 
   2   9   2    0.16    0.12 
  -2  10   2    1.08    0.23 
   2 -10  -2    1.00    0.21 
  -1  10   2    0.76    0.19 
   1 -10  -2    1.04    0.19 
   0 -10  -2    2.95    0.30 
   0  10   2    3.37    0.31 
  -1 -10  -2    2.15    0.28 
   1  10   2    2.05    0.27 
  -1 -11   3    2.35    0.30 
   1  11  -3    2.45    0.29 
   0 -11   3    0.24    0.11 
   0  11  -3    0.22    0.12 
   0  11  -3    0.32    0.14 
  -1  11  -3    0.10    0.13 
  -1  11  -3    0.07    0.10 
   1 -11   3    0.03    0.10 
  -2  11  -3    0.44    0.18 
   2 -11   3    0.77    0.18 
   2  10  -3    1.92    0.27 
  -2 -10   3    2.01    0.28 
  -1 -10   3    0.03    0.08 
   1  10  -3    0.12    0.10 
   0  10  -3    0.23    0.10 
   0 -10   3    0.15    0.09 
   0  10  -3    0.24    0.12 
  -1  10  -3    5.14    0.32 
  -1  10  -3    4.99    0.39 
   1 -10   3    4.88    0.38 
  -2  10  -3    0.76    0.19 
   2 -10   3    0.72    0.15 
  -3  10  -3    0.33    0.15 
   3 -10   3    0.59    0.17 
  -2  -9   3    5.88    0.42 
   2   9  -3    6.70    0.42 
  -1  -9   3    2.02    0.24 
   1   9  -3    2.08    0.23 
   0   9  -3    1.05    0.16 
   0   9  -3    1.15    0.18 
   0  -9   3    1.09    0.18 
   1  -9   3    2.40    0.26 
  -1   9  -3    2.69    0.28 
  -1   9  -3    2.50    0.23 
  -2   9  -3    3.94    0.36 
   2  -9   3    4.67    0.33 
  -3   9  -3    1.78    0.27 
   3  -9   3    1.89    0.26 
  -3  -8   3    1.48    0.25 
   3   8  -3    1.00    0.20 
   2   8  -3    0.20    0.11 
  -2  -8   3    0.18    0.09 
  -1  -8   3    0.33    0.10 
  -1  -8   3    0.48    0.12 
   1   8  -3    0.41    0.11 
   0   8  -3   17.44    0.68 
   0   8  -3   18.13    0.73 
   0  -8   3   16.91    0.72 
  -1   8  -3    0.05    0.07 
   1  -8   3    0.00    0.07 
  -1   8  -3    0.05    0.09 
   2  -8   3    0.86    0.15 
  -2   8  -3    0.54    0.14 
  -2   8  -3    0.96    0.13 
   3  -8   3    0.59    0.14 
  -3   8  -3    0.53    0.15 
  -3  -7   3    2.78    0.32 
   3   7  -3    3.10    0.31 
   2   7  -3    2.84    0.27 
  -2  -7   3    3.40    0.30 
  -1  -7   3    0.04    0.06 
  -1  -7   3    0.04    0.05 
   1   7  -3    0.15    0.08 
   0  -7   3   15.02    0.62 
   0   7  -3   14.79    0.61 
   0   7  -3   14.65    0.57 
   1  -7   3   26.90    0.96 
  -1   7  -3   26.01    0.99 
  -1   7  -3   25.13    0.88 
  -2   7  -3    2.35    0.25 
   2  -7   3    1.70    0.20 
  -2   7  -3    2.63    0.19 
  -3   7  -3    2.25    0.27 
   3  -7   3    1.72    0.22 
   4  -7   3    1.29    0.22 
  -4   7  -3    1.54    0.25 
   3   6  -3    1.64    0.21 
   3   6  -3    1.22    0.19 
  -3  -6   3    1.30    0.21 
   2   6  -3    5.57    0.30 
   2   6  -3    4.89    0.31 
  -2  -6   3    4.84    0.33 
   1   6  -3    3.07    0.16 
  -1  -6   3    3.02    0.23 
   1   6  -3    2.99    0.23 
  -1  -6   3    3.01    0.20 
   0  -6   3    0.43    0.09 
   0   6  -3    0.62    0.10 
   0   6  -3    0.27    0.07 
  -1   6  -3    0.32    0.07 
   1  -6   3    0.23    0.07 
  -1   6  -3    0.18    0.07 
  -2   6  -3    0.32    0.07 
  -2   6  -3    0.27    0.09 
   2  -6   3    0.28    0.08 
   2  -6   3    0.24    0.07 
  -3   6  -3    1.72    0.22 
   3  -6   3    1.54    0.19 
   3  -6   3    1.41    0.20 
  -4   6  -3    1.11    0.20 
   4  -6   3    1.40    0.22 
  -4   6  -3    1.31    0.21 
   4   5  -3   -0.08    0.12 
   4   5  -3   -0.04    0.11 
  -4  -5   3    0.11    0.11 
   3   5  -3    0.67    0.14 
  -3  -5   3    0.59    0.15 
   3   5  -3    0.43    0.13 
   2   5  -3   14.58    0.57 
  -2  -5   3   13.03    0.59 
   2   5  -3   13.26    0.55 
  -2  -5   3   12.91    0.51 
   1   5  -3   22.71    0.75 
  -1  -5   3   22.80    0.80 
  -1  -5   3   21.43    0.81 
   1   5  -3   21.65    0.77 
   0   5  -3   90.73    2.93 
   0  -5   3   92.85    2.86 
   0   5  -3   91.67    2.70 
   1  -5   3    2.07    0.11 
  -1   5  -3    2.24    0.19 
  -1   5  -3    2.40    0.15 
   1  -5   3    2.44    0.16 
  -2   5  -3   -0.02    0.06 
   2  -5   3   -0.01    0.05 
   2  -5   3   -0.01    0.04 
  -2   5  -3    0.07    0.04 
  -3   5  -3    3.24    0.27 
   3  -5   3    2.90    0.25 
  -3   5  -3    2.35    0.24 
  -4   5  -3    0.02    0.07 
   4  -5   3    0.10    0.10 
  -4  -4   3    2.18    0.31 
   4   4  -3    2.49    0.30 
  -3  -4   3   12.66    0.61 
   3   4  -3   11.25    0.57 
   3   4  -3   11.74    0.51 
  -2  -4   3    6.11    0.27 
   2   4  -3    5.38    0.29 
   2   4  -3    6.42    0.32 
  -2  -4   3    5.34    0.32 
  -1  -4   3    4.86    0.25 
  -1  -4   3    4.41    0.23 
   1   4  -3    4.76    0.24 
   1   4  -3    4.71    0.21 
   0  -4   3    4.09    0.20 
   0   4  -3    3.30    0.18 
   0   4  -3    3.29    0.19 
  -1   4  -3   12.02    0.43 
  -1   4  -3   11.64    0.47 
  -1   4  -3   12.23    0.42 
   1  -4   3   10.47    0.44 
  -2   4  -3    0.27    0.07 
  -2   4  -3    0.24    0.06 
  -2   4  -3    0.26    0.06 
   2  -4   3    0.25    0.07 
  -3   4  -3    0.02    0.06 
   3  -4   3    0.03    0.08 
   3  -4   3    0.03    0.05 
  -3   4  -3    0.05    0.08 
   4  -4   3    0.46    0.15 
  -4   4  -3    0.57    0.13 
   4   3  -3    1.42    0.23 
  -4  -3   3    0.97    0.20 
   3   3  -3   11.99    0.58 
   3   3  -3   12.78    0.50 
  -3  -3   3   11.66    0.58 
   2   3  -3   32.75    1.05 
   2   3  -3   33.94    1.16 
  -2  -3   3   31.47    1.10 
  -2  -3   3   32.22    1.15 
  -1  -3   3   68.20    2.14 
   1   3  -3   68.43    2.14 
  -1  -3   3   68.57    2.18 
   1   3  -3   68.07    2.02 
   0   3  -3   11.98    0.39 
   0  -3   3   11.87    0.42 
   0   3  -3   11.64    0.42 
   0  -3   3   12.07    0.46 
  -1   3  -3   57.87    1.88 
  -1   3  -3   58.55    1.83 
  -1   3  -3   58.64    1.73 
   1  -3   3   56.59    1.81 
  -2   3  -3    0.29    0.06 
  -2   3  -3    0.32    0.07 
  -2   3  -3    0.07    0.04 
  -2   3  -3    0.31    0.07 
   3  -3   3    0.77    0.14 
  -3   3  -3    0.93    0.14 
  -3   3  -3    0.82    0.13 
   3  -3   3    0.87    0.12 
   4  -3   3    0.48    0.15 
  -4   3  -3    0.68    0.14 
   4   2  -3    2.11    0.27 
  -4  -2   3    1.86    0.26 
   3   2  -3    8.76    0.47 
   3   2  -3    9.28    0.38 
  -3  -2   3    8.99    0.39 
  -3  -2   3    8.77    0.47 
  -2  -2   3   16.89    0.63 
   2   2  -3   17.59    0.67 
   2   2  -3   17.49    0.58 
  -2  -2   3   16.07    0.66 
  -1  -2   3   15.99    0.58 
   1   2  -3   16.02    0.56 
   1   2  -3   16.09    0.53 
  -1  -2   3   16.30    0.57 
   0   2  -3   81.06    2.48 
   0   2  -3   79.65    2.35 
   0  -2   3   80.62    2.45 
   0  -2   3   82.46    2.56 
  -1   2  -3   32.10    0.99 
  -1   2  -3   32.70    1.06 
  -1   2  -3   31.45    1.06 
  -1   2  -3   31.97    1.03 
   2  -2   3   10.08    0.41 
  -2   2  -3   10.33    0.42 
  -2   2  -3   10.20    0.46 
  -2   2  -3   10.47    0.44 
  -3   2  -3    2.10    0.22 
   3  -2   3    2.02    0.17 
  -3   2  -3    2.27    0.18 
   4  -2   3    1.38    0.23 
  -4   2  -3    1.02    0.17 
  -4  -1   3    2.05    0.27 
   4   1  -3    1.97    0.26 
  -3  -1   3   18.81    0.71 
  -3  -1   3   18.46    0.77 
   3   1  -3   17.51    0.77 
   3   1  -3   19.15    0.63 
   2   1  -3   17.22    0.56 
  -2  -1   3   17.07    0.66 
  -2  -1   3   17.28    0.64 
   2   1  -3   17.21    0.67 
  -1  -1   3    0.81    0.09 
   1   1  -3    0.91    0.09 
   1   1  -3    0.95    0.08 
  -1  -1   3    0.80    0.08 
   0   1  -3  136.61    4.00 
   0  -1   3  142.42    4.21 
   0  -1   3  141.89    4.34 
   0   1  -3  138.48    4.27 
  -1   1  -3    2.54    0.13 
  -1   1  -3    2.25    0.14 
   1  -1   3    2.21    0.13 
  -1   1  -3    2.60    0.14 
   2  -1   3    4.73    0.25 
  -2   1  -3    5.09    0.28 
  -2   1  -3    4.75    0.26 
  -2   1  -3    4.97    0.22 
   3  -1   3    0.36    0.10 
  -3   1  -3    0.74    0.13 
  -3   1  -3    0.50    0.13 
   4  -1   3    0.26    0.13 
  -4   1  -3    0.40    0.13 
  -4   0   3    6.17    0.41 
   4   0  -3    6.12    0.42 
  -3   0   3    5.19    0.28 
  -3   0   3    4.51    0.30 
   3   0  -3    5.05    0.32 
   2   0  -3    0.21    0.06 
  -2   0   3    0.22    0.06 
  -2   0   3    0.24    0.06 
   2   0  -3    0.19    0.04 
  -1   0   3    1.07    0.09 
  -1   0   3    1.07    0.10 
   1   0  -3    1.17    0.07 
   1   0  -3    1.16    0.10 
   0   0  -3    4.40    0.19 
   0   0   3    4.35    0.20 
   0   0  -3    4.87    0.20 
  -1   0  -3   14.21    0.50 
   1   0   3   14.32    0.49 
  -1   0  -3   14.33    0.53 
   1   0   3   14.04    0.50 
   2   0   3   18.15    0.68 
  -2   0  -3   20.26    0.73 
  -2   0  -3   18.81    0.74 
   2   0   3   19.06    0.65 
   3   0   3    1.76    0.19 
  -3   0  -3    1.92    0.23 
  -3   0  -3    1.58    0.20 
  -4   0  -3    3.06    0.31 
   4   0   3    2.98    0.34 
   4   0   3    2.63    0.26 
  -4   1   3    3.68    0.34 
   4  -1  -3    2.96    0.31 
  -3   1   3    4.87    0.30 
   3  -1  -3    5.32    0.33 
  -3   1   3    5.75    0.33 
  -2   1   3   40.85    1.39 
  -2   1   3   40.25    1.34 
   2  -1  -3   40.89    1.16 
   2  -1  -3   39.56    1.36 
  -1   1   3    2.67    0.14 
  -1   1   3    2.71    0.17 
   1  -1  -3    2.65    0.12 
   1  -1  -3    2.76    0.16 
   0   1   3   32.04    0.96 
   0  -1  -3   30.26    1.02 
   0  -1  -3   31.95    0.97 
   0   1   3   30.97    1.04 
  -1  -1  -3    2.38    0.16 
  -1  -1  -3    2.60    0.14 
   1   1   3    2.29    0.12 
   1   1   3    2.40    0.16 
   2   1   3    0.16    0.06 
   2   1   3    0.05    0.02 
  -2  -1  -3    0.10    0.06 
  -2  -1  -3    0.06    0.05 
  -3  -1  -3   -0.01    0.07 
   3   1   3    0.06    0.08 
  -3  -1  -3    0.04    0.06 
   4   1   3    0.94    0.21 
   4   1   3    0.94    0.17 
  -4  -1  -3    0.87    0.17 
   4  -2  -3    0.49    0.14 
  -4   2   3    0.29    0.11 
  -4   2   3    0.60    0.14 
  -3   2   3    0.60    0.12 
   3  -2  -3    0.55    0.13 
  -3   2   3    0.89    0.14 
   2  -2  -3   12.70    0.52 
  -2   2   3   12.86    0.50 
  -2   2   3   12.07    0.53 
  -1   2   3    9.92    0.44 
   1  -2  -3   10.77    0.42 
  -1   2   3   10.76    0.35 
   1  -2  -3   10.70    0.39 
   0  -2  -3    3.09    0.17 
   0   2   3    3.26    0.17 
   0   2   3    2.90    0.17 
   0  -2  -3    3.17    0.15 
   1   2   3   51.02    1.57 
   1   2   3   51.29    1.62 
  -1  -2  -3   50.56    1.62 
  -2  -2  -3    5.23    0.30 
  -2  -2  -3    4.71    0.28 
   2   2   3    5.09    0.29 
  -3  -2  -3   -0.02    0.07 
  -3  -2  -3    0.02    0.08 
   3   2   3    0.19    0.11 
   4   2   3    2.48    0.32 
   4   2   3    2.65    0.28 
  -4  -2  -3    2.70    0.32 
  -4   3   3    0.30    0.11 
  -4   3   3    0.15    0.09 
   4  -3  -3    0.20    0.10 
   3  -3  -3   15.26    0.65 
  -3   3   3   14.47    0.66 
  -3   3   3   14.83    0.63 
  -2   3   3    0.70    0.12 
  -2   3   3    0.97    0.12 
   2  -3  -3    0.76    0.11 
  -1   3   3   39.62    1.38 
   1  -3  -3   40.64    1.34 
   1  -3  -3   40.90    1.30 
  -1   3   3   40.57    1.21 
   0  -3  -3    8.34    0.34 
   0  -3  -3    8.15    0.32 
   0   3   3    7.80    0.33 
   0   3   3    7.82    0.35 
   1   3   3    0.27    0.07 
  -1  -3  -3    0.28    0.07 
   1   3   3    0.20    0.05 
  -1  -3  -3    0.37    0.07 
  -2  -3  -3    5.95    0.34 
  -2  -3  -3    6.03    0.33 
   2   3   3    6.34    0.34 
  -3  -3  -3    0.62    0.14 
  -3  -3  -3    0.79    0.17 
   3   3   3    1.10    0.19 
   4   3   3    0.12    0.14 
   4   3   3    0.18    0.13 
  -4  -3  -3    0.27    0.13 
   4  -4  -3    0.08    0.10 
  -4   4   3    0.12    0.09 
  -4   4   3    0.13    0.08 
   3  -4  -3    1.73    0.20 
  -3   4   3    1.51    0.20 
  -3   4   3    1.61    0.20 
   2  -4  -3    0.54    0.09 
   2  -4  -3    0.62    0.11 
  -2   4   3    0.36    0.10 
   1  -4  -3    8.51    0.37 
   1  -4  -3    8.16    0.35 
  -1   4   3    8.28    0.41 
  -1   4   3    8.18    0.31 
   0   4   3   18.79    0.66 
   0  -4  -3   18.70    0.68 
   0  -4  -3   18.92    0.69 
   0   4   3   18.95    0.71 
   1   4   3    7.09    0.30 
  -1  -4  -3    7.28    0.34 
   1   4   3    6.90    0.35 
  -2  -4  -3   12.99    0.57 
   2   4   3   12.52    0.57 
  -2  -4  -3   12.84    0.58 
  -3  -4  -3    1.74    0.23 
   3   4   3    1.42    0.22 
  -3  -4  -3    1.41    0.21 
  -4   5   3    0.57    0.14 
  -4   5   3    0.48    0.14 
   4  -5  -3    0.30    0.12 
  -3   5   3    0.07    0.08 
   3  -5  -3    0.06    0.08 
   3  -5  -3    0.15    0.09 
   2  -5  -3    9.51    0.44 
   2  -5  -3    9.42    0.44 
  -2   5   3    9.79    0.50 
  -1   5   3   10.53    0.38 
   1  -5  -3    9.63    0.42 
   1  -5  -3    9.82    0.43 
  -1   5   3    9.62    0.47 
   0   5   3    0.25    0.07 
   0  -5  -3    0.48    0.09 
   0   5   3    0.41    0.09 
   0  -5  -3    0.35    0.07 
  -1  -5  -3    5.12    0.29 
   1   5   3    5.45    0.25 
  -1  -5  -3    4.87    0.29 
  -2  -5  -3    5.85    0.35 
  -2  -5  -3    5.63    0.35 
   2   5   3    5.61    0.36 
   3   5   3    1.07    0.20 
  -3  -5  -3    0.88    0.18 
  -3  -5  -3    0.94    0.19 
   4  -6  -3    0.02    0.10 
   4  -6  -3   -0.01    0.08 
  -4   6   3    0.03    0.11 
  -3   6   3    0.23    0.12 
   3  -6  -3    0.27    0.10 
   3  -6  -3    0.44    0.12 
   2  -6  -3    4.69    0.28 
  -2   6   3    4.75    0.33 
   2  -6  -3    4.45    0.29 
  -1   6   3    6.34    0.38 
   1  -6  -3    6.83    0.35 
  -1   6   3    6.50    0.30 
   1  -6  -3    7.52    0.35 
   0  -6  -3    0.11    0.05 
   0   6   3    0.12    0.07 
   0   6   3    0.13    0.07 
   0  -6  -3    0.32    0.09 
  -1  -6  -3   10.74    0.50 
  -1  -6  -3   11.07    0.51 
   1   6   3   10.90    0.51 
  -2  -6  -3    3.52    0.29 
  -2  -6  -3    3.53    0.30 
   2   6   3    3.81    0.33 
  -3  -6  -3    0.86    0.18 
  -3  -6  -3    0.61    0.16 
   3   6   3    0.69    0.18 
   4  -7  -3    0.36    0.15 
   4  -7  -3    0.37    0.14 
  -4   7   3    0.49    0.17 
   3  -7  -3    4.12    0.33 
  -3   7   3    4.07    0.38 
   3  -7  -3    3.87    0.30 
   2  -7  -3    2.99    0.26 
  -2   7   3    2.09    0.27 
   2  -7  -3    2.65    0.22 
  -1   7   3    0.64    0.15 
  -1   7   3    0.84    0.12 
   1  -7  -3    1.17    0.17 
   1  -7  -3    0.75    0.12 
   0   7   3    2.12    0.22 
   0   7   3    1.95    0.21 
   0  -7  -3    2.29    0.19 
   0  -7  -3    2.37    0.22 
  -1  -7  -3    2.17    0.23 
  -1  -7  -3    2.19    0.21 
   1   7   3    1.90    0.23 
   2   7   3   -0.01    0.10 
  -2  -7  -3    0.29    0.11 
  -2  -7  -3    0.12    0.09 
   3  -8  -3    1.15    0.19 
  -3   8   3    1.21    0.23 
  -2   8   3    2.28    0.30 
   2  -8  -3    2.86    0.27 
   1  -8  -3    4.59    0.32 
  -1   8   3    5.03    0.35 
   0   8   3    0.80    0.15 
   0   8   3    0.81    0.16 
   0  -8  -3    0.91    0.16 
   1   8   3    8.43    0.47 
  -1  -8  -3    7.66    0.45 
  -2  -8  -3    0.04    0.09 
   2   8   3    0.06    0.11 
   3  -9  -3    0.24    0.12 
  -3   9   3    0.53    0.17 
  -2   9   3    0.39    0.16 
   2  -9  -3    0.42    0.14 
   1  -9  -3    7.28    0.44 
  -1   9   3    7.86    0.48 
   0  -9  -3    0.45    0.12 
   0   9   3    0.77    0.16 
   1   9   3    0.36    0.14 
  -1  -9  -3    0.34    0.12 
   2 -10  -3    1.69    0.26 
  -2  10   3    1.46    0.28 
   1 -10  -3    0.22    0.12 
  -1  10   3    0.07    0.15 
   0 -10  -3    3.77    0.34 
   0  10   3    3.95    0.34 
  -1 -11   4    0.04    0.09 
   1  11  -4   -0.01    0.10 
   0 -11   4    1.07    0.19 
   0  11  -4    1.06    0.20 
   0  11  -4    1.01    0.18 
   1 -11   4    0.94    0.20 
  -1  11  -4    0.95    0.21 
  -1  11  -4    1.08    0.18 
   2 -11   4   -0.01    0.10 
  -2  11  -4    0.04    0.15 
  -2 -10   4    0.30    0.13 
   2  10  -4    0.06    0.14 
  -1 -10   4    2.18    0.27 
   1  10  -4    2.43    0.27 
   0  10  -4    0.18    0.10 
   0  10  -4    0.16    0.11 
   0 -10   4    0.29    0.11 
  -1  10  -4   13.97    0.69 
   1 -10   4   13.20    0.66 
  -1  10  -4   14.30    0.61 
  -2  10  -4    0.14    0.14 
   2 -10   4    0.55    0.15 
   3 -10   4    0.06    0.12 
  -3  10  -4    0.11    0.12 
  -2  -9   4    0.04    0.08 
   2   9  -4    0.19    0.12 
  -1  -9   4    0.44    0.12 
   1   9  -4    0.35    0.11 
  -1  -9   4    0.54    0.12 
   0   9  -4    0.38    0.11 
   0  -9   4    0.24    0.10 
   0   9  -4    0.29    0.11 
  -1   9  -4    1.44    0.21 
  -1   9  -4    1.19    0.17 
   1  -9   4    1.40    0.21 
   2  -9   4    0.09    0.09 
  -2   9  -4    0.05    0.09 
  -2   9  -4    0.09    0.09 
   3  -9   4   -0.06    0.09 
  -3   9  -4    0.11    0.12 
  -3  -8   4    0.35    0.16 
   3   8  -4    0.45    0.16 
   2   8  -4    0.06    0.10 
  -2  -8   4    0.06    0.08 
   1   8  -4    3.57    0.29 
  -1  -8   4    4.47    0.28 
  -1  -8   4    4.44    0.30 
   0   8  -4    6.59    0.35 
   0  -8   4    6.58    0.37 
   0   8  -4    7.29    0.39 
  -1   8  -4    0.26    0.10 
  -1   8  -4    0.09    0.07 
   1  -8   4    0.12    0.08 
  -2   8  -4    1.04    0.18 
   2  -8   4    1.00    0.17 
  -2   8  -4    0.74    0.13 
   3  -8   4    1.26    0.20 
  -3   8  -4    1.45    0.22 
   3   7  -4    1.74    0.23 
  -3  -7   4    1.84    0.27 
  -2  -7   4    0.56    0.14 
   2   7  -4    0.74    0.15 
   1   7  -4   16.03    0.64 
  -1  -7   4   15.78    0.66 
  -1  -7   4   16.99    0.69 
   0   7  -4    0.00    0.06 
   0  -7   4   -0.01    0.06 
   0   7  -4    0.12    0.07 
   1  -7   4    0.20    0.08 
  -1   7  -4    0.25    0.08 
  -1   7  -4    0.09    0.08 
   2  -7   4    0.04    0.07 
  -2   7  -4   -0.02    0.06 
  -2   7  -4   -0.01    0.08 
   3  -7   4    0.64    0.14 
  -3   7  -4    0.74    0.17 
   4  -7   4    1.67    0.25 
  -4   7  -4    2.06    0.27 
   3   6  -4    0.44    0.13 
  -3  -6   4    0.56    0.14 
   3   6  -4    0.55    0.13 
  -2  -6   4    8.22    0.38 
  -2  -6   4    7.20    0.43 
   2   6  -4    8.32    0.41 
   2   6  -4    9.51    0.40 
  -1  -6   4    0.05    0.04 
  -1  -6   4   -0.01    0.04 
   1   6  -4    0.04    0.06 
   0   6  -4    0.48    0.10 
   0   6  -4    0.57    0.10 
   0  -6   4    0.53    0.10 
  -1   6  -4    1.63    0.18 
  -1   6  -4    2.49    0.19 
   1  -6   4    1.95    0.17 
   2  -6   4   11.22    0.49 
   2  -6   4   11.56    0.46 
  -2   6  -4    9.21    0.43 
  -2   6  -4   11.74    0.53 
  -3   6  -4    0.01    0.09 
   3  -6   4    0.00    0.08 
   3  -6   4    0.03    0.07 
   4  -6   4    0.80    0.17 
  -4  -5   4    0.31    0.13 
   4   5  -4    0.36    0.14 
   3   5  -4   -0.08    0.08 
   3   5  -4    0.06    0.09 
  -3  -5   4    0.00    0.07 
   2   5  -4   20.70    0.76 
  -2  -5   4   21.60    0.77 
   2   5  -4   20.97    0.78 
  -2  -5   4   19.24    0.81 
  -1  -5   4    0.10    0.06 
   1   5  -4    0.24    0.07 
   1   5  -4    0.14    0.04 
  -1  -5   4    0.27    0.07 
   0  -5   4    1.24    0.13 
   0   5  -4    1.23    0.13 
   1  -5   4    0.31    0.08 
  -1   5  -4    0.26    0.07 
  -1   5  -4    0.28    0.05 
  -1   5  -4    0.24    0.07 
   2  -5   4    0.46    0.09 
  -2   5  -4    0.41    0.10 
  -2   5  -4    0.39    0.08 
   2  -5   4    0.36    0.09 
   3  -5   4   15.66    0.70 
  -3   5  -4   16.74    0.71 
  -3   5  -4   16.83    0.71 
  -4   5  -4    1.03    0.19 
   4  -5   4    0.97    0.20 
   4   4  -4    0.06    0.10 
  -4  -4   4    0.08    0.11 
  -3  -4   4    0.06    0.08 
   3   4  -4    0.12    0.09 
   3   4  -4    0.06    0.08 
  -2  -4   4    0.35    0.07 
   2   4  -4    0.26    0.07 
   2   4  -4    0.51    0.09 
  -2  -4   4    0.33    0.09 
  -1  -4   4   17.19    0.64 
   1   4  -4   16.73    0.60 
  -1  -4   4   17.29    0.63 
   1   4  -4   16.60    0.59 
   0  -4   4    0.66    0.08 
   0   4  -4    0.37    0.07 
   0  -4   4    0.47    0.08 
   0   4  -4    0.52    0.05 
  -1   4  -4   50.57    1.69 
   1  -4   4   50.07    1.61 
  -1   4  -4   50.88    1.56 
  -1   4  -4   51.57    1.62 
  -2   4  -4    3.12    0.20 
  -2   4  -4    3.06    0.20 
  -2   4  -4    3.48    0.23 
  -2   4  -4    3.20    0.21 
  -3   4  -4    0.60    0.12 
   3  -4   4    0.41    0.12 
   3  -4   4    0.73    0.12 
  -3   4  -4    0.47    0.12 
  -4   4  -4    0.39    0.12 
   4  -4   4    0.27    0.13 
  -4  -3   4    4.21    0.40 
   4   3  -4    3.52    0.34 
   3   3  -4    1.77    0.21 
  -3  -3   4    1.65    0.22 
   3   3  -4    2.44    0.20 
  -2  -3   4    0.38    0.07 
   2   3  -4    0.45    0.08 
   2   3  -4    0.39    0.08 
  -2  -3   4    0.35    0.09 
  -1  -3   4    6.21    0.30 
  -1  -3   4    6.37    0.28 
   1   3  -4    6.58    0.28 
   1   3  -4    6.51    0.27 
   0  -3   4    2.99    0.15 
   0   3  -4    3.07    0.14 
   0   3  -4    2.87    0.16 
   0  -3   4    2.99    0.18 
  -1   3  -4    0.04    0.04 
  -1   3  -4    0.03    0.04 
  -1   3  -4    0.07    0.03 
   1  -3   4    0.08    0.03 
  -2   3  -4   42.31    1.31 
  -2   3  -4   40.92    1.37 
  -2   3  -4   41.03    1.42 
  -2   3  -4   40.95    1.40 
  -3   3  -4    0.52    0.11 
   3  -3   4    0.63    0.12 
  -3   3  -4    0.48    0.12 
  -3   3  -4    0.52    0.12 
   4  -3   4    1.11    0.22 
  -4   3  -4    1.19    0.19 
   4   2  -4    2.12    0.27 
  -4  -2   4    2.43    0.30 
  -3  -2   4    1.06    0.14 
   3   2  -4    0.71    0.11 
  -3  -2   4    0.94    0.16 
   3   2  -4    0.89    0.15 
   2   2  -4   13.05    0.54 
   2   2  -4   13.37    0.47 
  -2  -2   4   13.38    0.55 
  -2  -2   4   13.31    0.53 
   1   2  -4    9.39    0.35 
   1   2  -4    9.83    0.37 
  -1  -2   4    9.55    0.37 
  -1  -2   4    9.36    0.39 
   0   2  -4   14.82    0.52 
   0  -2   4   14.86    0.48 
   0  -2   4   14.78    0.55 
  -1   2  -4    0.77    0.09 
  -1   2  -4    1.02    0.08 
   1  -2   4    0.87    0.10 
  -1   2  -4    0.94    0.10 
  -2   2  -4    1.83    0.17 
  -2   2  -4    1.49    0.14 
   2  -2   4    1.57    0.16 
  -3   2  -4    3.29    0.27 
  -3   2  -4    3.50    0.30 
   3  -2   4    3.40    0.25 
  -4   2  -4    0.35    0.12 
   4  -2   4    0.37    0.16 
  -4  -1   4    0.21    0.11 
   4   1  -4    0.07    0.10 
  -3  -1   4    3.84    0.28 
   3   1  -4    3.20    0.28 
  -3  -1   4    4.58    0.27 
   3   1  -4    4.05    0.20 
  -2  -1   4    0.20    0.06 
  -2  -1   4    0.11    0.06 
   2   1  -4    0.54    0.10 
   2   1  -4    0.32    0.06 
  -1  -1   4   52.18    1.63 
  -1  -1   4   52.70    1.72 
   1   1  -4   52.20    1.55 
   1   1  -4   52.52    1.67 
   0  -1   4   75.28    2.39 
   0   1  -4   75.28    2.35 
   0   1  -4   74.94    2.20 
  -1   1  -4   10.33    0.41 
  -1   1  -4   10.75    0.39 
   1  -1   4   10.91    0.42 
  -1   1  -4   10.77    0.43 
  -2   1  -4    2.59    0.17 
   2  -1   4    2.62    0.16 
   2  -1   4    2.60    0.20 
  -2   1  -4    2.29    0.20 
  -3   1  -4    0.19    0.08 
  -3   1  -4    0.09    0.08 
   3  -1   4    0.15    0.09 
  -4   1  -4    2.52    0.29 
   4  -1   4    2.25    0.31 
  -4   0   4    1.16    0.20 
   4   0  -4    0.98    0.18 
   3   0  -4    2.59    0.24 
  -3   0   4    2.50    0.24 
  -3   0   4    2.78    0.23 
   2   0  -4   12.79    0.54 
  -2   0   4   13.65    0.53 
   2   0  -4   13.41    0.44 
  -2   0   4   13.19    0.55 
  -1   0   4    6.44    0.25 
   1   0  -4    6.21    0.24 
   1   0  -4    6.39    0.28 
   0   0  -4   52.47    1.66 
   0   0   4   51.56    1.69 
   0   0  -4   52.33    1.56 
   1   0   4    0.08    0.05 
  -1   0  -4    0.14    0.04 
   1   0   4    0.21    0.05 
  -1   0  -4    0.11    0.04 
  -2   0  -4    8.42    0.42 
   2   0   4    7.75    0.38 
   2   0   4    8.92    0.34 
  -2   0  -4    8.97    0.39 
  -3   0  -4    0.19    0.09 
   3   0   4    0.40    0.11 
  -3   0  -4    0.29    0.09 
   4   0   4    0.05    0.12 
   4   0   4   -0.07    0.10 
  -4   0  -4    0.00    0.08 
  -4   1   4    3.28    0.28 
   4  -1  -4    3.35    0.33 
  -4   1   4    3.37    0.32 
  -3   1   4    0.57    0.12 
  -3   1   4    0.27    0.09 
   3  -1  -4    0.41    0.11 
   2  -1  -4   15.42    0.60 
   2  -1  -4   14.41    0.46 
  -2   1   4   14.15    0.61 
  -2   1   4   15.18    0.57 
  -1   1   4   63.57    1.94 
   1  -1  -4   61.95    2.01 
  -1   1   4   63.51    2.06 
   1  -1  -4   62.40    1.83 
   0   1   4    0.06    0.04 
   0  -1  -4    0.10    0.02 
   0  -1  -4    0.14    0.04 
   0   1   4    0.14    0.05 
  -1  -1  -4    0.42    0.06 
   1   1   4    0.40    0.06 
  -1  -1  -4    0.42    0.08 
   1   1   4    0.38    0.08 
  -2  -1  -4    0.05    0.05 
  -2  -1  -4    0.06    0.04 
   2   1   4    0.12    0.08 
  -3  -1  -4   15.67    0.69 
  -3  -1  -4   15.29    0.73 
   3   1   4   15.67    0.66 
   4   1   4    1.04    0.21 
  -4  -1  -4    1.11    0.23 
  -4  -1  -4    1.16    0.20 
  -4   2   4    1.17    0.19 
   4  -2  -4    1.49    0.22 
  -4   2   4    1.60    0.22 
   3  -2  -4    0.21    0.09 
  -3   2   4    0.09    0.08 
  -3   2   4    0.02    0.06 
  -2   2   4   -0.04    0.04 
  -2   2   4   -0.02    0.04 
   2  -2  -4    0.02    0.06 
  -1   2   4   12.41    0.53 
  -1   2   4   13.01    0.43 
   1  -2  -4   12.74    0.50 
   1  -2  -4   12.42    0.45 
   0   2   4    3.44    0.19 
   0   2   4    3.41    0.20 
   0  -2  -4    3.73    0.16 
   0  -2  -4    3.61    0.20 
  -1  -2  -4    1.29    0.11 
   1   2   4    1.40    0.15 
   1   2   4    1.38    0.12 
  -1  -2  -4    1.14    0.13 
  -2  -2  -4    0.04    0.06 
  -2  -2  -4    0.09    0.05 
   2   2   4    0.04    0.08 
   3   2   4    2.87    0.28 
  -3  -2  -4    2.87    0.28 
  -3  -2  -4    3.30    0.32 
   4   2   4    2.09    0.27 
  -4  -2  -4    2.05    0.32 
  -4  -2  -4    2.01    0.27 
  -4   3   4    1.77    0.24 
   4  -3  -4    2.02    0.25 
  -4   3   4    1.24    0.19 
   3  -3  -4    0.33    0.10 
  -3   3   4    0.17    0.09 
  -3   3   4    0.29    0.09 
  -2   3   4    1.98    0.17 
  -2   3   4    1.84    0.20 
   2  -3  -4    1.81    0.18 
   1  -3  -4    0.12    0.06 
  -1   3   4    0.33    0.06 
   1  -3  -4    0.23    0.05 
  -1   3   4    0.23    0.09 
   0  -3  -4    5.26    0.23 
   0  -3  -4    4.95    0.26 
   0   3   4    4.91    0.27 
   0   3   4    4.66    0.24 
   1   3   4    0.54    0.09 
   1   3   4    0.42    0.09 
  -1  -3  -4    0.62    0.11 
  -1  -3  -4    0.42    0.07 
  -2  -3  -4   20.34    0.84 
   2   3   4   20.61    0.81 
  -2  -3  -4   21.38    0.81 
  -3  -3  -4    0.00    0.08 
   3   3   4   -0.07    0.10 
  -3  -3  -4    0.02    0.07 
   4  -4  -4    1.21    0.20 
  -4   4   4    0.88    0.18 
  -4   4   4    0.82    0.15 
   3  -4  -4    1.88    0.22 
  -3   4   4    2.16    0.26 
  -3   4   4    2.37    0.23 
   2  -4  -4   -0.04    0.05 
  -2   4   4   -0.03    0.07 
   2  -4  -4    0.01    0.06 
  -1   4   4    1.62    0.13 
   1  -4  -4    1.36    0.13 
   1  -4  -4    1.56    0.16 
  -1   4   4    1.61    0.19 
   0  -4  -4    0.08    0.05 
   0  -4  -4    0.02    0.04 
   0   4   4    0.06    0.05 
   0   4   4    0.01    0.05 
   1   4   4    4.82    0.29 
  -1  -4  -4    5.38    0.30 
  -1  -4  -4    5.35    0.28 
   1   4   4    5.42    0.26 
   2   4   4    1.20    0.19 
  -2  -4  -4    1.42    0.18 
  -2  -4  -4    1.09    0.17 
  -3  -4  -4    0.43    0.14 
  -3  -4  -4    0.59    0.16 
   3   4   4    0.48    0.16 
  -4   5   4    1.14    0.21 
  -4   5   4    0.98    0.18 
   4  -5  -4    0.98    0.19 
   3  -5  -4    0.04    0.06 
   3  -5  -4   -0.06    0.08 
  -3   5   4    0.02    0.08 
   2  -5  -4   -0.03    0.05 
   2  -5  -4   -0.03    0.06 
  -2   5   4    0.02    0.09 
  -1   5   4    2.52    0.17 
  -1   5   4    3.00    0.26 
   1  -5  -4    2.58    0.21 
   1  -5  -4    2.97    0.19 
   0  -5  -4    6.91    0.35 
   0   5   4    7.19    0.35 
   0   5   4    6.89    0.36 
   0  -5  -4    6.84    0.33 
  -1  -5  -4    1.58    0.17 
  -1  -5  -4    1.83    0.19 
   1   5   4    1.56    0.20 
  -2  -5  -4    0.67    0.14 
  -2  -5  -4    0.59    0.13 
   2   5   4    1.06    0.17 
  -3  -5  -4   -0.04    0.09 
  -3  -5  -4    0.09    0.10 
   3   5   4    0.16    0.13 
   4  -6  -4    0.65    0.17 
  -4   6   4    0.72    0.18 
   4  -6  -4    0.92    0.18 
   3  -6  -4    0.40    0.13 
  -3   6   4    0.36    0.13 
   3  -6  -4    0.41    0.12 
   2  -6  -4    0.23    0.10 
  -2   6   4    0.28    0.12 
   2  -6  -4    0.30    0.10 
  -1   6   4    0.20    0.06 
  -1   6   4    0.15    0.10 
   1  -6  -4    0.05    0.06 
   1  -6  -4   -0.02    0.07 
   0   6   4   16.52    0.65 
   0  -6  -4   16.96    0.67 
   0   6   4   16.24    0.69 
   0  -6  -4   15.90    0.65 
  -1  -6  -4    1.44    0.18 
  -1  -6  -4    1.18    0.17 
   1   6   4    1.31    0.19 
   2   6   4    1.21    0.20 
  -2  -6  -4    1.11    0.18 
  -2  -6  -4    1.00    0.18 
  -3  -6  -4    0.04    0.10 
   3  -7  -4    0.45    0.12 
  -3   7   4    0.14    0.11 
   3  -7  -4    0.37    0.12 
   2  -7  -4    1.11    0.17 
   2  -7  -4    0.80    0.15 
  -2   7   4    0.60    0.17 
  -1   7   4    4.92    0.26 
   1  -7  -4    4.19    0.27 
  -1   7   4    3.78    0.33 
   1  -7  -4    3.95    0.28 
   0  -7  -4    0.52    0.12 
   0  -7  -4    0.76    0.13 
   0   7   4    0.69    0.15 
   0   7   4    0.53    0.13 
  -1  -7  -4    0.76    0.14 
   1   7   4    0.69    0.16 
  -1  -7  -4    1.15    0.17 
  -2  -7  -4    0.15    0.09 
   2   7   4   -0.07    0.09 
  -2  -7  -4    0.10    0.09 
   3  -8  -4    0.57    0.14 
  -3   8   4    0.46    0.17 
   2  -8  -4    1.50    0.22 
  -2   8   4    0.91    0.20 
   1  -8  -4    4.80    0.30 
   1  -8  -4    4.71    0.33 
  -1   8   4    4.36    0.37 
   0   8   4    1.69    0.21 
   0  -8  -4    1.36    0.17 
   0  -8  -4    1.26    0.19 
   1   8   4    0.58    0.16 
  -1  -8  -4    0.68    0.15 
  -2   9   4    0.07    0.15 
   2  -9  -4   -0.01    0.11 
   1  -9  -4    0.14    0.11 
  -1   9   4    0.12    0.13 
   0  -9  -4    0.22    0.10 
   0   9   4    0.12    0.12 
   1   9   4    0.10    0.12 
  -1  -9  -4    0.08    0.09 
  -1  10   4    0.07    0.15 
   1 -10  -4    0.02    0.10 
  -1 -11   5    0.80    0.17 
   1  11  -5    0.84    0.18 
   0 -11   5    0.77    0.16 
   0  11  -5    0.75    0.16 
   1 -11   5    6.26    0.43 
  -1  11  -5    5.82    0.37 
  -1  11  -5    6.13    0.44 
   2 -11   5    4.54    0.40 
  -2  11  -5    3.59    0.40 
  -2 -10   5    0.07    0.09 
   2  10  -5    0.03    0.13 
   1  10  -5    1.35    0.20 
  -1 -10   5    1.72    0.22 
  -1 -10   5    1.52    0.22 
   0 -10   5    0.74    0.15 
   0  10  -5    0.68    0.15 
  -1  10  -5    2.84    0.32 
   1 -10   5    3.14    0.31 
  -1  10  -5    3.18    0.29 
   2 -10   5    0.34    0.12 
  -2  10  -5    0.27    0.14 
  -2  -9   5    0.10    0.09 
   2   9  -5    0.30    0.14 
  -1  -9   5    0.21    0.10 
  -1  -9   5    0.06    0.08 
   1   9  -5    0.05    0.09 
   0   9  -5   29.63    1.07 
   0  -9   5   29.96    1.12 
  -1   9  -5    4.93    0.31 
   1  -9   5    4.85    0.33 
  -2   9  -5    0.88    0.17 
   2  -9   5    1.16    0.19 
  -2   9  -5    1.24    0.18 
  -3   9  -5    0.34    0.15 
   3  -9   5    0.38    0.14 
   3   8  -5    0.17    0.13 
  -3  -8   5    0.08    0.10 
  -2  -8   5    3.91    0.33 
   2   8  -5    3.69    0.32 
  -1  -8   5    1.77    0.21 
  -1  -8   5    2.24    0.23 
   1   8  -5    1.60    0.20 
   0   8  -5    0.12    0.08 
   0  -8   5    0.08    0.07 
  -1   8  -5    0.20    0.09 
   1  -8   5    0.12    0.08 
  -1   8  -5    0.08    0.10 
  -2   8  -5    0.21    0.12 
  -2   8  -5    0.36    0.10 
   2  -8   5    0.20    0.10 
   3  -8   5    1.43    0.20 
  -3   8  -5    1.38    0.23 
  -3  -7   5    0.23    0.12 
   3   7  -5    0.21    0.12 
  -2  -7   5    2.74    0.28 
   2   7  -5    3.08    0.27 
  -1  -7   5   45.01    1.53 
   1   7  -5   43.11    1.45 
  -1  -7   5   44.45    1.55 
   0  -7   5    6.53    0.34 
   0   7  -5    6.80    0.35 
   0  -7   5    6.51    0.37 
  -1   7  -5    0.51    0.11 
   1  -7   5    0.62    0.11 
  -1   7  -5    0.63    0.13 
  -2   7  -5    0.18    0.09 
   2  -7   5    0.21    0.08 
  -2   7  -5    0.27    0.09 
   3  -7   5    4.29    0.31 
  -3   7  -5    5.28    0.37 
   3   6  -5    0.81    0.16 
  -3  -6   5    0.61    0.16 
  -2  -6   5    1.93    0.19 
  -2  -6   5    2.13    0.23 
   2   6  -5    1.81    0.20 
   1   6  -5    0.23    0.08 
  -1  -6   5    0.34    0.10 
  -1  -6   5    0.37    0.09 
   0  -6   5    0.56    0.11 
   0   6  -5    0.48    0.10 
   0  -6   5    0.52    0.10 
   1  -6   5    0.09    0.06 
  -1   6  -5    0.20    0.08 
  -1   6  -5    0.22    0.08 
   2  -6   5    4.56    0.25 
  -2   6  -5    4.63    0.27 
  -2   6  -5    4.39    0.30 
   2  -6   5    4.64    0.28 
  -3   6  -5    2.72    0.28 
   3  -6   5    2.44    0.24 
   3  -6   5    2.42    0.25 
   4   5  -5    0.13    0.11 
  -4  -5   5    0.18    0.13 
   3   5  -5   13.81    0.64 
  -3  -5   5   14.27    0.69 
   3   5  -5   14.59    0.61 
  -2  -5   5   16.71    0.66 
   2   5  -5   15.97    0.63 
  -2  -5   5   16.26    0.69 
   2   5  -5   16.75    0.64 
   1   5  -5   10.73    0.45 
   1   5  -5   10.79    0.40 
  -1  -5   5   11.17    0.48 
  -1  -5   5   10.17    0.45 
   0  -5   5    0.03    0.05 
   0   5  -5    0.02    0.02 
   0  -5   5    0.02    0.04 
   0   5  -5    0.03    0.04 
  -1   5  -5    3.12    0.22 
  -1   5  -5    3.57    0.18 
   1  -5   5    3.42    0.20 
  -1   5  -5    2.97    0.20 
  -2   5  -5   11.72    0.48 
  -2   5  -5   10.71    0.48 
  -2   5  -5   11.95    0.53 
   2  -5   5   10.66    0.48 
  -3   5  -5    5.89    0.36 
  -3   5  -5    5.76    0.35 
  -3   5  -5    5.56    0.32 
   3  -5   5    5.55    0.36 
   4  -5   5   -0.01    0.12 
  -4   5  -5    0.05    0.09 
  -4  -4   5    0.31    0.14 
   4   4  -5   -0.01    0.10 
  -3  -4   5   12.68    0.63 
   3   4  -5   13.37    0.55 
  -2  -4   5    0.11    0.05 
   2   4  -5    0.15    0.07 
  -2  -4   5    0.25    0.08 
   2   4  -5    0.09    0.06 
   1   4  -5    0.24    0.05 
  -1  -4   5    0.18    0.06 
  -1  -4   5    0.37    0.07 
   1   4  -5    0.35    0.08 
   0  -4   5    0.08    0.05 
   0  -4   5    0.08    0.04 
   0   4  -5    0.15    0.03 
   0   4  -5    0.04    0.04 
  -1   4  -5    0.54    0.08 
  -1   4  -5    0.48    0.09 
   1  -4   5    0.43    0.07 
   1  -4   5    0.59    0.11 
  -2   4  -5   31.65    1.11 
  -2   4  -5   30.17    1.03 
  -2   4  -5   30.16    1.10 
  -3   4  -5    5.02    0.31 
   3  -4   5    4.84    0.29 
  -3   4  -5    5.13    0.31 
  -3   4  -5    4.48    0.33 
  -4   4  -5    0.90    0.17 
   4  -4   5    0.81    0.20 
   4   3  -5    8.55    0.51 
  -4  -3   5    9.13    0.55 
  -3  -3   5    3.83    0.32 
   3   3  -5    3.65    0.29 
   3   3  -5    4.98    0.26 
  -3  -3   5    4.48    0.28 
   2   3  -5    1.50    0.15 
   2   3  -5    1.70    0.16 
  -2  -3   5    1.82    0.18 
  -2  -3   5    2.02    0.18 
   1   3  -5    1.00    0.11 
   1   3  -5    1.17    0.11 
  -1  -3   5    1.15    0.13 
  -1  -3   5    0.94    0.10 
   0  -3   5   76.53    2.49 
   0   3  -5   77.62    2.30 
   0  -3   5   76.98    2.36 
   0   3  -5   77.28    2.40 
   1  -3   5    2.32    0.13 
  -1   3  -5    2.27    0.18 
  -1   3  -5    2.22    0.15 
   1  -3   5    2.28    0.18 
  -2   3  -5    0.30    0.08 
  -2   3  -5    0.38    0.09 
   2  -3   5    0.41    0.09 
  -2   3  -5    0.37    0.08 
  -3   3  -5    0.79    0.16 
   3  -3   5    0.55    0.13 
  -3   3  -5    0.75    0.13 
   3  -3   5    0.63    0.12 
   4  -3   5    3.89    0.39 
  -4   3  -5    4.16    0.34 
  -4  -2   5    6.69    0.43 
   4   2  -5    5.77    0.40 
   3   2  -5    0.72    0.10 
   3   2  -5    0.73    0.14 
  -3  -2   5    0.55    0.13 
  -3  -2   5    0.65    0.12 
  -2  -2   5    1.13    0.14 
   2   2  -5    1.24    0.12 
   2   2  -5    1.12    0.14 
  -2  -2   5    0.93    0.13 
  -1  -2   5    0.58    0.09 
  -1  -2   5    0.54    0.07 
   1   2  -5    0.86    0.10 
   1   2  -5    0.64    0.09 
   0  -2   5    3.07    0.12 
   0  -2   5    2.99    0.19 
   0   2  -5    3.10    0.17 
   0   2  -5    2.99    0.17 
  -1   2  -5  155.84    4.67 
  -1   2  -5  154.88    4.79 
   1  -2   5  155.48    4.86 
  -1   2  -5  153.74    4.50 
   2  -2   5    1.89    0.17 
   2  -2   5    1.68    0.18 
  -2   2  -5    1.95    0.16 
  -2   2  -5    1.76    0.19 
  -3   2  -5    3.67    0.26 
   3  -2   5    3.84    0.28 
  -3   2  -5    4.02    0.34 
  -4   2  -5    2.02    0.25 
   4  -2   5    2.29    0.31 
   4   1  -5    0.94    0.18 
  -4  -1   5    1.12    0.19 
  -3  -1   5    0.00    0.06 
   3   1  -5    0.00    0.06 
  -3  -1   5    0.04    0.06 
  -2  -1   5    0.05    0.04 
   2   1  -5    0.00    0.04 
   2   1  -5    0.03    0.04 
  -2  -1   5    0.08    0.05 
   1   1  -5   91.99    2.85 
   1   1  -5   89.93    2.65 
  -1  -1   5   89.61    2.77 
  -1  -1   5   91.53    2.92 
   0   1  -5    1.81    0.13 
   0   1  -5    1.86    0.14 
   0  -1   5    2.07    0.15 
   1  -1   5    2.59    0.17 
  -1   1  -5    2.76    0.18 
  -1   1  -5    2.57    0.17 
  -1   1  -5    2.97    0.14 
   2  -1   5    6.92    0.31 
   2  -1   5    6.58    0.34 
  -2   1  -5    6.63    0.32 
  -2   1  -5    6.39    0.35 
   3  -1   5    5.83    0.35 
  -3   1  -5    6.33    0.36 
  -3   1  -5    5.89    0.39 
  -4   1  -5    3.60    0.34 
   4  -1   5    4.27    0.34 
   4   0  -5    0.07    0.09 
  -4   0   5    0.13    0.09 
   3   0  -5    0.28    0.09 
  -3   0   5    0.39    0.10 
  -3   0   5    0.50    0.11 
  -2   0   5    6.26    0.34 
   2   0  -5    6.16    0.25 
  -2   0   5    5.95    0.30 
   1   0  -5    8.03    0.31 
  -1   0   5    8.27    0.29 
  -1   0   5    7.96    0.37 
   1   0  -5    7.58    0.35 
   0   0  -5  118.47    3.45 
   0   0   5  120.04    3.75 
   0   0  -5  117.20    3.69 
  -1   0  -5    3.99    0.18 
   1   0   5    3.68    0.20 
   1   0   5    3.60    0.22 
  -2   0  -5    4.05    0.23 
  -2   0  -5    3.57    0.26 
   2   0   5    4.20    0.21 
   2   0   5    3.84    0.26 
  -3   0  -5    0.74    0.16 
   3   0   5    0.59    0.14 
  -3   0  -5    0.33    0.11 
   4   0   5    9.07    0.51 
  -4   0  -5    9.78    0.54 
  -4   0  -5    9.59    0.60 
  -4   1   5    0.01    0.08 
  -4   1   5   -0.01    0.09 
   4  -1  -5    0.05    0.09 
   3  -1  -5    4.77    0.31 
  -3   1   5    4.08    0.30 
  -3   1   5    4.13    0.28 
   2  -1  -5   10.83    0.37 
   2  -1  -5   11.12    0.49 
  -2   1   5   10.97    0.44 
  -2   1   5   10.66    0.51 
   1  -1  -5   30.34    0.94 
   1  -1  -5   30.23    1.05 
   0  -1  -5    0.94    0.11 
   0  -1  -5    0.95    0.06 
   0   1   5    0.95    0.12 
   0   1   5    1.03    0.12 
   1   1   5   30.74    1.04 
   1   1   5   31.54    1.07 
  -1  -1  -5   31.71    1.03 
  -2  -1  -5    4.39    0.29 
   2   1   5    4.02    0.27 
  -2  -1  -5    4.26    0.25 
   3   1   5    2.97    0.29 
  -3  -1  -5    3.68    0.34 
  -3  -1  -5    3.11    0.28 
   4   1   5    0.94    0.20 
  -4  -1  -5    0.71    0.15 
  -4  -1  -5    0.94    0.22 
  -4   2   5    0.11    0.10 
  -4   2   5    0.21    0.10 
   4  -2  -5    0.18    0.11 
  -3   2   5    8.16    0.42 
   3  -2  -5    8.10    0.45 
  -3   2   5    8.91    0.47 
  -2   2   5   24.33    0.98 
  -2   2   5   25.59    0.89 
   2  -2  -5   26.07    0.94 
  -1   2   5   13.61    0.47 
   1  -2  -5   12.55    0.54 
  -1   2   5   13.61    0.58 
   1  -2  -5   13.37    0.47 
   0   2   5    4.60    0.26 
   0   2   5    4.80    0.25 
   0  -2  -5    4.56    0.19 
   0  -2  -5    4.42    0.25 
  -1  -2  -5    2.38    0.15 
  -1  -2  -5    2.18    0.19 
   1   2   5    2.39    0.16 
   1   2   5    1.94    0.19 
  -2  -2  -5    4.52    0.31 
  -2  -2  -5    5.14    0.29 
   2   2   5    4.57    0.31 
  -3  -2  -5   12.23    0.60 
   3   2   5   12.22    0.59 
  -3  -2  -5   12.19    0.64 
   4  -3  -5    2.03    0.27 
  -4   3   5    2.61    0.30 
  -4   3   5    2.65    0.28 
  -3   3   5    1.94    0.25 
   3  -3  -5    2.24    0.24 
  -3   3   5    1.92    0.21 
   2  -3  -5   22.27    0.87 
   2  -3  -5   23.94    0.83 
  -2   3   5   22.01    0.92 
  -1   3   5    2.67    0.24 
   1  -3  -5    2.40    0.20 
  -1   3   5    2.79    0.16 
   1  -3  -5    3.03    0.16 
   0  -3  -5   23.60    0.77 
   0  -3  -5   19.93    0.83 
   0   3   5   23.95    0.86 
   0   3   5   23.38    0.80 
  -1  -3  -5    4.46    0.24 
  -1  -3  -5    4.23    0.27 
   1   3   5    4.50    0.28 
   1   3   5    4.75    0.25 
   2   3   5    0.83    0.16 
  -2  -3  -5    0.58    0.13 
  -2  -3  -5    0.62    0.12 
  -3  -3  -5    3.65    0.32 
  -3  -3  -5    4.85    0.39 
   3   3   5    3.58    0.35 
   4  -4  -5    1.22    0.21 
  -4   4   5    1.18    0.22 
  -4   4   5    1.06    0.18 
  -3   4   5    6.14    0.41 
   3  -4  -5    6.91    0.40 
   2  -4  -5    1.24    0.17 
  -2   4   5    0.98    0.17 
   2  -4  -5    1.33    0.15 
   1  -4  -5    0.05    0.04 
   1  -4  -5    0.06    0.06 
  -1   4   5    0.02    0.07 
  -1   4   5    0.06    0.05 
   0  -4  -5    1.09    0.11 
   0  -4  -5    1.21    0.15 
   0   4   5    1.10    0.15 
   0   4   5    1.17    0.15 
  -1  -4  -5   28.46    1.07 
   1   4   5   29.92    1.05 
  -1  -4  -5   29.00    1.02 
   2   4   5    4.51    0.35 
  -2  -4  -5    4.94    0.31 
  -2  -4  -5    4.47    0.32 
  -3  -4  -5    1.81    0.26 
   3   4   5    1.43    0.24 
   4  -5  -5    2.81    0.30 
  -4   5   5    2.60    0.33 
   4  -5  -5    2.70    0.32 
   3  -5  -5    4.03    0.30 
  -3   5   5    4.64    0.40 
   3  -5  -5    4.84    0.33 
  -2   5   5    4.59    0.37 
   2  -5  -5    4.43    0.27 
   2  -5  -5    4.52    0.30 
   1  -5  -5    5.73    0.30 
   1  -5  -5    4.69    0.30 
  -1   5   5    5.16    0.34 
  -1   5   5    5.20    0.27 
   0  -5  -5    0.23    0.06 
   0   5   5    0.17    0.09 
   0   5   5    0.27    0.09 
   0  -5  -5    0.22    0.08 
   1   5   5    4.47    0.33 
  -1  -5  -5    4.29    0.29 
  -1  -5  -5    4.19    0.26 
  -2  -5  -5    4.64    0.34 
  -2  -5  -5    4.64    0.31 
   2   5   5    4.52    0.37 
   3   5   5    2.57    0.33 
  -3  -5  -5    2.52    0.32 
   4  -6  -5    0.55    0.18 
  -4   6   5    0.45    0.16 
   4  -6  -5    0.27    0.11 
  -3   6   5    0.01    0.11 
   3  -6  -5    0.26    0.11 
   3  -6  -5    0.11    0.09 
   2  -6  -5    0.41    0.11 
  -2   6   5    0.60    0.17 
   2  -6  -5    0.55    0.13 
   1  -6  -5    0.84    0.14 
  -1   6   5    1.03    0.14 
  -1   6   5    1.09    0.19 
   1  -6  -5    0.80    0.14 
   0   6   5   19.20    0.75 
   0  -6  -5   18.51    0.74 
   0  -6  -5   19.52    0.78 
   0   6   5   20.08    0.81 
   1   6   5    4.38    0.34 
  -1  -6  -5    4.23    0.28 
  -1  -6  -5    4.21    0.30 
   2   6   5    0.96    0.20 
  -2  -6  -5    0.90    0.17 
   3  -7  -5    0.88    0.17 
   3  -7  -5    0.81    0.17 
  -3   7   5    0.91    0.20 
   2  -7  -5    1.37    0.19 
   2  -7  -5    0.84    0.17 
  -2   7   5    1.14    0.22 
   1  -7  -5    5.19    0.33 
  -1   7   5    4.95    0.40 
   1  -7  -5    6.00    0.35 
   0  -7  -5    0.33    0.10 
   0   7   5    0.51    0.14 
   0   7   5    0.30    0.11 
   0  -7  -5    0.44    0.12 
  -1  -7  -5    0.04    0.08 
   1   7   5    0.31    0.12 
  -1  -7  -5    0.01    0.06 
   2   7   5    1.59    0.25 
  -2  -7  -5    1.77    0.24 
  -3   8   5    0.13    0.18 
   3  -8  -5    0.72    0.15 
   2  -8  -5    3.68    0.31 
  -2   8   5    4.16    0.41 
   2  -8  -5    3.53    0.32 
  -1   8   5    2.68    0.31 
   1  -8  -5    3.22    0.29 
   1  -8  -5    2.88    0.26 
   0   8   5    5.62    0.36 
   0  -8  -5    4.78    0.34 
   0  -8  -5    6.17    0.36 
  -1  -8  -5    0.08    0.07 
   1   8   5    0.05    0.11 
  -2   9   5    6.98    0.51 
   1  -9  -5    0.19    0.10 
  -1   9   5    0.20    0.15 
   0   9   5    0.81    0.16 
  -1 -11   6    0.11    0.09 
   1  11  -6    0.30    0.13 
   0  11  -6    1.87    0.25 
   0 -11   6    1.62    0.23 
   0 -11   6    1.95    0.27 
   1 -11   6    6.50    0.43 
  -1  11  -6    5.73    0.43 
  -1  11  -6    6.61    0.41 
  -2 -10   6    1.25    0.23 
   2  10  -6    1.28    0.23 
   1  10  -6    0.25    0.12 
  -1 -10   6    0.23    0.12 
  -1 -10   6    0.41    0.13 
   0 -10   6    0.35    0.12 
   0  10  -6    0.58    0.15 
   0 -10   6    0.36    0.12 
   1 -10   6    3.29    0.31 
  -1  10  -6    4.10    0.33 
  -1  10  -6    2.78    0.32 
  -2  10  -6    0.54    0.17 
   2 -10   6    0.47    0.15 
  -2  10  -6    1.11    0.18 
   2   9  -6   -0.05    0.11 
  -2  -9   6   -0.02    0.08 
   1   9  -6    0.61    0.15 
  -1  -9   6    0.74    0.15 
  -1  -9   6    0.52    0.14 
   0  -9   6   10.30    0.51 
   0  -9   6   10.10    0.54 
   0   9  -6   10.77    0.52 
  -1   9  -6    0.31    0.12 
  -1   9  -6    0.22    0.12 
   1  -9   6    0.38    0.12 
   2  -9   6    6.67    0.40 
  -2   9  -6    6.56    0.44 
  -2   9  -6    6.45    0.38 
  -3   9  -6    0.97    0.22 
   3  -9   6    1.25    0.22 
   3   8  -6    0.31    0.15 
  -3  -8   6    0.24    0.13 
  -2  -8   6   -0.01    0.08 
   2   8  -6   -0.06    0.09 
  -1  -8   6   12.12    0.56 
   1   8  -6   11.27    0.54 
  -1  -8   6   11.96    0.57 
   0  -8   6    2.95    0.28 
   0  -8   6    3.12    0.25 
   0   8  -6    2.58    0.25 
  -1   8  -6    0.42    0.12 
   1  -8   6    0.21    0.09 
  -1   8  -6    0.34    0.12 
   2  -8   6    1.49    0.20 
  -2   8  -6    1.46    0.19 
  -2   8  -6    1.04    0.19 
   3  -8   6    0.33    0.12 
  -3   8  -6    0.29    0.14 
  -3  -7   6    1.54    0.25 
   3   7  -6    2.54    0.27 
  -2  -7   6    1.37    0.17 
  -2  -7   6    1.08    0.18 
   2   7  -6    1.34    0.19 
   1   7  -6    2.91    0.25 
  -1  -7   6    3.34    0.25 
  -1  -7   6    2.71    0.25 
   0   7  -6    0.29    0.10 
   0  -7   6    0.30    0.09 
   0  -7   6    0.28    0.08 
   1  -7   6   12.90    0.56 
  -1   7  -6   13.30    0.62 
  -1   7  -6   13.82    0.57 
  -2   7  -6    2.05    0.25 
  -2   7  -6    2.24    0.23 
   2  -7   6    2.37    0.22 
   3  -7   6    0.76    0.15 
  -3   7  -6    0.71    0.16 
  -3  -6   6    0.05    0.09 
   3   6  -6    0.22    0.12 
   2   6  -6   37.24    1.25 
  -2  -6   6   35.59    1.32 
  -1  -6   6    0.88    0.14 
  -1  -6   6    1.01    0.14 
   1   6  -6    0.75    0.14 
   0  -6   6    0.14    0.06 
   0  -6   6    0.14    0.07 
   0   6  -6    0.28    0.09 
  -1   6  -6    3.74    0.24 
   1  -6   6    3.96    0.23 
   1  -6   6    3.76    0.28 
  -2   6  -6    1.79    0.23 
  -2   6  -6    2.82    0.24 
   2  -6   6    2.44    0.21 
   3  -6   6    0.43    0.12 
  -3   6  -6    0.58    0.13 
  -3   6  -6    0.52    0.13 
  -4  -5   6    1.66    0.27 
   4   5  -6    1.35    0.20 
   3   5  -6    0.31    0.11 
   3   5  -6    0.32    0.11 
  -3  -5   6    0.39    0.12 
  -2  -5   6    0.12    0.07 
  -2  -5   6    0.16    0.07 
   2   5  -6    0.17    0.08 
   2   5  -6    0.09    0.06 
  -1  -5   6    0.62    0.12 
   1   5  -6    0.94    0.14 
  -1  -5   6    0.85    0.12 
   1   5  -6    0.88    0.10 
   0   5  -6   10.60    0.39 
   0   5  -6   10.67    0.45 
   0  -5   6   10.35    0.42 
   0  -5   6   10.65    0.49 
   1  -5   6   10.78    0.51 
  -1   5  -6   10.44    0.46 
  -1   5  -6   10.99    0.43 
   1  -5   6   10.41    0.43 
  -2   5  -6    0.03    0.07 
   2  -5   6    0.09    0.07 
  -2   5  -6    0.05    0.05 
   2  -5   6   -0.02    0.07 
   3  -5   6    0.63    0.14 
  -3   5  -6    1.13    0.18 
   4  -5   6    2.29    0.31 
  -4   5  -6    3.02    0.29 
   4   4  -6    2.36    0.29 
  -4  -4   6    2.53    0.33 
  -3  -4   6   21.44    0.92 
   3   4  -6   21.68    0.89 
   3   4  -6   23.70    0.83 
   2   4  -6    1.66    0.17 
  -2  -4   6    1.97    0.19 
   2   4  -6    1.56    0.16 
  -2  -4   6    1.39    0.17 
  -1  -4   6    1.20    0.15 
  -1  -4   6    1.92    0.15 
   1   4  -6    1.72    0.13 
   1   4  -6    1.42    0.16 
   0   4  -6    4.95    0.22 
   0   4  -6    3.86    0.23 
   0  -4   6    4.36    0.20 
   0  -4   6    3.70    0.25 
   1  -4   6   28.37    1.04 
  -1   4  -6   28.98    0.99 
  -1   4  -6   27.06    0.96 
   1  -4   6   28.92    0.94 
   2  -4   6   11.71    0.54 
  -2   4  -6   11.44    0.51 
  -2   4  -6   11.96    0.53 
   2  -4   6   11.66    0.49 
   3  -4   6    0.62    0.14 
  -3   4  -6    0.68    0.15 
  -3   4  -6    0.54    0.12 
   3  -4   6    0.77    0.15 
   4  -4   6    3.67    0.38 
   4   3  -6    1.63    0.24 
  -4  -3   6    1.76    0.27 
   3   3  -6   -0.05    0.07 
  -3  -3   6    0.08    0.09 
   3   3  -6    0.04    0.08 
  -3  -3   6    0.03    0.07 
   2   3  -6    4.52    0.25 
  -2  -3   6    4.77    0.28 
  -2  -3   6    4.28    0.26 
   2   3  -6    3.98    0.25 
  -1  -3   6    6.69    0.28 
   1   3  -6    6.05    0.29 
  -1  -3   6    6.04    0.33 
   1   3  -6    6.31    0.30 
   0  -3   6    7.61    0.37 
   0   3  -6    7.40    0.34 
   0  -3   6    7.63    0.28 
   0   3  -6    7.36    0.32 
   1  -3   6    2.20    0.19 
   1  -3   6    2.05    0.12 
  -1   3  -6    1.88    0.18 
  -1   3  -6    1.84    0.16 
  -2   3  -6    3.91    0.22 
   2  -3   6    4.02    0.26 
  -2   3  -6    4.12    0.26 
  -2   3  -6    3.77    0.26 
  -3   3  -6    4.46    0.29 
  -3   3  -6    5.01    0.36 
   3  -3   6    4.19    0.31 
   4  -3   6    1.01    0.23 
   4   2  -6    5.51    0.39 
  -4  -2   6    5.93    0.41 
   3   2  -6    0.43    0.11 
  -3  -2   6    0.65    0.12 
  -3  -2   6    0.54    0.12 
   2   2  -6    0.09    0.06 
  -2  -2   6    0.14    0.06 
  -2  -2   6    0.15    0.06 
   2   2  -6    0.18    0.07 
   1   2  -6    5.12    0.25 
   1   2  -6    5.20    0.27 
  -1  -2   6    5.21    0.29 
  -1  -2   6    5.33    0.23 
   0  -2   6   20.35    0.77 
   0   2  -6   19.86    0.71 
   0   2  -6   20.67    0.73 
  -1   2  -6   12.69    0.52 
   1  -2   6   12.76    0.53 
   1  -2   6   13.33    0.45 
  -1   2  -6   12.61    0.51 
   2  -2   6    0.62    0.13 
  -2   2  -6    0.41    0.10 
   2  -2   6    0.83    0.12 
  -2   2  -6    0.81    0.10 
  -3   2  -6   13.24    0.66 
   3  -2   6   13.35    0.60 
  -4   2  -6    2.67    0.34 
   4  -2   6    3.59    0.32 
   4   1  -6    0.03    0.09 
  -4  -1   6    0.18    0.11 
  -3  -1   6    1.48    0.19 
  -3  -1   6    1.33    0.19 
   3   1  -6    1.24    0.18 
   2   1  -6    6.84    0.28 
   2   1  -6    6.64    0.34 
  -2  -1   6    5.87    0.35 
  -2  -1   6    6.48    0.31 
  -1  -1   6    3.05    0.15 
   1   1  -6    3.16    0.20 
  -1  -1   6    3.25    0.22 
   1   1  -6    3.14    0.18 
   0   1  -6   61.30    1.85 
   0   1  -6   60.35    1.95 
   0  -1   6   59.83    2.00 
   1  -1   6    0.09    0.05 
  -1   1  -6    0.02    0.04 
  -1   1  -6    0.04    0.02 
  -1   1  -6    0.06    0.05 
  -2   1  -6    2.32    0.23 
   2  -1   6    2.41    0.23 
  -2   1  -6    2.81    0.18 
   2  -1   6    2.69    0.18 
  -3   1  -6    2.58    0.24 
   3  -1   6    2.79    0.27 
  -3   1  -6    2.55    0.29 
  -4   1  -6    0.33    0.14 
   4  -1   6    0.20    0.15 
   4   0  -6    0.04    0.09 
  -4   0   6    0.09    0.10 
  -4   0   6    0.13    0.09 
  -3   0   6    0.08    0.09 
   3   0  -6    0.15    0.08 
  -3   0   6    0.21    0.08 
  -2   0   6   22.18    0.81 
   2   0  -6   23.17    0.87 
   2   0  -6   23.72    0.74 
  -2   0   6   22.57    0.90 
   1   0  -6    0.72    0.09 
  -1   0   6    0.57    0.11 
  -1   0   6    0.74    0.06 
   1   0  -6    0.77    0.12 
   0   0  -6    0.93    0.12 
   0   0   6    1.30    0.15 
   0   0  -6    1.05    0.13 
  -1   0  -6    0.13    0.06 
   1   0   6    0.21    0.07 
   1   0   6    0.33    0.08 
  -1   0  -6    0.29    0.04 
  -2   0  -6   26.02    1.02 
  -2   0  -6   27.88    0.95 
   2   0   6   25.96    0.97 
   3   0   6    6.81    0.41 
  -3   0  -6    7.32    0.46 
  -4   1   6    0.36    0.12 
   4  -1  -6    0.43    0.14 
  -4   1   6    0.32    0.12 
  -3   1   6    0.38    0.12 
  -3   1   6    0.24    0.08 
   3  -1  -6    0.38    0.11 
   2  -1  -6    1.73    0.11 
  -2   1   6    1.86    0.22 
  -2   1   6    1.85    0.15 
   2  -1  -6    1.79    0.19 
   1  -1  -6   68.73    2.19 
   1  -1  -6   68.10    2.00 
  -1   1   6   60.66    2.23 
   1  -1  -6   70.64    2.05 
   0  -1  -6    1.46    0.16 
   0  -1  -6    1.74    0.07 
   0   1   6    1.85    0.18 
   0   1   6    1.78    0.17 
   1   1   6    1.61    0.18 
  -1  -1  -6    1.52    0.11 
  -1  -1  -6    1.69    0.18 
   1   1   6    1.81    0.16 
  -2  -1  -6    4.10    0.32 
   2   1   6    4.30    0.32 
  -3  -1  -6    4.08    0.37 
   3   1   6    4.23    0.35 
  -4   2   6    0.50    0.13 
  -4   2   6    0.19    0.12 
   4  -2  -6    0.27    0.13 
   3  -2  -6    7.03    0.41 
  -3   2   6    5.82    0.40 
  -3   2   6    7.41    0.38 
   2  -2  -6    2.12    0.21 
  -2   2   6    2.19    0.17 
  -2   2   6    1.93    0.23 
  -1   2   6    0.80    0.10 
   1  -2  -6    0.65    0.08 
  -1   2   6    0.54    0.11 
   1  -2  -6    0.80    0.13 
   0  -2  -6    6.94    0.26 
   0   2   6    6.56    0.33 
   0  -2  -6    6.73    0.35 
   0   2   6    6.90    0.36 
   1   2   6   22.33    0.81 
   1   2   6   21.66    0.82 
  -1  -2  -6   21.28    0.85 
   2   2   6   12.57    0.59 
  -2  -2  -6   12.66    0.61 
   3   2   6    0.02    0.11 
  -3  -2  -6    0.22    0.12 
   4  -3  -6    1.04    0.21 
  -4   3   6    1.16    0.19 
  -4   3   6    0.98    0.20 
  -3   3   6    1.23    0.17 
  -3   3   6    1.32    0.21 
   3  -3  -6    1.28    0.19 
   2  -3  -6   15.87    0.58 
  -2   3   6   13.17    0.66 
   2  -3  -6   14.40    0.63 
   1  -3  -6    0.57    0.12 
  -1   3   6    0.70    0.10 
   1  -3  -6    0.79    0.09 
  -1   3   6    0.64    0.13 
   0  -3  -6    2.16    0.13 
   0   3   6    1.94    0.21 
   0   3   6    2.00    0.19 
   0  -3  -6    2.15    0.20 
  -1  -3  -6    0.65    0.13 
   1   3   6    0.79    0.15 
   1   3   6    0.90    0.14 
  -2  -3  -6   15.01    0.69 
   2   3   6   14.39    0.66 
  -3  -3  -6    0.77    0.18 
   3   3   6    0.65    0.18 
  -4   4   6    0.83    0.20 
   4  -4  -6    1.03    0.21 
  -4   4   6    0.81    0.17 
  -3   4   6    4.33    0.39 
   3  -4  -6    5.05    0.32 
   3  -4  -6    4.39    0.34 
   2  -4  -6    0.25    0.09 
   2  -4  -6    0.22    0.08 
  -2   4   6    0.25    0.11 
   1  -4  -6   13.79    0.60 
  -1   4   6   11.90    0.61 
  -1   4   6   14.42    0.53 
   1  -4  -6   14.05    0.54 
   0  -4  -6   15.71    0.66 
   0   4   6   14.87    0.62 
   0   4   6   16.16    0.68 
   1   4   6    2.04    0.23 
  -1  -4  -6    2.41    0.23 
  -2  -4  -6    0.80    0.17 
   2   4   6    1.41    0.21 
  -3  -4  -6    0.05    0.10 
   3   4   6    0.24    0.14 
   4  -5  -6    1.78    0.25 
  -4   5   6    2.10    0.32 
   4  -5  -6    1.78    0.28 
   3  -5  -6    1.64    0.23 
  -3   5   6    1.39    0.24 
   3  -5  -6    1.92    0.22 
  -2   5   6    1.26    0.22 
   2  -5  -6    1.01    0.17 
   2  -5  -6    1.20    0.16 
  -1   5   6    0.50    0.11 
   1  -5  -6    0.33    0.09 
  -1   5   6    0.22    0.12 
   1  -5  -6    0.43    0.12 
   0   5   6    5.72    0.34 
   0  -5  -6    5.77    0.35 
   0   5   6    6.16    0.37 
  -1  -5  -6    7.05    0.41 
   1   5   6    6.83    0.41 
   2   5   6   -0.03    0.11 
  -2  -5  -6    0.05    0.08 
   3  -6  -6    0.14    0.09 
   3  -6  -6    0.04    0.10 
  -3   6   6    0.03    0.12 
  -2   6   6    6.54    0.44 
   2  -6  -6    5.98    0.38 
   2  -6  -6    6.33    0.35 
   1  -6  -6    7.79    0.43 
  -1   6   6    8.63    0.49 
   0   6   6    1.62    0.21 
   0  -6  -6    1.44    0.19 
   0   6   6    1.68    0.22 
  -1  -6  -6    4.18    0.34 
   1   6   6    5.59    0.36 
  -2  -6  -6    2.78    0.31 
   2   6   6    3.49    0.36 
  -3   7   6    1.46    0.30 
   3  -7  -6    1.60    0.24 
  -2   7   6    1.08    0.23 
   2  -7  -6    0.77    0.16 
  -1   7   6   10.82    0.60 
   1  -7  -6   11.00    0.55 
   0  -7  -6    2.12    0.23 
   0   7   6    2.50    0.27 
  -1  -7  -6    0.03    0.08 
   1   7   6    0.21    0.12 
   2  -8  -6    0.48    0.14 
  -2   8   6    0.03    0.18 
   1  -8  -6    1.09    0.18 
  -1   8   6    1.26    0.24 
   0   8   6    2.13    0.26 
   0  -8  -6    1.88    0.23 
   0  11  -7    0.10    0.12 
   0 -11   7    0.02    0.11 
   0 -11   7   -0.05    0.09 
   1 -11   7    0.41    0.16 
  -1  11  -7    0.26    0.13 
   1 -11   7    0.32    0.13 
  -1 -10   7    0.62    0.16 
  -1 -10   7    0.62    0.15 
   1  10  -7    0.48    0.15 
   0 -10   7    0.16    0.11 
   0  10  -7    0.12    0.12 
   0 -10   7    0.06    0.08 
  -1  10  -7    1.02    0.19 
   1 -10   7    0.37    0.14 
   1 -10   7    1.03    0.18 
   2 -10   7    7.32    0.45 
  -2  10  -7    6.92    0.42 
  -2  -9   7    1.23    0.20 
   2   9  -7    1.14    0.20 
   1   9  -7    1.62    0.22 
  -1  -9   7    1.90    0.25 
  -1  -9   7    1.58    0.21 
   0  -9   7    0.35    0.13 
   0   9  -7    0.27    0.11 
   0  -9   7    0.26    0.09 
   1  -9   7    7.84    0.50 
   1  -9   7    9.71    0.48 
  -1   9  -7    8.40    0.46 
  -2   9  -7    0.17    0.13 
   2  -9   7    0.23    0.11 
  -2   9  -7    0.34    0.13 
   3   8  -7    0.58    0.18 
   2   8  -7    2.96    0.30 
  -2  -8   7    2.86    0.29 
   1   8  -7    5.68    0.37 
  -1  -8   7    6.20    0.39 
  -1  -8   7    6.10    0.36 
   0  -8   7    0.18    0.10 
   0  -8   7    0.24    0.08 
   0   8  -7    0.05    0.08 
   1  -8   7   20.02    0.80 
  -1   8  -7   20.89    0.80 
   1  -8   7   19.22    0.87 
  -2   8  -7   13.19    0.60 
  -3   8  -7    1.28    0.22 
   3   7  -7    0.38    0.14 
  -3  -7   7    0.10    0.10 
  -2  -7   7    0.18    0.09 
  -2  -7   7    0.05    0.07 
   2   7  -7    0.43    0.12 
  -1  -7   7    0.30    0.09 
   1   7  -7    0.43    0.12 
  -1  -7   7    0.14    0.09 
   0  -7   7   19.20    0.74 
   0   7  -7   18.96    0.76 
   0  -7   7   20.12    0.83 
   1  -7   7    0.86    0.17 
   1  -7   7    0.92    0.15 
  -1   7  -7    0.90    0.15 
   2  -7   7    4.25    0.28 
   2  -7   7    4.45    0.37 
  -2   7  -7    4.19    0.32 
   3  -7   7    4.30    0.39 
  -3   7  -7    4.65    0.34 
  -3  -6   7    0.12    0.10 
   3   6  -7    0.10    0.11 
   2   6  -7    4.50    0.31 
  -2  -6   7    5.09    0.32 
  -2  -6   7    4.31    0.30 
  -1  -6   7    0.21    0.09 
   1   6  -7    0.38    0.10 
  -1  -6   7    0.38    0.09 
   0  -6   7   46.31    1.52 
   0   6  -7   46.60    1.52 
   0  -6   7   46.45    1.65 
  -1   6  -7   11.60    0.53 
   1  -6   7   12.37    0.59 
   1  -6   7   12.33    0.50 
   2  -6   7    1.80    0.18 
   2  -6   7    1.39    0.21 
  -2   6  -7    1.63    0.20 
   3  -6   7    2.50    0.29 
  -3   6  -7    2.96    0.28 
   3   5  -7    4.44    0.30 
  -3  -5   7    3.25    0.33 
   3   5  -7    4.14    0.31 
  -2  -5   7    1.34    0.19 
   2   5  -7    1.45    0.16 
  -2  -5   7    1.30    0.18 
   2   5  -7    1.01    0.16 
   1   5  -7   21.34    0.77 
   1   5  -7   22.43    0.81 
  -1  -5   7   22.54    0.80 
  -1  -5   7   21.53    0.87 
   0  -5   7    0.22    0.09 
   0  -5   7    0.33    0.06 
   0   5  -7    0.16    0.07 
   0   5  -7    0.16    0.04 
   1  -5   7    1.52    0.20 
  -1   5  -7    1.34    0.13 
  -1   5  -7    1.38    0.17 
   1  -5   7    1.51    0.13 
  -2   5  -7    5.41    0.33 
   2  -5   7    5.48    0.35 
   2  -5   7    5.01    0.28 
  -2   5  -7    5.49    0.32 
   3  -5   7    1.50    0.22 
  -3   5  -7    1.69    0.23 
  -4  -4   7    0.23    0.13 
   4   4  -7    0.43    0.13 
   3   4  -7    1.06    0.16 
  -3  -4   7    0.87    0.15 
  -3  -4   7    0.94    0.18 
   3   4  -7    1.00    0.17 
   2   4  -7    0.03    0.07 
  -2  -4   7    0.11    0.06 
  -2  -4   7    0.04    0.06 
   2   4  -7   -0.02    0.06 
  -1  -4   7   46.76    1.47 
   1   4  -7   45.59    1.49 
  -1  -4   7   43.69    1.58 
   1   4  -7   44.23    1.45 
   0   4  -7   17.51    0.68 
   0  -4   7   18.01    0.74 
   0  -4   7   18.54    0.62 
   0   4  -7   18.07    0.66 
   1  -4   7    1.70    0.11 
  -1   4  -7    1.33    0.14 
   1  -4   7    1.27    0.17 
  -1   4  -7    1.30    0.16 
  -2   4  -7    2.61    0.23 
   2  -4   7    2.57    0.25 
  -2   4  -7    2.41    0.24 
  -3   4  -7   11.93    0.61 
   3  -4   7   10.78    0.54 
   4   3  -7    4.99    0.40 
  -4  -3   7    6.00    0.42 
  -3  -3   7    3.21    0.29 
  -3  -3   7    2.25    0.25 
   3   3  -7    2.67    0.26 
  -2  -3   7   23.71    0.87 
   2   3  -7   22.85    0.88 
   2   3  -7   23.16    0.82 
  -2  -3   7   24.03    0.94 
  -1  -3   7    1.79    0.12 
   1   3  -7    1.84    0.16 
   1   3  -7    1.70    0.17 
  -1  -3   7    1.86    0.20 
   0   3  -7    7.76    0.34 
   0  -3   7    6.70    0.37 
   0   3  -7    7.23    0.35 
   1  -3   7    1.25    0.17 
  -1   3  -7    1.37    0.17 
  -1   3  -7    1.30    0.14 
  -2   3  -7    3.35    0.27 
  -2   3  -7    3.54    0.28 
   2  -3   7    3.39    0.27 
   3  -3   7    2.87    0.28 
  -3   3  -7    2.87    0.31 
  -4  -2   7    0.42    0.14 
   4   2  -7    0.21    0.13 
   3   2  -7    0.99    0.17 
  -3  -2   7    1.05    0.17 
  -3  -2   7    0.65    0.15 
  -2  -2   7   18.42    0.69 
   2   2  -7   17.92    0.65 
  -2  -2   7   17.75    0.76 
   2   2  -7   18.12    0.72 
  -1  -2   7   16.40    0.56 
   1   2  -7   16.99    0.62 
   1   2  -7   16.49    0.64 
  -1  -2   7   16.43    0.69 
   0  -2   7   17.01    0.68 
   0   2  -7   16.68    0.64 
   0   2  -7   16.13    0.62 
   1  -2   7    0.04    0.06 
  -1   2  -7    0.06    0.06 
  -1   2  -7    0.05    0.05 
  -2   2  -7   37.51    1.37 
   2  -2   7   37.85    1.30 
   2  -2   7   37.22    1.32 
   3  -2   7    3.29    0.31 
  -3   2  -7    3.27    0.33 
  -4  -1   7    1.91    0.26 
  -4  -1   7    1.87    0.25 
   4   1  -7    1.61    0.24 
  -3  -1   7   12.45    0.55 
  -3  -1   7   11.30    0.58 
   3   1  -7   10.50    0.55 
  -2  -1   7    0.58    0.12 
   2   1  -7    0.35    0.11 
   2   1  -7    0.46    0.08 
  -2  -1   7    0.53    0.09 
   1   1  -7   12.28    0.51 
   1   1  -7   12.09    0.46 
  -1  -1   7   10.93    0.53 
   0   1  -7   16.42    0.58 
   0  -1   7   14.23    0.61 
   0   1  -7   13.55    0.58 
  -1   1  -7    6.52    0.35 
   1  -1   7    6.74    0.34 
  -1   1  -7    5.74    0.33 
   2  -1   7    8.29    0.44 
   2  -1   7    8.77    0.41 
  -2   1  -7    8.87    0.47 
  -3   1  -7    5.24    0.42 
   3  -1   7    5.66    0.38 
   4   0  -7    0.60    0.15 
  -4   0   7    0.81    0.16 
  -4   0   7    0.82    0.17 
   3   0  -7    7.79    0.45 
  -3   0   7    7.92    0.41 
  -3   0   7    8.65    0.48 
   2   0  -7    0.16    0.08 
   2   0  -7    0.21    0.06 
  -2   0   7    0.14    0.05 
  -2   0   7    0.09    0.07 
   1   0  -7    1.30    0.16 
  -1   0   7    1.47    0.18 
   1   0  -7    1.29    0.14 
   0   0  -7    0.59    0.11 
   0   0  -7    0.44    0.09 
   0   0   7    0.43    0.11 
   1   0   7   48.27    1.53 
  -1   0  -7   44.74    1.60 
   1   0   7   46.70    1.59 
  -2   0  -7    3.00    0.28 
   2   0   7    2.91    0.28 
  -3   0  -7    4.11    0.38 
   3   0   7    4.10    0.36 
  -4   1   7    2.31    0.29 
   4  -1  -7    2.16    0.28 
  -4   1   7    2.46    0.27 
   3  -1  -7    1.80    0.23 
  -3   1   7    1.75    0.24 
  -3   1   7    1.73    0.19 
  -2   1   7    0.19    0.06 
  -2   1   7    0.13    0.09 
   2  -1  -7    0.09    0.07 
   1  -1  -7    8.07    0.41 
  -1   1   7    8.68    0.44 
   1  -1  -7    7.79    0.35 
   0   1   7   14.50    0.61 
   0   1   7   13.30    0.56 
   0  -1  -7   14.36    0.60 
   1   1   7   20.92    0.82 
   1   1   7   22.51    0.83 
  -1  -1  -7   21.72    0.86 
  -2  -1  -7    6.58    0.41 
   2   1   7    6.39    0.39 
   3   1   7    1.10    0.22 
  -3  -1  -7    1.09    0.21 
  -4   2   7    2.40    0.27 
  -4   2   7    2.41    0.31 
   4  -2  -7    2.64    0.31 
  -3   2   7    2.66    0.23 
  -3   2   7    3.00    0.32 
   3  -2  -7    2.04    0.25 
   2  -2  -7    4.56    0.31 
  -2   2   7    4.06    0.34 
  -1   2   7    5.58    0.36 
  -1   2   7    6.72    0.31 
   1  -2  -7    5.79    0.34 
   0   2   7   33.78    1.24 
   0  -2  -7   33.01    1.22 
   0   2   7   34.83    1.15 
   1   2   7    0.17    0.09 
   1   2   7    0.33    0.10 
  -1  -2  -7    0.25    0.09 
  -2  -2  -7    0.43    0.12 
   2   2   7   -0.03    0.09 
  -3  -2  -7    1.14    0.23 
   3   2   7    1.47    0.25 
  -4   3   7    1.41    0.20 
  -4   3   7    1.68    0.26 
   4  -3  -7    1.61    0.26 
   3  -3  -7    0.63    0.16 
  -3   3   7    0.49    0.15 
   2  -3  -7    4.24    0.31 
  -2   3   7    4.87    0.35 
  -1   3   7    4.83    0.34 
  -1   3   7    5.61    0.29 
   1  -3  -7    5.38    0.33 
   0   3   7   18.55    0.77 
   0  -3  -7   17.89    0.75 
   0   3   7   18.32    0.71 
   1   3   7   12.51    0.57 
  -1  -3  -7   11.87    0.58 
  -2  -3  -7    0.27    0.11 
   2   3   7    0.04    0.10 
  -3  -3  -7    0.27    0.14 
   3   3   7    0.10    0.14 
   3  -4  -7    2.85    0.30 
  -3   4   7    3.59    0.37 
   2  -4  -7    4.18    0.30 
  -2   4   7    3.50    0.35 
  -1   4   7   19.75    0.88 
   1  -4  -7   21.00    0.85 
  -1   4   7   21.62    0.76 
   0   4   7    0.36    0.10 
   0   4   7    0.20    0.11 
   0  -4  -7    0.27    0.10 
   1   4   7    3.90    0.33 
  -1  -4  -7    3.62    0.30 
   2   4   7    0.51    0.15 
  -2  -4  -7    0.74    0.17 
   3  -5  -7    3.54    0.34 
  -3   5   7    3.71    0.39 
   2  -5  -7    0.25    0.11 
  -2   5   7    0.35    0.15 
  -1   5   7    8.73    0.52 
   1  -5  -7   10.61    0.52 
   0   5   7    8.08    0.44 
   0  -5  -7    6.60    0.41 
   0   5   7    7.38    0.41 
  -1  -5  -7    1.42    0.21 
   1   5   7    1.09    0.19 
   2   5   7    0.14    0.12 
  -2  -5  -7   -0.02    0.09 
  -3   6   7    2.29    0.34 
   3  -6  -7    2.07    0.27 
   2  -6  -7    7.34    0.44 
  -2   6   7    6.91    0.49 
  -1   6   7    0.39    0.16 
   1  -6  -7    0.15    0.10 
   0   6   7    3.75    0.32 
   0  -6  -7    3.37    0.30 
   1   6   7    1.77    0.25 
  -1  -6  -7    1.31    0.21 
   2  -7  -7    7.30    0.45 
  -2   7   7    6.29    0.52 
   1  -7  -7    0.08    0.10 
  -1   7   7    0.11    0.15 
   0   7   7    0.28    0.12 
   0  -7  -7    0.06    0.09 
  -1  -7  -7    0.83    0.18 
   1   7   7    0.72    0.17 
  -1   8   7    0.08    0.17 
   1  -8  -7    0.15    0.11 
  -1 -10   8    0.64    0.18 
   1  10  -8    0.46    0.16 
  -1 -10   8    0.63    0.15 
   0 -10   8    0.97    0.20 
   0 -10   8    1.18    0.18 
   0  10  -8    1.19    0.20 
   1 -10   8    0.23    0.12 
  -1  10  -8   -0.20    0.11 
  -2  -9   8    0.39    0.12 
   2   9  -8    0.17    0.14 
  -1  -9   8    5.63    0.36 
   1   9  -8    5.64    0.38 
  -1  -9   8    4.97    0.40 
   0  -9   8    0.25    0.12 
   0  -9   8    0.38    0.10 
   0   9  -8    0.19    0.11 
  -1   9  -8    3.08    0.30 
   1  -9   8    3.45    0.35 
   2  -9   8   14.93    0.78 
  -2   9  -8   15.07    0.69 
   2   8  -8    1.02    0.19 
  -2  -8   8    0.96    0.17 
  -2  -8   8    1.11    0.17 
  -1  -8   8    0.11    0.10 
   1   8  -8    0.29    0.11 
  -1  -8   8    0.38    0.11 
   0  -8   8    4.62    0.37 
   0   8  -8    4.43    0.34 
   0  -8   8    4.52    0.28 
  -1   8  -8    3.87    0.33 
   1  -8   8    3.50    0.34 
   2  -8   8    0.58    0.17 
  -2   8  -8    0.67    0.16 
  -3  -7   8    1.72    0.26 
   3   7  -8    1.55    0.24 
  -2  -7   8    0.19    0.10 
   2   7  -8    0.14    0.11 
  -2  -7   8    0.16    0.09 
   1   7  -8   -0.05    0.08 
  -1  -7   8   -0.03    0.06 
  -1  -7   8    0.04    0.08 
   0  -7   8    9.39    0.51 
   0   7  -8    8.71    0.45 
  -1   7  -8   29.55    1.07 
   1  -7   8   27.71    1.15 
  -2   7  -8    1.49    0.21 
   2  -7   8    1.16    0.20 
   3  -7   8    0.37    0.15 
  -3   7  -8    0.23    0.12 
   3   6  -8    4.70    0.36 
  -3  -6   8    4.35    0.38 
   2   6  -8    0.24    0.11 
  -2  -6   8    0.17    0.09 
  -2  -6   8    0.16    0.08 
  -1  -6   8   23.13    0.83 
  -1  -6   8   20.58    0.89 
   1   6  -8   21.87    0.84 
   0  -6   8    9.68    0.51 
   0   6  -8    9.37    0.46 
  -1   6  -8    2.45    0.25 
   1  -6   8    2.24    0.26 
   2  -6   8    6.45    0.42 
  -2   6  -8    5.96    0.37 
   3  -6   8    6.62    0.44 
  -3   6  -8    5.73    0.38 
   3   5  -8    0.34    0.12 
   3   5  -8    0.64    0.13 
  -3  -5   8    0.85    0.16 
  -3  -5   8    0.30    0.12 
  -2  -5   8    0.17    0.08 
   2   5  -8    0.19    0.10 
  -2  -5   8    0.16    0.09 
   2   5  -8    0.28    0.09 
   1   5  -8   22.96    0.82 
   1   5  -8   23.66    0.85 
  -1  -5   8   21.51    0.91 
   0  -5   8   21.54    0.93 
   0   5  -8   23.61    0.87 
   0   5  -8   24.81    0.84 
   1  -5   8    2.86    0.28 
  -1   5  -8    3.10    0.27 
  -1   5  -8    3.27    0.21 
  -2   5  -8    2.79    0.28 
   2  -5   8    2.52    0.28 
  -2   5  -8    2.74    0.24 
  -3   5  -8    0.68    0.15 
   3  -5   8    0.49    0.16 
  -3  -4   8    0.09    0.10 
  -3  -4   8    0.23    0.10 
   3   4  -8    0.36    0.12 
   2   4  -8   28.05    1.05 
  -2  -4   8   29.02    1.04 
  -2  -4   8   27.11    1.11 
   2   4  -8   30.66    1.02 
  -1  -4   8   14.79    0.66 
   1   4  -8   14.84    0.60 
   1   4  -8   14.93    0.59 
   0   4  -8    4.90    0.26 
   0   4  -8    4.66    0.29 
   0  -4   8    4.83    0.32 
  -1   4  -8   26.52    0.96 
   1  -4   8   25.50    1.01 
  -1   4  -8   25.48    0.94 
  -2   4  -8    0.64    0.14 
  -2   4  -8    0.40    0.12 
   2  -4   8    0.78    0.16 
   3  -4   8    1.36    0.22 
  -3   4  -8    1.57    0.24 
   4   3  -8    0.00    0.10 
  -3  -3   8    0.79    0.15 
   3   3  -8    0.68    0.14 
  -3  -3   8    0.82    0.16 
   2   3  -8   24.08    0.93 
   2   3  -8   24.35    0.87 
  -2  -3   8   25.27    1.00 
   1   3  -8   15.17    0.60 
  -1  -3   8   14.79    0.67 
   1   3  -8   15.34    0.61 
   0  -3   8    0.09    0.07 
   0   3  -8    0.02    0.05 
   0   3  -8    0.05    0.07 
  -1   3  -8   12.27    0.54 
   1  -3   8   12.53    0.57 
  -1   3  -8   12.69    0.55 
  -2   3  -8    4.46    0.31 
  -2   3  -8    4.45    0.34 
   2  -3   8    4.31    0.30 
   3  -3   8    7.91    0.46 
  -3   3  -8    7.68    0.49 
   4   2  -8    1.65    0.25 
  -3  -2   8   25.70    1.07 
   3   2  -8   25.56    1.02 
  -2  -2   8    5.77    0.37 
   2   2  -8    5.91    0.35 
   2   2  -8    6.16    0.31 
  -1  -2   8    0.05    0.06 
   1   2  -8    0.06    0.06 
   1   2  -8    0.10    0.07 
   0   2  -8   11.83    0.51 
   0   2  -8   12.12    0.51 
   0  -2   8   11.17    0.54 
  -1   2  -8    0.19    0.07 
  -1   2  -8    0.24    0.09 
   1  -2   8    0.15    0.08 
   2  -2   8    0.58    0.13 
  -2   2  -8    0.87    0.16 
   2  -2   8    0.70    0.15 
  -3   2  -8    2.99    0.33 
   3  -2   8    3.59    0.34 
  -4  -1   8    0.28    0.12 
   4   1  -8    0.34    0.13 
  -3  -1   8   11.13    0.58 
   3   1  -8    9.72    0.53 
  -2  -1   8   12.01    0.60 
   2   1  -8   12.11    0.56 
   2   1  -8   12.07    0.48 
   1   1  -8   14.78    0.62 
   1   1  -8   14.64    0.57 
  -1  -1   8   15.14    0.67 
   0  -1   8    4.65    0.30 
   0   1  -8    4.76    0.29 
   0   1  -8    4.67    0.28 
   1  -1   8   24.41    0.96 
  -1   1  -8   26.03    0.98 
   2  -1   8   10.51    0.54 
  -2   1  -8   12.30    0.59 
  -3   1  -8    0.16    0.12 
   3  -1   8    0.16    0.13 
  -4   0   8   14.99    0.78 
   4   0  -8   16.11    0.78 
   3   0  -8    1.04    0.18 
  -3   0   8    0.94    0.18 
  -2   0   8    5.67    0.37 
   2   0  -8    5.35    0.26 
   2   0  -8    4.80    0.32 
  -1   0   8    0.27    0.11 
   1   0  -8    0.33    0.10 
   1   0  -8    0.35    0.09 
   0   0  -8    1.33    0.17 
   0   0  -8    1.88    0.20 
   0   0   8    1.65    0.20 
   1   0   8    0.04    0.07 
  -1   0  -8   -0.01    0.05 
   1   0   8    0.04    0.08 
   2   0   8    3.80    0.33 
  -2   0  -8    3.72    0.33 
   3   0   8    0.33    0.16 
  -3   0  -8    0.33    0.13 
   4  -1  -8    2.40    0.31 
  -4   1   8    3.06    0.35 
  -3   1   8    1.71    0.24 
   3  -1  -8    1.97    0.25 
  -2   1   8   16.39    0.77 
   2  -1  -8   16.78    0.73 
   1  -1  -8    1.47    0.19 
  -1   1   8    0.88    0.16 
  -1   1   8    1.57    0.17 
   0   1   8   42.52    1.50 
   0  -1  -8   39.78    1.46 
   0   1   8   41.73    1.38 
  -1  -1  -8   14.20    0.66 
   1   1   8   15.11    0.63 
   1   1   8   13.97    0.63 
   2   1   8    2.69    0.29 
  -2  -1  -8    3.06    0.31 
   3   1   8    2.15    0.31 
  -3  -1  -8    2.29    0.32 
  -4   2   8    0.86    0.20 
   4  -2  -8    0.89    0.20 
  -3   2   8    1.07    0.20 
   3  -2  -8    1.04    0.19 
   2  -2  -8    1.87    0.23 
  -2   2   8    2.19    0.27 
  -1   2   8    7.98    0.46 
   1  -2  -8    7.76    0.43 
  -1   2   8    8.36    0.38 
   0  -2  -8    0.76    0.14 
   0   2   8    0.88    0.16 
   0   2   8    0.99    0.16 
   1   2   8    1.17    0.19 
   1   2   8    1.96    0.21 
  -1  -2  -8    2.04    0.23 
   2   2   8   -0.05    0.09 
  -2  -2  -8   -0.01    0.08 
   3  -3  -8    2.18    0.28 
  -3   3   8    2.31    0.31 
  -2   3   8    2.67    0.32 
   2  -3  -8    2.70    0.27 
   1  -3  -8   28.00    1.09 
  -1   3   8   29.75    1.00 
  -1   3   8   27.35    1.14 
   0  -3  -8    7.93    0.45 
   0   3   8    8.88    0.48 
   0   3   8    8.61    0.44 
  -1  -3  -8    4.05    0.33 
   1   3   8    4.39    0.35 
  -2  -3  -8    5.26    0.42 
   2   3   8    5.04    0.41 
  -3   4   8    1.37    0.25 
   3  -4  -8    1.47    0.23 
  -2   4   8    9.71    0.58 
   2  -4  -8    9.83    0.53 
   1  -4  -8    0.83    0.16 
  -1   4   8    1.04    0.19 
   0   4   8    2.65    0.26 
   0  -4  -8    2.16    0.25 
   0   4   8    2.79    0.28 
  -1  -4  -8    0.80    0.16 
   1   4   8    0.65    0.15 
   2   4   8    3.79    0.38 
  -2  -4  -8    3.87    0.38 
   3  -5  -8    2.27    0.29 
  -3   5   8    1.32    0.25 
   2  -5  -8   15.03    0.72 
  -2   5   8   14.80    0.77 
  -1   5   8    0.85    0.19 
   1  -5  -8    0.56    0.15 
   0   5   8    0.17    0.11 
   0   5   8    0.20    0.11 
   0  -5  -8    0.00    0.07 
   1   5   8    0.69    0.16 
  -1  -5  -8    0.59    0.15 
   2  -6  -8    0.44    0.15 
  -2   6   8    0.85    0.22 
   1  -6  -8    2.57    0.29 
  -1   6   8    3.37    0.36 
   0   6   8    5.75    0.39 
   0  -6  -8    5.85    0.40 
   1   6   8    0.91    0.19 
  -1  -6  -8    0.80    0.18 
  -1   7   8    0.40    0.18 
   1  -7  -8    0.20    0.12 
   0 -10   9    3.60    0.38 
   0  10  -9    3.42    0.35 
   1 -10   9    0.35    0.15 
  -1  10  -9    0.25    0.14 
  -1  -9   9    1.21    0.22 
   1   9  -9    1.26    0.21 
   0  -9   9    1.56    0.25 
   0   9  -9    1.54    0.23 
  -1   9  -9    0.29    0.14 
   1  -9   9    0.18    0.15 
  -2   9  -9    0.20    0.12 
   2  -9   9    0.12    0.14 
   2   8  -9    9.29    0.53 
   1   8  -9    0.78    0.17 
  -1  -8   9    0.73    0.16 
   0   8  -9    0.10    0.10 
   0  -8   9    0.14    0.10 
  -1   8  -9    1.69    0.24 
   1  -8   9    1.69    0.26 
  -2   8  -9    0.19    0.12 
   2  -8   9    0.40    0.16 
   2   7  -9    1.28    0.21 
  -2  -7   9    1.66    0.24 
  -1  -7   9    1.39    0.21 
   1   7  -9    1.16    0.19 
   0   7  -9    1.55    0.21 
   0  -7   9    1.06    0.19 
   1  -7   9    0.03    0.11 
  -1   7  -9   -0.07    0.09 
   2  -7   9    1.31    0.23 
  -2   7  -9    1.54    0.23 
   3   6  -9    4.77    0.37 
  -2  -6   9    0.36    0.12 
   2   6  -9    0.51    0.14 
  -1  -6   9    0.03    0.08 
   1   6  -9    0.17    0.10 
   0  -6   9    7.96    0.46 
   0   6  -9    8.22    0.44 
   1  -6   9   -0.02    0.09 
  -1   6  -9    0.05    0.09 
  -2   6  -9    1.47    0.22 
   2  -6   9    1.10    0.21 
  -3  -5   9   -0.05    0.10 
  -2  -5   9    0.28    0.10 
   2   5  -9    0.33    0.12 
  -1  -5   9    3.48    0.31 
   1   5  -9    3.79    0.30 
   0   5  -9    0.11    0.09 
   0  -5   9   -0.04    0.08 
  -1   5  -9    0.07    0.09 
   1  -5   9    0.09    0.10 
   2  -5   9   18.75    0.84 
  -2   5  -9   19.08    0.81 
   3  -5   9    0.89    0.20 
   3   4  -9    0.23    0.11 
  -3  -4   9    0.26    0.12 
  -2  -4   9    0.25    0.10 
   2   4  -9    0.24    0.11 
   2   4  -9    0.19    0.09 
   1   4  -9    9.67    0.44 
  -1  -4   9    8.74    0.49 
   1   4  -9    8.85    0.44 
   0   4  -9    0.68    0.12 
   0   4  -9    0.71    0.14 
   0  -4   9    0.73    0.15 
  -1   4  -9    0.11    0.07 
  -1   4  -9    0.11    0.09 
   1  -4   9    0.03    0.09 
  -2   4  -9    0.19    0.10 
   2  -4   9    0.27    0.13 
  -2   4  -9    0.24    0.10 
  -3   4  -9    0.17    0.12 
   3  -4   9    0.07    0.12 
   3   3  -9    2.54    0.27 
  -3  -3   9    2.45    0.30 
  -2  -3   9    9.64    0.52 
   2   3  -9    9.27    0.44 
   2   3  -9    8.71    0.46 
  -1  -3   9    1.77    0.22 
   1   3  -9    1.98    0.20 
   1   3  -9    2.34    0.22 
   0  -3   9   14.92    0.69 
   0   3  -9   15.90    0.64 
   0   3  -9   15.12    0.63 
  -1   3  -9   12.89    0.58 
   1  -3   9   13.44    0.62 
  -1   3  -9   12.30    0.58 
   2  -3   9    2.16    0.25 
  -2   3  -9    2.03    0.24 
  -3   3  -9    0.28    0.13 
   3  -3   9    0.00    0.10 
   3   2  -9    1.69    0.23 
  -3  -2   9    1.50    0.24 
  -2  -2   9    4.18    0.35 
   2   2  -9    4.55    0.27 
   2   2  -9    3.99    0.29 
  -1  -2   9    1.26    0.20 
   1   2  -9    1.53    0.18 
   1   2  -9    1.69    0.19 
   0   2  -9    9.33    0.45 
   0   2  -9    8.67    0.44 
   0  -2   9    9.27    0.49 
  -1   2  -9    0.66    0.13 
   1  -2   9    0.86    0.15 
  -1   2  -9    0.41    0.12 
  -2   2  -9    0.76    0.16 
   2  -2   9    0.56    0.15 
  -3   2  -9    0.04    0.10 
   3  -2   9    0.04    0.12 
   3   1  -9    6.69    0.43 
  -3  -1   9    6.85    0.46 
   2   1  -9    0.73    0.12 
   2   1  -9    0.63    0.13 
  -2  -1   9    0.43    0.13 
   1   1  -9   24.71    0.98 
  -1  -1   9   25.92    1.04 
   1   1  -9   25.86    0.91 
   0   1  -9    4.28    0.31 
   0  -1   9    3.92    0.32 
   0   1  -9    4.30    0.29 
   1  -1   9    1.20    0.18 
  -1   1  -9    1.29    0.19 
   1  -1   9    1.45    0.19 
  -2   1  -9    0.14    0.10 
   2  -1   9    0.11    0.11 
   3  -1   9    2.45    0.32 
  -3   1  -9    2.31    0.32 
   3   0  -9    3.33    0.33 
  -3   0   9    3.79    0.38 
  -2   0   9    1.70    0.24 
   2   0  -9    1.36    0.20 
  -1   0   9    7.56    0.46 
   1   0  -9    7.83    0.38 
   1   0  -9    7.66    0.42 
   0   0  -9    0.40    0.11 
   0   0   9    0.14    0.09 
   0   0   9    0.13    0.09 
   1   0   9    1.27    0.20 
  -1   0  -9    1.81    0.22 
   1   0   9    1.56    0.20 
   2   0   9   -0.04    0.11 
  -2   0  -9    0.01    0.09 
  -3   1   9    0.79    0.18 
   3  -1  -9    0.89    0.19 
   2  -1  -9    5.79    0.38 
  -2   1   9    5.92    0.41 
  -1   1   9    2.28    0.22 
   1  -1  -9    2.28    0.25 
  -1   1   9    2.11    0.26 
   0   1   9   -0.10    0.08 
   0  -1  -9    0.02    0.07 
   0   1   9    0.09    0.09 
   1   1   9    0.43    0.12 
   1   1   9    0.29    0.12 
  -1  -1  -9    0.45    0.12 
   2   1   9    3.15    0.34 
  -2  -1  -9    3.42    0.35 
   3  -2  -9    6.72    0.45 
  -3   2   9    7.65    0.51 
  -2   2   9    1.88    0.26 
   2  -2  -9    1.99    0.25 
   1  -2  -9    4.20    0.33 
  -1   2   9    3.51    0.35 
  -1   2   9    4.45    0.28 
   0  -2  -9    2.77    0.27 
   0   2   9    2.57    0.26 
   0   2   9    3.17    0.30 
   1   2   9    1.59    0.22 
  -1  -2  -9    1.37    0.21 
  -2  -2  -9    0.09    0.11 
   2   2   9    0.01    0.12 
  -3   3   9    0.69    0.19 
   3  -3  -9    0.27    0.13 
   2  -3  -9    0.11    0.10 
  -2   3   9    0.13    0.10 
  -1   3   9    0.16    0.09 
  -1   3   9    0.28    0.13 
   1  -3  -9    0.11    0.09 
   0  -3  -9   -0.02    0.08 
   0   3   9    0.13    0.10 
   0   3   9    0.02    0.09 
  -1  -3  -9    1.14    0.20 
   1   3   9    0.81    0.18 
   2   3   9    2.22    0.30 
  -2  -3  -9    2.80    0.34 
  -3   4   9    0.47    0.19 
   3  -4  -9    0.56    0.18 
  -2   4   9    3.67    0.40 
   2  -4  -9    4.77    0.39 
   1  -4  -9    2.90    0.30 
  -1   4   9    2.67    0.31 
   0   4   9    5.26    0.38 
   0   4   9    5.49    0.36 
   0  -4  -9    5.23    0.38 
   1   4   9    2.91    0.32 
  -1  -4  -9    2.94    0.32 
  -2   5   9    0.04    0.15 
   2  -5  -9    0.26    0.14 
   1  -5  -9    0.18    0.11 
  -1   5   9    0.26    0.13 
   0   5   9    0.47    0.14 
   0  -5  -9    0.54    0.16 
   1  -6  -9    1.87    0.27 
  -1   6   9    2.29    0.32 
   1   9 -10    6.46    0.44 
  -1  -9  10    5.97    0.43 
   0  -9  10    0.60    0.18 
   0   9 -10    0.55    0.15 
  -1   9 -10    1.80    0.26 
   1  -9  10    1.77    0.29 
  -2  -8  10    0.73    0.17 
   2   8 -10    0.77    0.19 
   1   8 -10    0.38    0.15 
  -1  -8  10   -0.06    0.11 
   0   8 -10    0.27    0.13 
   0  -8  10    0.21    0.12 
   1  -8  10    0.33    0.17 
  -1   8 -10    0.22    0.13 
   2   7 -10    1.93    0.26 
  -2  -7  10    2.33    0.29 
   1   7 -10    0.94    0.19 
  -1  -7  10    0.96    0.19 
   0  -7  10    1.79    0.25 
   0   7 -10    2.08    0.26 
   1  -7  10    0.65    0.18 
  -1   7 -10    0.68    0.16 
  -2   7 -10    0.94    0.19 
   2  -7  10    1.12    0.24 
   2   6 -10    2.61    0.28 
  -2  -6  10    2.25    0.29 
   1   6 -10    0.47    0.14 
  -1  -6  10    0.45    0.13 
   0  -6  10    0.16    0.11 
   0   6 -10    0.25    0.12 
  -1   6 -10    3.16    0.31 
   1  -6  10    3.62    0.35 
  -2   6 -10    0.10    0.12 
   2  -6  10    0.44    0.17 
  -3  -5  10    0.40    0.15 
  -2  -5  10    1.53    0.23 
   2   5 -10    1.33    0.20 
  -1  -5  10    0.40    0.12 
   1   5 -10    0.35    0.13 
   0   5 -10    2.04    0.24 
   0  -5  10    1.49    0.23 
   1  -5  10    0.23    0.13 
  -1   5 -10    0.18    0.12 
  -2   5 -10    0.22    0.12 
   2  -5  10    0.17    0.14 
  -3  -4  10    2.47    0.32 
   3   4 -10    2.36    0.27 
   2   4 -10    0.63    0.14 
  -2  -4  10    0.32    0.12 
   2   4 -10    0.53    0.14 
  -1  -4  10    0.11    0.08 
   1   4 -10    0.03    0.09 
   1   4 -10    0.19    0.09 
   0   4 -10    6.11    0.36 
   0   4 -10    6.11    0.34 
   0  -4  10    5.70    0.39 
  -1   4 -10    8.52    0.46 
  -1   4 -10    7.34    0.42 
   1  -4  10    8.12    0.48 
   2  -4  10    0.27    0.14 
  -2   4 -10    0.39    0.12 
  -2   4 -10    0.49    0.14 
   3   3 -10    1.13    0.20 
  -3  -3  10    1.50    0.24 
   2   3 -10   -0.02    0.08 
   2   3 -10    0.14    0.11 
  -2  -3  10    0.19    0.09 
   1   3 -10    0.53    0.13 
  -1  -3  10    0.54    0.14 
   1   3 -10    0.68    0.13 
   0   3 -10    0.84    0.16 
   0   3 -10    0.90    0.15 
   0  -3  10    0.95    0.18 
  -1   3 -10    0.06    0.08 
  -1   3 -10    0.09    0.09 
   1  -3  10   -0.13    0.09 
   2  -3  10    1.95    0.27 
  -2   3 -10    2.13    0.26 
   2  -3  10    2.31    0.26 
  -3  -2  10   -0.03    0.10 
   3   2 -10    0.20    0.11 
   2   2 -10    1.43    0.18 
  -2  -2  10    1.52    0.24 
   2   2 -10    1.71    0.22 
   1   2 -10    0.15    0.08 
  -1  -2  10    0.05    0.09 
   1   2 -10    0.06    0.09 
   0   2 -10   11.40    0.55 
   0   2 -10   11.43    0.55 
   0  -2  10   12.31    0.61 
  -1   2 -10    1.05    0.18 
   1  -2  10    1.11    0.20 
  -1   2 -10    1.06    0.18 
  -2   2 -10    0.02    0.10 
   2  -2  10    0.04    0.10 
   3   1 -10    0.13    0.12 
  -3  -1  10    0.15    0.11 
   2   1 -10    0.57    0.14 
  -2  -1  10    0.31    0.12 
   1   1 -10    1.19    0.18 
  -1  -1  10    1.54    0.23 
   1   1 -10    1.17    0.18 
   0   1 -10    1.06    0.17 
   0  -1  10    1.10    0.19 
   0   1 -10    0.93    0.16 
   1  -1  10    1.38    0.21 
  -1   1 -10    1.56    0.22 
   1  -1  10    1.19    0.19 
   2  -1  10    1.05    0.21 
  -2   1 -10    1.69    0.25 
   3   0 -10    1.88    0.27 
  -3   0  10    2.39    0.33 
   2   0 -10    4.53    0.35 
  -2   0  10    3.70    0.38 
   1   0 -10    4.88    0.33 
  -1   0  10    4.58    0.39 
   1   0 -10    4.84    0.30 
   0   0  10    2.81    0.30 
   0   0  10    3.07    0.29 
   0   0 -10    2.97    0.28 
   1   0  10   -0.10    0.09 
  -1   0 -10    0.00    0.07 
   1   0  10    0.14    0.10 
   2   0  10    1.18    0.23 
  -2   0 -10    1.45    0.25 
   3  -1 -10    0.23    0.12 
  -3   1  10    0.15    0.13 
  -2   1  10    3.88    0.39 
   2  -1 -10    3.95    0.34 
  -1   1  10    1.43    0.20 
  -1   1  10    1.32    0.23 
   1  -1 -10    1.35    0.20 
   0   1  10    1.02    0.19 
   0   1  10    1.06    0.19 
   0  -1 -10    1.00    0.18 
   1   1  10    1.45    0.22 
  -1  -1 -10    1.29    0.22 
  -2  -1 -10    3.52    0.37 
   2   1  10    3.56    0.37 
   3  -2 -10    2.56    0.32 
  -3   2  10    3.32    0.38 
   2  -2 -10    3.07    0.32 
  -2   2  10    3.07    0.36 
   1  -2 -10    1.16    0.19 
  -1   2  10    1.12    0.20 
  -1   2  10    1.08    0.16 
   0   2  10    0.12    0.11 
   0  -2 -10    0.07    0.09 
   0   2  10    0.00    0.10 
  -1  -2 -10    2.99    0.32 
   1   2  10    3.47    0.34 
   2  -3 -10    0.10    0.11 
  -2   3  10    0.36    0.16 
  -1   3  10    0.41    0.17 
   1  -3 -10    0.34    0.14 
   0  -3 -10    1.50    0.23 
   0   3  10    1.19    0.20 
   0   3  10    1.00    0.20 
  -1  -3 -10    3.51    0.36 
   1   3  10    3.75    0.37 
   2  -4 -10    0.11    0.14 
  -2   4  10    0.23    0.17 
  -1   4  10    0.01    0.15 
   1  -4 -10    0.10    0.11 
   0  -4 -10    0.89    0.19 
   0   4  10    0.70    0.18 
   1   8 -11   -0.03    0.13 
  -1  -8  11   -0.10    0.09 
   0   8 -11    0.08    0.13 
   0  -8  11    0.10    0.11 
   1  -8  11    0.08    0.15 
  -1   8 -11    0.17    0.13 
  -1  -7  11    0.04    0.10 
   1   7 -11    0.42    0.15 
   0   7 -11    0.07    0.11 
   0  -7  11    0.10    0.12 
  -1   7 -11    0.23    0.14 
   1  -7  11    0.23    0.16 
   2   6 -11    0.10    0.13 
  -2  -6  11   -0.04    0.12 
  -1  -6  11    1.11    0.21 
   1   6 -11    0.82    0.18 
   0  -6  11   -0.06    0.11 
   0   6 -11    0.17    0.12 
   1  -6  11    3.29    0.36 
  -1   6 -11    2.68    0.30 
   2   5 -11    0.00    0.12 
  -2  -5  11   -0.04    0.10 
   1   5 -11    0.22    0.13 
  -1  -5  11    0.28    0.11 
   0   5 -11    1.58    0.23 
   0  -5  11    2.40    0.30 
   1  -5  11    5.17    0.42 
  -1   5 -11    4.32    0.38 
  -2   5 -11    0.08    0.13 
   2  -5  11    0.10    0.14 
   2   4 -11    0.96    0.18 
  -2  -4  11    1.28    0.21 
   2   4 -11    0.97    0.16 
   1   4 -11    0.62    0.15 
   1   4 -11    0.46    0.12 
  -1  -4  11    0.34    0.10 
   0  -4  11    0.23    0.13 
   0   4 -11    0.33    0.13 
   0   4 -11    0.13    0.09 
   1  -4  11    0.16    0.12 
  -1   4 -11    0.17    0.09 
  -1   4 -11    0.07    0.12 
  -2   4 -11    0.51    0.13 
   2  -4  11    0.53    0.16 
   2   3 -11    0.37    0.12 
   2   3 -11    0.14    0.10 
  -2  -3  11    0.25    0.11 
   1   3 -11    8.24    0.45 
  -1  -3  11    8.31    0.52 
   1   3 -11    7.48    0.43 
   0  -3  11    0.25    0.12 
   0   3 -11    0.30    0.13 
   0   3 -11    0.25    0.10 
  -1   3 -11   -0.01    0.10 
  -1   3 -11    0.07    0.08 
   1  -3  11    0.13    0.12 
   2  -3  11    0.31    0.15 
  -2   3 -11    0.64    0.17 
  -3  -2  11    0.29    0.16 
   3   2 -11    0.30    0.14 
  -2  -2  11    1.01    0.21 
   2   2 -11    0.70    0.16 
   1   2 -11    1.41    0.20 
   1   2 -11    1.54    0.21 
  -1  -2  11    1.52    0.25 
   0   2 -11    0.39    0.12 
   0   2 -11    0.40    0.13 
   0  -2  11    0.26    0.13 
  -1   2 -11    0.04    0.08 
   1  -2  11   -0.01    0.10 
   1  -2  11   -0.17    0.09 
  -2   2 -11    0.12    0.11 
   2  -2  11   -0.05    0.12 
  -3  -1  11    0.67    0.19 
   3   1 -11    0.51    0.16 
   2   1 -11    5.16    0.38 
  -2  -1  11    6.36    0.46 
  -1  -1  11    0.67    0.18 
   1   1 -11    0.65    0.14 
   1   1 -11    0.50    0.13 
   0  -1  11    0.18    0.12 
   0   1 -11    0.24    0.09 
   1  -1  11    0.68    0.17 
   1  -1  11    0.65    0.17 
  -1   1 -11    1.11    0.19 
  -2   0  11    0.24    0.14 
   2   0 -11    0.44    0.14 
   1   0 -11    0.24    0.11 
  -1   0  11    0.20    0.12 
  -1   0  11    0.29    0.12 
   0   0  11    0.04    0.11 
   0   0 -11    0.08    0.09 
   0   0  11    0.12    0.12 
   1   0  11    0.28    0.13 
  -1   0 -11    0.70    0.16 
  -2   1  11    0.06    0.14 
   2  -1 -11    0.19    0.12 
   1  -1 -11    0.14    0.11 
  -1   1  11    0.26    0.14 
  -1   1  11    0.25    0.11 
   0   1  11    0.42    0.16 
   0  -1 -11    0.41    0.13 
   0   1  11    0.49    0.15 
  -1  -1 -11    0.14    0.11 
   1   1  11    0.09    0.13 
   2  -2 -11    0.07    0.11 
  -2   2  11    0.09    0.14 
  -1   2  11    0.06    0.13 
   1  -2 -11    0.13    0.10 
   0   2  11    0.67    0.18 
   0  -2 -11    0.57    0.16 
   0   2  11    0.45    0.17 
  -1   3  11    0.66    0.19 
   1  -3 -11    0.43    0.15 
   0  -3 -11    0.15    0.12 
   0   3  11    0.27    0.13 
   0  -7  12    2.79    0.35 
   1   6 -12    1.18    0.21 
  -1  -6  12    1.14    0.22 
   0  -6  12    0.00    0.14 
   0   6 -12    0.20    0.14 
  -1  -5  12    2.13    0.29 
   1   5 -12    2.73    0.30 
   0   5 -12    0.35    0.15 
   0  -5  12    0.29    0.14 
   1  -5  12    1.00    0.22 
  -1   5 -12    0.98    0.22 
  -2  -4  12    0.16    0.12 
   2   4 -12    0.18    0.13 
   1   4 -12    0.06    0.12 
   1   4 -12    0.17    0.08 
  -1  -4  12    0.11    0.14 
   0   4 -12    4.62    0.32 
   0  -4  12    4.70    0.43 
   0   4 -12    4.43    0.38 
   1  -4  12    0.11    0.14 
  -1   4 -12    0.16    0.14 
  -2  -3  12    0.78    0.21 
   2   3 -12    1.49    0.22 
   1   3 -12    0.46    0.14 
  -1  -3  12    0.13    0.13 
   1   3 -12    0.39    0.13 
   0   3 -12    1.90    0.26 
   0  -3  12    1.94    0.28 
   0   3 -12    2.64    0.27 
  -1   3 -12    1.45    0.24 
   1  -3  12    1.52    0.25 
  -1   3 -12    1.48    0.23 
   2   2 -12    1.05    0.20 
  -2  -2  12    1.09    0.23 
  -1  -2  12    2.10    0.29 
   1   2 -12    2.74    0.28 
   1   2 -12    2.30    0.27 
   0   2 -12    0.15    0.12 
   0   2 -12    0.16    0.09 
   0  -2  12    0.14    0.12 
   1  -2  12    0.58    0.17 
  -1   2 -12    0.68    0.17 
   1  -2  12    0.74    0.18 
   2   1 -12    0.59    0.16 
  -2  -1  12    0.68    0.19 
  -1  -1  12    0.06    0.14 
   1   1 -12    0.14    0.10 
   1   1 -12    0.37    0.13 
   0  -1  12    2.22    0.28 
   0   1 -12    1.75    0.25 
   0  -1  12    1.57    0.26 
  -1   0  12    0.97    0.17 
  -1   0  12    0.47    0.18 
   1   0 -12    0.83    0.19 
   0   0  12    1.72    0.24 
   0   0  12    1.80    0.27 
   0   0 -12    1.71    0.26 
  -1   1  12    1.84    0.30 
   1  -1 -12    2.18    0.29 
   0   0   0    0.00    0.00 
;
_shelx_hkl_checksum              65954
loop_
_space_group_symop_operation_xyz
'x, y, z'
'-x, -y, -z'
loop_
_atom_site_label
_atom_site_type_symbol
_atom_site_fract_x
_atom_site_fract_y
_atom_site_fract_z
_atom_site_U_iso_or_equiv
_atom_site_adp_type
_atom_site_occupancy
_atom_site_site_symmetry_order
_atom_site_calc_flag
_atom_site_refinement_flags_posn
_atom_site_refinement_flags_adp
N1 N 0.3257(3) 0.67348(12) 0.02703(11) 0.0286(3) Uani 1 1 d . .
H1 H 0.2024 0.6057 -0.0505 0.034 Uiso 1 1 d R U
N2 N 1.0486(3) 1.14378(13) 0.25367(13) 0.0401(3) Uani 1 1 d . .
N7 N 0.1487(3) 0.54478(12) 0.19686(11) 0.0288(3) Uani 1 1 d . .
C1 C 0.1899(4) 0.55602(15) 0.33550(14) 0.0314(3) Uani 1 1 d . .
H1A H 0.0754 0.4753 0.3659 0.038 Uiso 1 1 calc R U
C2 C 0.3907(4) 0.67904(15) 0.43826(14) 0.0323(3) Uani 1 1 d . .
H2A H 0.4086 0.6800 0.5351 0.039 Uiso 1 1 calc R U
C3 C 0.5629(3) 0.79899(15) 0.40004(13) 0.0290(3) Uani 1 1 d . .
H3 H 0.6990 0.8838 0.4688 0.035 Uiso 1 1 calc R U
C4 C 0.5299(3) 0.79114(13) 0.25667(13) 0.0250(3) Uani 1 1 d . .
C5 C 0.3207(3) 0.66146(14) 0.16246(13) 0.0251(3) Uani 1 1 d . .
C6 C 0.6596(3) 0.88238(14) 0.16971(13) 0.0268(3) Uani 1 1 d . .
C7 C 0.5279(3) 0.80579(14) 0.03181(13) 0.0288(3) Uani 1 1 d . .
H7 H 0.5723 0.8405 -0.0482 0.035 Uiso 1 1 calc R U
C8 C 0.8775(3) 1.02654(15) 0.21600(13) 0.0292(3) Uani 1 1 d . .
loop_
_atom_site_aniso_label
_atom_site_aniso_U_11
_atom_site_aniso_U_22
_atom_site_aniso_U_33
_atom_site_aniso_U_23
_atom_site_aniso_U_13
_atom_site_aniso_U_12
N1 0.0334(6) 0.0260(6) 0.0234(5) 0.0044(4) 0.0017(4) -0.0005(4)
N2 0.0434(7) 0.0343(7) 0.0380(7) 0.0091(5) 0.0014(5) -0.0069(5)
N7 0.0306(6) 0.0255(5) 0.0290(6) 0.0071(4) 0.0039(4) 0.0006(4)
C1 0.0338(7) 0.0316(7) 0.0305(7) 0.0126(5) 0.0063(5) 0.0014(5)
C2 0.0357(7) 0.0366(7) 0.0252(6) 0.0103(5) 0.0040(5) 0.0043(6)
C3 0.0287(6) 0.0295(6) 0.0255(6) 0.0040(5) 0.0005(5) 0.0025(5)
C4 0.0238(6) 0.0237(6) 0.0269(6) 0.0061(5) 0.0026(5) 0.0040(5)
C5 0.0254(6) 0.0237(6) 0.0260(6) 0.0060(5) 0.0036(5) 0.0047(5)
C6 0.0259(6) 0.0256(6) 0.0290(6) 0.0084(5) 0.0024(5) 0.0027(5)
C7 0.0308(7) 0.0284(6) 0.0281(7) 0.0098(5) 0.0039(5) 0.0028(5)
C8 0.0303(7) 0.0300(7) 0.0276(7) 0.0101(5) 0.0023(5) 0.0023(5)
loop_
_atom_type_symbol
_atom_type_description
_atom_type_scat_dispersion_real
_atom_type_scat_dispersion_imag
_atom_type_scat_source
C C 0.0033 0.0016 'International Tables Vol C Tables 4.2.6.8 and 6.1.1.4'
H H 0.0000 0.0000 'International Tables Vol C Tables 4.2.6.8 and 6.1.1.4'
N N 0.0061 0.0033 'International Tables Vol C Tables 4.2.6.8 and 6.1.1.4'
loop_
_geom_angle_atom_site_label_1
_geom_angle_atom_site_label_2
_geom_angle_atom_site_label_3
_geom_angle
C7 N1 C5 108.86(10)
C5 N7 C1 114.40(11)
N7 C1 C2 124.08(12)
C3 C2 C1 120.38(12)
C2 C3 C4 117.40(12)
C3 C4 C5 117.29(12)
C3 C4 C6 137.17(12)
C5 C4 C6 105.53(11)
N7 C5 N1 124.96(11)
N7 C5 C4 126.45(12)
N1 C5 C4 108.59(11)
C7 C6 C8 125.83(12)
C7 C6 C4 107.19(11)
C8 C6 C4 126.97(12)
N1 C7 C6 109.84(11)
N2 C8 C6 178.95(15)
loop_
_geom_bond_atom_site_label_1
_geom_bond_atom_site_label_2
_geom_bond_distance
N1 C7 1.3538(16)
N1 C5 1.3735(16)
N2 C8 1.1459(17)
N7 C5 1.3329(16)
N7 C1 1.3387(16)
C1 C2 1.3966(19)
C2 C3 1.3776(19)
C3 C4 1.3921(17)
C4 C5 1.4095(17)
C4 C6 1.4343(18)
C6 C7 1.3747(18)
C6 C8 1.4216(17)
loop_
_geom_hbond_atom_site_label_D
_geom_hbond_atom_site_label_H
_geom_hbond_atom_site_label_A
_geom_hbond_distance_DH
_geom_hbond_distance_HA
_geom_hbond_distance_DA
_geom_hbond_angle_DHA
_geom_hbond_site_symmetry_A
N1 H1 N7 0.90 1.99 2.8751(15) 168.1 2_565
C7 H7 N2 0.95 2.64 3.5048(18) 151.0 2_775
