#------------------------------------------------------------------------------
#$Date: 2019-07-13 13:10:59 +0300 (Sat, 13 Jul 2019) $
#$Revision: 217014 $
#$URL: file:///home/coder/svn-repositories/cod/cif/1/55/21/1552105.cif $
#------------------------------------------------------------------------------
#
# This file is available in the Crystallography Open Database (COD),
# http://www.crystallography.net/. The original data for this entry
# were provided by IUCr Journals, http://journals.iucr.org/.
#
# The file may be used within the scientific community so long as
# proper attribution is given to the journal article from which the
# data were obtained.
#
data_1552105
loop_
_publ_author_name
'Gokila, Govindharajan'
'Thiruvalluvar, Aravazhi Amalan'
'Ramachandra Raja, Chidambaram'
_publ_section_title
;
 Bis(2-methyllactato)borate tetrahydrate
;
_journal_issue                   7
_journal_name_full               IUCrData
_journal_page_first              x190982
_journal_paper_doi               10.1107/S2414314619009829
_journal_volume                  4
_journal_year                    2019
_chemical_formula_iupac          'C8 H12 B O6, 4H2 O'
_chemical_formula_moiety         'C8 H12 B O6, 4(H2 O)'
_chemical_formula_sum            'C8 H20 B O10'
_chemical_formula_weight         287.05
_chemical_name_common
;
Bis(2-methyllactato)borate tetrahydrate
;
_chemical_name_systematic
;
3,3,8,8-Tetramethyl-1,4,6,9-tetraoxa-\l^4^-boraspiro[4.4]nonane-2,7-dione
tetrahydrate
;
_space_group_crystal_system      orthorhombic
_space_group_IT_number           18
_space_group_name_Hall           'P 2 2ab'
_space_group_name_H-M_alt        'P 21 21 2'
_symmetry_space_group_name_Hall  'P 2 2ab'
_symmetry_space_group_name_H-M   'P 21 21 2'
_atom_sites_solution_hydrogens   mixed
_audit_creation_method           SHELXL-2018/3
_cell_angle_alpha                90
_cell_angle_beta                 90
_cell_angle_gamma                90
_cell_formula_units_Z            2
_cell_length_a                   7.08090(10)
_cell_length_b                   16.7912(3)
_cell_length_c                   6.50010(10)
_cell_measurement_reflns_used    6304
_cell_measurement_temperature    296(2)
_cell_measurement_theta_max      30.39
_cell_measurement_theta_min      3.12
_cell_volume                     772.84(2)
_computing_cell_refinement
;
APEX3 and SAINT (Bruker, 2016)
;
_computing_data_collection
;
APEX3 (Bruker, 2016)
;
_computing_data_reduction
;
SAINT and XPREP (Bruker, 2016)
;
_computing_molecular_graphics
;
ORTEP-3 for Windows (Farrugia, 2012) and PLATON (Spek, 2009)
;
_computing_publication_material
;
<i>SHELXL2018</i> (Sheldrick, 2015b), PLATON (Spek, 2009) and
publCIF (Westrip, 2010)
;
_computing_structure_refinement
;
SHELXL2018 (Sheldrick, 2015b)
;
_computing_structure_solution
;
SHELXT2018 (Sheldrick, 2015a)
;
_diffrn_ambient_temperature      296(2)
_diffrn_measured_fraction_theta_full 0.985
_diffrn_measured_fraction_theta_max 0.987
_diffrn_measurement_device_type  'Bruker Kappa APEX3 CMOS'
_diffrn_measurement_method       '\w and \f scan'
_diffrn_radiation_monochromator  graphite
_diffrn_radiation_source         'fine-focus sealed tube'
_diffrn_radiation_type           MoK\a
_diffrn_radiation_wavelength     0.71073
_diffrn_reflns_av_R_equivalents  0.0516
_diffrn_reflns_av_unetI/netI     0.0199
_diffrn_reflns_limit_h_max       9
_diffrn_reflns_limit_h_min       -9
_diffrn_reflns_limit_k_max       21
_diffrn_reflns_limit_k_min       -21
_diffrn_reflns_limit_l_max       8
_diffrn_reflns_limit_l_min       -8
_diffrn_reflns_number            18957
_diffrn_reflns_theta_full        25.242
_diffrn_reflns_theta_max         26.997
_diffrn_reflns_theta_min         3.764
_exptl_absorpt_coefficient_mu    0.113
_exptl_absorpt_correction_T_max  0.7461
_exptl_absorpt_correction_T_min  0.5676
_exptl_absorpt_correction_type   multi-scan
_exptl_absorpt_process_details
;
(<i>SADABS</i>; Krause <i>et al.</i>, 2015)
;
_exptl_crystal_colour            colourless
_exptl_crystal_density_diffrn    1.234
_exptl_crystal_description       Block
_exptl_crystal_F_000             306
_exptl_crystal_size_max          0.150
_exptl_crystal_size_mid          0.150
_exptl_crystal_size_min          0.100
_refine_diff_density_max         0.208
_refine_diff_density_min         -0.118
_refine_ls_abs_structure_details
;
Flack <i>x</i> determined using 587 quotients
[(<i>I</i>^+^)-(<i>I</i>^-^)]/[(<i>I</i>^+^)+(<i>I</i>^-^)]
(Parsons et al., 2013)
;
_refine_ls_abs_structure_Flack   0.4(4)
_refine_ls_extinction_coef       0.26(3)
_refine_ls_extinction_expression Fc^*^=kFc[1+0.001xFc^2^\l^3^/sin(2\q)]^-1/4^
_refine_ls_extinction_method
;
SHELXL2018 (Sheldrick 2015b)
;
_refine_ls_goodness_of_fit_ref   1.081
_refine_ls_hydrogen_treatment    mixed
_refine_ls_matrix_type           full
_refine_ls_number_parameters     104
_refine_ls_number_reflns         1680
_refine_ls_number_restraints     6
_refine_ls_restrained_S_all      1.080
_refine_ls_R_factor_all          0.0383
_refine_ls_R_factor_gt           0.0360
_refine_ls_shift/su_max          0.000
_refine_ls_shift/su_mean         0.000
_refine_ls_structure_factor_coef Fsqd
_refine_ls_weighting_details
'w=1/[\s^2^(Fo^2^)+(0.0444P)^2^+0.1071P] where P=(Fo^2^+2Fc^2^)/3'
_refine_ls_weighting_scheme      calc
_refine_ls_wR_factor_gt          0.0917
_refine_ls_wR_factor_ref         0.0942
_reflns_number_gt                1585
_reflns_number_total             1680
_reflns_threshold_expression     'I > 2\s(I)'
_cod_data_source_file            ff4030sup1.cif
_cod_data_source_block           I
_cod_database_code               1552105
_shelx_space_group_comment
;
The symmetry employed for this shelxl refinement is uniquely defined
by the following loop, which should always be used as a source of
symmetry information in preference to the above space-group names.
They are only intended as comments.
;
_shelx_estimated_absorpt_t_min   0.983
_shelx_estimated_absorpt_t_max   0.989
_shelx_hkl_file
;
   0   0   1  154.58    8.90
   0   0  -3 9563.24  469.65
   0   0   3 8758.52  469.65
   0   0  -3 9074.89  467.95
   0   0   4  136.79    9.30
   0   0   4  130.09   10.90
   0   0  -4  116.79    8.80
   0   0   4  137.19    9.20
   0   0  -4  129.49    9.00
   0   0  -4  127.69   11.50
   0   0  -4  126.19    8.60
   0   0  -4  118.99   10.50
   0   0   5   94.19    8.20
   0   0  -5   81.99    7.00
   0   0   5   79.79    9.20
   0   0  -5   85.79   10.80
   0   0  -5   88.69    7.60
   0   0  -5   82.09    6.80
   0   0  -6   -4.50    6.90
   0   0   6   -3.50    3.20
   0   0  -6   -1.60    3.90
   0   0   6   -1.00    3.30
   0   0  -7   35.40    4.50
   0   0  -7   38.10    6.00
   0   0   7   25.90    5.10
   0   0  -7   25.90    4.20
   0   0   7   26.90    5.80
   0   0  -7   23.40   10.90
   0   0   8    5.70    6.00
   0   0  -8    7.10    5.60
   0   0  -9   30.60    6.30
   0   0   9   21.10    8.80
  -1   0   0    0.40    0.60
   1   0  -2 5900.51  309.17
  -1   0   2 6190.48  308.27
  -1   0   2 5839.72  308.07
   1   0  -2 5927.81  308.17
   1   0  -2 6105.09  308.17
  -1   0   2 5709.53  309.17
  -1   0  -2 6362.86  308.57
  -1   0   3 1986.90  112.19
  -1   0  -3 2163.48  112.99
  -1   0  -3 2181.98  112.09
  -1   0  -3 2050.69  111.99
   1   0  -3 2256.67  112.79
   1   0  -3 2464.65  113.79
  -1   0   3 2105.49  114.69
   1   0  -3 2308.17  114.49
  -1   0   3 2292.47  112.89
   1   0   3 2163.38  111.79
  -1   0  -3 2186.28  113.69
  -1   0   3 2228.98  113.99
   1   0  -3 2126.89  112.89
  -1   0   3 2024.40  112.59
   1   0   3 2116.69  113.69
   1   0  -3 2031.50  113.09
   1   0   4 1268.97   69.59
  -1   0   4 1292.67   66.89
  -1   0   4 1188.48   70.09
  -1   0  -4 1176.68   67.09
  -1   0  -4 1324.87   68.69
  -1   0  -4 1180.08   68.59
  -1   0   4 1271.77   67.39
   1   0   4 1309.37   66.89
   1   0  -4 1281.37   68.19
   1   0  -4 1303.97   70.59
   1   0  -4 1249.18   68.59
  -1   0   4 1257.07   67.89
  -1   0  -4 1240.18   67.69
   1   0  -4 1281.27   68.09
  -1   0  -4 1280.27   67.19
  -1   0   4 1428.66   68.29
  -1   0  -4 1292.17   69.69
   1   0  -4 1428.26   69.49
  -1   0   5   49.30    7.90
  -1   0  -5   61.39    9.30
   1   0  -5   41.70    8.50
  -1   0  -5   47.80    8.80
  -1   0   5   67.49    7.10
  -1   0  -5   54.29    4.90
   1   0  -5   47.70    9.20
   1   0   5   51.89    6.70
  -1   0  -5   53.59    6.00
  -1   0  -5   47.20    5.00
   1   0  -5   51.39    5.60
  -1   0   5   64.69    7.60
   1   0   5   57.59    5.50
   1   0  -5   51.79    6.90
   1   0  -5   59.09    5.60
  -1   0  -5   60.19    7.40
   1   0  -6   16.30    5.50
  -1   0  -6   26.30    3.70
   1   0  -6   13.30    3.40
   1   0   6   29.20    5.40
   1   0   6   15.20    4.20
  -1   0   6   16.30    5.20
  -1   0   6   31.60    5.60
  -1   0  -6   23.40    8.10
  -1   0  -6   25.70    4.90
   1   0  -6   19.40    3.50
  -1   0   6   19.10    6.30
   1   0   6   27.90    4.50
  -1   0  -6   21.70    3.20
   1   0  -6   13.60    8.30
  -1   0  -7   17.80    5.20
   1   0  -7   26.00    4.70
  -1   0   7   24.40    6.90
   1   0  -7   27.70    4.60
   1   0   7   26.00    5.80
  -1   0  -7   22.40    9.60
   1   0  -7   15.90   11.10
   1   0   7   21.40    5.20
  -1   0  -7   28.30    4.30
  -1   0   7   33.60    5.30
  -1   0  -7   25.30    3.80
   1   0  -7   39.60    6.90
   1   0   7   28.80    4.80
   1   0   8   24.40    6.40
   1   0  -8    7.90    6.00
  -1   0  -8   14.10    5.50
  -1   0   8   13.00    6.30
  -1   0   8   24.10    7.10
  -1   0  -8   10.70    3.90
   1   0  -9    9.10    9.10
   1   0  -9   10.20    6.70
   1   0   9   12.60    8.60
  -1   0   9    5.00    9.20
  -2   0   0  324.37   17.30
   2   0   0  348.37   18.90
   2   0   0  309.37   18.30
   2   0   0  320.17   18.90
  -2   0   0  335.17   18.70
  -2   0   0  357.56   19.10
  -2   0   0  298.57   18.30
  -2   0   1  590.34   32.40
   2   0  -1  507.85   32.60
   2   0   1  672.03   32.60
  -2   0   1  597.34   32.80
   2   0  -1  560.24   32.40
   2   0  -1  612.14   32.10
  -2   0  -1  569.74   31.60
  -2   0   1  584.74   32.40
  -2   0   1  527.35   32.00
   2   0   1  585.04   31.70
   2   0  -1  633.54   32.40
  -2   0  -1  631.14   32.60
   2   0   1  616.54   32.00
  -2   0  -1  607.44   32.10
  -2   0   2 8742.62  454.45
  -2   0   2 8915.81  453.55
  -2   0   2 9434.96  454.15
   2   0  -2 9172.48  454.25
   2   0  -2 8261.37  453.35
   2   0  -2 8645.83  454.85
   2   0  -2 7793.12  453.55
  -2   0  -2 8973.30  452.95
  -2   0   2 9628.84  453.95
  -2   0  -3  527.05   29.50
  -2   0   3  538.55   30.00
   2   0  -3  542.75   30.80
  -2   0  -3  511.85   28.60
  -2   0   3  542.55   30.30
   2   0  -3  489.35   30.00
  -2   0   3  482.95   31.20
   2   0  -3  520.45   31.70
  -2   0  -3  539.35   29.10
   2   0   3  505.25   29.90
  -2   0  -3  546.05   30.10
  -2   0   3  509.35   30.50
   2   0  -3  549.74   30.10
   2   0  -3  604.04   31.80
   2   0   3  549.74   28.80
  -2   0   3  562.44   30.20
   2   0  -4  972.20   53.99
   2   0   4  984.00   54.29
  -2   0  -4 1018.90   54.49
  -2   0   4 1021.20   54.09
  -2   0  -4  932.71   52.29
   2   0  -4  926.21   54.39
  -2   0  -4  995.20   53.29
  -2   0  -4  994.60   52.59
  -2   0   4  980.60   53.19
  -2   0  -4  904.91   56.99
  -2   0   4 1012.00   53.69
   2   0  -4  923.21   55.39
  -2   0   4 1012.20   55.59
   2   0  -4 1019.20   53.89
  -2   0   4  943.11   55.69
  -2   0   4 1018.70   53.49
   2   0  -4 1142.09   55.79
   2   0   5    2.00    2.70
   2   0  -5   -3.00    7.70
   2   0   5   -2.90    3.50
  -2   0  -5    3.70    3.60
  -2   0  -5    0.70    1.90
  -2   0   5   -1.50    3.60
  -2   0   5    0.20    4.40
  -2   0  -5    1.00    6.00
   2   0  -5   -5.40    4.80
  -2   0   5   -1.70    3.20
  -2   0  -5   -2.10    4.70
  -2   0  -5    0.90    1.80
   2   0   5    2.80    3.10
   2   0  -5   -6.70    4.10
   2   0   6   -1.30    3.30
   2   0  -6    6.00    8.30
  -2   0   6    0.00    3.70
  -2   0   6    1.00    5.70
  -2   0  -6    0.80    3.90
   2   0   6   -3.20    3.30
  -2   0  -6    5.20    5.50
  -2   0   6   -4.70    3.80
  -2   0  -6    2.30    2.50
  -2   0  -6    1.40    2.60
   2   0   6    4.00    3.30
   2   0  -6   -1.60    3.20
  -2   0  -6   14.90    7.20
   2   0  -6    5.30    5.90
   2   0  -6    2.20    3.60
  -2   0   6    1.80    3.10
  -2   0  -7   12.90    8.90
   2   0   7   21.20    5.20
   2   0   7   19.50    4.60
   2   0   7   21.00    4.10
   2   0  -7   18.10    4.50
   2   0  -7   26.90   12.90
  -2   0  -7   13.30    4.00
   2   0  -7   18.80    5.90
  -2   0  -7   25.10    4.40
  -2   0   7   28.30    4.20
  -2   0   8    6.20    6.80
  -2   0  -8   22.20    6.30
   2   0  -8   22.90   10.40
  -2   0   8   -3.40    6.90
   2   0   8    7.90    6.00
   2   0  -8   10.70    5.60
   2   0   9    8.60    9.40
   2   0  -9   -0.20    7.80
   2   0  -9   21.30   10.10
  -2   0   9    3.10   15.40
   3   0   0   -4.40    5.10
   3   0   0   -4.00    2.80
  -3   0   0   -3.40    3.60
  -3   0   0   -5.90    3.80
   3   0   0   -0.40    3.40
  -3   0   0   -1.70    1.40
  -3   0   0   -0.60    2.90
   3   0   0   -1.20    2.80
  -3   0  -1 1130.09   68.79
  -3   0   1 1293.57   69.59
  -3   0  -1 1196.38   68.09
  -3   0  -1 1384.66   68.89
  -3   0   1 1306.47   68.79
   3   0  -1 1181.48   68.79
  -3   0  -1 1290.27   69.19
  -3   0   1 1272.27   69.59
   3   0   1 1353.26   69.19
  -3   0   1 1356.26   69.19
   3   0  -1 1352.86   68.89
   3   0   1 1350.96   68.29
   3   0  -1 1326.07   68.09
   3   0  -1 1305.47   69.69
   3   0   2  415.66   24.70
  -3   0   2  488.85   27.80
  -3   0  -2  461.95   26.50
  -3   0   2  488.65   26.90
   3   0   2  475.65   25.90
   3   0   2  424.86   26.10
   3   0  -2  454.05   27.00
  -3   0   2  424.06   29.70
   3   0  -2  464.55   27.10
  -3   0  -2  460.45   26.80
   3   0   2  503.75   26.60
  -3   0   2  448.46   26.90
   3   0  -2  489.95   27.90
  -3   0  -2  467.55   27.60
   3   0  -2  485.15   26.90
  -3   0   2  469.85   27.70
  -3   0  -2  445.06   25.70
  -3   0   3  777.72   41.90
  -3   0  -3  740.43   40.40
  -3   0   3  778.92   41.90
   3   0   3  783.72   39.70
   3   0  -3  757.72   41.40
   3   0   3  779.52   40.00
  -3   0  -3  704.13   40.80
   3   0   3  683.73   39.80
   3   0  -3  644.54   41.20
   3   0   3  798.02   39.70
  -3   0  -3  832.82   42.30
   3   0   3  716.73   39.90
   3   0  -3  746.73   42.20
   3   0  -3  721.13   42.30
  -3   0  -3  731.83   39.80
   3   0  -3  652.93   42.60
  -3   0   3  732.03   41.20
  -3   0   3  741.83   42.30
  -3   0   3  725.03   41.80
   3   0   4   67.99    6.30
   3   0  -4   66.19    9.90
   3   0  -4   65.29    9.40
   3   0   4   58.69    5.90
  -3   0  -4   71.79    9.30
  -3   0   4   66.09    9.30
  -3   0   4   63.79    8.10
   3   0  -4   74.39    7.40
  -3   0   4   71.89    8.40
  -3   0  -4   75.29    6.40
   3   0   4   80.09    6.60
  -3   0   4   72.89    6.90
   3   0  -4   64.89    8.50
   3   0  -4   62.19    7.40
  -3   0   4   70.29    8.10
  -3   0   4   62.59    6.40
  -3   0  -4   68.39    7.10
  -3   0  -4   52.69    5.20
   3   0  -5    5.30    8.50
  -3   0   5   -9.70    5.80
  -3   0   5    2.10    4.40
  -3   0  -5    7.00    6.20
  -3   0  -5    1.90    3.90
   3   0   5    7.00    3.50
  -3   0   5   -0.30    4.50
  -3   0  -5    2.40    5.60
   3   0  -5   -2.20    4.20
  -3   0  -5    4.80    2.30
   3   0  -5    9.10    5.90
  -3   0   5   -1.60    2.20
  -3   0   6    7.40    3.90
  -3   0   6    9.10    4.00
  -3   0  -6    6.90    4.30
   3   0  -6    8.10   10.50
   3   0   6   11.10    3.80
   3   0  -6   -1.40    6.80
   3   0  -6   16.40    3.90
  -3   0   6   14.40    5.50
  -3   0  -6    8.30    7.70
  -3   0  -6    9.90    3.10
  -3   0  -6    4.00    2.50
   3   0  -6    7.20    3.40
  -3   0  -6    2.90    6.10
   3   0   6    2.00    3.50
  -3   0   6   10.70    4.20
   3   0   6   10.40    3.50
   3   0  -7   28.90    4.80
  -3   0   7   35.00    5.90
  -3   0  -7   19.20   10.00
  -3   0  -7   29.70    4.90
  -3   0   7   16.10    6.00
  -3   0   7   22.30    6.00
  -3   0  -7   16.00    7.40
   3   0   7   31.10    5.70
   3   0  -7   38.40    6.00
   3   0   7   23.50    4.60
  -3   0  -8    4.50    3.10
   3   0  -8   -5.30    6.70
  -3   0   8   -6.40    7.40
  -3   0  -8    6.40    6.20
  -3   0   8    2.60    9.00
   3   0   8   -3.90    6.70
   3   0  -8    2.00    7.40
   4   0   0  119.99    9.80
  -4   0   0  123.09   10.40
   4   0   0  124.89   10.70
  -4   0   0  122.59    9.70
  -4   0   0  119.59    7.50
   4   0   0  121.59   10.00
  -4   0   0  126.69   11.00
  -4   0   0  133.29   11.10
  -4   0  -1 1272.87   65.39
  -4   0  -1 1176.98   65.79
  -4   0  -1 1123.29   64.49
  -4   0   1 1304.67   66.69
  -4   0   1 1290.27   65.99
   4   0   1 1273.17   64.79
   4   0  -1 1213.58   65.19
  -4   0  -1 1280.47   66.19
   4   0   1 1171.88   64.89
  -4   0   1 1188.28   65.09
   4   0  -1 1103.09   65.99
   4   0  -1 1159.48   65.39
  -4   0   1 1133.19   63.79
   4   0   2  183.28   13.00
  -4   0   2  179.78   14.50
  -4   0   2  202.28   14.90
  -4   0   2  204.08   15.10
  -4   0  -2  187.68   12.70
   4   0   2  190.58   13.00
   4   0  -2  191.08   14.30
  -4   0  -2  200.98   13.90
  -4   0   2  207.48   13.40
  -4   0  -2  224.08   15.10
   4   0   2  195.18   13.40
  -4   0   2  179.88   13.50
   4   0  -2  190.08   14.50
  -4   0  -2  202.48   14.20
   4   0  -2  191.98   13.90
   4   0   3   52.89    5.90
  -4   0   3   48.80    6.20
   4   0   3   42.10    6.60
  -4   0  -3   57.59    8.40
   4   0  -3   38.00    8.00
   4   0  -3   36.00    6.10
   4   0   3   47.50    6.30
   4   0   3   54.19    4.90
  -4   0  -3   42.60    4.70
  -4   0   3   50.99    5.80
  -4   0  -3   42.60    5.40
  -4   0   3   44.70    7.90
  -4   0   3   43.30    5.90
   4   0  -3   40.90    6.70
  -4   0   3   47.80    7.60
  -4   0  -3   57.49    7.50
   4   0  -3   38.50    9.50
  -4   0  -4  613.54   36.60
  -4   0  -4  628.14   35.10
   4   0   4  556.34   33.20
   4   0   4  503.75   33.10
   4   0  -4  607.24   35.80
   4   0   4  619.54   33.70
  -4   0   4  641.24   36.10
  -4   0   4  613.44   36.20
   4   0  -4  587.14   36.70
  -4   0   4  644.84   35.50
   4   0  -4  589.44   35.70
  -4   0   4  558.04   36.30
   4   0  -4  650.03   38.50
  -4   0  -4  600.44   34.10
  -4   0  -4  569.14   33.10
  -4   0   4  637.24   36.10
  -4   0   5  181.08   15.10
   4   0  -5  184.48   15.60
   4   0  -5  173.08   14.00
   4   0   5  191.68   12.70
  -4   0  -5  180.28   13.40
  -4   0  -5  202.08   13.60
   4   0  -5  169.18   14.80
  -4   0  -5  203.28   16.50
   4   0  -5  229.48   19.20
  -4   0   5  188.28   13.70
  -4   0   5  195.68   14.80
   4   0   5  196.48   12.80
  -4   0   5  185.58   13.50
  -4   0   5  166.98   15.80
  -4   0   6   37.40    4.30
  -4   0  -6   42.90   11.00
  -4   0   6   42.70    7.00
  -4   0  -6   44.20    4.20
  -4   0   6   38.20    5.60
   4   0  -6   37.90    5.20
   4   0  -6   42.50    5.10
  -4   0  -6   32.80    6.40
   4   0  -6   24.20    8.00
   4   0   6   44.80    5.70
   4   0   6   37.90    5.70
  -4   0  -6   52.09    5.30
  -4   0  -7   32.20   23.70
   4   0  -7   28.30    6.80
  -4   0  -7   26.60    5.30
   4   0   7   30.40    6.00
  -4   0   7   24.90    6.40
  -4   0  -7   31.70    4.50
   4   0  -7   26.50    6.20
  -4   0  -8    2.30    8.00
   4   0  -8   13.00    8.30
   4   0  -8   -1.20    8.00
  -4   0   8    7.30    8.60
   4   0   8   11.80    7.10
  -4   0   8   -4.70    9.60
   5   0   0   -3.10    4.90
  -5   0   0    2.20    3.40
  -5   0   0   -1.30    5.30
  -5   0   0    0.00    6.40
   5   0   0   -1.10    2.90
   5   0   0   -1.60    2.70
   5   0   0   -4.90    7.70
  -5   0   0   -1.90    2.90
  -5   0   1 1475.05   84.89
   5   0  -1 1585.24   85.59
   5   0  -1 1632.04   85.29
  -5   0  -1 1522.65   84.49
  -5   0  -1 1695.73   86.79
  -5   0  -1 1687.73   85.79
   5   0  -1 1438.46   86.59
   5   0   1 1648.34   86.29
   5   0   1 1580.44   84.59
  -5   0   1 1711.53   86.19
  -5   0   1 1581.44   86.69
  -5   0   1 1510.75   83.09
  -5   0  -1 1491.85   85.99
   5   0   1 1610.74   85.09
  -5   0   1 1539.25   86.59
   5   0   2   67.09    6.90
  -5   0   2   65.69   10.00
  -5   0   2   63.59    6.20
  -5   0  -2   57.59    6.60
  -5   0  -2   76.39    9.70
   5   0  -2   75.19    9.50
   5   0   2   89.09   14.00
   5   0  -2   54.59    7.40
   5   0   2   53.49    5.90
   5   0  -2   56.39    7.80
  -5   0  -2   55.49    9.50
   5   0   2   59.09    8.30
  -5   0   2   62.19    9.30
  -5   0   2   62.09    7.00
  -5   0   2   70.29    8.40
  -5   0  -2   57.19    6.90
   5   0   3  116.69    9.40
   5   0  -3  124.09   11.60
   5   0  -3  132.09   13.20
  -5   0   3  124.49   10.70
   5   0  -3  118.29   11.00
   5   0   3  138.59   10.70
   5   0  -3  101.29   13.20
  -5   0   3  130.79   10.80
   5   0   3  135.79    9.70
  -5   0  -3  134.19   11.10
  -5   0   3  136.19   13.40
  -5   0   3  126.29   11.90
  -5   0  -3  133.59   12.00
  -5   0   3  137.49   13.40
  -5   0  -3  120.79    9.70
  -5   0  -4   83.29    9.40
  -5   0   4   78.89    8.90
   5   0  -4   73.79    8.60
  -5   0   4   86.99   11.00
  -5   0  -4   85.99    6.80
   5   0   4   85.89    8.60
   5   0   4  100.29    7.20
   5   0  -4   74.69    8.50
  -5   0   4   83.89    8.30
  -5   0  -4   80.89    7.80
   5   0  -4   75.49   13.00
   5   0   4   74.99    8.90
  -5   0  -4   99.39   11.50
  -5   0   4   85.69    8.60
   5   0  -4   92.29   11.20
  -5   0   5   31.60    4.80
   5   0   5   24.40    6.40
   5   0  -5   25.00    4.60
  -5   0  -5   27.50    4.70
   5   0  -5   36.10    9.60
  -5   0   5   32.10    5.30
   5   0   5   23.50    5.70
  -5   0  -5   12.30    8.40
  -5   0  -5   24.30    6.20
  -5   0   5   36.10    5.50
  -5   0  -5   24.40    3.40
  -5   0   5   34.80    4.70
  -5   0   5   27.50    8.70
  -5   0  -5   20.80    8.90
  -5   0  -6    7.60    8.60
   5   0  -6    4.20    5.10
  -5   0   6    8.60    4.70
  -5   0   6   10.10    8.90
   5   0  -6    3.20    5.60
  -5   0  -6    9.20    7.30
  -5   0   6    9.50    5.30
  -5   0  -6    1.60    4.60
  -5   0  -6    3.30    3.30
  -5   0   6   10.60    5.40
  -5   0  -6    6.50   10.60
   5   0   6    3.30    7.90
  -5   0   6    2.80    6.60
   5   0  -7   16.70    7.40
  -5   0  -7   22.70    6.30
  -5   0  -7   15.10    6.80
  -5   0   7   19.00    7.40
  -5   0   7   17.20    7.80
   5   0  -7   26.60    7.50
   5   0  -8  -10.00    9.90
   5   0  -8    7.30   11.00
  -5   0   8  -12.80   12.00
  -5   0   8   -3.80   11.00
   6   0   0  451.05   30.00
  -6   0   0  518.15   30.70
   6   0   0  458.15   28.80
  -6   0   0  453.25   30.60
  -6   0   0  451.15   30.00
  -6   0   0  441.66   28.30
   6   0   0  464.85   28.90
  -6   0   1  126.19   13.60
  -6   0   1   75.09   11.40
  -6   0  -1  104.69   11.90
  -6   0  -1   96.89    8.90
   6   0   1   68.09   12.50
  -6   0   1  102.99    9.70
   6   0  -1   82.99    9.20
  -6   0  -1   87.59    9.70
   6   0   1  107.29   10.00
  -6   0   1   94.69   10.10
  -6   0  -1  109.29   12.50
   6   0   1  111.89    8.90
   6   0  -1   91.59   11.30
   6   0  -1   85.89   10.00
  -6   0   1  100.39    7.30
   6   0  -2  160.78   13.80
  -6   0   2  193.78   16.90
   6   0   2  218.18   16.60
   6   0  -2  150.28   14.50
  -6   0  -2  178.98   13.10
  -6   0  -2  196.18   17.40
   6   0  -2  169.88   15.70
  -6   0   2  172.38   14.90
   6   0   2  178.98   14.30
  -6   0  -2  194.88   15.60
  -6   0   2  170.68   16.20
  -6   0   2  175.18   13.90
  -6   0  -2  158.18   14.20
  -6   0   2  172.58   12.30
   6   0   2  180.38   13.70
   6   0   2  181.68   12.70
  -6   0   3  256.67   17.10
   6   0  -3  266.17   20.00
   6   0  -3  226.58   17.70
  -6   0  -3  280.17   20.80
  -6   0   3  243.38   19.00
   6   0   3  235.78   15.80
   6   0   3  211.78   17.00
  -6   0   3  250.07   17.60
  -6   0  -3  250.17   18.80
   6   0  -3  220.68   18.50
  -6   0  -3  242.08   16.30
   6   0   3  268.57   16.50
  -6   0  -3  240.88   17.90
  -6   0   3  242.18   20.60
  -6   0  -4   10.60    9.30
   6   0   4    6.80    4.50
  -6   0  -4    8.10    3.80
  -6   0  -4   12.90    6.70
   6   0  -4   12.70    9.00
   6   0   4   14.60    3.70
   6   0  -4   13.30    4.20
  -6   0   4    8.30    4.30
  -6   0   4    3.70    4.70
   6   0  -4   17.80    4.40
  -6   0   4    5.00    8.90
  -6   0  -5   47.10    6.30
   6   0  -5   38.60    5.90
  -6   0   5   47.20    6.60
  -6   0  -5   38.50   12.00
  -6   0  -5   40.20    4.60
   6   0   5   30.90    8.00
  -6   0   5   40.30    7.10
   6   0  -5   57.29   12.50
  -6   0   5   54.19    6.20
  -6   0   5   36.10    5.40
  -6   0   6   25.80    7.70
   6   0  -6   36.90    6.90
   6   0  -6   24.40    7.10
  -6   0  -6   39.40    7.60
  -6   0   6   18.30    6.90
  -6   0   6    8.50    6.80
  -6   0   7   11.50    8.70
  -6   0  -7   -7.30    8.00
  -6   0   7  -11.90   10.30
   6   0  -7   -0.70    8.30
   6   0  -7    1.20    9.80
  -6   0  -7    6.80    5.10
  -7   0   0  -14.50    8.20
   7   0   0    2.60    9.70
   7   0   0   -6.10    4.30
  -7   0  -1    9.00    3.90
  -7   0   1   19.50   10.20
   7   0   1   16.20    4.50
  -7   0  -1   20.00    9.10
   7   0  -1    4.50    4.40
   7   0   1   15.60    4.70
  -7   0   1   13.90    4.00
  -7   0  -1   17.20    5.30
   7   0   1    9.60    8.30
  -7   0   1   12.80    6.00
  -7   0  -2    9.00    3.30
  -7   0   2    7.80    4.20
   7   0   2    9.20    4.00
  -7   0  -2   16.00    4.20
   7   0   2    6.10    4.00
  -7   0   2   12.80    2.80
   7   0  -2   15.20    5.00
  -7   0  -2   12.10    8.60
   7   0  -2    8.30    4.40
   7   0   2   16.20    9.20
   7   0   3    0.20    4.00
  -7   0   3    3.40    3.70
   7   0   3   12.60    7.10
  -7   0  -3    5.90    3.30
   7   0  -3    0.20    4.90
  -7   0  -3    1.30    4.50
   7   0  -3   11.90    4.80
  -7   0  -3   14.80    7.80
  -7   0   3   11.70    4.90
  -7   0  -4    6.60    5.70
  -7   0   4   10.40    6.00
  -7   0   4   13.20    5.60
  -7   0   4   17.10    4.80
   7   0  -4   14.80    5.40
  -7   0  -4    6.70    3.70
   7   0   4   15.80    4.30
   7   0   4   11.70    4.50
  -7   0  -4    6.30   10.60
   7   0  -4   15.20    5.90
  -7   0   5   53.49    7.70
  -7   0   5   37.90    8.80
   7   0  -5   65.19    7.60
  -7   0  -5   52.99    6.70
  -7   0  -5   52.69    5.70
  -7   0   5   64.29    7.90
  -7   0   5   45.60    7.90
   7   0  -5   60.89    7.80
   7   0  -6    7.80    9.00
  -7   0   6    7.30    8.30
   7   0  -6   20.00    8.00
  -7   0  -6   15.40    8.40
   8   0   0    6.00    5.50
  -8   0   0   11.60    4.30
   8   0   0    4.90    5.40
  -8   0   0   13.00    5.10
   8   0   1    4.30    5.80
  -8   0   1   -3.30    4.70
   8   0   1    5.40    6.10
   8   0  -1    8.70    5.60
  -8   0  -1    7.60   11.90
  -8   0  -1    7.30    5.20
   8   0  -1    9.40    5.60
  -8   0  -1    3.50    4.20
  -8   0   1    7.80    5.00
   8   0  -2   11.30    5.80
  -8   0  -2   -2.50   10.10
   8   0  -2    6.80    5.80
  -8   0  -2    7.90    4.80
   8   0   2    4.90    5.60
  -8   0  -2    8.00    5.70
   8   0   2    4.40    5.40
  -8   0   2    0.40    5.10
   8   0   2   14.60   13.30
  -8   0   2   -2.00    5.40
   8   0  -3    2.80    6.40
  -8   0  -3    1.60    6.00
  -8   0   3   -5.30    5.90
   8   0   3    1.60    5.40
   8   0   3    9.00    6.00
  -8   0   3   -4.00    6.40
  -8   0   3    3.50    4.60
  -8   0  -4   -5.00    7.50
  -8   0   4   12.80    6.00
   8   0  -4   15.00    7.40
  -8   0  -4    3.80    4.50
   8   0  -4    3.50    7.60
  -8   0   4    9.20    7.90
  -8   0  -5    1.60    5.50
   8   0  -5   35.20    9.60
  -8   0  -5   16.80    9.10
  -8   0   5    3.60    9.30
   8   0  -5   10.40    9.40
  -8   0   5   22.50    7.80
  -9   0   0   -7.00    5.80
  -9   0   0    5.30    6.80
   9   0   0   -0.90    7.90
   9   0   0    9.40    7.60
  -9   0   1   20.20    6.60
  -9   0  -1   13.10    5.90
   9   0  -1   23.20    7.70
   9   0   1   31.70    9.00
  -9   0   1   15.20    7.40
  -9   0  -2   -8.20    5.90
  -9   0   2   -9.90    7.10
  -9   0   2    1.30    7.90
   9   0   2    1.20    7.70
   9   0   2   13.50    8.50
  -9   0  -2   -6.00    7.70
   9   0  -2    9.10    8.20
   9   0  -2   12.70    8.20
  -9   0  -3   21.60    9.60
   9   0  -3   32.00    9.40
   9   0  -3   25.60    9.10
  -9   0   3    8.90    9.30
  -9   0   4   -5.20    9.90
  -9   0  -4    3.60   10.30
   9   0  -4    0.90   10.40
  10   0   0   -2.20   10.60
  10   0   0    6.50   11.30
 -10   0   0    3.00   15.80
  10   0  -1   31.20   11.00
  10   0   1    7.40   10.50
  10   0   1   22.00   12.10
  10   0  -1   22.20   10.90
 -10   0  -1    8.40   13.00
   0   1  -2 7855.11  383.96
   0   1   2 7096.19  383.96
   0  -1  -3 1743.73   88.39
   0   1  -3 1857.21   89.89
   0   1  -3 1711.33   88.59
   0  -1  -3 1670.13   87.99
   0  -1  -3 1753.62   90.19
   0   1  -3 1763.92   90.29
   0  -1  -3 1617.44   88.09
   0   1   3 1717.23   90.29
   0  -1   3 1726.13   88.19
   0  -1  -3 1682.33   89.69
   0  -1   3 1803.42   88.59
   0   1   3 1731.33   87.89
   0   1  -3 1495.45   88.69
   0  -1  -3 1677.93   87.99
   0   1  -3 1650.73   88.49
   0  -1   3 1618.74   90.29
   0  -1   3 1655.73   88.39
   0  -1   4  248.28   15.00
   0  -1  -4  253.37   14.30
   0  -1   4  237.18   13.60
   0  -1  -4  237.48   14.40
   0   1  -4  245.58   15.10
   0   1  -4  234.58   15.20
   0   1  -4  241.58   14.80
   0  -1   4  229.88   14.80
   0  -1   4  244.88   16.90
   0   1   4  244.78   14.20
   0   1   4  260.07   17.20
   0  -1  -4  223.98   17.00
   0  -1  -4  246.78   14.60
   0  -1  -4  239.88   16.20
   0  -1  -4  245.78   15.40
   0   1  -5  754.72   41.60
   0   1  -5  767.02   41.70
   0  -1   5  785.32   41.60
   0  -1  -5  793.72   41.80
   0  -1  -5  714.13   40.80
   0   1   5  728.43   44.40
   0  -1  -5  815.02   44.90
   0  -1   5  785.02   44.80
   0   1  -5  760.72   42.40
   0  -1  -5  641.24   42.30
   0  -1  -5  793.92   41.20
   0   1  -6    0.30    2.80
   0  -1  -6    2.00    3.50
   0  -1  -6   -1.40    2.50
   0   1  -6   -2.90    7.10
   0   1   6   -4.90    3.80
   0   1  -6    4.20    2.70
   0   1   6    5.00    3.20
   0  -1   6   -0.90    3.80
   0  -1  -6   -2.10    2.60
   0  -1   6    4.70    4.50
   0  -1  -6   -0.30    6.80
   0  -1  -6   -2.20    8.10
   0  -1   6    1.20    3.80
   0   1  -6    1.40    4.40
   0  -1   7  103.39   11.00
   0  -1   7  122.99   10.50
   0   1  -7  121.79    9.50
   0  -1  -7  115.99    8.80
   0   1   7  119.89    9.70
   0  -1   7  111.99   10.40
   0   1  -7  134.89    9.30
   0  -1  -7  120.69    8.20
   0   1  -7  121.19   10.30
   0   1   7  110.99    9.60
   0   1   7  109.69    8.60
   0   1  -8   -0.60    5.80
   0  -1  -8    4.90    5.50
   0  -1   8    2.20    6.00
   0   1  -8    1.30    4.80
   0   1   8    7.20    6.10
   0  -1  -8    2.60    3.80
   0  -1   9    4.80    9.00
   0   1  -9   16.70    8.90
   0   1  -9   11.90    6.40
   0   1   9   13.60    9.20
   1   1  -2 3778.82  170.48
   1   1  -2 3246.18  169.58
  -1   1   2 3131.89  168.98
   1   1  -2 2952.40  169.68
  -1  -1  -2 3105.59  169.58
   1  -1   2 3047.79  168.88
  -1   1   2 3388.26  169.18
   1   1  -2 3415.26  170.48
   1  -1   2 3273.07  170.08
  -1   1   2 3038.20  170.38
   1   1  -2 3322.87  169.48
   1  -1   2 3379.96  168.98
   1  -1   2 3374.96  168.88
  -1   1   2 3092.09  168.98
  -1   1   2 3567.54  169.38
  -1  -1   2 2959.30  169.28
  -1   1  -2 3227.28  169.38
   1  -1  -2 3386.26  170.38
  -1  -1   2 3183.38  170.48
   1  -1  -2 3386.96  169.38
   1  -1  -2 3345.17  169.18
  -1  -1   2 3462.05  169.58
   1  -1  -2 3305.37  169.58
  -1  -1   2 3361.36  169.68
  -1   1  -2 3421.36  169.18
  -1   1   3  422.16   23.40
   1  -1   3  457.95   23.50
  -1  -1  -3  369.86   23.70
  -1  -1  -3  464.25   23.70
  -1  -1  -3  454.45   23.40
   1  -1   3  447.16   23.90
  -1   1   3  407.96   26.00
   1   1  -3  446.06   26.00
   1  -1   3  427.16   23.50
   1  -1   3  399.46   23.80
  -1   1   3  399.36   23.50
   1   1  -3  429.36   24.70
  -1   1   3  436.66   24.30
  -1   1   3  435.46   25.90
  -1  -1  -3  461.45   25.60
  -1  -1  -3  457.05   23.50
   1   1  -3  476.75   25.90
   1   1  -3  425.06   25.00
   1  -1   3  448.26   25.50
  -1   1   3  482.35   24.60
   1   1  -3  451.95   24.80
   1   1   3  454.95   23.20
  -1  -1   3  435.06   25.20
   1   1   3  465.55   25.60
  -1   1  -3  431.56   24.10
  -1   1  -3  416.56   24.40
   1  -1  -3  448.26   24.40
   1   1   3  428.86   23.20
   1  -1  -3  416.16   24.60
   1  -1  -3  433.56   24.40
   1  -1  -3  480.95   26.50
  -1  -1   3  436.06   24.40
  -1   1  -3  364.76   24.10
  -1   1  -3  435.36   24.00
  -1  -1   3  466.75   24.90
  -1  -1   3  404.96   26.00
  -1  -1   3  469.45   25.00
   1  -1  -3  409.76   25.10
  -1  -1  -4  951.50   51.89
  -1  -1  -4 1019.60   54.89
   1   1  -4 1014.10   55.09
   1   1  -4  953.80   53.39
   1  -1   4 1015.30   54.89
   1   1  -4  895.01   53.69
   1  -1   4  934.91   53.39
  -1   1   4  958.50   55.49
   1   1  -4 1035.00   53.59
  -1  -1  -4  989.40   51.99
  -1   1   4 1047.70   53.09
   1   1  -4 1106.39   55.89
  -1   1   4 1053.49   53.09
   1  -1   4  878.91   52.29
  -1  -1   4 1055.59   53.49
  -1   1  -4  999.20   52.79
   1  -1  -4 1002.60   55.59
  -1   1  -4  986.00   54.59
   1   1   4 1028.00   51.69
  -1   1  -4  983.30   53.09
  -1  -1   4 1024.80   56.19
   1  -1  -4  978.40   52.89
  -1   1  -4  961.40   52.69
   1  -1  -4 1046.40   53.69
   1   1   4  991.50   51.79
  -1   1  -4  959.90   53.19
  -1  -1   4  973.10   53.39
  -1  -1   4  948.11   52.59
   1   1   4  927.01   54.59
   1  -1  -4  969.20   53.09
   1  -1   5   57.19    6.70
  -1   1   5   57.19    6.70
  -1  -1  -5   62.59    8.30
   1   1  -5   63.39    6.20
   1   1  -5   39.00    9.60
  -1  -1  -5   58.49    5.20
   1   1  -5   64.29    7.70
   1  -1   5   58.49    6.90
   1   1  -5   54.69    6.10
  -1  -1  -5   60.89    4.80
  -1  -1  -5   46.10    8.10
  -1   1   5   61.49    6.90
  -1  -1  -5   60.29    5.70
  -1  -1  -5   54.49    9.10
  -1   1   5   53.09    8.30
   1  -1   5   62.39    6.00
  -1   1  -5   62.29    5.40
   1   1   5   60.69    7.10
  -1  -1   5   51.29    8.00
  -1  -1   5   64.09    5.20
   1   1   5   64.09    5.60
   1  -1  -5   56.89    5.80
   1  -1  -5   55.49    9.10
   1  -1  -5   75.19    9.20
  -1   1  -5   51.69    6.70
  -1  -1   5   56.49    7.30
  -1   1  -5   61.09    5.70
   1  -1  -5   64.19    7.00
  -1  -1   5   56.59    6.50
   1  -1  -5   54.09    5.50
   1   1   5   63.09    5.20
  -1  -1  -6  144.79   10.20
  -1  -1  -6  137.59    9.90
   1   1  -6  143.69   11.40
  -1   1   6  133.49   12.90
  -1   1   6  145.49   11.10
  -1  -1  -6  129.59   13.20
   1   1  -6  140.49   11.90
   1  -1   6  144.69   10.30
   1  -1   6  121.29   10.50
  -1   1   6  160.28   11.80
  -1  -1  -6  132.99   14.60
  -1  -1  -6  152.48    9.50
   1   1  -6  147.89   10.90
  -1  -1  -6  151.38   12.80
   1  -1   6  140.39   12.20
   1   1   6  152.98    9.90
   1  -1  -6  137.29   15.30
   1  -1  -6  153.08   11.10
  -1  -1   6  153.98   11.80
  -1   1  -6  155.78   10.80
   1   1   6  142.79   12.40
  -1   1  -6  144.19   11.10
  -1   1  -6  135.29   14.70
   1  -1  -6  145.89   11.30
   1   1   6  152.78    9.50
   1  -1  -6  150.98   10.70
  -1  -1   6  125.49   12.90
  -1   1  -6  163.78   10.50
  -1   1   7   10.70    3.60
   1   1  -7   12.40    4.40
  -1  -1  -7   10.70    3.50
   1   1  -7   15.20    4.00
  -1  -1  -7    2.90    3.70
   1  -1   7   12.90    4.20
  -1   1   7    5.30    6.50
   1  -1   7   11.60    4.60
   1   1  -7   10.20    5.40
  -1   1   7    6.40    4.60
   1   1  -7   -1.00   10.00
  -1   1  -7    4.90    4.50
   1   1   7    4.30    3.40
   1  -1  -7   10.70    3.70
   1  -1  -7   15.40    5.10
  -1   1  -7    5.50    3.80
   1   1   7    2.50    4.40
  -1  -1   7    8.40    8.80
  -1   1  -7    9.60    9.10
  -1   1  -7    9.10    3.50
   1  -1  -7   14.80    4.20
   1  -1  -7    1.30    9.60
   1   1  -8   56.09    7.10
  -1  -1  -8   61.59    4.60
  -1  -1  -8   73.29    6.80
  -1   1   8   65.19    7.60
   1  -1   8   46.10    7.00
   1   1   8   45.50    7.10
   1  -1  -8   54.19    6.20
  -1   1  -8   67.99    7.10
   1  -1  -8   54.99    6.80
  -1  -1   8   60.89    7.80
   1   1  -9   -0.20    9.40
   1  -1   9    2.10    8.70
   1   1  -9   18.60    7.30
  -1   1   9   -5.10    9.30
  -1  -1   9   17.40    9.00
   1   1   9   -1.10    9.20
   1  -1  -9    5.90    5.90
  -2  -1   0 2570.34  123.79
   2   1   0 2588.74  124.29
   2  -1   0 2170.48  122.19
  -2   1   0 2447.96  123.19
   2  -1   0 2562.34  123.29
  -2  -1   0 2274.67  122.99
  -2   1   0 2652.23  123.59
   2  -1   0 2255.37  123.69
  -2  -1   0 2593.34  123.49
  -2  -1   0 1998.90  123.79
  -2   1   0 2127.69  123.59
   2   1   0 2570.44  123.39
   2   1   0 2061.39  123.39
   2  -1   0 2294.57  124.69
   2   1   0 2538.15  123.19
   2  -1   2 2670.33  145.89
   2  -1   2 2810.22  146.09
  -2  -1  -2 2742.23  145.29
  -2  -1  -2 3106.39  146.49
  -2   1   2 2882.71  146.79
  -2   1   2 2919.41  146.79
   2   1  -2 2966.70  146.69
   2   1  -2 2983.00  147.59
  -2  -1  -2 2665.43  145.79
   2   1  -2 2740.93  146.79
  -2   1   2 2993.80  146.79
  -2  -1  -2 2627.24  145.49
   2  -1   2 2838.82  145.79
  -2   1   2 2477.65  146.49
  -2  -1  -2 2626.14  145.89
  -2   1   2 2930.81  147.39
   2  -1  -2 2735.83  147.09
  -2  -1   2 2894.11  146.79
  -2   1  -2 3099.59  146.29
   2   1   2 2683.83  145.79
   2  -1  -2 2908.81  146.79
  -2  -1   2 2846.22  147.19
  -2  -1   2 2687.23  146.49
  -2  -1   2 2864.21  147.69
   2   1   2 2964.30  145.39
   2  -1  -2 2918.61  147.19
   2  -1  -2 3025.30  146.59
  -2   1  -2 2628.74  145.69
  -2   1  -2 2698.73  146.49
  -2  -1  -3 1414.96   74.79
   2   1  -3 1427.46   76.19
  -2  -1  -3 1326.67   73.19
  -2   1   3 1422.06   75.79
   2   1  -3 1412.56   75.89
  -2  -1  -3 1365.46   74.09
  -2  -1  -3 1561.44   74.79
   2   1  -3 1284.17   74.89
  -2   1   3 1314.97   74.59
   2   1  -3 1434.56   74.99
  -2   1   3 1282.17   74.49
   2  -1   3 1262.17   73.69
  -2   1   3 1392.06   76.59
   2  -1   3 1477.95   73.89
   2  -1   3 1425.66   74.79
  -2   1   3 1393.86   76.29
  -2   1   3 1480.55   74.69
   2  -1   3 1488.35   73.79
  -2  -1  -3 1325.77   73.39
  -2   1  -3 1495.35   74.89
   2  -1  -3 1441.96   76.19
  -2  -1   3 1479.15   75.29
  -2   1  -3 1619.04   75.99
  -2  -1   3 1423.06   76.69
   2  -1  -3 1470.95   74.79
  -2  -1   3 1385.66   74.99
   2   1   3 1451.55   73.19
   2  -1  -3 1363.36   75.39
   2  -1  -3 1323.17   74.79
  -2   1  -3 1478.45   74.29
   2   1   3 1441.06   74.99
  -2   1  -3 1320.57   73.69
  -2  -1   3 1388.46   74.89
   2   1  -4  209.98   14.20
  -2   1   4  199.68   12.30
  -2   1   4  201.18   12.60
  -2  -1  -4  196.58   12.30
  -2  -1  -4  186.88   15.60
  -2   1   4  188.48   15.00
  -2   1   4  196.98   13.20
  -2  -1  -4  179.58   13.40
   2   1  -4  229.48   15.80
   2  -1   4  171.98   12.20
  -2  -1  -4  189.38   11.40
  -2  -1  -4  201.08   12.00
   2  -1   4  205.88   12.50
   2   1  -4  200.58   13.50
   2   1  -4  186.98   13.70
  -2   1   4  175.98   14.50
   2  -1   4  189.08   13.60
  -2   1   4  197.58   13.90
  -2  -1   4  203.78   13.30
   2   1   4  191.78   13.60
  -2  -1   4  198.78   14.30
   2  -1  -4  196.08   13.80
  -2   1  -4  232.98   15.50
   2   1   4  202.88   11.60
  -2   1  -4  203.88   12.80
  -2   1  -4  199.38   13.00
   2   1   4  182.18   11.40
   2  -1  -4  181.88   13.50
  -2   1  -4  193.68   12.10
   2  -1  -4  195.88   15.40
   2  -1  -4  200.38   14.90
   2  -1  -4  188.28   13.20
  -2  -1   4  182.38   15.10
  -2  -1   4  193.88   14.40
  -2  -1   4  189.88   13.30
   2  -1   5   36.00    5.30
   2  -1   5   41.80    5.20
  -2  -1  -5   35.50    8.70
  -2   1   5   40.80    4.10
   2   1  -5   33.50    5.30
   2   1  -5   48.00    7.10
  -2   1   5   38.20    6.80
  -2  -1  -5   48.50    4.80
  -2  -1  -5   26.50    7.40
  -2   1   5   35.90    4.90
   2   1  -5   41.10    5.50
   2  -1   5   50.39    5.50
  -2   1   5   30.40    6.20
  -2  -1  -5   38.20    7.30
  -2  -1  -5   41.30    4.30
   2   1  -5   40.60   10.40
  -2  -1  -5   43.30    3.70
  -2   1  -5   42.50    4.70
   2  -1  -5   36.50    5.00
   2   1   5   45.40    4.20
  -2  -1   5   42.20    6.80
  -2   1  -5   45.60    4.30
  -2  -1   5   38.10    5.10
  -2   1  -5   53.69    8.80
  -2  -1   5   39.80    5.20
   2  -1  -5   37.40    8.40
  -2  -1   5   36.30    4.00
  -2   1  -5   41.50    6.00
   2   1   5   35.40    5.00
   2   1   5   44.30    4.60
   2  -1  -5   49.10    8.90
   2  -1  -5   35.30    6.80
  -2   1  -5   45.60    6.10
  -2  -1   5   33.50    5.80
   2  -1  -5   30.90    5.20
  -2  -1   5   43.10    5.80
  -2  -1  -6   20.90    4.30
   2  -1   6   21.40    4.20
   2   1  -6   31.60    7.80
  -2   1   6   19.80    4.20
  -2  -1  -6   25.20    7.10
  -2  -1  -6   21.70    2.80
  -2  -1  -6   25.20    7.70
   2   1  -6   19.70    3.60
  -2   1   6   14.70    4.30
   2   1  -6   24.90    3.90
  -2  -1  -6   26.80    3.20
   2  -1   6   26.00    5.10
  -2   1   6   25.80    6.20
   2   1  -6   20.90    9.70
   2   1   6   17.00    4.50
  -2  -1   6   25.00    3.50
   2  -1  -6   30.80    8.80
   2   1   6   25.20    3.50
   2  -1  -6   21.30    6.50
  -2  -1   6   18.10    2.50
  -2   1  -6   34.30    6.00
  -2   1  -6   33.80    9.40
  -2  -1   6   26.90    7.70
  -2   1  -6   27.10    5.80
  -2  -1   6   22.30    4.50
   2  -1  -6   15.20    3.80
   2  -1  -6   16.30    4.10
   2   1   6   27.90    3.90
  -2   1  -6   29.20    3.80
  -2  -1   6   22.40    4.00
  -2  -1  -7   14.40    2.70
  -2   1   7    6.10    5.30
  -2  -1  -7   12.50    2.60
   2   1  -7   12.50    5.00
   2   1  -7   16.50   15.20
   2  -1   7   11.20    5.50
  -2  -1  -7   19.60    7.30
  -2   1   7   18.40    4.60
   2   1  -7   15.70    4.40
   2  -1   7   18.10    4.70
  -2  -1  -7   16.80    4.00
   2  -1   7    6.00    4.70
   2   1  -7   24.80    6.80
  -2  -1  -7   16.50    8.30
  -2   1  -7   13.40    4.50
  -2  -1   7   20.00    4.10
   2  -1  -7   30.80    6.80
   2   1   7   20.10    4.90
  -2   1  -7   14.70    9.30
  -2   1  -7   15.10    3.40
   2  -1  -7   22.60   12.10
  -2   1  -7   21.30    4.30
  -2  -1   7   11.20    4.60
  -2  -1  -8    5.20    5.60
   2  -1   8    8.00    6.00
  -2   1   8   17.20    6.50
   2   1  -8    5.00    6.90
  -2   1   8    0.20    7.20
  -2  -1   8   -5.60    6.60
   2   1   8   -2.40    6.00
   2  -1  -8    5.90    6.40
   2  -1  -8    4.70    5.50
  -2  -1   8   -3.90    7.00
  -2   1  -8    7.40    5.90
  -2   1  -8    5.30    5.80
   2   1  -9    7.60    8.20
   2   1  -9   10.60    9.80
   2  -1   9   -1.40    9.10
   2   1   9    3.10    9.40
   2  -1  -9    2.50   10.00
   2  -1  -9   10.20    7.40
  -3   1   0 2352.26  117.39
   3  -1   0 2195.18  116.79
  -3  -1   0 2438.06  117.39
   3   1   0 2560.94  118.79
   3   1   0 1975.50  117.39
  -3  -1   0 2117.69  115.29
   3  -1   0 2047.50  117.59
  -3   1   0 2180.08  116.79
   3   1   0 2208.18  117.09
  -3  -1   0 2242.98  117.69
  -3   1   0 2415.16  117.99
  -3  -1   0 2204.48  116.79
   3  -1   0 2237.28  117.19
   3  -1   0 2190.78  115.29
   3   1   0 2306.37  116.89
  -3   1   0 2193.08  117.69
  -3   1   1 5657.03  316.47
   3  -1   1 6290.77  316.87
  -3  -1  -1 6913.11  317.97
  -3   1   1 6647.83  317.77
  -3   1   1 6064.89  317.97
   3   1  -1 5495.25  317.87
  -3  -1  -1 6266.67  317.07
   3   1  -1 6544.55  317.37
   3  -1   1 6532.75  318.17
  -3   1   1 6092.19  318.07
   3   1  -1 6196.18  317.57
   3   1  -1 6822.42  319.27
   3  -1   1 5838.02  317.07
  -3   1   1 6245.88  317.27
  -3  -1  -1 5457.35  316.37
   3  -1  -1 6589.64  317.37
  -3  -1   1 6807.82  317.87
  -3   1  -1 5572.34  316.67
  -3  -1   1 5996.20  317.27
  -3  -1   1 5882.71  316.57
  -3  -1   1 6531.85  318.37
   3   1   1 6322.67  316.67
  -3   1  -1 5269.57  317.37
   3   1   1 6988.80  318.17
   3   1   1 5848.11  316.77
  -3   1  -1 6288.87  317.27
  -3   1  -1 5990.40  317.77
   3  -1  -1 6549.24  316.67
   3  -1  -1 5871.71  317.47
   3   1   1 5973.80  317.27
   3  -1  -1 5470.35  317.87
   3   1  -2 8614.94  456.25
  -3   1   2 8840.92  456.75
   3   1  -2 7585.64  456.55
   3  -1   2 9283.27  455.15
  -3   1   2 9022.60  456.55
   3   1  -2 9183.28  455.95
  -3  -1  -2 8932.91  455.15
   3   1  -2 9146.79  459.65
  -3   1   2 8791.02  455.85
  -3   1   2 8848.91  456.15
  -3  -1  -2 8895.41  455.75
   3  -1   2 8207.88  455.05
  -3   1   2 8541.95  457.05
  -3  -1  -2 9793.72  456.25
   3   1   2 9266.67  454.75
  -3   1  -2 9999.00  457.15
  -3   1  -2 8899.71  455.45
   3  -1  -2 9443.46  456.15
   3  -1  -2 9066.19  457.05
   3  -1  -2 8698.53  455.75
  -3   1  -2 8432.36  455.95
  -3  -1   2 9006.90  456.25
  -3  -1   2 8521.95  458.95
  -3  -1   2 9000.20  456.85
   3   1   2 8646.63  454.85
   3  -1  -2 8442.66  456.05
  -3  -1   2 8386.06  455.75
  -3   1   3  139.19   11.00
   3  -1   3  126.39    9.80
  -3   1   3  135.09   10.50
   3   1  -3  131.49   10.60
  -3  -1  -3  150.38   10.00
  -3  -1  -3  141.89   10.00
   3  -1   3  149.88    9.90
   3   1  -3  162.78   13.10
  -3   1   3  136.59   11.30
  -3   1   3  130.99   10.40
   3   1  -3  141.19   11.40
   3  -1   3  148.89    9.40
  -3  -1  -3  134.19    8.80
  -3  -1  -3  156.38   11.70
  -3   1   3  118.69   10.90
   3   1  -3  131.19   11.10
  -3  -1  -3  138.39    9.90
   3  -1  -3  142.29   11.20
  -3   1  -3  130.29    9.20
   3   1   3  140.99    9.40
  -3   1  -3  140.59   10.60
   3   1   3  127.29    9.30
   3  -1  -3  153.08   11.90
  -3  -1   3  151.28   11.60
  -3  -1   3  136.19   10.40
   3   1   3  136.89    9.90
   3  -1  -3  137.79   11.20
  -3  -1   3  127.49   14.10
   3  -1  -3  127.39   10.60
  -3   1  -3  150.98   10.50
  -3   1  -3  146.39   12.20
  -3  -1   3  131.59   11.20
   3  -1   4  146.99   11.20
  -3  -1  -4  175.38   13.30
   3   1  -4  152.38   12.80
  -3   1   4  164.78   11.70
  -3   1   4  163.48   14.00
  -3  -1  -4  156.18   11.10
  -3   1   4  160.38   13.00
  -3  -1  -4  147.79   10.10
  -3   1   4  172.28   12.50
  -3   1   4  143.39   13.50
   3  -1   4  186.88   11.60
   3   1  -4  176.58   13.60
   3   1  -4  154.68   12.40
   3  -1   4  176.58   11.60
  -3   1   4  180.78   12.10
  -3  -1  -4  157.48   12.50
   3   1  -4  192.28   15.50
  -3  -1  -4  158.28   11.10
  -3   1  -4  161.58   12.00
   3   1   4  174.08   10.60
   3  -1  -4  154.98   12.60
   3  -1  -4  142.79   14.40
  -3   1  -4  181.88   14.50
  -3  -1   4  173.58   13.40
  -3  -1   4  162.58   12.60
   3  -1  -4  147.19   12.60
  -3   1  -4  188.28   12.10
  -3  -1   4  168.58   12.50
   3  -1  -4  150.18   13.10
   3  -1  -4  166.78   14.30
  -3   1  -4  159.28   10.70
  -3  -1   4  165.48   11.90
   3   1   4  162.98   11.50
  -3  -1   4  150.18   13.60
  -3   1   5  141.49   11.10
  -3   1   5  167.68   13.90
   3   1  -5  129.79   14.90
  -3   1   5  123.79   12.90
  -3  -1  -5  181.48   16.80
   3   1  -5  131.29   12.30
   3  -1   5  139.19   11.20
  -3   1   5  159.98   11.00
  -3  -1  -5  148.99    9.30
  -3  -1  -5  153.08   10.50
  -3  -1  -5  137.39   10.10
   3   1  -5  127.99   11.60
   3  -1   5  130.49   10.30
   3   1  -5  143.09   15.30
   3  -1   5  156.48   10.70
  -3   1   5  146.79   10.10
  -3   1   5  139.99   12.80
   3  -1  -5  131.49   11.30
  -3  -1   5  146.29   12.00
   3  -1  -5  143.89   13.00
   3   1   5  146.19    9.60
  -3   1  -5  149.59   10.20
   3  -1  -5  183.98   15.80
  -3   1  -5  146.79   11.40
  -3  -1   5  151.28   13.40
  -3   1  -5  150.28   10.90
  -3  -1   5  156.38   10.90
  -3  -1   5  160.08   11.30
   3  -1  -5  138.89   12.30
  -3  -1   5  133.59   13.40
   3   1   5  156.68    9.60
   3   1   5  141.69   11.00
  -3   1  -5  160.98   14.30
   3  -1  -5  140.49   14.30
  -3  -1   5  160.88   13.00
  -3  -1  -6    4.50    2.80
   3   1  -6    6.90    6.60
   3  -1   6   -0.70    3.30
  -3  -1  -6    7.60    2.20
  -3  -1  -6    0.10    6.40
   3   1  -6    0.00    4.10
   3  -1   6    5.30    4.20
  -3   1   6    2.50    4.50
  -3   1   6    6.90    5.10
  -3   1   6    4.10    2.70
  -3  -1  -6    2.30    7.10
  -3  -1  -6    4.20    3.50
  -3   1   6    6.80    2.00
   3   1  -6    3.90   10.90
   3   1  -6    2.80    3.50
  -3   1   6    8.20    3.70
  -3  -1   6    2.40    4.20
  -3   1  -6    2.60    3.10
  -3  -1   6    6.00    4.70
  -3  -1   6    6.30    3.90
   3  -1  -6   11.10    8.70
   3   1   6    3.40    2.90
   3   1   6    7.60    3.50
  -3   1  -6    5.40    5.30
  -3  -1   6   -0.40    2.70
  -3   1  -6    4.00    8.10
   3  -1  -6    3.20    3.70
  -3  -1   6   10.40    4.50
   3   1   6    4.60    2.60
   3  -1  -6    1.90    6.40
  -3   1  -6    1.20    2.70
  -3   1  -6    1.00    4.30
  -3   1   7    2.70    4.80
  -3   1   7    3.50    5.90
  -3  -1  -7    0.00    2.20
  -3  -1  -7    3.50    1.90
   3   1  -7   11.60    5.70
  -3  -1  -7   -2.60    8.10
  -3   1   7   -1.60    5.50
  -3  -1  -7   12.00    4.10
   3  -1   7   -4.90    5.00
   3  -1   7    3.40    4.30
   3   1  -7    9.20    5.00
   3   1  -7   10.40   10.90
   3  -1  -7   -6.70    4.70
   3  -1  -7   -0.10    5.40
  -3   1  -7    1.40    4.40
  -3   1  -7    3.50    8.20
  -3   1  -7   -4.80   10.20
   3  -1  -7    1.10    7.40
  -3  -1   7    2.00    4.60
  -3   1  -7    0.80    3.50
  -3   1  -7   11.60    6.70
  -3  -1   7    9.50    5.50
  -3  -1   7    2.10    4.70
  -3  -1   7    2.60    5.60
   3   1   7    6.50    4.40
   3   1  -8    9.70    7.80
  -3  -1  -8   12.30    6.00
  -3   1   8    5.90    7.70
  -3   1   8    5.10    8.30
   3  -1   8    2.90    6.80
   3   1  -8   -1.70    6.70
  -3  -1   8    3.20    7.10
   3   1   8   -1.40    6.60
   3  -1  -8    1.90    7.80
  -3  -1   8   -7.20    7.50
  -3   1  -8   11.50    6.40
   3  -1  -8   -7.80    6.30
  -4   1   0 1324.27   83.29
  -4  -1   0 1472.55   82.39
  -4   1   0 1590.54   83.99
   4  -1   0 1476.65   83.79
   4  -1   0 1595.94   82.69
  -4  -1   0 1664.33   83.39
   4   1   0 1582.94   83.69
   4   1   0 1562.14   82.99
  -4  -1   0 1392.26   80.39
  -4   1   0 1649.23   82.79
  -4   1   0 1666.23   83.49
  -4  -1   0 1629.24   84.09
   4  -1   0 1554.94   83.09
   4   1   0 1607.34   82.69
   4  -1   1  515.25   28.60
  -4  -1  -1  496.75   28.90
  -4   1   1  434.56   29.50
   4   1  -1  460.45   29.40
  -4   1   1  504.25   29.90
   4   1  -1  480.45   28.70
   4   1  -1  473.35   28.80
  -4  -1  -1  458.95   29.00
  -4  -1  -1  539.65   29.80
   4   1  -1  519.75   31.00
  -4  -1  -1  485.15   28.00
  -4   1   1  508.05   29.20
  -4   1   1  450.05   27.20
  -4   1   1  476.05   28.50
   4  -1   1  558.34   30.00
   4  -1   1  489.05   28.30
  -4   1  -1  510.25   29.90
  -4  -1   1  497.65   30.20
  -4   1  -1  529.25   29.40
  -4   1  -1  430.66   29.00
   4  -1  -1  462.25   28.80
  -4   1  -1  471.95   28.00
   4  -1  -1  508.05   27.50
   4  -1  -1  453.55   29.50
  -4  -1   1  494.95   29.90
   4  -1  -1  497.95   28.80
   4   1   1  542.95   30.10
  -4  -1   1  476.05   28.50
   4   1   1  495.75   28.40
  -4  -1   1  474.65   27.40
   4   1   1  523.35   29.10
   4   1   1  495.15   28.10
   4  -1   2  238.68   15.60
   4  -1   2  240.88   15.70
   4   1  -2  207.08   15.80
  -4   1   2  246.78   17.10
   4   1  -2  224.18   18.00
  -4   1   2  225.18   16.60
  -4   1   2  238.98   15.70
   4  -1   2  230.48   15.20
  -4   1   2  238.38   15.50
   4   1  -2  239.68   16.90
  -4   1   2  256.27   17.10
  -4  -1  -2  249.88   15.80
  -4  -1  -2  270.57   17.20
  -4  -1  -2  236.48   14.80
   4   1  -2  247.78   16.70
  -4  -1  -2  241.68   16.00
  -4  -1   2  245.38   17.20
  -4  -1   2  241.28   17.20
  -4   1  -2  257.47   16.80
  -4   1  -2  236.68   15.10
   4   1   2  246.18   15.20
  -4   1  -2  221.18   16.00
   4  -1  -2  229.08   16.20
   4  -1  -2  255.47   16.10
   4   1   2  252.07   15.30
   4  -1  -2  204.78   16.40
  -4   1  -2  254.57   17.30
  -4  -1   2  223.08   15.40
   4  -1  -2  230.98   16.40
   4   1   2  206.68   16.00
  -4  -1   2  227.98   15.80
  -4  -1  -3   14.20    3.80
  -4  -1  -3   16.00    5.60
  -4   1   3   14.90    4.20
   4  -1   3    5.80    5.80
   4  -1   3   13.60    4.10
  -4  -1  -3   15.80    7.20
   4   1  -3   11.10    5.00
  -4   1   3   23.20    6.90
  -4   1   3   20.70    4.20
   4   1  -3   14.70    5.00
   4   1  -3   14.80    7.90
   4  -1   3   20.80    3.40
  -4   1   3   24.40    7.10
   4  -1   3   16.90    3.30
  -4  -1  -3   16.30    3.10
  -4   1   3   24.10    4.40
   4  -1   3   16.80    5.30
   4   1  -3   21.90    6.20
  -4   1  -3   14.20    3.90
  -4   1  -3   19.20    6.30
   4   1   3   18.30    5.20
   4  -1  -3   10.00    5.80
  -4  -1   3   20.40    4.40
  -4  -1   3   22.70    3.90
  -4  -1   3   21.90    4.20
   4   1   3   15.10    4.40
   4  -1  -3   14.50    6.90
  -4  -1   3   12.30    6.50
  -4   1  -3   16.90    7.80
   4  -1  -3   19.00    4.20
  -4  -1   3   19.90    7.10
  -4   1  -3   16.60    3.90
   4   1   3   16.70    4.90
   4  -1  -3   15.30    5.30
   4   1  -4  305.67   21.00
   4   1  -4  292.77   20.30
  -4  -1  -4  331.77   21.50
   4  -1   4  350.66   18.00
  -4   1   4  314.17   19.70
   4  -1   4  311.97   18.90
   4  -1   4  263.37   18.50
  -4   1   4  280.97   20.90
  -4  -1  -4  299.67   19.20
  -4  -1  -4  289.77   18.60
  -4   1   4  296.77   22.90
  -4   1   4  307.07   20.50
   4  -1   4  308.97   18.10
  -4  -1  -4  278.37   17.50
   4   1  -4  285.27   21.20
   4   1  -4  349.07   23.60
  -4   1   4  303.47   21.40
  -4   1   4  324.47   20.20
   4   1   4  320.67   18.30
  -4  -1   4  330.67   20.00
   4  -1  -4  305.57   21.50
  -4  -1   4  305.97   21.10
   4  -1  -4  302.37   20.70
  -4  -1   4  270.37   20.60
  -4   1  -4  280.67   18.10
   4   1   4  248.18   17.70
  -4   1  -4  344.17   22.70
  -4  -1   4  316.57   21.00
  -4   1  -4  293.37   19.40
   4  -1  -4  285.37   20.10
  -4   1  -4  308.77   19.80
   4  -1  -4  282.27   20.80
   4   1   4  273.37   17.80
  -4  -1   4  316.97   20.70
  -4   1   5   33.50    7.20
  -4   1   5   34.90    4.10
   4  -1   5   25.60    5.70
  -4  -1  -5   38.30    9.10
  -4   1   5   35.00    5.60
   4   1  -5   34.60    5.00
   4   1  -5   30.40   12.20
   4  -1   5   33.20    6.30
   4   1  -5   40.40    8.90
   4  -1   5   45.10    4.20
  -4   1   5   41.30    4.60
  -4   1   5   36.80    6.50
  -4  -1  -5   39.40    6.00
   4  -1  -5   29.70    5.10
  -4   1  -5   35.30    9.50
   4  -1  -5   37.50   11.10
  -4   1  -5   31.50    4.90
  -4  -1   5   41.70    7.80
   4   1   5   41.80    4.20
   4  -1  -5   27.10    9.20
  -4  -1   5   35.90    4.70
   4   1   5   27.50    4.40
   4  -1  -5   42.60    8.30
  -4  -1   5   31.10    5.50
  -4  -1   5   35.80    5.40
  -4  -1   5   35.70    5.10
  -4   1  -5   32.60    7.10
   4   1   5   40.50    5.50
   4  -1  -5   29.30    5.40
   4  -1   6   76.19    6.20
  -4   1   6   59.39    5.40
  -4   1   6   71.69    7.30
  -4   1   6   76.69    8.60
   4   1  -6   61.49    6.60
  -4  -1  -6   74.79    6.20
  -4  -1  -6   74.89    5.40
   4   1  -6   68.29   10.00
  -4   1   6   73.59    6.10
  -4  -1  -6   59.29   10.90
   4  -1   6   73.49    8.00
   4   1  -6   73.99    7.50
  -4  -1  -6   53.59    6.50
  -4  -1   6   61.29    7.10
   4  -1  -6   60.69    6.90
   4   1   6   65.99    6.10
   4  -1  -6   61.79    6.20
  -4  -1   6   75.59    6.10
  -4   1  -6   74.69   13.20
   4   1   6   63.59    6.20
  -4   1  -6   72.89    6.60
  -4   1  -6   67.79    5.70
  -4   1  -6   61.69    7.80
  -4  -1   6   83.29    8.60
  -4  -1   6   75.69    8.70
   4   1   6   73.09    6.00
  -4  -1   6   74.29    6.70
   4   1  -7    4.30    6.20
  -4  -1  -7    4.40    3.00
  -4   1   7    4.40    6.30
  -4   1   7    3.40    5.50
  -4  -1  -7    1.40    2.80
   4   1  -7    7.20    6.50
   4  -1   7    0.90    4.70
  -4  -1   7    2.90    3.90
  -4   1  -7    0.10    3.80
   4  -1  -7    3.50    5.80
   4  -1  -7    3.20    6.30
  -4   1  -7    2.20    5.20
  -4  -1   7    0.90    5.70
  -4  -1   7   22.20   10.40
   4   1   7    6.40    4.70
   4  -1   8    4.00    7.10
   4   1  -8    5.00    8.20
  -4   1   8    3.80    9.00
   4   1  -8    1.70    9.30
  -4   1   8    6.10    8.80
  -4   1  -8    4.20    5.40
  -4  -1   8    6.90    8.10
   4  -1  -8   -0.20    7.80
   4   1   8   13.30    7.40
   4  -1  -8   -5.10    9.20
  -4  -1   8  -10.60    9.70
   5   1   0  200.58   14.70
  -5  -1   0  200.48   15.70
  -5   1   0  201.68   14.20
  -5  -1   0  187.88   11.40
  -5   1   0  219.38   16.20
   5   1   0  202.28   16.70
   5  -1   0  199.58   14.70
   5  -1   0  202.28   14.50
  -5   1   0  188.98   15.20
   5  -1   0  206.68   15.60
  -5   1   0  208.88   16.20
  -5  -1   0  178.98   14.80
   5   1   0  201.48   14.30
  -5  -1   0  187.88   14.00
  -5  -1   0  221.28   16.30
   5   1   0  213.08   15.30
  -5   1   1  631.84   35.60
  -5  -1  -1  584.64   34.80
  -5  -1  -1  588.44   36.20
  -5   1   1  602.74   36.90
   5  -1   1  581.24   35.10
   5   1  -1  617.04   37.70
   5  -1   1  653.53   36.80
   5   1  -1  594.44   35.70
  -5   1   1  664.03   36.90
  -5   1   1  569.24   36.70
   5   1  -1  593.94   36.90
  -5   1   1  586.54   33.40
  -5  -1  -1  665.93   37.30
   5   1  -1  619.74   35.80
   5  -1   1  609.24   35.20
  -5  -1  -1  637.24   36.00
   5  -1  -1  580.54   35.60
  -5  -1   1  601.64   33.60
  -5  -1   1  658.43   36.80
  -5   1  -1  597.64   35.00
   5   1   1  569.34   35.70
  -5   1  -1  576.24   38.60
  -5  -1   1  611.24   37.20
  -5  -1   1  571.64   36.60
  -5   1  -1  579.34   36.30
  -5   1  -1  656.33   37.20
   5   1   1  619.14   35.20
  -5  -1   1  575.24   35.20
   5  -1  -1  637.94   35.90
   5  -1  -1  587.04   37.20
   5   1   1  625.14   35.30
  -5  -1  -2  177.48   14.10
  -5   1   2  152.98   11.20
  -5   1   2  157.78   14.00
  -5   1   2  149.99   13.20
  -5  -1  -2  154.28   12.50
   5   1  -2  158.18   12.90
  -5   1   2  161.88   14.30
   5   1  -2  170.48   15.40
  -5  -1  -2  149.09   11.50
   5  -1   2  155.18   12.20
   5   1  -2  152.58   12.50
   5   1  -2  157.18   13.50
   5  -1   2  136.29   11.80
   5  -1   2  135.09   11.30
  -5  -1  -2  161.78   12.90
  -5   1   2  159.68   12.30
   5  -1  -2  153.88   12.60
  -5   1  -2  171.48   13.50
  -5   1  -2  147.89   11.50
  -5   1  -2  162.18   12.90
   5  -1  -2  152.58   13.60
  -5  -1   2  166.18   14.40
   5   1   2  147.69   12.30
  -5  -1   2  158.88   11.40
  -5  -1   2  152.98   12.30
   5   1   2  146.59   11.40
  -5  -1   2  144.29   13.00
  -5  -1   2  171.88   14.70
  -5   1  -2  168.78   14.50
   5  -1  -2  154.28   13.50
   5   1   2  140.69   11.20
  -5  -1  -3  120.39   12.90
  -5   1   3  120.89   11.80
   5  -1   3  106.19   10.30
   5  -1   3  104.89    8.80
  -5  -1  -3  108.89    9.50
  -5   1   3  114.09   10.70
   5   1  -3  108.29   10.70
  -5  -1  -3  114.59   10.90
   5   1  -3  107.89   11.00
  -5   1   3   90.39    9.20
  -5   1   3  115.69    9.90
  -5  -1  -3  109.69    8.60
   5  -1   3   91.89    8.20
   5   1  -3  117.49   13.10
   5   1  -3  102.59    9.80
  -5   1   3  104.49   11.80
   5  -1  -3   96.19    9.70
   5   1   3  111.99    9.80
  -5   1  -3  104.99    8.70
  -5   1  -3  105.29   10.50
   5  -1  -3   98.09   10.30
  -5   1  -3  123.49   13.60
  -5  -1   3  103.19    9.40
  -5   1  -3  107.09    9.90
  -5  -1   3  109.59   10.10
  -5  -1   3  104.59   11.60
  -5  -1   3  111.99   11.10
   5   1   3  111.09    9.90
   5  -1  -3  110.69   12.20
  -5  -1   3  117.89   12.60
   5   1   3  105.59    8.00
   5   1   3   98.39    8.30
  -5  -1  -4   46.40    7.40
  -5  -1  -4   47.60    5.50
  -5   1   4   50.49    6.10
   5  -1   4   44.20    7.10
   5   1  -4   56.39   11.90
  -5   1   4   51.29    9.10
  -5   1   4   43.40    5.80
   5  -1   4   36.80    4.80
  -5   1   4   50.89    6.00
   5   1  -4   48.00    9.60
   5  -1   4   53.99    4.80
  -5  -1  -4   49.10    4.80
   5   1  -4   44.10    6.00
  -5  -1  -4   58.09    9.60
  -5   1  -4   48.50    8.20
   5   1   4   36.80    6.30
  -5  -1   4   52.69    6.40
  -5  -1   4   52.09    7.10
  -5  -1   4   47.70    6.20
  -5   1  -4   53.49    6.20
   5  -1  -4   40.10   11.50
   5  -1  -4   51.19    6.30
  -5   1  -4   55.79    5.20
  -5   1  -4   66.19   11.30
   5  -1  -4   46.60    5.90
   5  -1  -4   54.69    9.50
  -5  -1   4   33.90    9.00
   5   1   4   57.09    6.80
  -5   1   5   53.69    6.10
   5  -1   5   31.90    7.90
  -5   1   5   39.80    4.80
  -5  -1  -5   30.20    9.60
   5  -1   5   44.60    3.90
   5   1  -5   65.69   10.50
   5  -1   5   30.50    7.00
   5   1  -5   49.70    5.40
  -5  -1  -5   39.90    6.80
  -5  -1  -5   40.30    5.80
  -5   1   5   46.80    6.00
  -5  -1  -5   44.60    4.20
   5   1  -5   43.20    7.90
  -5  -1  -5   48.70   10.40
  -5   1   5   54.49    6.70
  -5   1   5   40.30    8.30
  -5  -1   5   42.90    6.80
  -5   1  -5   48.90    7.80
  -5  -1   5   54.89    7.00
   5  -1  -5   38.80    5.30
  -5   1  -5   49.20    4.70
  -5   1  -5   48.40    5.10
   5   1   5   42.80    6.50
  -5  -1   5   51.49    9.40
  -5  -1   5   54.59    6.00
   5  -1  -5   42.20    9.80
   5  -1  -5   56.39    5.50
  -5   1  -5   55.59   11.90
  -5   1   6   11.30    4.60
  -5  -1  -6   17.00    9.00
  -5  -1  -6   19.20   10.70
   5   1  -6   27.10   11.10
  -5  -1  -6   14.70    4.60
  -5  -1  -6    6.40    7.00
   5  -1   6   13.80   10.10
   5   1  -6   20.10    5.50
  -5   1   6   10.10    5.40
  -5   1   6   21.70   10.60
  -5   1   6   13.70    6.40
   5   1  -6    4.80    5.20
   5  -1   6   19.90    4.40
  -5  -1  -6   18.30    3.60
  -5   1   6   13.20    5.90
   5  -1  -6   25.10    8.90
  -5  -1   6    5.80    6.10
   5  -1  -6   10.80    5.60
  -5  -1   6    9.40    5.00
  -5  -1   6   13.00    5.60
  -5   1  -6   16.80    5.00
  -5  -1   6   16.60    5.40
  -5  -1   6   24.40    9.30
   5   1   6   20.50    5.80
   5  -1  -6   18.70    5.70
  -5   1  -6   28.50   13.90
  -5   1  -6    9.80    8.40
  -5   1   7    8.60    7.10
  -5  -1  -7    6.50    6.00
   5   1  -7   12.80    8.20
  -5   1   7    0.80    7.50
  -5   1   7    0.50    8.40
  -5  -1  -7   13.00    3.70
   5  -1   7   13.70    5.30
   5   1  -7   12.60    7.60
  -5  -1   7   -5.70    8.70
  -5   1  -7    9.40    6.90
   5  -1  -7   -8.30    7.80
  -5  -1   7   -0.40    7.40
  -5  -1   7   -1.90    7.80
  -5   1  -7    7.90    4.40
   5  -1  -7   11.60    7.10
  -5  -1   7    6.40    5.90
   5   1  -8   23.80   11.00
  -5   1   8   26.50   10.70
   5   1  -8   -6.20   10.20
   5  -1  -8    6.90   10.10
   5  -1  -8   10.60    9.60
  -5  -1   8    8.40   11.70
  -6  -1   0  842.92   49.70
   6  -1   0  858.11   49.80
  -6  -1   0  788.22   49.00
   6   1   0  843.62   47.90
  -6  -1   0  906.71   49.20
  -6  -1   0  803.52   47.30
  -6   1   0  828.82   49.60
   6  -1   0  813.02   47.90
   6   1   0  849.41   47.80
   6   1   0  800.42   48.90
  -6   1   0  778.92   49.10
  -6   1   0  814.72   47.50
   6  -1   0  841.92   47.80
  -6   1   0  891.31   49.30
   6   1  -1  154.28   15.60
   6   1  -1  143.19   12.70
  -6   1   1  126.79   13.60
  -6  -1  -1  134.29   11.20
   6  -1   1  134.39   11.10
   6   1  -1  149.59   13.70
   6   1  -1  125.79   11.50
  -6  -1  -1  159.88   14.80
  -6  -1  -1  156.38   13.90
  -6  -1  -1  132.69   12.20
  -6   1   1  143.89   11.80
   6  -1   1  137.29   12.80
  -6   1   1  146.69   15.10
  -6   1   1  126.09   12.60
  -6   1  -1  131.79   11.20
  -6   1  -1  128.09   12.30
   6  -1  -1  139.79   13.00
  -6   1  -1  153.78   14.30
  -6   1  -1  148.89   14.50
   6   1   1  122.49   10.40
   6  -1  -1  142.49   13.70
   6  -1  -1  138.89   12.20
  -6  -1   1  138.69   14.90
   6   1   1  166.38   15.10
  -6  -1   1  142.49   12.90
  -6  -1   1  134.49   12.00
   6   1   1  133.29   12.30
  -6  -1   1  137.89    9.50
  -6  -1  -2   89.19   13.20
   6  -1   2   69.39    6.70
  -6  -1  -2   67.79    6.90
  -6   1   2   76.99   10.90
  -6   1   2   72.09    8.10
  -6  -1  -2   61.29    8.10
  -6   1   2   69.69   11.90
   6  -1   2   79.29    9.70
  -6  -1  -2   71.99   11.40
   6  -1   2   50.19    9.70
   6   1  -2   70.39    7.70
   6  -1   2   72.29    8.20
  -6   1   2   73.09    8.80
  -6   1   2   83.09    6.80
   6   1  -2   70.79    8.30
   6   1  -2   65.99   11.10
  -6  -1   2   72.69    7.90
  -6  -1   2   74.59   11.30
   6   1   2   91.59   10.60
  -6  -1   2   75.89    8.90
   6   1   2   65.49    6.00
  -6   1  -2   79.79   11.50
  -6   1  -2   68.19    7.70
  -6   1  -2   70.09   10.20
  -6  -1   2   77.99    6.80
   6   1   2   80.89    9.30
   6  -1  -2   60.29    8.20
   6   1   2   76.19    7.20
   6  -1  -2   76.89    9.90
  -6   1  -2   67.99    8.20
  -6  -1   2   74.39   12.00
   6  -1  -2   61.29    8.00
  -6   1   3  208.08   14.20
  -6   1   3  189.18   17.10
   6   1  -3  181.88   17.10
   6   1  -3  178.18   14.70
  -6  -1  -3  190.18   15.80
  -6   1   3  189.48   15.80
   6   1  -3  198.68   16.00
  -6  -1  -3  212.18   17.40
   6  -1   3  195.28   13.10
  -6   1   3  189.48   14.40
  -6  -1  -3  193.18   13.40
   6  -1   3  174.88   20.60
   6  -1   3  216.98   13.90
  -6  -1  -3  180.38   14.80
  -6  -1   3  229.68   28.90
   6  -1  -3  169.38   14.60
  -6  -1   3  175.78   15.40
  -6  -1   3  189.08   14.00
  -6   1  -3  192.08   13.60
  -6  -1   3  193.48   14.80
   6   1   3  190.58   15.00
  -6   1  -3  196.88   18.20
   6  -1  -3  186.58   15.80
   6   1   3  185.78   13.00
   6   1   3  188.28   12.80
  -6   1  -3  193.88   15.10
  -6  -1   3  182.08   17.30
  -6   1  -3  198.58   16.50
   6  -1  -3  183.88   16.50
   6  -1   4   26.80    3.80
  -6  -1  -4   11.90    9.20
   6   1  -4   27.30    4.80
  -6  -1  -4   19.90    3.40
  -6   1   4   12.20    9.00
   6  -1   4   29.10    5.90
   6  -1   4   25.80    4.10
  -6  -1  -4   22.60    4.70
   6   1  -4   16.90    4.70
  -6  -1  -4   18.20    6.70
  -6   1   4   23.10    4.80
  -6   1   4   16.60    4.10
  -6   1   4   22.60    5.40
   6   1  -4   22.00    9.90
   6   1   4   13.60    3.80
   6  -1  -4   24.10    4.70
  -6   1  -4   10.30    6.80
  -6  -1   4   32.70    4.70
   6  -1  -4   22.10    4.80
  -6  -1   4   16.40    4.40
  -6  -1   4   16.90    4.80
  -6   1  -4   30.60   11.80
  -6   1  -4   24.80    5.10
   6  -1  -4   20.50    9.10
  -6   1  -4   25.70    3.60
  -6   1   5    5.90    9.20
  -6   1   5    5.80    4.80
  -6  -1  -5    4.70   11.80
   6   1  -5    4.10    5.80
  -6   1   5   -0.30    5.20
   6   1  -5    3.40    5.70
  -6  -1  -5    3.00    3.70
   6   1  -5    8.70   13.80
  -6   1   5   -2.70    4.70
  -6  -1  -5  -10.10   16.20
  -6  -1  -5    0.50    4.70
   6  -1   5   -2.40    3.70
  -6   1   5    5.50    6.20
   6  -1  -5    1.70    9.50
   6  -1  -5    5.30    5.60
   6   1   5    1.30    5.80
  -6  -1   5   -1.10    5.20
  -6   1  -5    4.10    5.10
  -6  -1   5    0.90    4.80
   6  -1  -5   15.30    5.80
  -6   1   6   28.90    8.10
  -6  -1  -6   31.20    6.50
   6   1  -6   18.70    7.50
  -6   1   6   15.40    6.10
  -6   1   6   31.10    7.20
  -6   1   6    5.10    7.80
   6  -1  -6   23.40    6.90
  -6  -1   6   10.50    6.40
  -6   1  -6   19.10    6.50
  -6  -1   6   16.00    6.80
   6  -1  -6   29.60    6.90
  -6  -1   6    1.80    8.10
   6   1  -7   20.80    8.40
  -6  -1  -7    8.40    7.90
  -6   1   7   15.30    9.40
   6   1  -7   35.70    9.30
  -6   1  -7   18.10    8.40
   6  -1  -7   25.10    8.40
  -6   1  -7   24.10    6.50
   6  -1  -7   20.40    9.20
  -6  -1   7    5.20    9.00
   7  -1   0   21.90    4.60
  -7   1   0   27.60    4.90
   7   1   0   23.80    5.10
  -7  -1   0   29.50    9.70
  -7  -1   0   20.40    4.30
   7   1   0   18.00    4.90
  -7   1   0   27.60   10.20
   7   1   0   27.80   10.80
   7  -1   0   31.30    5.20
   7  -1   0    3.80   13.00
  -7  -1   0   24.00    4.20
  -7   1   0   24.70    4.50
   7  -1   1   19.50    9.70
  -7  -1  -1   16.70    8.60
   7  -1   1   19.90    4.90
  -7  -1  -1   12.40    4.40
  -7   1   1   16.60    4.20
   7  -1   1   21.30    4.60
   7   1  -1   13.50    4.60
  -7   1   1   33.10   12.30
   7   1  -1   11.00    4.40
  -7  -1   1   12.20    7.30
   7   1   1   10.10    4.00
   7  -1  -1   13.70    4.50
  -7   1  -1   21.70    4.40
  -7  -1   1   20.10   10.80
  -7   1  -1   13.20    8.90
   7  -1  -1   15.20    4.50
   7   1   1   20.40    9.50
   7   1   1   17.70    4.50
   7   1  -2  177.08   14.60
  -7  -1  -2  199.98   16.70
   7   1  -2  178.58   13.10
  -7  -1  -2  175.68   13.20
   7  -1   2  192.68   13.10
  -7   1   2  174.48   13.10
  -7  -1  -2  178.18   14.60
  -7   1   2  165.98   11.80
  -7   1   2  173.58   15.10
   7  -1   2  181.08   14.00
   7   1   2  180.78   12.60
  -7  -1   2  203.58   16.40
   7  -1  -2  160.18   14.50
  -7  -1   2  178.88   12.10
  -7   1  -2  180.58   15.10
  -7   1  -2  201.98   17.20
   7   1   2  176.78   13.60
  -7  -1   2  174.08   14.50
  -7   1  -2  177.58   13.00
   7  -1  -2  161.38   13.00
  -7   1   3    3.90    5.60
   7  -1   3   10.70    4.00
  -7  -1  -3   15.00    4.20
  -7  -1  -3    3.70    7.40
   7  -1   3    5.60    7.00
  -7   1   3    7.00    5.10
   7  -1   3    3.00    4.20
  -7   1   3   10.90    3.70
   7   1  -3    8.10    4.90
  -7  -1  -3   17.40    4.50
   7   1  -3    2.70    4.00
   7   1   3   18.00    4.50
  -7  -1   3    9.10    5.10
   7   1   3   12.50    4.40
   7   1   3   10.40    7.30
  -7   1  -3   14.00    3.50
   7  -1  -3    7.00    5.00
  -7   1  -3   17.50    8.80
   7  -1  -3   -1.70    4.90
  -7  -1   3    5.10    3.70
   7  -1   4   11.30    4.20
  -7  -1  -4    9.60    3.50
  -7   1   4    3.50    5.60
  -7  -1  -4    0.70    9.80
   7  -1   4   19.00    4.90
   7   1  -4   14.80    5.60
  -7   1   4    9.20    4.80
  -7   1   4    1.00    6.10
   7   1  -4   16.40    5.60
   7  -1  -4   18.00    5.60
  -7  -1   4   15.90    5.70
  -7   1  -4   14.40    5.70
   7   1   4   11.00    4.40
   7  -1  -4   18.40    5.80
  -7  -1   4   14.30    4.50
  -7   1  -4   19.20   10.30
  -7  -1   4   10.20    5.50
  -7   1   5   24.60    7.10
   7   1  -5   36.00    7.20
  -7  -1  -5   37.40    5.10
  -7  -1  -5   31.70    6.20
  -7   1   5   37.90    8.60
   7   1  -5   44.60    7.20
   7  -1  -5   35.70    8.40
  -7  -1   5   23.30    6.90
   7  -1  -5   45.60    7.30
  -7   1  -5   25.50    6.30
  -7   1  -5   25.40    5.00
  -7   1   6   15.80    8.00
  -7   1   6    6.40   10.80
  -7  -1  -6   40.20    8.70
   7   1  -6   39.00    8.70
   7   1  -6   26.90    8.90
  -7   1   6   22.70    8.30
   7  -1  -6   43.30   10.50
  -7  -1   6    8.00    8.90
  -7  -1   6    2.70    8.60
   7  -1  -6   36.50   10.50
  -7   1  -6   19.50    8.40
  -8  -1   0   22.60    5.00
  -8   1   0   34.20    5.30
   8   1   0   40.70    6.30
  -8  -1   0   20.00   16.10
  -8   1   0   36.30    6.30
  -8  -1   0   30.20    5.60
   8   1   0   34.80    5.80
   8  -1   0   27.40    6.00
   8  -1   0   32.50    6.00
  -8   1   1    0.30    5.30
   8   1  -1   -1.10    7.00
  -8  -1  -1   -2.30    4.20
  -8  -1  -1    0.20    5.10
   8  -1   1   -5.80    5.40
  -8   1   1    1.50    4.70
  -8  -1  -1  -11.30    9.80
  -8  -1   1   -6.20    5.50
   8   1   1   17.40    8.90
  -8  -1   1    0.50    4.80
  -8   1  -1    7.90    4.20
  -8   1  -1   -0.80   12.80
   8   1   1   11.00    5.40
  -8   1  -1    2.50    5.40
  -8  -1  -2   34.20    5.90
  -8   1   2   42.60    6.10
  -8  -1  -2   29.20   11.80
   8  -1   2   40.30    6.50
  -8  -1  -2   44.00    5.10
  -8   1   2   36.20    6.10
   8  -1   2   32.30    6.40
   8   1  -2   38.80    7.10
   8   1  -2   46.60    6.90
   8   1   2   51.09    7.30
   8  -1  -2   36.50    6.80
  -8   1  -2   38.60    5.20
  -8   1  -2   46.10   12.50
   8   1   2   42.70    6.30
  -8  -1   2   38.70    4.60
   8  -1  -2   24.70    6.50
  -8  -1   2   33.80    6.10
   8   1   2   22.30   14.10
  -8   1  -2   33.70    6.00
  -8  -1   2   32.60    6.90
  -8   1   3    6.90    7.00
   8  -1   3   10.80    5.70
   8   1  -3    4.50    5.20
   8   1  -3   -0.90    6.60
  -8   1   3   -2.80    6.20
   8  -1   3    4.50    5.70
  -8  -1  -3    1.60    6.00
  -8  -1   3    0.90    6.00
  -8   1  -3   10.80    6.10
   8  -1  -3    6.50    6.50
   8   1   3    5.50    6.30
   8  -1  -3   11.30    6.60
  -8   1  -3   -2.60    4.40
  -8  -1   3    5.60    4.70
  -8  -1   3    0.40    6.50
   8   1   3    0.30    5.30
   8   1  -4   28.80    8.00
   8   1  -4   32.30    7.80
  -8   1   4   28.00    7.40
  -8   1   4   33.30    6.90
  -8  -1  -4   27.80    5.80
  -8  -1  -4   33.40    8.20
  -8   1  -4   28.50    8.40
  -8  -1   4   19.70    6.40
  -8  -1   4   17.10    7.40
   8  -1  -4   37.40    8.30
   8  -1  -4   25.20    7.80
  -8   1   5   19.70    8.70
  -8   1   5   34.80    9.00
   8   1  -5   37.90   10.00
  -8  -1  -5   29.40    8.90
  -8   1   5   20.40    8.80
  -8   1   5   27.30   10.20
  -8  -1  -5   23.30    6.20
  -8  -1   5   10.80    9.10
  -8  -1   5   39.90    8.90
   8  -1  -5   34.10    9.40
  -8   1  -5   39.10    9.80
  -8  -1   5   26.40    9.70
  -8   1  -5   17.70    5.80
  -9   1   0    8.90    6.80
  -9   1   0    8.00    6.10
   9  -1   0   23.60    8.40
  -9  -1   0    3.50    6.00
   9   1   0    6.30    8.30
   9   1   0   15.80    7.70
  -9  -1   0   -0.70    7.00
   9  -1   0   14.70    8.10
  -9  -1  -1   15.50    5.80
   9   1  -1   31.40    8.70
  -9  -1  -1   30.70    7.50
  -9   1   1   21.70    6.50
   9  -1   1   33.60    8.90
   9   1  -1   31.50    8.20
  -9   1   1   28.50    7.50
   9  -1   1   21.20    7.70
  -9  -1   1   20.60    7.30
  -9   1  -1   19.50    5.90
   9   1   1   31.20    8.60
  -9   1  -1   17.50    7.40
   9   1   1   24.40   13.40
   9  -1  -1   24.70    7.80
  -9  -1  -2   -2.40    6.60
   9   1  -2   23.80    8.20
  -9   1   2    5.00    7.90
   9   1  -2    7.80    8.10
  -9   1   2   -8.20    7.20
   9  -1   2   18.50    7.90
   9  -1   2    0.20    7.50
  -9  -1  -2    5.30    7.80
  -9   1  -2    5.20    5.90
   9  -1  -2    9.60    8.10
  -9  -1   2   -7.40    7.00
   9   1   2    9.50    7.40
   9   1   2   13.80    8.50
  -9   1  -2   13.80    7.60
  -9  -1   2    7.40    7.80
   9   1  -3   22.20    8.90
  -9  -1  -3   11.00    9.00
   9   1  -3   14.20    9.00
   9  -1   3   16.80    8.40
  -9   1   3    3.60    9.40
  -9   1  -3   17.70    8.50
  -9  -1   3   18.90    8.40
   9  -1  -3   18.50    9.00
   9  -1  -3   17.40    8.90
  -9   1   4   11.90    9.90
  -9  -1  -4    5.60    9.70
   9   1  -4   17.40   10.10
  -9  -1  -4    7.50    6.90
   9  -1  -4   26.40   10.60
  -9   1  -4   12.90   10.50
  -9   1  -4    1.20    7.30
  -9  -1   4  -13.50    9.70
  -9  -1   4    3.40   10.00
  10  -1   0    5.80   11.00
 -10  -1   0    8.50   12.60
  10  -1   0   -0.20   10.50
  10   1   0    8.10   11.00
  10   1   0    0.90   11.20
 -10   1   0    4.70   13.70
  10  -1   1    7.70   11.20
  10   1  -1    4.80   12.30
  10   1  -1   -6.30   10.80
  10  -1  -1   14.40   11.00
  10  -1  -1   -4.20   10.90
  10   1   1    8.90   10.80
  10   1   1   10.00   11.20
   0  -2   1 4636.54  213.38
   0  -2   1 3644.14  212.18
   0   2  -2  287.67   15.60
   0  -2   2  297.87   16.90
   0   2  -2  240.78   15.30
   0   2  -2  257.57   16.50
   0   2   2  245.08   16.10
   0  -2   2  246.48   14.60
   0  -2   2  261.87   15.50
   0  -2  -2  279.97   16.60
   0  -2   2  276.57   15.60
   0  -2  -2  268.37   14.50
   0  -2   2  276.07   15.40
   0   2   2  274.47   14.40
   0  -2  -2  283.37   14.40
   0   2   2  295.17   14.40
   0  -2  -2  274.37   16.30
   0   2  -2  229.68   17.40
   0  -2  -3  797.62   43.40
   0   2   3  802.62   43.50
   0   2  -3  806.72   45.90
   0  -2   3  854.41   44.40
   0   2  -3  877.51   44.60
   0  -2  -3  815.62   43.40
   0   2  -3  802.52   44.90
   0  -2   3  743.53   45.70
   0   2  -3  818.92   44.50
   0  -2   3  962.40   45.10
   0   2   3  911.31   43.40
   0  -2   3  836.02   44.40
   0  -2  -3  861.11   45.90
   0  -2  -3  784.32   45.80
   0  -2   3  902.51   44.60
   0  -2  -3  695.93   43.20
   0   2   3  822.92   45.90
   0   2   4 2160.78  109.99
   0  -2   4 2305.87  111.39
   0  -2   4 2080.69  111.09
   0  -2  -4 2203.88  112.99
   0  -2  -4 2225.58  113.39
   0  -2  -4 2120.09  110.19
   0   2   4 2209.48  113.59
   0  -2   4 2204.98  110.69
   0   2  -4 2050.89  111.29
   0   2  -4 1973.50  111.79
   0   2  -4 2243.78  111.39
   0  -2  -4 2239.48  110.69
   0  -2  -4 1989.50  110.39
   0  -2   4 2025.40  113.49
   0  -2  -4 1867.91  109.89
   0   2   4 2144.89  109.89
   0  -2   5    9.10    2.80
   0  -2   5    9.40    5.30
   0   2  -5   12.10    5.10
   0   2   5    7.90    3.30
   0  -2  -5    6.30    3.30
   0   2   5    8.90    4.10
   0  -2  -5    6.90    6.70
   0   2  -5    2.20    7.60
   0  -2  -5   10.10    5.30
   0   2  -5   10.20    2.70
   0  -2  -5    5.30    1.90
   0   2   5    2.30    2.80
   0  -2   5    8.30    4.30
   0  -2  -5    3.70    6.30
   0   2  -5    6.00    2.60
   0  -2  -5    7.00    2.10
   0  -2  -6   44.60    5.50
   0   2  -6   44.20    7.10
   0  -2   6   41.50    6.20
   0   2  -6   42.30    5.10
   0  -2  -6   50.49   10.90
   0  -2   6   46.80    6.50
   0   2   6   49.20    5.50
   0   2  -6   33.70   10.10
   0  -2  -6   36.80    4.10
   0   2  -6   47.80    5.40
   0   2   6   47.70    6.80
   0  -2   6   43.60    7.60
   0  -2  -6   31.80    8.40
   0   2   6   47.50    4.90
   0  -2  -6   49.99    4.60
   0   2   7   85.39    7.40
   0   2  -7   97.39    7.60
   0   2  -7   67.99   13.70
   0   2  -7  106.79    8.50
   0   2   7  102.09    8.80
   0   2   7   77.29    6.80
   0  -2   7   85.69   10.70
   0  -2  -7   91.09    6.60
   0  -2  -7   89.49    7.00
   0   2  -7   93.39    9.60
   0  -2   7   97.89    8.80
   0   2  -8   12.60    6.20
   0  -2  -8   17.60    5.50
   0  -2   8   19.60    6.50
   0  -2  -8   19.30    3.90
   0   2   8    9.90    6.20
   0   2  -8   11.40    5.10
   0   2  -9   21.10    7.30
   0  -2   9    3.70    9.30
   0   2   9   10.40    8.90
   0   2  -9    4.00    9.20
  -1  -2   0 3412.06  185.58
  -1  -2   0 3743.43  186.28
   1  -2   0 3077.59  185.68
  -1   2   0 4047.99  185.88
   1  -2   0 3802.62  186.38
   1  -2   2 2314.57  110.49
  -1  -2  -2 2061.29  107.19
   1   2  -2 2139.49  108.99
   1  -2   2 1850.81  108.29
   1   2  -2 2158.38  108.89
   1   2  -2 1822.52  109.09
  -1   2   2 1880.61  109.99
  -1   2   2 2160.48  109.69
   1  -2   2 1918.51  108.19
  -1  -2  -2 1954.70  108.79
  -1   2   2 2052.19  107.89
   1  -2   2 2171.68  109.09
  -1   2   2 2000.90  108.19
   1  -2   2 2231.18  108.79
  -1   2   2 2329.27  108.59
   1   2  -2 2278.07  110.19
  -1   2   2 2071.69  107.89
   1  -2  -2 1933.41  108.29
  -1  -2   2 2111.39  110.39
   1  -2  -2 2050.89  108.49
  -1  -2   2 2191.58  108.99
   1  -2  -2 2257.47  109.79
   1  -2  -2 2006.30  108.39
  -1  -2   2 2120.39  108.79
  -1  -2   2 2231.28  109.69
   1   2   2 1926.01  108.99
   1  -2  -2 2165.38  108.29
  -1   2  -2 2287.77  108.69
  -1  -2   2 2039.90  108.99
  -1   2  -2 2100.99  108.99
   1  -2   3  876.81   48.80
  -1  -2  -3  889.51   46.10
   1  -2   3  858.01   47.40
  -1   2   3  910.41   47.30
  -1  -2  -3  873.81   46.10
  -1   2   3  772.72   49.20
  -1   2   3  987.30   47.60
  -1  -2  -3  805.92   46.10
   1   2  -3  971.10   48.30
   1   2  -3  866.21   48.50
   1   2  -3  949.60   49.80
   1  -2   3  923.21   47.50
  -1  -2  -3  928.01   48.80
  -1   2   3  752.32   46.00
   1   2  -3  851.61   48.00
   1  -2   3  904.51   47.30
   1  -2  -3  913.51   49.50
   1  -2  -3  904.61   47.30
   1   2   3  931.41   49.00
  -1  -2   3  912.81   48.10
   1   2   3  889.01   45.90
  -1  -2   3  917.11   48.30
   1   2   3  905.81   45.90
  -1   2  -3  857.81   46.80
   1  -2  -3  880.61   47.50
   1  -2  -3  851.31   48.30
  -1  -2   3  962.20   48.30
  -1   2  -3  921.51   47.70
  -1  -2   3  837.82   49.50
  -1  -2   3  871.31   48.60
  -1   2  -3  918.81   47.60
  -1   2  -3  931.71   48.20
  -1  -2  -4   42.00    7.30
  -1  -2  -4   54.69    3.80
   1  -2   4   50.29    5.80
   1  -2   4   60.49    5.00
  -1  -2  -4   49.00    4.70
   1   2  -4   57.49    6.70
   1   2  -4   53.39    9.60
   1   2  -4   49.90    5.40
   1  -2   4   52.69    6.40
   1  -2   4   56.39    5.80
  -1   2   4   52.89    7.00
  -1  -2  -4   52.69    4.30
   1   2  -4   47.70    5.60
  -1  -2  -4   40.30    7.40
  -1   2   4   55.19    5.70
  -1   2   4   47.50    5.90
  -1   2  -4   50.29    5.00
   1  -2  -4   46.60    5.10
  -1  -2   4   52.39    7.20
   1   2   4   43.40    6.40
  -1  -2   4   51.89    6.30
   1  -2  -4   43.80    7.10
  -1   2  -4   53.29    5.40
   1  -2  -4   50.89    5.00
  -1  -2   4   47.10    5.80
  -1   2  -4   51.49    6.20
   1  -2  -4   49.20    8.10
   1   2   4   54.79    3.80
  -1  -2   4   50.49    5.50
   1  -2  -4   49.90    5.70
   1   2   4   55.79    4.00
  -1  -2   4   50.59    5.90
  -1   2  -4   56.39    5.20
  -1   2  -4   47.20    8.40
  -1   2   5   84.29   10.00
  -1  -2  -5   85.69    6.60
  -1  -2  -5   87.89    6.40
   1   2  -5   89.19    8.10
   1  -2   5   93.59    9.10
  -1  -2  -5   94.29    9.90
   1  -2   5   75.49    7.90
   1   2  -5   92.89    9.40
  -1  -2  -5   78.29   10.20
   1  -2   5   90.39    7.70
   1   2  -5   96.19    8.30
  -1   2   5   94.59    8.10
  -1   2   5   84.69    8.10
  -1  -2  -5   91.49    5.90
  -1  -2   5   91.49    7.70
   1  -2  -5   88.59    7.10
   1   2   5   83.49    8.90
   1   2   5   93.49    5.80
  -1  -2   5   92.59    8.90
   1   2   5   95.99    6.00
  -1  -2   5   87.39    7.50
  -1   2  -5   91.59   11.70
   1  -2  -5   85.59    7.90
   1  -2  -5   85.29    7.20
  -1   2  -5   80.09    7.00
  -1  -2   5   79.39   10.10
  -1   2  -5   88.39    8.30
   1  -2  -5  103.19    9.90
  -1   2  -5   93.19    7.70
   1  -2  -5   73.79   10.30
  -1  -2  -6   75.59    6.80
  -1  -2  -6   81.89    5.50
   1  -2   6   78.99    8.30
  -1  -2  -6   80.99   10.10
   1   2  -6   75.09    8.00
  -1   2   6   86.59    7.70
  -1  -2  -6   86.89    6.40
   1  -2   6   74.59    8.30
   1  -2   6   86.79    7.90
   1   2  -6   78.29    7.40
  -1   2   6   81.79    8.50
  -1   2   6   76.39    8.80
  -1  -2  -6   86.49   12.10
   1   2  -6   81.69    9.30
  -1  -2   6   80.99    7.00
  -1   2  -6   83.79    7.00
  -1  -2   6   83.89    6.80
  -1  -2   6   70.79    9.00
  -1   2  -6   87.09    7.60
  -1  -2   6   81.59    9.00
   1  -2  -6   80.19   12.70
   1  -2  -6   77.09    7.20
   1   2   6   83.59    5.60
  -1   2  -6   78.29   12.00
   1   2   6   87.79    8.60
  -1  -2   6   73.19    6.70
  -1   2  -6   90.19    8.40
   1  -2  -6   80.39    7.10
   1  -2  -6   88.69   10.80
   1  -2  -6   78.39    7.90
   1   2   6   88.49    5.70
  -1  -2  -7   32.00    2.90
  -1   2   7   42.70    5.70
   1   2  -7   41.40    7.60
   1  -2   7   27.50    6.70
   1  -2   7   30.10    8.10
  -1  -2  -7   33.10    3.00
  -1  -2  -7   38.10    4.40
   1  -2   7   39.90    6.10
  -1  -2  -7   29.80    8.70
  -1   2  -7   37.50    5.00
   1  -2  -7   39.50    4.80
   1  -2  -7   20.80    9.70
   1  -2  -7   33.00    5.70
   1  -2  -7   43.50    4.60
   1   2   7   49.30    6.00
  -1   2  -7   27.90    6.50
  -1   2  -7   35.40   11.80
  -1  -2   7   44.00    5.50
  -1   2  -7   34.50    4.80
  -1   2   8    0.80    7.00
   1   2  -8    6.80    5.50
  -1   2   8    4.00    6.00
  -1  -2  -8    6.30    5.20
   1  -2   8    0.80    6.40
   1   2   8    8.50    5.90
  -1   2  -8    8.10    5.00
  -1   2  -8    5.20    5.90
   1  -2  -8    9.60    5.20
  -1  -2   8   13.10    8.20
   1  -2  -8   14.90    5.80
  -1  -2   8    9.10    6.60
   1   2  -9    4.60    9.70
   1  -2   9    2.00    9.30
   1   2  -9   10.80    7.90
  -1   2   9   -3.40    9.10
   1  -2  -9    7.90    5.80
  -1   2  -9   21.50    9.00
  -1  -2   9   11.70    9.60
  -1   2  -9    9.20    6.80
   1   2   9   -2.40    9.40
   2  -2   0    5.90    3.50
  -2   2   0    4.50    2.30
  -2  -2   0    3.00    3.10
   2  -2   0    8.10    2.60
   2   2   0    4.10    2.80
  -2   2   0    3.40    3.20
  -2  -2   0    6.60    3.90
   2   2   0    5.20    3.40
   2  -2   0    7.90    3.30
  -2   2   0    6.30    3.40
   2  -2   0    5.70    3.00
  -2  -2   0    7.20    3.30
   2  -2   0    4.80    1.80
  -2  -2   0    8.20    2.70
  -2   2   0    3.30    3.40
   2   2   0    5.70    3.00
   2   2   0   11.40    4.00
  -2   2   1 5029.70  241.28
  -2  -2  -1 4900.81  240.68
   2  -2   1 4667.83  240.68
  -2  -2  -1 4607.64  240.88
   2   2  -1 4374.76  241.38
  -2   2   1 5170.28  241.18
   2   2  -1 5021.90  242.08
   2  -2   1 4721.63  240.48
   2   2  -1 4504.65  240.68
  -2   2   1 4372.96  240.88
  -2   2   1 4498.45  241.48
   2   2  -1 4119.59  240.78
  -2  -2  -1 4471.65  240.18
   2  -2   1 4861.51  241.18
   2  -2   1 5217.48  241.78
  -2  -2   1 4649.63  240.98
  -2  -2   1 4315.07  241.88
  -2  -2   1 4490.25  241.38
   2  -2  -1 4744.13  241.48
  -2  -2   1 4738.23  240.88
   2  -2  -1 4429.46  240.88
   2  -2  -1 4775.92  240.68
  -2   2  -1 5149.98  241.88
   2   2   1 4713.03  240.18
   2  -2  -1 4446.65  240.58
  -2   2  -1 4544.85  240.48
   2  -2  -1 4850.92  241.28
  -2   2  -1 4840.92  240.88
   2   2   1 4697.53  240.08
  -2   2  -1 4395.96  241.08
   2  -2   2   61.69    5.70
  -2   2   2   55.29    5.50
  -2   2   2   59.19    7.00
   2   2  -2   52.19    6.50
   2  -2   2   63.79    5.40
  -2  -2  -2   53.99    5.40
  -2   2   2   53.19    5.90
  -2  -2  -2   54.99    4.10
  -2  -2  -2   54.79    4.80
   2  -2   2   46.40    5.90
   2   2  -2   54.39    6.20
   2   2  -2   47.10    5.80
   2  -2   2   65.69    6.00
   2   2  -2   56.99    7.50
  -2  -2  -2   57.49    5.40
  -2   2  -2   72.59    7.50
   2  -2  -2   68.49    6.10
  -2  -2   2   58.59    7.00
  -2  -2   2   48.00    6.30
   2  -2  -2   56.89    5.90
   2  -2  -2   50.99    5.50
  -2  -2   2   50.59    6.00
  -2   2  -2   61.49    5.80
   2  -2  -2   45.70    6.40
  -2  -2   2   58.59    5.80
  -2   2  -2   52.89    4.80
   2   2   2   44.40    6.40
  -2   2  -2   59.09    5.60
  -2   2   3 1392.66   74.59
  -2  -2  -3 1287.37   73.19
  -2  -2  -3 1416.56   73.99
  -2   2   3 1242.98   74.49
  -2  -2  -3 1580.44   74.49
   2  -2   3 1471.25   74.69
  -2   2   3 1458.95   77.39
  -2   2   3 1406.96   77.99
  -2  -2  -3 1376.06   73.49
   2   2  -3 1367.76   76.29
  -2   2   3 1483.65   76.89
   2  -2   3 1421.66   75.19
   2  -2   3 1491.05   74.59
  -2   2   3 1409.36   76.09
   2  -2   3 1319.37   74.39
  -2  -2  -3 1521.35   75.49
   2  -2   3 1550.04   75.19
   2   2  -3 1487.85   75.59
   2   2  -3 1396.86   75.69
   2  -2  -3 1343.87   76.29
  -2   2  -3 1471.15   74.99
  -2  -2   3 1549.84   76.09
   2  -2  -3 1376.96   74.89
   2  -2  -3 1369.36   75.59
  -2  -2   3 1498.55   75.79
   2   2   3 1250.97   73.09
   2   2   3 1441.26   75.29
  -2   2  -3 1323.77   74.39
  -2  -2   3 1445.26   75.49
  -2   2  -3 1355.46   75.29
  -2  -2   3 1410.86   77.09
   2   2   3 1490.55   73.29
   2  -2  -3 1391.86   75.19
  -2   2   4   86.49    7.00
   2   2  -4   93.39    8.20
  -2  -2  -4   93.99    8.50
  -2  -2  -4   99.69    6.00
  -2   2   4   91.89   11.50
  -2  -2  -4   91.99    8.30
  -2  -2  -4   95.39    9.90
  -2   2   4  104.39    9.80
   2   2  -4   93.09    8.60
  -2   2   4   82.69    9.50
  -2  -2  -4   94.69    6.50
  -2   2   4   99.69    9.00
   2  -2   4   94.69    8.30
   2  -2   4  105.99    7.90
   2   2  -4   95.09   10.90
   2   2  -4  105.89   10.20
  -2   2   4   84.59    6.70
   2  -2   4   88.09    7.70
  -2  -2   4   94.09    8.10
   2  -2  -4   91.19    8.90
  -2  -2   4   78.59    9.50
   2  -2  -4   88.29   10.30
   2   2   4  103.89    6.00
  -2  -2   4  103.29    9.10
   2  -2  -4  103.39    8.40
  -2  -2   4   99.69    9.30
   2   2   4  107.69    8.60
   2   2   4   98.29    6.00
   2  -2  -4   86.29    7.90
  -2   2  -4   97.39    8.00
  -2   2  -4   99.19    8.70
  -2   2  -4  100.09   10.80
  -2   2  -4   96.59    7.30
  -2  -2   4   98.59    8.90
  -2   2   5    0.10    3.00
   2  -2   5    0.30    3.90
   2   2  -5   -3.00    5.10
   2  -2   5   -3.40    2.40
  -2  -2  -5   -2.00    1.70
  -2   2   5  -11.00    7.80
   2  -2   5   -2.60    3.70
  -2  -2  -5   -3.50    5.70
  -2   2   5   -5.50    4.60
  -2  -2  -5   -3.10    2.20
  -2  -2  -5   -1.80    1.20
  -2  -2  -5    5.00    6.30
  -2  -2  -5   -4.40    4.40
   2   2  -5    7.00    8.90
   2   2   5    0.50    1.70
  -2  -2   5   -1.50    4.90
  -2   2  -5    1.30    2.40
  -2   2  -5   -1.10    4.10
  -2   2  -5    0.50    7.20
  -2   2  -5    0.40    3.30
  -2  -2   5   -1.30    4.00
  -2  -2   5    4.60    2.40
   2  -2  -5    1.70    4.20
   2  -2  -5   -3.20    6.20
  -2  -2   5    1.00    2.70
   2   2   5   -0.30    1.40
   2  -2  -5   -6.30    5.10
  -2  -2  -6  164.68   14.40
  -2  -2  -6  157.88   15.60
  -2  -2  -6  162.78    9.10
  -2   2   6  155.18   14.00
  -2  -2  -6  156.78   10.50
  -2   2   6  164.78   14.00
   2  -2   6  174.68   11.70
   2   2  -6  166.68   13.40
   2   2  -6  174.28   12.30
  -2  -2  -6  140.29    8.80
   2   2  -6  148.19   13.00
   2  -2   6  151.08   11.90
  -2   2   6  171.48   12.80
   2  -2   6  145.69   12.30
  -2  -2   6  150.28   14.30
  -2   2  -6  150.58   12.30
  -2  -2   6  147.59   10.20
   2  -2  -6  159.88   13.00
  -2   2  -6  171.58   11.90
  -2  -2   6  161.78   14.70
  -2  -2   6  163.28   11.50
   2  -2  -6  193.28   15.70
  -2   2  -6  166.28   11.10
  -2   2  -6  156.88   16.20
   2  -2  -6  151.48   11.50
   2   2   6  163.68   13.00
  -2  -2   6  172.48   11.20
   2  -2  -6  171.18   12.30
   2  -2   7    0.70    4.80
  -2  -2  -7    5.10    7.30
   2  -2   7   -0.80    5.10
  -2   2   7   -1.00    4.80
   2   2  -7    1.50    4.30
  -2  -2  -7   -3.40    7.20
  -2  -2  -7    0.20    3.40
   2   2  -7    2.30    6.50
  -2   2   7   -5.00    6.60
   2   2  -7   -0.20    4.80
  -2   2   7    2.70    4.90
  -2  -2   7    5.10    4.60
  -2   2  -7    3.80    4.90
   2  -2  -7    1.00    4.50
  -2   2  -7   -5.10    3.70
  -2   2  -7    1.90    4.20
   2  -2  -7   -4.90   10.30
  -2  -2   7   -5.20    4.50
   2  -2  -7    0.20    4.10
  -2   2  -7    5.10    9.50
   2  -2  -7    9.60    5.00
  -2  -2   7    5.40    4.00
   2   2   7    0.80    5.80
  -2   2   8   15.80    6.30
   2  -2   8    6.40    6.10
  -2  -2  -8   13.10    5.30
   2   2  -8   25.50    6.90
  -2   2  -8   12.70    6.20
  -2  -2   8   21.90    7.00
   2  -2  -8   14.10    5.10
  -2   2  -8   11.60    4.80
   2   2   8   16.70    6.10
   2  -2  -8   14.60    6.60
   2   2  -9   11.50   10.00
   2   2  -9   -0.40    8.80
   2  -2   9    1.10    8.90
   2   2   9    0.70    8.80
   2  -2  -9    3.20    6.70
  -3  -2   0 1496.85   79.59
   3   2   0 1586.94   78.89
   3   2   0 1481.35   79.39
  -3   2   0 1500.55   78.89
   3  -2   0 1559.24   78.89
  -3  -2   0 1530.35   79.09
   3   2   0 1484.35   78.99
  -3   2   0 1629.54   79.49
  -3  -2   0 1439.06   78.59
   3  -2   0 1441.36   77.39
  -3   2   0 1398.16   79.49
  -3   2   0 1380.66   79.59
   3  -2   0 1447.16   79.29
   3  -2   0 1427.26   79.49
   3  -2   0 1616.04   80.29
  -3   2   1 2658.93  141.79
  -3  -2  -1 2866.81  141.59
  -3   2   1 3027.30  141.89
  -3  -2  -1 2424.46  139.09
  -3  -2  -1 2659.53  140.49
  -3   2   1 2467.55  141.79
   3  -2   1 2711.53  142.29
   3   2  -1 3039.30  143.09
   3   2  -1 2423.06  141.89
   3  -2   1 2704.63  141.29
  -3   2   1 2823.12  141.29
   3  -2   1 2832.12  140.89
   3   2  -1 2782.92  141.59
  -3   2   1 2573.24  140.59
   3   2  -1 2833.32  141.29
   3  -2   1 2761.72  141.69
  -3  -2  -1 2711.13  140.79
   3  -2  -1 2834.02  141.29
  -3   2  -1 2887.81  141.49
   3   2   1 2873.41  140.69
   3  -2  -1 2718.03  141.59
   3  -2  -1 2373.76  141.79
  -3   2  -1 2549.65  140.69
  -3   2  -1 2982.30  142.39
  -3  -2   1 2621.14  141.19
   3   2   1 2655.13  140.99
  -3  -2   1 2676.63  142.09
  -3  -2   1 2468.85  140.59
  -3  -2   1 2823.72  141.59
   3   2   1 3092.89  141.79
   3   2   1 2609.84  140.79
  -3   2  -1 2347.47  141.49
   3  -2  -1 2679.53  140.59
   3   2  -2  970.00   51.79
   3   2  -2 1045.40   53.69
   3  -2   2  945.81   51.09
  -3   2   2  920.11   51.99
  -3   2   2 1015.80   52.29
  -3  -2  -2 1015.80   51.59
  -3   2   2  889.01   51.69
   3  -2   2  896.11   49.80
  -3   2   2  880.41   51.59
   3   2  -2  866.51   51.69
   3   2  -2  835.72   52.29
   3  -2   2  854.71   52.79
  -3  -2  -2  930.11   50.19
  -3  -2  -2  899.81   49.90
  -3   2   2  958.60   51.49
   3  -2   2 1024.90   51.79
  -3  -2  -2  960.10   50.69
  -3  -2   2  992.30   52.09
   3   2   2  900.91   50.39
   3   2   2  977.30   50.09
  -3   2  -2 1063.59   53.29
  -3   2  -2  920.11   51.89
  -3  -2   2  907.81   52.89
  -3  -2   2  938.41   51.59
  -3   2  -2  923.71   50.79
   3  -2  -2  925.51   51.69
   3  -2  -2  974.50   52.59
  -3  -2   2  995.30   55.39
  -3   2  -2  996.00   51.59
   3   2   2  997.40   50.39
   3  -2  -2  942.11   51.69
   3  -2  -2  992.00   51.69
   3   2  -3   29.80    7.30
  -3   2   3   25.70    4.80
  -3   2   3   19.00    4.80
  -3   2   3   27.40    5.20
  -3   2   3   31.30    4.40
  -3  -2  -3   28.70    5.10
   3   2  -3   26.00    4.80
  -3  -2  -3   29.90    4.80
   3   2  -3   30.70    6.70
  -3  -2  -3   27.10    5.80
   3  -2   3   32.00    4.80
   3  -2   3   25.20    3.60
  -3  -2  -3   33.20    4.10
   3   2  -3   30.70    4.70
   3  -2   3   25.80    5.50
  -3  -2  -3   28.90    3.10
  -3   2   3   23.80    6.10
  -3   2   3   31.40    5.80
   3  -2  -3   23.90    6.20
  -3   2  -3   29.80    4.10
   3  -2  -3   28.20    4.40
  -3   2  -3   26.90    3.90
  -3  -2   3   24.80    4.40
  -3   2  -3   20.20   11.30
  -3  -2   3   23.20    5.10
   3  -2  -3   25.60    6.50
   3  -2  -3   21.80    4.90
   3   2   3   30.20    4.30
  -3  -2   3   32.10    6.60
  -3   2  -3   27.50    6.30
  -3  -2   3   36.80    6.90
   3  -2   4  900.91   50.49
  -3  -2  -4  947.61   50.99
  -3  -2  -4  955.70   50.09
  -3  -2  -4  879.11   49.00
   3   2  -4  931.71   52.79
  -3  -2  -4  895.91   50.89
   3   2  -4  998.50   54.29
  -3   2   4  939.71   50.59
   3  -2   4  824.92   49.70
  -3   2   4  843.52   53.39
   3  -2   4 1064.99   49.70
   3   2  -4  888.11   51.59
  -3   2   4  992.30   51.19
  -3   2   4  961.90   51.49
   3  -2   4  961.00   50.09
  -3   2   4  907.51   52.99
  -3  -2  -4  871.21   48.50
  -3   2   4  903.51   50.49
   3  -2  -4  886.21   51.99
  -3  -2   4  908.81   53.19
   3   2   4  865.01   48.50
  -3   2  -4  949.01   51.49
  -3   2  -4  955.10   50.69
   3  -2  -4  919.81   52.79
  -3   2  -4  868.71   49.70
  -3  -2   4  972.80   51.89
   3  -2  -4  858.51   51.19
  -3  -2   4  976.70   51.49
   3  -2  -4  934.71   51.09
  -3  -2   4  956.60   51.89
   3   2   4  926.11   50.69
   3  -2   5  308.07   20.00
   3  -2   5  353.56   20.50
  -3   2   5  330.57   24.30
  -3  -2  -5  289.47   21.40
  -3  -2  -5  332.27   22.10
  -3  -2  -5  366.46   18.70
  -3   2   5  343.37   20.90
   3  -2   5  313.77   21.00
   3   2  -5  321.67   22.80
   3   2  -5  346.97   22.50
  -3  -2  -5  312.57   18.90
  -3   2   5  312.37   20.00
  -3   2   5  325.07   19.50
  -3   2   5  304.87   23.30
  -3   2   5  351.66   22.30
  -3  -2  -5  362.66   20.30
   3   2  -5  336.87   22.00
  -3   2  -5  373.76   24.60
  -3  -2   5  357.16   22.20
   3  -2  -5  317.67   23.80
  -3  -2   5  351.66   23.20
   3   2   5  325.27   18.30
   3  -2  -5  339.87   22.10
   3   2   5  324.67   21.20
  -3  -2   5  351.36   21.40
  -3  -2   5  332.87   22.50
   3  -2  -5  341.67   21.70
  -3   2  -5  340.67   20.20
  -3  -2   5  364.66   21.80
  -3   2  -5  354.46   21.50
   3  -2  -5  323.87   22.10
  -3  -2   5  330.07   23.80
  -3   2  -5  343.57   21.00
   3   2   5  336.17   20.00
   3  -2  -5  336.07   24.40
  -3  -2  -6  100.19    6.30
   3  -2   6  101.79    8.70
  -3   2   6  125.59    8.30
  -3  -2  -6  109.39    7.90
   3  -2   6  116.59    9.40
  -3  -2  -6  122.19    6.60
   3   2  -6   98.79    9.80
   3   2  -6   70.79   16.70
  -3  -2  -6  102.39   11.70
  -3   2   6  103.89   10.70
   3  -2   6  100.69    9.50
   3   2  -6  117.69   12.10
   3  -2  -6  118.19    8.80
   3  -2  -6  120.59   11.50
  -3  -2   6  117.19    8.10
  -3  -2   6  110.19   10.80
  -3   2  -6  112.49   13.70
  -3  -2   6  108.39    8.20
  -3  -2   6  110.79    9.30
  -3   2  -6  113.99    9.40
  -3   2  -6  110.89    8.40
  -3   2  -6  101.59    9.10
  -3  -2   6  106.99   10.00
   3  -2  -6  116.29    9.30
   3  -2  -6  139.99   13.80
  -3   2  -6   99.49   10.00
   3   2   6  112.49    9.60
   3   2  -7   60.89   17.50
  -3  -2  -7   46.80    9.30
  -3   2   7   39.70    5.90
   3  -2   7   32.00    6.00
  -3  -2  -7   43.20    5.00
   3   2  -7   49.70    7.50
  -3   2   7   57.59    6.40
  -3  -2   7   47.70    6.60
   3  -2  -7   29.30   12.00
  -3   2  -7   28.40    9.00
  -3   2  -7   53.09    5.10
   3  -2  -7   53.89    5.70
  -3  -2   7   35.60    4.10
  -3   2  -7   47.10    5.50
  -3   2  -7   50.49   13.60
   3   2   7   48.00    6.20
  -3  -2   7   57.99    6.70
   3  -2  -7   38.00    6.30
  -3   2   8   -5.60    7.90
  -3   2   8    9.10    7.70
   3   2  -8   13.60    7.10
   3   2  -8   12.90    7.40
   3  -2   8    6.40    6.80
   3   2   8    2.60    6.30
   3  -2  -8    5.80    7.70
   3  -2  -8   14.80    6.40
  -3  -2   8    6.30    7.80
  -3   2  -8    8.90    5.20
  -3   2  -8    4.80    6.60
  -3  -2   8   -7.20    7.30
   4   2   0 3938.11  213.38
   4   2   0 3762.62  213.78
   4   2   0 4148.19  213.18
   4  -2   0 4449.15  213.48
   4  -2   0 4150.68  213.78
  -4  -2   0 4459.35  214.78
  -4  -2   0 3990.00  213.08
  -4   2   0 3868.41  214.38
   4  -2   0 4088.29  211.08
  -4   2   0 3996.80  213.18
  -4  -2   0 4388.16  213.78
   4  -2   0 3762.72  214.88
  -4  -2   0 3839.22  211.18
  -4   2   0 4230.88  214.58
  -4   2   0 4604.04  214.28
  -4  -2  -1    9.60    5.30
  -4   2   1   12.50    3.00
   4   2  -1   12.40    4.00
   4  -2   1   13.10    3.70
  -4   2   1   17.50    4.20
   4  -2   1   16.40    4.80
  -4  -2  -1   18.70    5.50
   4   2  -1   12.80    5.60
  -4   2   1   17.00    4.10
  -4   2   1   18.10    5.90
   4  -2   1   15.60    4.40
  -4   2   1   15.40    6.00
   4   2  -1   14.70    4.30
  -4  -2  -1   16.10    3.60
   4   2  -1   19.10    7.30
  -4   2  -1   15.00    5.90
   4   2   1   14.80    3.40
  -4  -2   1   12.10    3.20
   4   2   1   13.60    3.40
   4  -2  -1   15.30    5.50
  -4  -2   1   19.00    3.80
   4  -2  -1   15.10    3.90
   4   2   1   13.10    4.70
  -4  -2   1    9.20    7.90
  -4   2  -1   14.40    3.80
  -4  -2   1   12.00    5.90
  -4   2  -1   17.00    6.00
   4  -2  -1   16.70    4.00
  -4   2  -1   18.00    4.20
   4  -2  -1   18.00    4.30
   4   2  -2  529.25   33.70
  -4  -2  -2  537.55   30.50
   4   2  -2  542.65   34.60
  -4  -2  -2  577.64   33.50
   4   2  -2  648.44   36.10
  -4  -2  -2  577.64   33.00
  -4   2   2  617.34   34.40
   4  -2   2  572.94   33.10
   4   2  -2  584.54   34.00
  -4  -2  -2  618.54   36.20
  -4  -2  -2  573.44   32.30
  -4   2   2  573.84   34.60
   4  -2   2  602.04   34.00
  -4   2   2  522.75   33.00
  -4   2   2  571.34   33.50
   4  -2   2  502.05   30.20
   4  -2   2  583.14   33.00
  -4   2   2  614.04   34.70
   4  -2  -2  517.35   34.30
   4   2   2  537.45   32.20
   4  -2  -2  535.55   33.80
   4   2   2  575.54   32.90
   4   2   2  679.83   33.70
  -4  -2   2  565.64   33.60
  -4   2  -2  625.24   34.00
   4  -2  -2  589.84   33.40
   4   2   2  615.14   32.70
   4  -2  -2  583.34   33.70
  -4   2  -2  665.83   35.50
  -4  -2   2  604.04   35.10
  -4   2  -2  586.84   32.90
  -4  -2   2  615.94   34.50
  -4   2  -2  556.64   34.00
  -4  -2   2  603.14   33.50
   4   2  -3 1433.16   80.89
  -4  -2  -3 1505.75   81.29
   4   2  -3 1528.35   80.79
  -4   2   3 1368.26   80.59
   4  -2   3 1522.05   79.39
  -4  -2  -3 1442.16   78.39
   4  -2   3 1523.25   79.99
  -4  -2  -3 1489.35   77.99
  -4  -2  -3 1534.45   80.09
   4   2  -3 1701.33   83.59
  -4   2   3 1578.44   81.09
  -4  -2  -3 1410.16   78.89
   4  -2   3 1330.57   78.99
  -4   2   3 1485.35   80.79
  -4   2   3 1488.15   80.29
   4   2  -3 1419.76   81.89
  -4   2   3 1525.75   81.09
   4  -2  -3 1488.05   80.39
   4  -2  -3 1554.34   81.09
  -4   2  -3 1432.06   79.09
  -4   2  -3 1625.34   82.59
   4  -2  -3 1428.56   80.69
  -4  -2   3 1520.85   81.09
  -4  -2   3 1519.95   80.59
  -4   2  -3 1486.65   80.79
   4   2   3 1344.17   78.39
  -4  -2   3 1478.85   81.09
  -4  -2   3 1583.54   81.89
  -4   2  -3 1535.15   80.09
   4   2   3 1587.94   78.69
   4  -2  -3 1326.67   81.19
  -4   2   4  102.29   11.80
   4  -2   4  108.09    7.90
  -4  -2  -4  114.29    9.20
   4   2  -4  100.39    9.70
  -4   2   4  100.79   10.60
  -4   2   4  109.39    9.40
  -4   2   4  105.39   11.60
   4  -2   4   92.99    8.40
   4   2  -4  107.79   11.60
  -4   2   4  123.39    9.30
   4   2  -4  110.09   13.60
   4  -2   4  125.59    8.50
  -4  -2  -4  106.09   10.80
  -4   2   4  108.99   10.90
  -4  -2  -4  120.19    8.90
   4  -2   4  110.79    9.80
   4   2  -4  117.19   10.90
  -4  -2  -4  101.09    7.40
  -4  -2   4  120.49    9.70
   4  -2  -4  103.89   11.30
  -4  -2   4  109.39   11.70
  -4   2  -4  102.49    8.40
   4  -2  -4  100.49   11.50
  -4  -2   4  127.19   12.50
   4   2   4  119.09    8.70
   4  -2  -4  107.99    9.80
  -4   2  -4  119.19   12.90
  -4   2  -4  113.69    9.70
   4  -2  -4  104.99   10.30
  -4   2  -4  103.79   10.60
  -4  -2   4  106.79   10.80
   4  -2   5   80.29    8.10
   4   2  -5   86.29   10.90
   4  -2   5   77.39    6.50
   4   2  -5   69.29    8.90
  -4  -2  -5   83.79   10.40
  -4   2   5   89.39    7.00
   4  -2   5   68.09    8.10
   4   2  -5   78.49    7.80
   4   2  -5   77.39   14.00
  -4  -2  -5   86.49    7.00
  -4   2   5   75.29    8.30
  -4   2   5   98.89   10.00
  -4   2   5   75.79    6.90
  -4   2   5   80.89    8.70
   4  -2  -5   76.59    7.90
  -4  -2   5   83.89   10.40
   4  -2  -5   78.09    8.20
  -4  -2   5   79.39    8.40
  -4  -2   5   81.99    8.80
   4  -2  -5   68.49   13.70
  -4   2  -5   85.69    9.40
   4   2   5   81.19    6.70
  -4   2  -5   81.19    8.20
   4  -2  -5   68.79   11.80
  -4  -2   5   92.29    8.20
  -4   2  -5   84.79   11.50
   4   2   5   74.69    6.30
  -4  -2   5   82.09    7.50
   4  -2  -5   71.59    9.80
  -4  -2  -6   72.49    6.20
  -4   2   6   75.29    6.00
  -4  -2  -6   75.49    5.40
   4   2  -6   76.19    7.60
  -4   2   6   78.79    7.80
   4  -2   6   59.49    8.20
   4  -2   6   68.69    9.10
  -4   2   6   81.59    7.60
   4   2  -6   76.59    9.60
   4  -2   6   77.19    6.30
  -4   2   6   59.39    7.20
  -4  -2  -6   70.09   10.60
  -4   2   6   72.69    5.70
   4   2  -6   64.69   11.60
  -4   2  -6   73.99    8.90
   4   2   6   73.89    6.50
  -4   2  -6   75.59   12.90
  -4  -2   6   60.89    9.00
  -4  -2   6   75.49    7.00
   4  -2  -6   97.39   10.90
  -4  -2   6   80.99    7.60
  -4  -2   6   77.89    7.40
  -4   2  -6   78.59    7.10
   4  -2  -6   79.19    7.30
  -4  -2   6   64.69    7.60
  -4   2  -6   77.99    6.30
   4  -2  -6   70.19    7.60
   4   2  -7    3.70    6.20
   4   2  -7   -1.70    6.10
  -4   2   7   -2.10    7.00
  -4   2   7    2.50    6.40
  -4   2   7   -0.40    6.10
  -4  -2  -7    8.40    4.70
   4  -2   7    2.40    4.90
   4  -2  -7   -4.90    5.10
  -4  -2   7   -5.90    5.90
  -4  -2   7    9.80    6.60
  -4  -2   7   -0.60    4.60
   4   2   7    5.00    5.10
  -4   2  -7    3.10    4.10
   4  -2  -7   -4.40    6.40
  -4   2  -7    2.60    5.50
  -4   2   8    4.70    8.70
   4   2  -8    1.70    8.90
   4  -2   8   12.10    6.90
   4   2  -8   -6.90    8.50
  -4   2   8  -10.70    9.50
  -4   2  -8   -0.20    5.60
   4  -2  -8    2.60    7.60
   4  -2  -8    4.40    9.00
  -4  -2   8    5.20    9.10
  -4   2  -8    4.30    7.50
  -4  -2   8   -9.60    9.00
  -5   2   0  224.98   16.00
  -5   2   0  189.78   13.80
  -5  -2   0  187.28   11.30
   5  -2   0  190.58   14.50
   5   2   0  182.48   13.70
  -5  -2   0  194.08   15.40
  -5  -2   0  193.08   15.70
  -5   2   0  193.08   15.60
   5   2   0  188.88   14.30
  -5   2   0  173.08   14.60
  -5  -2   0  182.28   13.60
   5  -2   0  186.18   13.90
   5  -2   0  205.88   15.50
   5   2   0  186.18   14.30
   5   2  -1   64.49    7.30
   5  -2   1   70.79    8.20
  -5   2   1   71.69    9.30
  -5  -2  -1   58.69    8.70
  -5   2   1   56.19    7.00
   5  -2   1   72.49    8.40
   5   2  -1   71.59    8.10
   5   2  -1   68.89   10.40
  -5  -2  -1   69.89    7.60
   5   2  -1   58.89    9.00
  -5   2   1   69.49    8.70
   5  -2   1   66.99    7.00
  -5  -2  -1   73.89    9.60
  -5   2   1   61.49    8.20
  -5  -2  -1   57.69    6.90
   5   2   1   74.49    7.40
   5  -2  -1   63.79    9.00
   5   2   1   82.99    9.40
   5   2   1   58.79    6.70
   5   2   1   73.39    8.30
   5  -2  -1   62.39    7.50
  -5  -2   1   60.29    7.50
   5  -2  -1   65.49    6.70
  -5  -2   1   70.99    9.90
  -5   2  -1   68.99    8.00
  -5   2  -1   65.39    9.70
  -5  -2   1   66.09    9.30
  -5   2  -1   60.49    7.30
  -5   2  -1   71.59    9.70
  -5  -2   1   66.09    6.00
   5  -2  -1   62.69    8.30
  -5  -2  -2  356.06   22.10
   5   2  -2  343.27   22.70
   5   2  -2  340.97   23.00
   5  -2   2  335.07   21.30
   5  -2   2  336.37   21.70
  -5   2   2  341.67   22.00
  -5   2   2  350.26   23.40
  -5  -2  -2  334.97   22.20
  -5  -2  -2  342.37   21.00
   5   2  -2  375.56   25.20
  -5  -2  -2  375.76   23.60
  -5   2   2  347.07   21.20
   5  -2   2  344.07   22.50
  -5   2   2  343.87   23.50
   5   2  -2  343.97   23.60
  -5   2   2  324.67   23.10
   5   2   2  349.57   21.50
   5   2   2  393.26   22.70
  -5  -2   2  348.77   21.30
   5  -2  -2  290.57   24.10
   5  -2  -2  300.37   21.90
   5   2   2  330.67   20.90
  -5   2  -2  320.17   22.50
   5  -2  -2  355.46   23.00
  -5  -2   2  358.86   24.00
  -5   2  -2  371.36   23.40
  -5   2  -2  377.36   24.30
  -5  -2   2  333.97   22.20
  -5  -2   2  347.57   23.10
  -5   2  -2  308.17   21.10
   5   2   2  325.57   21.00
   5  -2  -2  336.17   23.50
   5   2  -3  195.38   15.60
  -5  -2  -3  208.38   15.00
   5   2  -3  253.97   19.50
   5  -2   3  190.68   13.80
  -5  -2  -3  238.88   16.90
  -5   2   3  201.88   14.90
   5  -2   3  209.28   14.50
  -5   2   3  208.38   16.70
   5  -2   3  203.98   14.90
  -5   2   3  194.88   14.70
   5   2  -3  220.68   17.30
  -5  -2  -3  207.18   13.60
   5   2  -3  181.48   16.10
  -5   2   3  206.48   16.90
  -5  -2  -3  206.08   15.20
  -5   2   3  218.68   16.40
  -5   2  -3  209.88   14.30
  -5   2  -3  192.58   15.50
   5  -2  -3  208.28   15.80
  -5  -2   3  211.78   15.20
  -5  -2   3  208.38   17.20
   5  -2  -3  195.98   16.10
   5  -2  -3  211.18   15.80
   5   2   3  224.88   14.60
   5   2   3  167.68   16.80
  -5  -2   3  216.28   17.30
  -5   2  -3  239.78   18.40
   5   2   3  203.28   12.70
   5  -2  -3  184.38   15.10
  -5   2  -3  220.18   16.00
  -5  -2   3  219.58   15.70
   5  -2   4   22.30    3.80
  -5  -2  -4   32.30    7.90
   5   2  -4   31.20   12.70
  -5  -2  -4   33.10    6.80
   5   2  -4   17.80    4.70
   5  -2   4   34.50    7.00
  -5  -2  -4   30.40    3.70
   5  -2   4   33.20    3.00
  -5   2   4   23.50    6.90
  -5   2   4   34.00    5.00
  -5   2   4   21.30    5.80
   5   2  -4   25.20    5.30
  -5   2   4   19.90    4.50
   5   2  -4   23.40    8.80
  -5   2   4   27.30    6.60
  -5  -2  -4   30.20    4.30
   5  -2  -4    2.40   11.80
  -5  -2   4   22.10    5.10
   5   2   4   36.40    5.70
  -5  -2   4   33.10    5.10
  -5   2  -4   22.20    4.70
   5  -2  -4   18.90    5.00
  -5   2  -4   21.40    8.80
  -5   2  -4   32.30    4.30
  -5   2  -4   28.90    8.10
   5  -2  -4   29.60    8.40
   5  -2  -4   34.10    8.40
  -5  -2   4   27.90    5.60
  -5  -2   4   35.50    8.10
   5  -2  -4   19.60    4.50
   5   2   4   22.90    5.50
  -5   2   5   -2.40    4.10
   5   2  -5   11.80    6.00
  -5  -2  -5    2.20    4.00
  -5  -2  -5   -1.70    7.10
  -5  -2  -5    6.20    7.70
  -5   2   5    6.40    7.80
   5   2  -5    0.30    8.00
   5  -2   5    2.00    3.10
  -5   2   5    5.50    6.40
  -5   2   5    9.20    3.90
  -5  -2  -5    9.50    3.60
  -5  -2  -5    4.90    2.20
   5   2  -5    2.00    4.10
   5  -2   5    3.90    2.50
  -5   2   5   11.90    4.00
  -5  -2   5    2.00    4.50
  -5  -2   5    7.40    4.30
  -5   2  -5    2.70    2.80
   5  -2  -5    1.90    4.00
   5   2   5    3.20    3.30
   5  -2  -5   14.10    9.00
  -5   2  -5    5.00    4.10
  -5  -2   5   -3.50    4.20
  -5   2  -5   -2.20    5.90
  -5   2  -5  -10.20    8.10
   5  -2  -5    7.90    4.30
  -5  -2   5   -0.10    6.70
   5   2   5    6.30    4.40
  -5   2  -5    9.20    6.40
   5  -2   6    9.10    6.40
   5  -2   6    7.60    3.70
  -5   2   6   -1.00    6.40
  -5  -2  -6    3.70    9.40
   5   2  -6    6.30    6.10
  -5  -2  -6    9.00    4.50
  -5  -2  -6   -1.10    5.90
  -5  -2  -6    9.00    2.80
  -5  -2  -6    5.40    9.10
   5   2  -6   12.00    5.20
  -5   2   6    0.90    5.30
  -5   2   6    8.10    4.20
  -5   2   6    3.40    5.30
   5   2  -6    5.00   10.00
   5  -2  -6    5.20   10.60
   5  -2  -6    3.40    5.00
  -5   2  -6    5.70    5.00
  -5   2  -6    1.20    3.50
   5   2   6    1.30    4.40
  -5  -2   6    4.90    5.40
  -5   2  -6   -0.80    8.90
  -5  -2   6   -6.40    9.10
  -5  -2   6    0.60    6.20
   5  -2  -6   11.10    5.90
  -5  -2   6   -0.60    5.60
  -5  -2   6    3.30    5.20
  -5   2   7    8.20    8.60
  -5   2   7    1.70    7.70
   5   2  -7   -1.00    8.00
   5  -2   7    4.20    5.30
   5   2  -7    8.90    7.60
  -5  -2  -7   13.00    5.90
   5  -2  -7    9.30    6.50
   5  -2  -7   11.10    7.80
  -5  -2   7   -9.70    8.60
  -5  -2   7  -13.20    7.90
  -5  -2   7   -6.30    7.50
  -5  -2   7    1.50    6.10
  -6   2   0   90.59   10.10
  -6  -2   0   79.09    9.50
  -6  -2   0   90.99   11.50
  -6   2   0   95.49    9.20
  -6  -2   0   94.99    9.10
  -6  -2   0   92.59    5.90
   6  -2   0   86.99    9.80
   6   2   0  112.29   12.70
   6   2   0  102.09   10.10
  -6  -2   0   92.29   12.00
   6   2   0   91.29   14.30
  -6   2   0   96.79   13.10
   6  -2   0   94.79    9.50
   6  -2   0   75.29   10.60
   6   2   0   98.59    8.40
   6  -2   1  299.67   20.90
  -6   2   1  267.77   20.50
   6   2  -1  275.57   19.60
  -6   2   1  282.77   21.50
  -6  -2  -1  307.87   22.10
   6   2  -1  270.17   20.20
  -6  -2  -1  303.27   20.60
  -6  -2  -1  270.07   18.50
  -6   2   1  274.37   19.20
   6  -2   1  257.77   18.80
   6   2  -1  331.27   23.00
  -6  -2  -1  257.57   19.50
   6   2  -1  259.87   20.30
  -6   2   1  285.47   21.50
   6   2   1  258.17   19.10
  -6  -2   1  299.77   22.00
  -6   2  -1  280.57   21.50
   6   2   1  298.87   20.10
   6  -2  -1  282.87   20.60
   6  -2  -1  267.47   19.60
  -6  -2   1  262.87   20.40
  -6   2  -1  268.27   20.40
   6   2   1  274.97   18.70
   6   2   1  332.97   21.90
  -6  -2   1  264.07   19.00
  -6   2  -1  273.07   18.90
   6  -2  -1  268.67   20.60
  -6   2  -1  286.77   21.10
  -6  -2   1  285.47   16.90
  -6  -2  -2  237.08   17.60
   6  -2   2  229.68   16.10
  -6   2   2  251.77   17.10
  -6   2   2  234.48   18.80
  -6   2   2  220.38   17.90
  -6   2   2  226.48   15.20
  -6  -2  -2  229.18   15.70
   6  -2   2  241.68   17.40
  -6   2   2  258.67   19.90
  -6  -2  -2  266.67   19.90
   6   2  -2  221.38   16.90
   6   2  -2  193.98   17.40
  -6  -2  -2  226.18   17.50
   6   2  -2  233.18   18.50
  -6  -2   2  200.78   17.70
  -6   2  -2  244.18   16.40
   6   2   2  230.08   15.10
  -6  -2   2  218.78   19.30
   6   2   2  242.08   17.30
  -6  -2   2  225.28   15.30
   6  -2  -2  225.38   18.60
  -6  -2   2  241.18   18.70
   6  -2  -2  212.38   18.20
  -6   2  -2  240.38   18.40
   6   2   2  224.08   15.70
  -6  -2   2  239.68   17.10
  -6   2  -2  244.08   19.80
  -6   2  -2  230.08   17.60
   6  -2  -2  228.08   17.20
  -6   2   3  122.29   10.10
   6  -2   3  131.69   10.40
  -6   2   3  117.09   11.80
   6  -2   3  134.89    9.30
  -6   2   3  131.79   13.80
  -6  -2  -3  150.08   14.30
   6   2  -3  108.89   11.00
   6   2  -3  121.59   14.80
  -6  -2  -3  119.79    9.60
   6   2  -3  110.19   11.60
  -6   2   3  123.19   10.80
  -6  -2  -3  118.39   12.30
  -6  -2  -3  127.69   11.40
  -6   2  -3  116.89   11.50
   6  -2  -3  129.79   11.50
  -6  -2   3  131.49   10.50
  -6  -2   3  101.69   20.50
   6  -2  -3  109.99   10.20
   6  -2  -3  138.99   14.20
  -6  -2   3  129.19   11.30
  -6  -2   3  136.19   12.60
   6   2   3  121.29    9.20
  -6   2  -3  129.59   13.00
   6   2   3  150.78    9.30
  -6   2  -3  135.29   15.70
  -6   2  -3  130.99   10.20
   6   2   3  127.49   12.00
  -6   2   4   13.30    4.50
  -6  -2  -4   11.50    6.40
  -6   2   4    6.50    4.20
   6  -2   4   20.20    4.20
   6  -2   4   12.50    9.50
  -6  -2  -4   14.60    3.20
  -6  -2  -4   13.70    9.10
   6  -2   4   17.70    4.20
  -6  -2  -4    8.40    4.40
   6   2  -4   12.00    4.40
  -6   2   4   17.60    4.80
   6   2  -4    9.90    4.70
   6   2  -4   19.10    9.90
  -6   2   4    5.90    8.00
  -6  -2   4   20.90    4.80
   6  -2  -4    5.90    4.40
   6  -2  -4   12.30    8.50
   6   2   4   11.20    5.90
  -6   2  -4   19.00    7.00
  -6  -2   4   11.90    4.50
   6   2   4    8.90    8.40
   6  -2  -4   13.20    4.70
  -6  -2   4   16.90    4.80
  -6   2  -4   17.30    4.30
  -6  -2  -5   10.80    5.00
  -6   2   5   12.70    6.10
  -6   2   5    9.50    4.80
  -6  -2  -5   17.20    3.40
  -6   2   5   10.10    9.00
  -6   2   5    8.60    5.00
  -6   2   5   11.30    5.90
  -6  -2  -5   11.70   11.00
   6  -2   5   11.10    4.00
  -6  -2  -5   19.80   13.70
   6   2  -5    5.10    5.60
  -6   2  -5    9.10    3.40
   6  -2  -5   10.60    5.00
  -6  -2   5   10.60    5.00
  -6   2  -5   16.50    5.10
   6   2   5   16.20    7.30
  -6  -2   5   13.40    5.60
   6  -2  -5   28.10   10.40
   6  -2  -5   18.90    5.50
  -6  -2   5   18.20    5.30
  -6   2  -5   15.70    9.80
   6   2  -6   52.49    7.70
  -6   2   6   51.19    8.70
  -6  -2  -6   51.99    7.00
   6   2  -6   62.09    7.50
  -6   2   6   42.50    8.80
  -6  -2   6   52.39    9.50
  -6   2  -6   57.99    7.40
  -6  -2   6   38.40    9.60
   6  -2  -6   49.99    7.30
  -6  -2   6   60.39    8.80
   6  -2  -6   64.69    7.60
  -6  -2   6   48.50    7.40
  -6   2   7   -3.50   11.00
  -6   2   7   12.40    8.80
  -6  -2  -7    1.00   11.70
   6   2  -7   -7.50    9.40
  -6   2  -7    1.10    8.30
  -6  -2   7   -3.30    8.70
   6  -2  -7    7.40   10.00
  -6  -2   7    6.80   11.10
  -6  -2   7   16.90   13.60
  -6  -2   7  -13.20   10.50
   6  -2  -7   13.20    8.20
  -7   2   0  130.99   15.00
  -7   2   0  124.59   11.90
  -7  -2   0  128.49   14.60
   7   2   0  128.09   11.00
   7   2   0  135.49   14.90
  -7  -2   0  128.09   11.70
   7   2   0  131.49   11.60
  -7   2   0  118.59   10.60
   7  -2   0  133.99   10.70
  -7  -2   0  113.29   11.40
   7  -2   0  108.79   11.80
   7  -2   1   35.60    5.40
  -7   2   1   20.60    4.90
   7  -2   1   21.50    5.10
  -7   2   1   26.80   12.20
  -7  -2  -1   25.70    4.50
   7   2  -1   37.50    4.40
   7  -2   1    9.70   11.70
   7   2  -1   22.20    4.50
  -7  -2  -1   31.10    9.30
   7   2   1   35.80    5.40
  -7   2  -1   40.80   10.40
  -7  -2   1   35.50    6.00
  -7  -2   1   31.90    3.20
   7  -2  -1   21.40    5.20
  -7   2  -1   26.60    4.70
  -7  -2   1   34.10   11.00
   7  -2  -1   24.10    7.70
   7   2   1   30.90    9.10
   7   2   1   33.80    4.70
  -7  -2  -2    5.30    3.60
   7  -2   2    4.70    4.40
  -7   2   2   12.10    4.50
   7   2  -2   13.80    5.10
   7  -2   2   -3.20    9.70
   7   2  -2    0.90    4.60
  -7   2   2    7.50    4.30
  -7  -2  -2   -1.90    4.40
  -7  -2  -2    3.40    8.50
   7   2   2    3.40    8.20
   7  -2  -2   21.70    7.10
  -7  -2   2    0.50    4.50
  -7  -2   2    4.20    2.80
  -7  -2   2  -11.30    7.20
   7  -2  -2    1.40    4.50
   7   2   2    8.20    4.40
   7   2   2    5.80    3.90
  -7  -2  -3   49.99    6.30
  -7   2   3   60.29    5.30
   7  -2   3   50.59    6.20
  -7  -2  -3   56.89    5.30
   7  -2   3   31.50    9.30
   7   2  -3   42.60    5.90
   7   2  -3   46.10    6.00
  -7   2   3   50.19    5.70
  -7   2   3   54.39    6.00
   7  -2   3   55.59    5.60
  -7  -2   3   50.49    5.90
  -7  -2   3   35.90    5.90
  -7  -2   3   59.79    5.50
  -7   2  -3   59.29   11.70
   7   2   3   51.79    5.20
   7  -2  -3   41.90    6.00
  -7   2  -3   46.00    5.40
   7  -2  -3   41.00    6.10
  -7   2  -3   39.90    5.70
   7   2   3   43.00    5.60
  -7  -2  -4   11.70    3.60
  -7   2   4    1.60    4.70
   7   2  -4    5.10    5.80
  -7   2   4   18.30    6.00
   7  -2   4    7.00    4.80
  -7  -2  -4    8.20    6.00
  -7   2   4    3.10    8.60
   7   2  -4    6.00    5.60
   7  -2   4    7.60    4.90
   7   2   4    1.70    4.20
  -7  -2   4    2.50    5.50
  -7   2  -4  -11.70   11.80
  -7  -2   4   -2.60    5.30
   7  -2  -4    8.70    5.60
   7  -2  -4    6.60    6.00
  -7   2  -4    1.10    4.00
  -7  -2   4    6.60    5.00
  -7   2  -4   12.10    5.30
  -7   2   5   13.20    6.30
  -7  -2  -5   12.10    3.90
   7   2  -5   23.30    6.90
  -7  -2  -5   11.10    6.20
  -7   2   5   19.60    6.00
   7   2  -5    9.40    6.80
  -7   2   5    5.90    8.20
  -7   2   5    8.90    6.70
  -7  -2   5    4.60    6.50
   7  -2  -5   16.30    6.70
  -7   2  -5   12.00    6.40
  -7   2  -5    2.70    4.30
  -7  -2   5    8.00    6.70
  -7  -2   5   11.60    5.90
  -7   2   6    7.20    8.70
  -7   2   6   -4.10   10.50
  -7   2   6   10.00    8.00
   7   2  -6   12.00    8.70
  -7  -2  -6    9.20    7.80
  -7   2   6   17.60    8.00
   7   2  -6    8.60    8.10
  -7  -2   6    7.70    8.40
  -7  -2   6   -0.10    9.50
  -7  -2   6    9.80    7.80
   7  -2  -6    4.30    8.90
  -7   2  -6   19.10    7.90
   7  -2  -6   19.40    9.00
  -7  -2   6    2.70    8.70
  -8  -2   0   22.40    5.00
   8  -2   0   36.60    6.00
   8  -2   0   27.30    5.90
   8   2   0   15.20    5.60
   8   2   0   21.40    6.10
  -8  -2   0    1.60   12.80
  -8  -2   0   25.20    5.50
  -8   2   1  113.09    9.50
   8   2  -1  126.79   10.80
  -8  -2  -1   96.09   14.90
  -8   2   1  104.59    9.10
   8  -2   1  114.79    9.10
   8  -2   1  118.39   10.80
  -8  -2  -1  102.39   10.30
  -8  -2  -1  108.59    9.60
   8   2   1  120.79   10.50
  -8   2  -1  122.89   17.40
  -8   2  -1  107.99    9.30
  -8  -2   1  111.59    9.90
  -8  -2   1  120.39    9.70
   8  -2  -1  114.99    9.20
  -8   2  -1  107.29    9.00
   8  -2  -1  103.49   10.20
   8   2   1  102.49    9.10
  -8   2   2   39.80    6.30
   8   2  -2   36.50    6.70
   8  -2   2   43.60    6.50
  -8  -2  -2   24.60    5.80
  -8  -2  -2   35.30    5.10
  -8  -2  -2   13.60   15.70
   8   2  -2   33.10    6.30
   8  -2   2   32.70    8.40
  -8   2   2   30.90    6.20
   8   2   2   22.10    6.20
  -8   2  -2   44.20    6.00
   8   2   2   43.30    6.50
  -8   2  -2   37.40   12.60
   8  -2  -2   32.10    6.70
  -8  -2   2   44.30    6.00
  -8   2  -2   34.70    6.10
  -8  -2   2   27.70    6.00
   8   2   2   24.00   14.70
   8  -2  -2   41.10    6.70
  -8  -2  -3   47.60    7.50
   8   2  -3   39.10    7.70
   8  -2   3   52.09    8.20
  -8   2   3   34.30    7.10
   8   2  -3   50.29    7.10
   8  -2   3   38.80    7.30
  -8  -2  -3   45.00    6.00
  -8   2   3   41.00    6.80
   8  -2  -3   49.90    7.20
  -8  -2   3   30.30    7.10
   8  -2  -3   42.40    7.30
   8   2   3   54.29    6.30
  -8  -2   3   59.29    6.20
   8   2   3   53.59    6.60
  -8   2  -3   41.00    6.60
  -8   2  -3   50.29    6.90
   8  -2   4   19.70    8.00
   8   2  -4   22.50    7.70
   8   2  -4   18.30    8.00
  -8  -2  -4    7.50    4.90
  -8   2   4    9.60    7.50
  -8  -2   4    5.50    8.00
   8  -2  -4   16.90    8.10
  -8   2  -4   13.80    7.20
  -8  -2   4   17.60    6.40
  -8   2  -4   12.10    5.60
   8  -2  -4   30.30    8.00
  -8   2   5  -10.00    9.10
  -8   2   5   -9.80    9.30
   8   2  -5   16.20    9.30
  -8   2   5    0.60    8.10
  -8   2   5  -10.80   10.70
  -8  -2  -5    6.80    8.60
  -8  -2   5   16.90    7.30
  -8   2  -5    6.50    8.60
   8  -2  -5    9.00    8.90
   8  -2  -5   18.30    8.60
  -8  -2   5   -0.90    9.50
   9  -2   0    1.50    7.70
  -9   2   0   -4.70    6.10
  -9  -2   0    0.20    7.20
   9   2   0    4.70    7.20
   9  -2   0    8.20    8.20
  -9  -2   0    6.80    5.90
   9   2   0   18.10    7.70
  -9   2   0   -1.30    6.60
   9   2  -1   30.90    7.90
  -9  -2  -1   21.00    7.40
  -9   2   1   26.80    7.60
   9   2  -1   23.90    7.70
   9  -2   1   24.10    7.60
  -9   2   1   39.50    7.30
   9  -2   1   15.80    7.60
  -9   2  -1   17.10    6.20
   9   2   1   35.40    7.40
  -9  -2   1   26.40    7.30
  -9  -2   1   29.30    7.30
   9  -2  -1   30.10    8.60
   9  -2  -1   20.60    7.70
  -9   2  -1   26.40    7.40
   9   2   1   26.10    8.40
  -9  -2  -2   53.59    8.10
  -9   2   2   44.40    8.00
  -9   2   2   55.39    8.20
   9   2  -2   36.20    8.80
   9   2  -2   41.00    9.40
   9  -2   2   51.39   16.50
   9  -2   2   39.70    9.00
  -9  -2  -2   34.00    6.80
  -9   2  -2   46.40    8.00
   9   2   2   42.40    8.70
  -9   2  -2   33.20    7.00
   9  -2  -2   48.00    9.10
   9  -2  -2   43.10    9.10
  -9  -2   2   24.70    8.00
  -9  -2  -3   11.10    8.50
  -9   2   3   -3.30    9.40
   9   2  -3    4.10    9.40
   9   2  -3   21.20    9.00
   9  -2   3   13.90    8.20
   9  -2  -3    0.70    9.10
  -9  -2   3   -1.70    8.60
  -9   2  -3    4.50    8.90
  -9   2  -3    1.90    6.80
   9  -2  -3    7.50    9.00
   9   2  -4   25.90   10.50
  -9   2   4    8.50   10.10
  -9  -2  -4   11.90   10.10
  -9  -2  -4   16.40    6.70
   9  -2  -4   45.10   12.20
  -9  -2   4   18.10   10.20
  -9   2  -4   28.10   10.00
  -9   2  -4   20.50    7.70
  -9  -2   4   -5.40    9.60
  10  -2   0   11.30   10.80
  10   2   0    9.70   10.80
  10   2   0   11.10   10.20
  10  -2   0   -1.00   10.90
  10  -2   1   13.90   11.00
  10  -2   1   12.60   11.30
  10   2  -1    7.70   10.60
 -10   2   1   11.90   14.50
  10  -2  -1    7.60   11.10
  10   2   1    9.90   10.60
   0   3   0   10.30    2.20
   0   3   0   11.80    2.10
   0  -3   0    8.70    1.70
   0   3   0    8.30    2.60
   0  -3   0    7.90    2.20
   0  -3   0    9.50    2.50
   0  -3   0   10.40    2.00
   0  -3   0   11.90    2.00
   0  -3   1 3819.52  188.38
   0   3  -1 3561.94  187.98
   0   3  -1 3294.17  188.18
   0  -3   1 3578.84  187.88
   0   3  -1 3834.72  187.98
   0  -3  -1 3895.01  188.38
   0  -3   1 3597.94  187.88
   0   3   2 1489.15   79.39
   0  -3  -2 1615.44   81.59
   0  -3   2 1635.24   80.89
   0   3  -2 1588.24   80.89
   0  -3  -2 1410.16   81.89
   0   3   2 1601.94   79.49
   0   3  -2 1502.65   80.79
   0   3   2 1629.54   81.69
   0   3  -2 1701.23   82.59
   0  -3   2 1539.75   81.09
   0  -3   2 1433.66   80.69
   0  -3  -2 1546.85   79.59
   0  -3  -2 1416.66   79.49
   0  -3   3 3616.94  192.28
   0  -3  -3 4187.28  194.38
   0  -3   3 4028.60  194.08
   0   3   3 3952.20  190.78
   0   3  -3 3341.37  192.68
   0  -3   3 3980.00  192.48
   0  -3  -3 3709.23  193.58
   0   3  -3 3546.15  192.28
   0  -3  -3 3418.36  190.78
   0   3   3 3549.94  193.48
   0  -3   3 4238.18  193.38
   0  -3   3 3191.88  192.58
   0   3   3 3737.73  190.68
   0  -3  -3 3476.35  190.78
   0   3  -3 3850.91  192.48
   0  -3  -4  519.65   29.50
   0  -3   4  596.34   33.40
   0   3  -4  530.65   31.20
   0   3   4  566.84   29.40
   0  -3  -4  584.14   35.80
   0   3   4  567.94   33.20
   0  -3  -4  591.64   33.40
   0   3  -4  582.44   31.70
   0  -3  -4  561.94   29.60
   0  -3   4  558.54   31.10
   0   3  -4  557.84   31.90
   0  -3  -4  495.65   29.70
   0   3   4  555.04   29.30
   0  -3   4  501.75   31.20
   0  -3  -5   13.70    7.20
   0  -3   5    5.20    4.20
   0   3  -5   14.20    4.20
   0   3  -5   12.00    5.40
   0   3   5   13.70    4.30
   0  -3  -5   18.60    5.00
   0  -3  -5   13.00    2.70
   0  -3  -5   12.10    3.10
   0   3   5   12.70    3.30
   0  -3   5   15.10    4.10
   0  -3  -5    3.20    6.50
   0  -3   5   12.70    3.40
   0   3  -5   12.50    9.10
   0  -3  -5   11.50    2.10
   0   3  -5   10.10    2.80
   0   3  -6    7.70    9.10
   0  -3  -6   12.10    6.20
   0   3  -6    6.70    3.50
   0  -3   6   10.50    4.10
   0   3   6    8.10    3.00
   0   3   6    7.70    2.80
   0  -3   6    6.30    3.20
   0  -3  -6    7.70    2.00
   0   3  -6    8.90    5.80
   0  -3  -6   10.10    2.60
   0   3  -6    1.80    2.90
   0  -3  -6    5.20    8.80
   0   3   6   13.40    4.10
   0   3   6   15.70    4.30
   0  -3   6    9.80    4.90
   0  -3  -6    5.10    3.00
   0   3  -7  123.29    9.20
   0   3  -7  102.39    8.50
   0   3   7   96.59    9.20
   0   3   7  105.79    6.90
   0  -3   7  110.49    8.70
   0  -3  -7  105.79    6.70
   0  -3  -7   90.39    7.80
   0   3   7   95.59    6.60
   0   3  -7   97.89   16.50
   0  -3   7  116.69    9.70
   0   3  -7  110.69   10.70
   0   3  -8    8.80    8.90
   0  -3  -8   13.70    2.50
   0  -3   8    4.60    6.40
   0  -3  -8   21.30    5.90
   0   3   8   13.90    6.40
   0   3  -9   -3.00    7.80
   0   3   9   -1.30    9.10
   0  -3   9    8.50    9.30
   0   3  -9   -3.60    9.20
   1  -3   0 3069.09  146.19
  -1  -3   0 2644.64  144.99
   1   3   0 2806.62  145.09
   1   3   0 2574.94  145.19
  -1   3   0 2747.82  145.69
   1  -3   0 2938.21  145.59
  -1   3   0 2645.54  145.39
  -1   3   0 3190.88  145.49
   1  -3   0 2838.32  145.09
  -1   3   0 2683.93  145.09
   1  -3   0 2605.84  145.19
  -1  -3   0 2897.91  145.19
  -1  -3   0 2953.90  145.39
   1   3   0 2862.01  144.99
  -1  -3  -1 4388.96  216.78
   1   3  -1 4285.17  215.08
  -1   3   1 4501.15  214.78
   1  -3   1 4186.68  214.78
   1  -3   1 3941.41  215.18
  -1   3   1 4518.55  214.88
   1   3  -1 3709.03  215.28
   1   3  -1 3769.92  215.68
  -1   3   1 4471.05  214.68
  -1   3   1 4127.79  216.18
   1  -3   1 3948.41  214.88
  -1  -3   1 4533.35  215.18
   1  -3  -1 4384.46  215.08
  -1   3  -1 3617.44  214.68
  -1   3  -1 3840.62  215.38
   1  -3  -1 4290.47  215.98
  -1   3  -1 4128.29  214.98
  -1  -3   1 4588.34  216.18
  -1  -3   1 4003.40  215.48
   1  -3  -1 4154.38  214.78
   1  -3  -1 4623.24  215.38
   1  -3  -1 3939.81  214.48
  -1   3   2 4256.07  201.88
  -1   3   2 3448.35  203.58
  -1  -3  -2 4115.29  202.78
   1   3  -2 3815.22  202.58
   1   3  -2 4182.98  202.78
   1  -3   2 3987.90  202.18
   1   3  -2 4168.38  204.38
   1  -3   2 3915.21  202.58
   1   3  -2 3480.35  202.98
  -1   3   2 4322.97  202.08
   1  -3   2 3715.93  202.18
  -1   3  -2 3860.51  202.88
   1  -3  -2 4079.09  202.08
  -1   3  -2 4160.58  202.48
  -1  -3   2 4039.00  202.78
   1  -3  -2 3878.61  203.28
  -1  -3   2 3833.52  203.68
   1  -3  -2 3878.21  203.78
  -1  -3   2 4121.89  203.08
  -1  -3   2 4009.30  202.58
   1   3   2 3817.72  202.68
   1  -3  -2 3726.43  201.68
   1  -3  -2 3517.85  201.88
   1  -3  -2 3895.41  201.98
   1  -3   3 1284.07   67.19
   1   3  -3 1332.07   67.59
   1   3  -3 1262.27   67.59
   1   3  -3 1217.38   67.99
   1  -3   3 1298.07   66.89
   1  -3   3 1206.98   66.79
  -1   3   3 1317.47   66.59
  -1   3   3 1268.47   68.69
  -1  -3  -3 1317.27   68.09
   1  -3   3 1271.87   68.09
   1   3  -3 1153.38   68.99
  -1   3   3 1245.18   66.39
   1  -3  -3 1373.56   69.29
  -1  -3   3 1282.47   69.29
  -1   3  -3 1297.07   67.09
  -1  -3   3 1290.37   67.69
   1  -3  -3 1262.77   66.39
   1   3   3 1255.97   67.99
  -1   3  -3 1335.77   67.29
  -1  -3   3 1281.17   68.79
  -1   3  -3 1344.07   69.19
  -1   3  -3 1193.78   67.59
   1  -3  -3 1119.49   68.39
   1  -3  -3 1275.07   66.59
  -1  -3   3 1189.18   67.29
  -1   3   4  284.97   21.20
  -1  -3  -4  344.47   21.50
   1  -3   4  306.47   19.50
   1  -3   4  350.66   19.50
   1  -3   4  332.07   19.40
   1  -3   4  343.87   19.40
  -1   3   4  331.27   18.90
  -1   3   4  321.67   19.60
   1   3  -4  322.87   20.60
   1   3  -4  330.57   20.00
  -1  -3  -4  282.07   17.60
   1  -3   4  313.67   20.90
  -1  -3  -4  326.37   17.70
   1   3  -4  325.87   20.50
  -1   3  -4  331.57   20.00
  -1  -3   4  345.27   19.90
   1  -3  -4  334.07   19.30
   1  -3  -4  329.97   21.80
  -1  -3   4  327.57   21.60
   1  -3  -4  345.67   19.00
   1  -3  -4  336.27   19.00
  -1  -3   4  346.57   20.10
  -1   3  -4  333.77   19.60
  -1   3  -4  314.07   20.00
  -1  -3   4  330.67   19.60
  -1  -3   4  343.67   20.30
   1   3   4  312.57   20.90
  -1   3  -4  264.27   27.40
  -1  -3  -5  257.27   19.30
   1   3  -5  250.07   17.80
  -1  -3  -5  281.17   19.40
   1  -3   5  271.07   15.70
  -1  -3  -5  256.87   16.00
  -1   3   5  246.98   19.40
  -1   3   5  280.17   16.40
   1  -3   5  255.17   18.80
   1  -3   5  262.07   16.80
   1   3  -5  272.07   17.50
   1   3  -5  274.47   18.00
  -1  -3  -5  272.07   14.20
   1  -3   5  242.28   17.00
   1  -3  -5  275.57   16.80
   1  -3  -5  257.57   16.10
  -1  -3   5  261.77   19.50
  -1  -3   5  272.77   18.00
   1  -3  -5  256.67   19.60
  -1  -3   5  256.77   16.90
  -1   3  -5  291.97   21.20
   1  -3  -5  251.77   16.30
  -1   3  -5  270.47   17.40
   1  -3  -5  290.27   18.20
  -1  -3   5  285.17   17.10
  -1   3  -5  253.67   17.40
   1   3   5  273.97   19.10
  -1   3  -5  273.87   17.00
   1   3  -6    3.00    5.30
  -1  -3  -6    3.20    8.70
  -1   3   6    5.60    4.00
  -1  -3  -6    1.20    7.00
  -1   3   6    1.70    3.50
  -1  -3  -6    1.30    2.00
   1   3  -6    3.00    3.30
   1  -3   6   -0.10    4.50
  -1  -3  -6    1.50    5.00
   1   3  -6   -3.60    8.90
  -1   3   6    5.60    3.70
   1   3  -6   -1.60    3.30
   1  -3   6    2.70    3.50
   1  -3   6    6.90    5.80
  -1  -3   6    1.30    3.60
  -1   3  -6   10.10    5.40
  -1  -3   6   -1.50    3.10
   1  -3  -6    7.90    6.30
   1  -3  -6    0.00    3.80
   1   3   6    2.60    3.40
  -1   3  -6   -0.30    2.90
   1  -3  -6    2.20    2.50
  -1  -3   6    6.70    6.30
   1  -3  -6    1.10   15.10
  -1   3  -6    1.60    2.80
   1  -3  -6    4.20    2.70
  -1  -3   6    0.10    2.70
  -1  -3   6    2.90    4.20
  -1   3  -6   11.50    8.80
  -1   3   7   76.99    7.50
   1  -3   7   83.19    7.40
  -1  -3  -7   79.59    6.30
   1   3  -7   90.49    7.20
  -1   3   7   69.39    7.80
   1   3  -7   78.89    9.60
   1  -3   7   58.49   10.00
   1   3  -7   80.09    7.60
  -1  -3  -7   73.69   11.50
   1   3   7   94.89    7.40
  -1   3  -7   77.89    7.00
  -1  -3   7   83.59    8.00
  -1   3  -7   58.99   15.20
  -1   3  -7   73.19    6.90
   1  -3  -7   72.49    6.10
  -1   3  -7   74.99    9.30
   1  -3  -7   74.79    6.30
  -1  -3   7   88.09    7.00
   1   3  -8   26.80    7.00
  -1   3   8   16.40    6.80
   1   3  -8   24.50    6.30
  -1  -3  -8   18.70    5.40
  -1   3  -8   29.20    6.10
  -1  -3   8   15.80    6.40
  -1   3  -8   21.50    6.30
   1   3   8   22.00    6.70
   1  -3  -8   21.30    4.50
   1  -3  -8   31.10    6.50
   1   3  -9    9.90    7.80
   1   3  -9   -3.60   10.00
  -1   3   9    7.40    9.30
   1  -3   9    1.30    8.80
  -1  -3   9    9.00    9.90
   1   3   9    2.60    8.80
  -1   3  -9   13.40    7.40
  -1   3  -9   17.80    9.30
   2   3   0    9.60    3.60
   2   3   0    9.50    3.00
  -2  -3   0   12.10    3.50
  -2   3   0   13.10    3.10
  -2   3   0   15.80    3.80
   2  -3   0   12.50    3.50
   2   3   0   13.70    3.20
  -2  -3   0   10.30    2.90
   2  -3   0   13.70    3.50
  -2   3   0   10.70    3.80
  -2  -3   0   12.70    3.50
  -2  -3   0   11.90    3.50
   2   3   0   14.30    4.70
   2  -3   0   11.50    3.20
   2  -3   1 5473.65  255.67
  -2  -3  -1 4680.83  253.57
   2   3  -1 4593.64  255.07
  -2   3   1 4640.04  254.57
  -2   3   1 4916.41  254.27
   2   3  -1 5191.08  254.57
  -2   3   1 5209.68  254.77
   2   3  -1 5321.67  256.17
   2  -3   1 4590.34  254.37
  -2   3   1 5217.28  254.87
  -2  -3  -1 4793.72  254.07
  -2  -3  -1 5171.78  254.37
  -2   3   1 4978.90  254.77
   2  -3   1 5116.19  254.97
   2  -3   1 4851.11  254.17
   2   3  -1 4980.80  254.67
  -2  -3  -1 4626.74  253.67
   2  -3  -1 4729.93  254.67
  -2   3  -1 5241.48  255.77
  -2   3  -1 5053.59  255.07
   2  -3  -1 4829.62  254.17
  -2  -3   1 4746.92  255.07
   2   3   1 5163.68  253.67
   2  -3  -1 4611.24  254.27
  -2   3  -1 4937.51  254.47
   2   3   1 5051.39  253.77
  -2  -3   1 4826.02  255.47
  -2   3  -1 4642.54  254.07
  -2  -3   1 4903.11  254.47
   2  -3  -1 5119.69  255.17
  -2  -3   1 5254.87  254.77
   2  -3  -1 4691.73  254.47
  -2   3   2 5629.64  281.07
  -2  -3  -2 5337.77  279.67
  -2  -3  -2 5097.79  279.97
   2  -3   2 5432.16  280.67
  -2   3   2 5225.28  282.17
  -2   3   2 4883.71  281.57
   2   3  -2 5266.17  282.17
  -2   3   2 5840.82  281.17
   2   3  -2 4879.71  281.27
   2   3  -2 5651.63  281.37
   2   3  -2 5386.96  282.97
  -2  -3  -2 5622.84  280.77
  -2   3   2 5899.61  281.27
   2  -3   2 5648.63  281.47
  -2   3   2 5295.97  283.37
  -2   3  -2 5819.52  281.27
  -2  -3   2 5681.73  281.57
  -2  -3   2 5376.96  281.27
   2  -3  -2 5171.58  281.27
  -2  -3   2 5286.67  282.77
   2  -3  -2 5071.99  281.47
  -2  -3   2 6085.39  282.37
   2  -3  -2 5516.75  281.77
  -2   3  -2 6154.18  282.87
  -2   3  -2 5318.57  280.67
  -2   3  -2 5250.57  281.57
  -2  -3   2 5414.46  282.37
   2  -3  -2 5785.52  280.97
   2  -3  -2 5271.97  281.07
   2  -3   3 1183.58   66.69
  -2   3   3 1319.87   67.19
  -2   3   3 1188.98   68.49
  -2   3   3 1304.57   66.39
  -2   3   3 1252.37   66.29
   2  -3   3 1300.07   66.59
   2  -3   3 1245.58   67.19
   2   3  -3 1186.68   67.49
  -2   3   3 1204.38   69.29
   2   3  -3 1314.67   67.69
   2  -3   3 1329.37   67.09
  -2  -3  -3 1178.78   64.99
   2   3  -3 1436.76   70.19
  -2  -3  -3 1384.16   65.79
  -2   3   3 1237.88   66.89
  -2  -3  -3 1347.17   67.49
  -2  -3  -3 1132.09   64.79
   2   3  -3 1111.89   67.99
   2   3   3 1274.17   64.69
  -2   3  -3 1361.36   67.29
  -2  -3   3 1277.77   67.69
   2  -3  -3 1235.98   66.99
  -2  -3   3 1094.99   68.39
   2   3   3 1236.58   64.69
  -2   3  -3 1165.48   66.49
   2  -3  -3 1271.57   66.79
  -2   3  -3 1292.87   67.79
   2  -3  -3 1214.88   67.39
  -2  -3   3 1246.08   67.39
   2   3   3 1302.67   67.29
  -2  -3   3 1290.37   67.99
   2  -3  -3 1348.67   68.69
  -2  -3  -4   13.30    6.00
   2   3  -4   23.10    9.50
  -2  -3  -4   13.90    3.90
   2   3  -4   21.60    6.60
   2   3  -4   15.50    3.90
  -2   3   4   16.90    4.80
   2  -3   4   23.10    3.50
   2  -3   4   24.00    5.00
  -2   3   4   14.60    3.00
   2  -3   4   22.00    4.60
  -2   3   4    9.00    4.20
   2  -3   4   12.50    3.60
  -2  -3  -4   20.30    1.40
  -2  -3  -4   21.10    3.60
  -2   3   4   15.80    5.30
  -2   3   4   13.10    2.80
   2  -3   4   19.70    4.70
  -2   3   4   13.70    5.40
   2   3  -4   13.80    3.70
  -2  -3  -4    8.90    7.10
  -2  -3   4   10.50    5.20
   2  -3  -4   16.30    3.70
   2  -3  -4   17.30    5.20
  -2  -3   4   20.50    4.00
  -2  -3   4   25.60    6.80
   2  -3  -4   11.30    6.50
  -2   3  -4   20.50    3.60
  -2   3  -4   31.70    8.40
  -2  -3   4    9.10    4.60
   2  -3  -4   16.20    3.40
  -2  -3   4   24.30    7.40
  -2   3  -4   23.10    4.00
  -2   3  -4   24.80    5.90
   2  -3   5    1.90    3.00
   2   3  -5    0.10    5.70
  -2   3   5    2.00    4.50
  -2   3   5    3.40    3.70
  -2   3   5   -0.90    3.70
   2   3  -5    4.10    3.70
   2  -3   5    8.60    5.00
   2   3  -5    6.10    9.70
  -2  -3  -5    6.20    4.50
  -2  -3  -5    3.20    6.30
  -2  -3  -5    2.80    6.40
  -2   3   5    5.80    5.40
   2   3  -5    1.20    2.90
  -2   3  -5    9.90    2.90
  -2   3  -5    7.30    5.20
   2   3   5    3.20    2.80
  -2  -3   5    5.30    4.30
  -2  -3   5    1.50    2.70
  -2  -3   5   -0.20    3.40
  -2   3  -5    2.60    8.30
   2  -3  -5    0.80    7.40
   2  -3  -5   -0.50    2.60
   2  -3  -5   -0.20    6.00
   2  -3  -5    4.00    5.00
  -2  -3   5    6.00    5.40
  -2  -3  -6  120.69    8.70
   2   3  -6  131.49   11.50
   2  -3   6  120.09   10.80
   2   3  -6  127.99   13.90
   2  -3   6  125.39   11.40
  -2   3   6  128.89   12.20
  -2  -3  -6  141.59   14.20
  -2   3   6  131.79   10.80
  -2   3   6  132.89   11.40
   2   3  -6  114.69   10.70
   2  -3   6  134.69   10.50
  -2  -3  -6  142.59   13.80
  -2   3  -6  122.59   11.70
  -2  -3   6  145.19   10.00
  -2   3  -6  129.09   10.50
   2   3   6  132.29   11.00
  -2   3  -6  138.09    9.80
   2  -3  -6  125.59   11.00
  -2  -3   6  132.19   12.50
   2  -3  -6  143.89   10.40
   2  -3  -6  148.99   13.60
  -2   3  -6  135.49   15.40
  -2  -3   6  140.59   10.90
   2  -3  -6  126.19    9.90
   2   3  -7   15.00    7.10
  -2   3   7    3.00    5.00
   2   3  -7   -5.70    4.90
   2   3  -7   10.70    4.70
  -2   3   7    2.60    5.30
  -2  -3  -7   -6.90    6.40
  -2  -3  -7    0.70    7.90
   2  -3   7    1.30    6.60
  -2  -3  -7   -3.10    3.20
  -2   3   7    5.00    6.50
  -2   3  -7    4.10    4.40
  -2  -3   7    1.10    3.90
   2   3   7    2.00    6.50
  -2   3  -7   -4.40    4.80
   2  -3  -7    7.60    9.30
  -2  -3   7    1.00    4.30
  -2   3  -7    4.90    3.80
   2  -3  -7    6.60    4.80
  -2   3  -7   -1.00   10.80
  -2  -3   7   -2.40    4.90
  -2  -3   7    1.40    2.40
  -2  -3   7    7.60    5.00
   2  -3  -7    9.20    4.70
   2  -3  -7    7.60    3.60
   2   3  -8   15.20    6.30
  -2   3   8    2.40    6.90
  -2  -3  -8   -3.10    9.20
   2  -3   8   -4.00    6.20
   2   3  -8    7.50    7.10
  -2   3   8    4.10    7.70
  -2   3  -8   14.50    7.30
   2   3   8    4.80    6.50
   2  -3  -8   12.00    6.60
   2  -3  -8    0.60    4.80
  -2  -3   8   -5.30   11.20
  -2  -3   8    5.70    7.00
  -2   3  -8   10.20    5.40
   3   3   0  321.47   19.50
  -3   3   0  323.37   19.30
  -3  -3   0  316.97   19.10
   3  -3   0  335.47   18.30
  -3   3   0  320.47   20.10
  -3   3   0  347.67   20.20
   3  -3   0  333.17   20.30
   3   3   0  325.37   19.30
   3   3   0  369.46   21.00
  -3  -3   0  336.37   19.80
  -3   3   0  319.07   20.20
   3  -3   0  338.17   19.50
   3   3   0  299.87   19.60
  -3  -3   0  338.77   20.30
   3  -3   0  321.27   20.60
   3  -3   0  321.57   19.70
  -3  -3   0  277.97   20.30
  -3   3   1  267.37   18.40
   3   3  -1  271.67   18.50
  -3  -3  -1  297.17   17.30
  -3   3   1  286.97   18.50
   3   3  -1  309.17   18.30
   3  -3   1  299.27   18.70
  -3  -3  -1  242.48   18.30
  -3  -3  -1  303.07   17.90
  -3   3   1  328.07   18.80
  -3   3   1  299.57   17.90
  -3  -3  -1  307.87   18.40
   3  -3   1  300.27   19.10
   3   3  -1  310.37   19.60
   3   3  -1  278.57   17.90
   3  -3   1  291.87   17.80
   3  -3   1  274.07   17.90
   3  -3  -1  294.77   18.30
   3  -3  -1  297.47   17.60
   3   3   1  307.37   17.40
   3  -3  -1  302.17   18.80
   3  -3  -1  298.07   18.10
   3  -3  -1  278.47   18.70
  -3   3  -1  331.97   18.80
  -3  -3   1  285.37   17.80
   3   3   1  276.27   17.60
  -3   3  -1  280.17   17.60
  -3  -3   1  302.97   18.60
  -3   3  -1  326.77   19.40
  -3  -3   1  298.47   19.10
   3   3   1  296.17   17.50
  -3   3  -1  267.27   18.30
   3   3   1  295.17   18.50
   3   3  -2   36.80    7.70
  -3  -3  -2   30.50    3.90
   3  -3   2   38.60    5.30
  -3  -3  -2   28.70    5.30
   3   3  -2   27.90    5.30
   3  -3   2   44.80    5.60
  -3   3   2   39.20    5.10
  -3   3   2   33.40    6.00
  -3   3   2   42.10    5.10
  -3   3   2   39.90    6.30
   3  -3   2   37.20    4.80
  -3   3   2   27.00    4.80
   3   3  -2   30.50    6.50
   3   3  -2   33.80    5.30
  -3  -3  -2   36.90    4.50
  -3  -3  -2   32.50    5.20
   3  -3   2   38.20    5.80
  -3  -3   2   27.90    5.00
  -3   3  -2   33.60    4.50
   3  -3  -2   36.10    5.40
  -3  -3   2   32.90    6.50
   3   3   2   34.30    3.40
  -3  -3   2   34.20    5.20
   3   3   2   26.40    4.90
  -3   3  -2   34.40    5.00
   3  -3  -2   39.20    5.20
  -3   3  -2   34.80    7.60
   3  -3  -2   39.30    6.10
   3  -3  -2   32.90    6.40
   3   3   2   33.70    4.90
  -3   3  -2   39.70    6.90
  -3  -3   2   37.20    6.70
   3   3  -3  294.87   19.60
  -3  -3  -3  276.47   16.00
  -3   3   3  293.27   18.10
   3  -3   3  260.87   17.30
   3   3  -3  266.57   22.10
  -3   3   3  295.37   18.00
  -3   3   3  306.17   18.50
   3  -3   3  298.27   17.80
   3  -3   3  276.77   17.20
   3   3  -3  255.47   18.30
  -3   3   3  281.87   20.50
  -3   3   3  262.07   18.90
  -3   3   3  300.57   18.90
   3   3  -3  289.77   21.00
  -3  -3  -3  286.57   16.70
  -3  -3  -3  255.27   17.60
   3  -3   3  303.87   18.40
   3  -3   3  323.67   18.70
  -3  -3  -3  300.47   17.80
  -3  -3   3  299.57   19.20
  -3  -3   3  291.77   19.40
   3   3   3  313.17   16.50
  -3  -3   3  286.97   18.40
  -3   3  -3  263.17   17.20
   3  -3  -3  271.97   18.20
  -3  -3   3  301.47   19.60
   3  -3  -3  289.57   18.50
  -3   3  -3  313.17   18.70
   3  -3  -3  281.47   18.80
  -3   3  -3  299.67   18.70
   3  -3  -3  280.57   19.30
  -3   3   4  775.32   43.10
   3  -3   4  756.42   42.20
  -3   3   4  719.43   44.50
   3   3  -4  714.03   45.70
   3  -3   4  675.53   41.90
  -3  -3  -4  733.33   40.10
   3   3  -4  770.52   43.50
  -3  -3  -4  788.52   41.30
  -3   3   4  691.13   41.40
  -3   3   4  774.52   45.90
   3  -3   4  791.82   42.00
  -3  -3  -4  786.82   42.10
  -3   3   4  739.03   41.70
   3   3  -4  776.02   44.60
  -3   3   4  769.12   42.40
   3  -3   4  862.01   42.30
  -3  -3  -4  740.73   45.30
   3   3  -4  685.53   43.00
  -3  -3   4  770.92   43.50
   3   3   4  813.32   39.80
  -3  -3   4  693.73   42.60
  -3  -3   4  807.62   43.80
   3  -3  -4  748.83   42.90
   3   3   4  732.63   39.60
  -3   3  -4  765.72   43.20
   3  -3  -4  780.32   44.60
  -3  -3   4  724.23   44.70
   3  -3  -4  761.42   42.50
  -3   3  -4  791.42   42.70
   3  -3  -4  772.02   43.70
  -3  -3  -5  784.12   45.20
   3   3  -5  840.32   49.60
  -3  -3  -5  922.21   49.80
  -3   3   5  831.12   46.50
  -3   3   5  927.01   48.60
   3   3  -5  879.51   49.70
  -3   3   5  911.01   49.10
   3  -3   5  918.71   48.00
  -3   3   5  791.92   51.09
  -3   3   5  912.51   52.79
  -3  -3  -5  892.91   47.30
  -3  -3  -5  963.80   45.30
  -3  -3  -5  734.63   47.80
   3  -3   5  835.62   48.80
   3  -3   5  754.42   47.50
  -3   3   5  827.42   46.30
   3   3  -5  838.82   50.59
  -3   3  -5 1002.30   52.69
  -3  -3   5  934.71   49.80
   3  -3  -5  855.81   48.80
   3   3   5  904.11   49.20
  -3  -3   5  925.21   49.30
   3  -3  -5  822.22   51.09
  -3  -3   5  830.82   51.49
  -3   3  -5  886.11   48.60
  -3   3  -5  860.71   47.90
   3  -3  -5  864.01   49.90
  -3  -3   5  926.31   50.99
  -3   3  -5  859.21   49.40
   3  -3  -5  878.01   48.80
   3   3  -6   35.50    6.30
  -3   3   6   51.09    5.90
   3  -3   6   45.10    7.60
  -3  -3  -6   54.89    9.80
  -3  -3  -6   39.60    4.40
   3  -3   6   52.99    4.80
   3   3  -6   47.30   10.50
  -3   3   6   53.09    5.20
   3  -3   6   34.00    7.40
   3   3  -6   37.80    6.00
  -3  -3  -6   44.50    8.80
   3  -3  -6   56.99    8.30
  -3  -3   6   45.90    4.90
  -3   3  -6   44.20    5.30
   3  -3  -6   67.49   10.50
  -3   3  -6   45.10   12.10
   3   3   6   61.39    5.70
  -3   3  -6   45.10    4.90
  -3   3  -6   46.40    8.10
  -3  -3   6   57.29    6.20
  -3  -3   6   38.40    5.60
   3  -3  -6   48.50    6.30
  -3  -3   6   42.80    7.20
  -3  -3   6   58.49    6.30
   3   3  -7   13.00    5.90
  -3   3   7   20.60    5.20
  -3   3   7   21.50    6.00
  -3  -3  -7   17.30   10.20
  -3  -3  -7   13.80    8.80
   3   3  -7   39.10   12.90
   3  -3   7   17.20    4.80
  -3   3   7    1.30    9.60
   3   3  -7   23.10    6.10
  -3  -3  -7   18.40    4.20
  -3   3  -7   14.20    4.30
   3  -3  -7    9.00    5.40
  -3   3  -7   12.60    5.00
  -3  -3   7    5.20    5.20
  -3  -3   7   10.30    3.80
  -3  -3   7    6.50    5.20
   3  -3  -7   11.90    4.70
   3   3   7   13.10    4.60
  -3  -3   7    4.70    5.10
  -3   3  -7  -13.60   23.50
   3  -3   8    5.80    6.90
   3   3  -8   12.00    7.50
   3   3  -8   13.30    7.60
  -3   3   8   18.40    7.70
  -3   3   8    6.80    8.90
   3  -3  -8    5.90    7.70
  -3  -3   8    8.50    7.40
  -3   3  -8   14.20    7.00
   3   3   8    1.80    6.50
  -3  -3   8   11.20    7.80
   3  -3  -8   13.40    6.10
  -3   3  -8   11.40    5.70
  -4   3   0 3076.79  170.18
   4   3   0 3211.08  166.38
   4  -3   0 3340.37  166.28
   4  -3   0 3059.29  164.18
   4   3   0 3561.34  173.18
   4  -3   0 3079.79  166.48
  -4  -3   0 3486.05  166.78
   4  -3   0 3109.79  168.08
   4   3   0 3108.29  166.78
  -4   3   0 3290.07  167.58
   4   3   0 3230.28  166.08
  -4   3   0 3069.79  166.08
  -4  -3   0 3388.06  167.58
  -4   3   0 2904.91  167.28
  -4  -3   0 2909.21  165.78
   4  -3   1  365.26   22.70
  -4  -3  -1  389.46   23.20
   4   3  -1  378.66   23.30
  -4  -3  -1  381.76   23.70
   4  -3   1  390.16   24.00
   4  -3   1  407.96   24.80
   4  -3   1  369.36   22.90
   4   3  -1  358.36   23.10
  -4   3   1  396.96   24.10
  -4   3   1  393.96   23.90
  -4   3   1  381.76   22.90
   4   3  -1  391.66   25.10
  -4   3   1  388.66   24.10
  -4  -3  -1  392.26   22.30
   4  -3   1  363.26   20.10
   4   3  -1  322.57   23.60
   4  -3  -1  383.26   22.00
  -4  -3   1  370.86   22.00
   4  -3  -1  381.86   23.20
  -4  -3   1  359.86   22.70
   4   3   1  374.16   22.50
   4  -3  -1  346.07   22.90
  -4  -3   1  351.16   25.10
  -4   3  -1  407.76   24.50
  -4   3  -1  403.06   23.90
   4   3   1  388.86   23.90
  -4   3  -1  367.36   23.70
   4   3   1  388.46   22.50
   4   3   1  370.56   22.60
  -4   3  -1  361.06   22.50
   4  -3  -1  385.16   24.20
  -4  -3   1  377.66   24.30
   4   3  -2   82.69    9.20
   4   3  -2   69.49    7.90
  -4   3   2   73.79    6.80
   4  -3   2   76.19    7.60
  -4   3   2   76.69    8.70
   4  -3   2   66.19    6.80
  -4  -3  -2   70.29    6.20
   4  -3   2   71.99    7.80
  -4  -3  -2   70.89    7.40
  -4   3   2   71.39    8.70
  -4  -3  -2   73.39    5.50
  -4   3   2   74.19    7.70
   4   3  -2   69.59    9.90
   4  -3   2   71.99    5.30
  -4   3   2   74.79    7.30
   4   3  -2   72.39    7.60
   4  -3  -2   72.39    7.90
   4   3   2   80.39    7.40
  -4  -3   2   75.09    7.60
   4  -3  -2   81.19    7.90
  -4   3  -2   69.49    8.00
  -4   3  -2   75.59    9.20
   4  -3  -2   84.09    8.90
  -4  -3   2   78.59    8.40
  -4   3  -2   69.69    6.80
   4  -3  -2   83.89    7.90
   4   3   2   71.69    5.90
  -4   3  -2   86.69   10.00
  -4  -3   2   76.59    9.40
   4   3   2   67.69    7.70
  -4  -3   2   86.19    7.40
   4   3  -3  401.66   24.90
  -4   3   3  329.87   26.10
  -4   3   3  369.96   24.10
   4  -3   3  383.66   23.20
  -4  -3  -3  384.56   23.10
  -4   3   3  416.06   23.90
   4  -3   3  363.76   21.40
   4   3  -3  399.76   26.80
  -4   3   3  388.16   24.50
  -4  -3  -3  354.96   22.40
  -4  -3  -3  386.96   21.70
  -4   3   3  389.06   24.10
   4   3  -3  369.56   25.30
  -4  -3  -3  391.06   22.00
  -4   3   3  404.06   24.40
   4  -3   3  341.27   22.50
   4   3  -3  367.56   24.30
   4   3   3  410.36   22.30
   4  -3  -3  361.16   23.90
  -4  -3   3  375.86   23.90
  -4   3  -3  342.07   22.70
   4   3   3  339.57   21.90
  -4   3  -3  424.86   26.90
  -4  -3   3  385.66   24.40
   4  -3  -3  415.16   24.80
   4  -3  -3  353.86   24.50
   4  -3  -3  417.26   24.50
  -4  -3   3  404.26   25.50
  -4  -3   3  384.46   24.50
  -4   3  -3  403.46   24.20
  -4   3  -3  379.16   24.20
  -4   3   4   25.20    4.10
  -4  -3  -4   29.80    5.50
  -4   3   4   19.50    5.80
  -4  -3  -4   34.70    4.20
  -4   3   4   37.00    4.50
  -4   3   4   31.80    6.20
  -4   3   4   28.00    6.60
  -4  -3  -4   26.80    9.50
   4   3  -4   29.30    8.20
   4  -3   4   26.50    3.50
   4  -3   4   24.10    6.50
  -4   3   4   39.20    8.30
  -4  -3  -4   31.90    3.20
   4   3  -4   27.50    5.90
   4   3  -4   31.70   10.80
   4  -3   4   38.10    4.40
  -4  -3  -4   39.80    7.20
   4  -3   4   26.40    3.70
  -4  -3  -4   26.10    5.80
   4   3  -4   24.20    5.00
  -4  -3   4   36.40    8.30
   4  -3  -4   38.70    7.90
   4  -3  -4   19.40    5.20
  -4   3  -4   32.00    4.00
  -4   3  -4   32.40    4.80
   4   3   4   28.70    4.30
   4  -3  -4   27.00    4.90
  -4  -3   4   21.40    5.90
   4  -3  -4   29.30    8.00
  -4   3  -4   33.50   10.50
  -4  -3   4   29.80    8.30
  -4  -3   4   32.50    4.90
   4   3   4   35.90    5.00
  -4   3  -4   38.30    8.10
  -4   3   5   80.49    8.40
   4  -3   5   71.09    5.90
  -4  -3  -5   67.79    9.30
   4   3  -5   83.59   10.90
  -4   3   5   78.99    9.40
   4  -3   5   69.19    6.00
  -4   3   5   76.29    6.30
  -4  -3  -5   76.79    6.20
  -4  -3  -5   68.69    6.40
   4  -3   5   61.59    6.50
   4  -3   5   61.69    8.10
  -4   3   5   66.39    6.00
  -4  -3  -5   72.39    8.60
   4   3  -5   61.39    6.50
   4   3  -5   47.80   16.70
   4   3  -5   72.89    8.00
  -4  -3   5   70.49    7.90
   4  -3  -5   72.09   10.20
  -4   3  -5   74.69   13.00
   4  -3  -5   60.79    7.20
   4   3   5   74.39    5.20
   4   3   5   79.99    5.50
  -4  -3   5   66.89    6.20
  -4   3  -5   79.79    9.80
  -4   3  -5   60.59    7.30
   4  -3  -5   62.99    7.10
   4  -3  -5   48.20   15.30
  -4  -3   5   83.29   10.20
  -4   3   6    4.40    4.10
  -4  -3  -6   -6.50    8.50
  -4   3   6   -3.70    4.90
   4  -3   6    4.20    3.50
  -4  -3  -6    1.30    3.40
   4   3  -6   10.70    4.70
   4  -3   6   -0.90    5.50
   4   3  -6   -6.20    7.80
  -4   3   6    4.90    2.30
  -4  -3  -6    7.30    6.80
   4  -3  -6    4.10    4.50
  -4   3  -6   -4.90    5.30
  -4  -3   6    3.40    5.00
  -4   3  -6    4.20    4.20
   4  -3  -6   13.40    4.50
   4  -3  -6    8.30    7.00
  -4   3  -6    5.60   11.40
  -4  -3   6   -0.80    6.20
  -4   3  -6   10.00    4.30
  -4  -3   6    4.40    4.40
  -4  -3   6    3.50    5.10
   4   3  -7   -4.70    6.40
  -4   3   7   -3.70    7.40
   4  -3   7    7.90    4.90
  -4  -3  -7    1.90    4.40
   4   3  -7   -0.20    5.80
  -4   3   7   -6.70    6.60
  -4   3   7    2.90    6.30
   4  -3  -7    3.50    6.40
  -4  -3   7    6.00    6.80
   4  -3  -7    4.80    5.60
  -4  -3   7   -9.10    6.40
  -4   3  -7    2.10    4.50
  -4   3  -7    2.90    5.70
  -4  -3   7   -2.70    6.60
  -4  -3   7   -3.20    5.20
  -4   3   8   -1.10    9.80
   4  -3   8    1.70    7.20
  -4   3   8   14.00    8.30
   4   3  -8    4.40    8.90
   4   3  -8    2.60    8.70
  -4   3  -8    0.40    6.00
  -4  -3   8   -4.60    8.70
  -4  -3   8    6.70    9.00
  -4   3  -8    6.90    7.80
   4  -3  -8    1.70    7.20
   4  -3  -8    8.10    9.00
  -5  -3   0 1102.09   64.79
  -5  -3   0 1247.58   67.09
  -5  -3   0 1141.29   62.79
   5   3   0 1135.59   65.89
   5  -3   0 1269.77   67.79
  -5  -3   0 1269.17   66.09
   5  -3   0 1185.68   65.69
   5  -3   0 1204.18   62.49
   5   3   0 1215.18   65.49
  -5   3   0 1135.39   65.09
  -5   3   0 1187.48   66.79
   5  -3   0 1186.98   65.29
  -5   3   0 1306.57   66.59
  -5   3   0 1115.99   66.99
   5   3   0 1200.18   65.19
   5   3  -1  472.25   31.60
  -5   3   1  531.65   32.30
   5   3  -1  528.25   33.10
   5  -3   1  476.85   30.30
  -5  -3  -1  552.44   32.30
   5   3  -1  514.25   31.00
  -5   3   1  549.15   32.10
  -5   3   1  510.55   32.00
   5  -3   1  510.75   30.60
  -5   3   1  500.05   30.50
  -5  -3  -1  496.35   29.90
  -5  -3  -1  527.75   30.90
   5  -3   1  521.35   32.20
   5   3  -1  486.95   30.70
  -5  -3   1  526.95   32.50
  -5   3  -1  547.05   32.50
  -5   3  -1  498.95   31.90
  -5   3  -1  527.95   31.70
  -5  -3   1  526.15   31.80
   5  -3  -1  530.85   31.10
   5   3   1  525.35   30.20
   5  -3  -1  465.95   31.90
   5  -3  -1  525.95   29.10
  -5  -3   1  476.45   30.50
  -5  -3   1  512.75   29.00
   5   3   1  535.65   30.40
   5   3   1  472.45   31.50
   5  -3  -1  482.75   30.80
   5   3   1  526.95   30.80
  -5   3  -1  509.75   30.40
  -5  -3  -2  265.37   18.60
   5  -3   2  227.58   17.20
   5   3  -2  231.98   17.20
  -5   3   2  243.28   18.00
   5   3  -2  219.98   17.70
  -5  -3  -2  225.38   16.50
   5   3  -2  236.38   19.60
   5  -3   2  215.28   15.70
   5  -3   2  234.88   17.00
  -5   3   2  237.38   18.30
  -5  -3  -2  237.08   15.50
  -5   3   2  240.78   17.60
  -5  -3  -2  259.67   16.80
  -5   3   2  226.58   15.60
  -5   3   2  224.68   16.30
   5   3  -2  246.08   18.00
   5  -3  -2  266.07   16.70
   5  -3  -2  214.18   16.70
   5   3   2  243.08   16.20
  -5   3  -2  267.17   19.60
   5  -3  -2  212.88   17.60
  -5  -3   2  227.58   18.50
   5   3   2  235.28   15.40
   5   3   2  248.08   15.30
  -5  -3   2  254.17   18.90
  -5  -3   2  251.77   17.20
  -5   3  -2  212.98   16.20
   5   3   2  234.68   17.10
  -5  -3   2  242.78   15.90
  -5   3  -2  215.28   19.60
   5  -3  -2  244.18   17.90
  -5   3  -2  240.18   17.70
   5  -3   3  109.09    7.00
  -5   3   3  129.59   11.00
  -5   3   3  123.09   10.00
   5   3  -3  101.29   10.20
  -5  -3  -3  115.79   10.90
  -5   3   3  119.29   11.70
  -5  -3  -3  116.69    8.70
  -5  -3  -3  135.89   11.80
  -5   3   3  125.29   10.20
  -5  -3  -3  123.69   10.00
   5   3  -3  110.49   12.80
   5  -3   3  102.79    9.00
   5  -3   3  128.29   10.20
   5   3  -3  111.69   11.20
   5  -3   3  121.29   11.40
  -5   3   3  119.29   12.90
  -5  -3   3  116.79   12.60
   5   3   3  118.59   10.10
  -5   3  -3  107.79    9.60
   5  -3  -3  108.39   10.40
   5  -3  -3  108.89   11.00
   5   3   3   91.19    9.40
   5   3   3  105.89   10.10
  -5  -3   3  119.29   13.10
   5  -3  -3  123.49   12.20
  -5   3  -3  105.99   10.40
   5  -3  -3  126.19   11.40
  -5   3  -3  130.89   14.70
  -5  -3   3  125.39   10.60
  -5   3  -3  121.09   12.50
  -5  -3   3  114.99   10.50
  -5   3   4   46.80    7.50
   5   3  -4   37.00    5.90
   5  -3   4   51.79    5.40
  -5  -3  -4   44.50    4.50
  -5  -3  -4   38.40    6.80
   5  -3   4   40.50    4.40
  -5  -3  -4   48.30    9.30
  -5   3   4   42.00    5.30
   5   3  -4   40.40    6.80
  -5   3   4   42.10    4.80
   5  -3   4   44.70    3.70
  -5  -3  -4   39.40    5.10
   5  -3   4   42.00    8.40
  -5   3   4   41.40    6.30
  -5   3   4   34.10    8.10
   5   3  -4   33.90    9.70
   5  -3  -4   41.10    5.70
   5   3   4   34.70    5.80
  -5   3  -4   46.00    8.20
   5  -3  -4   33.20    9.00
  -5   3  -4   46.00    4.90
   5   3   4   49.60    6.40
  -5   3  -4   43.80   11.70
  -5  -3   4   53.09    8.90
  -5  -3   4   40.60    5.80
   5  -3  -4   50.49    8.70
  -5  -3   4   41.70    6.20
   5  -3  -4   17.20   12.70
  -5   3  -4   36.30    6.10
   5  -3   5   49.80    4.30
  -5  -3  -5   60.99    5.50
   5   3  -5   60.59   10.80
   5   3  -5   59.79    6.00
  -5  -3  -5   60.89    9.90
   5  -3   5   40.30    4.80
  -5   3   5   36.70    5.40
  -5   3   5   48.60    5.40
  -5  -3  -5   43.50    6.70
   5  -3   5   40.00    5.70
   5  -3   5   43.20    4.30
  -5  -3  -5   48.90    4.30
  -5   3   5   55.09    8.40
  -5   3   5   68.09    8.30
  -5   3   5   62.09    5.50
   5   3   5   51.09    5.30
  -5  -3   5   51.19    9.50
  -5  -3   5   49.90    5.40
  -5  -3   5   53.89    6.80
  -5   3  -5   49.10    9.10
   5  -3  -5   51.19   11.20
  -5   3  -5   38.10   11.80
   5   3   5   55.49    5.90
   5  -3  -5   51.59    5.60
  -5   3  -5   56.49    4.90
  -5   3  -5   51.59    6.20
  -5  -3   5   51.89    5.80
   5  -3  -5   50.89    5.80
  -5  -3  -6   17.10    5.00
  -5   3   6    8.20    5.80
   5   3  -6   10.50    5.90
  -5  -3  -6    9.20    8.80
   5   3  -6    0.00    5.40
  -5   3   6    2.30    6.70
   5   3  -6    6.50   10.80
  -5  -3  -6   11.50   11.80
  -5  -3  -6    9.50    2.50
  -5  -3   6    8.60   11.90
  -5   3  -6   11.50    5.10
  -5  -3   6    2.00    5.60
  -5  -3   6   13.40    5.60
  -5   3  -6    9.40    3.80
   5  -3  -6    0.40    6.10
  -5  -3   6    5.50    6.30
   5  -3  -6   -2.80    5.50
  -5   3   7   13.30    7.30
   5   3  -7   29.50    7.80
  -5  -3  -7   22.90    6.70
  -5   3   7    1.50    8.90
   5   3  -7    3.70    7.70
   5  -3  -7   30.80    7.60
  -5  -3   7   12.60    6.60
   5  -3  -7   27.40    7.30
  -5   3  -7   24.20    5.80
  -5  -3   7    4.80    8.40
  -5  -3   7    4.90    7.90
  -5   3  -7   14.80    6.90
  -5  -3   7   17.70    7.30
   6   3   0   36.00    5.10
   6   3   0   36.20   10.10
  -6  -3   0   34.40    8.90
   6  -3   0   32.00    5.90
   6   3   0   33.20    6.30
  -6   3   0   40.90   10.70
  -6  -3   0   35.20    4.00
   6  -3   0   28.10    8.10
  -6   3   0   29.60    6.10
  -6  -3   0   30.70    9.60
  -6   3   0   31.50    5.50
   6  -3   0   28.50    5.60
   6   3  -1  368.66   25.00
  -6  -3  -1  396.36   24.90
   6  -3   1  364.96   23.70
   6  -3   1  352.36   25.10
  -6   3   1  355.16   25.40
  -6   3   1  354.96   25.50
  -6   3   1  354.86   23.70
   6   3  -1  366.96   24.20
  -6   3   1  378.56   25.90
  -6  -3  -1  350.76   24.50
   6   3  -1  373.26   24.80
  -6  -3  -1  351.16   23.00
  -6  -3  -1  406.46   26.50
  -6   3  -1  377.56   26.20
   6   3   1  360.46   23.20
  -6  -3   1  392.06   26.20
   6   3   1  382.76   24.00
  -6   3  -1  396.66   25.90
   6   3   1  357.26   23.70
   6  -3  -1  349.17   24.10
  -6   3  -1  381.66   23.80
  -6  -3   1  365.26   23.80
  -6   3  -1  340.47   24.90
   6  -3  -1  354.26   25.50
  -6  -3   1  372.96   21.50
   6  -3  -1  350.46   24.10
   6   3  -2  488.25   31.30
  -6   3   2  498.65   30.90
   6   3  -2  483.45   32.40
   6   3  -2  483.75   32.00
   6  -3   2  542.15   32.40
  -6   3   2  489.05   32.40
  -6  -3  -2  549.54   33.20
  -6   3   2  466.85   32.00
  -6  -3  -2  485.85   29.50
  -6  -3  -2  489.95   31.40
   6   3  -2  445.26   33.70
  -6  -3  -2  541.75   31.50
  -6   3   2  481.05   32.60
   6  -3   2  472.95   30.10
   6  -3  -2  530.55   30.00
   6  -3  -2  492.45   33.00
  -6   3  -2  476.05   30.10
   6   3   2  489.55   29.40
   6  -3  -2  480.15   31.20
  -6   3  -2  548.95   32.60
  -6   3  -2  513.65   33.60
  -6  -3   2  503.45   29.40
  -6   3  -2  476.85   31.90
   6  -3  -2  519.75   32.10
  -6  -3   2  476.95   30.80
   6   3   2  516.45   30.50
  -6  -3   2  526.65   33.20
   6   3   2  498.25   29.60
   6   3  -3  160.48   17.10
  -6   3   3  170.68   16.10
  -6   3   3  176.78   13.40
  -6   3   3  164.98   14.40
   6  -3   3  182.98   13.20
  -6  -3  -3  174.58   14.50
   6   3  -3  153.68   13.60
   6   3  -3  162.78   14.20
  -6   3   3  159.78   12.80
   6  -3   3  177.78   12.20
  -6  -3  -3  161.38   13.70
  -6  -3  -3  205.78   17.10
  -6  -3  -3  164.68   11.80
  -6   3  -3  171.18   14.10
   6   3   3  157.78   11.10
   6  -3  -3  160.78   13.60
  -6   3  -3  161.38   15.30
  -6  -3   3  185.28   14.50
   6   3   3  153.28   10.60
   6  -3  -3  145.69   15.20
   6  -3  -3  186.18   14.80
  -6   3  -3  167.48   12.30
  -6  -3   3  175.08   13.70
  -6  -3   3  185.08   13.50
  -6   3  -3  170.98   19.10
   6   3   3  179.68   13.80
   6  -3  -3  142.89   12.80
  -6   3   4  101.79   12.70
  -6   3   4  101.69    9.70
  -6   3   4  119.99   10.40
  -6  -3  -4   98.19    9.30
   6  -3   4  113.39    9.20
   6   3  -4  108.19    9.70
   6   3  -4  113.59   10.50
   6   3  -4  137.99   20.10
  -6  -3  -4  123.29    8.20
  -6   3   4  109.99    8.90
  -6  -3  -4  125.49   13.10
  -6   3   4   89.69    9.80
   6  -3   4   97.79    8.00
  -6  -3  -4  102.09   10.70
  -6   3  -4  118.49   13.00
  -6   3  -4  121.39   10.90
  -6   3  -4  130.29    9.00
   6   3   4   92.49   10.10
   6  -3  -4  111.19   13.30
   6  -3  -4  104.49    9.10
   6   3   4  109.79   10.50
   6  -3  -4  112.49   12.70
   6  -3  -4  100.19    9.10
  -6  -3   4   99.99    9.40
  -6  -3   4  117.09    9.50
  -6   3   5    1.10    5.20
  -6  -3  -5    5.80   27.00
  -6   3   5   17.80    5.30
  -6  -3  -5   12.90   10.30
  -6  -3  -5   14.90    3.40
   6   3  -5    9.80    5.40
  -6   3   5    5.90    6.60
  -6   3   5    8.90    5.50
   6   3  -5    7.60    5.80
  -6   3   5    7.70    9.00
  -6  -3   5   15.80    5.10
  -6  -3   5    0.60    5.90
  -6  -3   5    1.90    5.40
   6  -3  -5    2.00    5.10
  -6   3  -5    6.90    7.60
  -6   3  -5    7.00    3.40
   6   3   5   13.50   10.10
  -6   3  -5    6.00    9.10
   6  -3  -5   13.70    5.60
   6  -3  -5    3.60    9.90
   6   3  -6   21.00    7.30
   6   3  -6   30.30    8.50
  -6  -3  -6   14.10    5.90
  -6   3   6   -0.10    8.60
  -6   3   6   17.10    6.70
  -6   3   6    4.10    7.00
  -6  -3   6   15.60    6.80
  -6  -3   6   29.70    8.30
  -6  -3   6    2.20    7.20
   6  -3  -6   16.70    6.40
  -6   3  -6   10.10    6.30
  -6   3   7   12.50    9.00
   6   3  -7   15.40    9.50
   6   3  -7   39.30    9.50
  -6   3   7   -1.10   10.90
  -6  -3   7    3.60    9.50
  -6   3  -7    8.70    9.10
   6  -3  -7   21.30    9.30
  -6   3  -7   31.10    7.10
  -6  -3   7   -1.50   10.40
  -6  -3   7   19.70    8.50
  -7   3   0    2.40    9.40
  -7  -3   0    3.70    8.60
   7   3   0    0.30    3.90
   7  -3   0    9.30    4.40
  -7   3   0   -1.20    3.60
   7   3   0    2.30   10.50
   7  -3   0    8.40    3.30
  -7  -3  -1  239.38   22.20
   7  -3   1  299.27   19.50
  -7   3   1  267.17   23.90
   7  -3   1  284.97   20.70
  -7   3   1  270.37   19.20
  -7  -3  -1  280.17   20.50
  -7  -3  -1  302.07   22.50
  -7   3   1  345.27   30.80
   7   3  -1  304.47   20.60
   7   3  -1  287.27   19.70
   7  -3  -1  277.27   19.80
  -7  -3   1  275.17   22.40
  -7  -3   1  242.28   23.40
  -7   3  -1  256.37   19.80
   7   3   1  292.07   18.60
  -7  -3   1  246.58   24.20
  -7   3  -1  310.37   22.70
   7  -3  -1  232.78   22.70
   7   3   1  266.77   19.50
  -7  -3   1  283.17   16.50
   7   3  -2  143.29   11.60
  -7  -3  -2  143.99   11.80
   7   3  -2  138.79   12.20
  -7   3   2  141.69   12.10
   7  -3   2  128.39   10.70
   7  -3   2  138.09   12.00
  -7  -3  -2  145.09   10.80
  -7  -3  -2  132.69   13.70
  -7   3   2  146.59   11.20
  -7  -3   2  115.49   11.60
  -7  -3   2  141.79   11.60
  -7   3  -2  143.19   11.00
   7   3   2  134.99   11.00
  -7   3  -2  116.49   12.00
  -7   3  -2  156.88   16.60
   7   3   2  142.99   10.40
   7  -3  -2  122.59   11.50
  -7  -3   2  128.19    9.80
   7  -3  -2  131.19   12.00
   7  -3   3   11.20   10.00
  -7  -3  -3   32.60    4.80
   7   3  -3   37.00    5.70
  -7  -3  -3   24.90    8.20
   7  -3   3   24.90    5.00
  -7   3   3   21.20    5.30
  -7  -3  -3   31.10    4.40
   7  -3   3   40.80    5.20
  -7   3   3   27.60    6.10
  -7  -3   3   42.00    5.10
  -7   3  -3   20.40    4.90
   7   3   3   28.50    5.20
   7  -3  -3   30.90    5.60
   7  -3  -3   34.60    5.80
  -7   3  -3   21.30    9.30
  -7  -3   3   24.40    5.20
   7   3   3   35.30    4.10
  -7   3  -3   33.70    4.40
  -7  -3   3   19.60    5.20
  -7   3   4   28.30    5.80
   7  -3   4   16.60    5.30
  -7  -3  -4   32.80    6.10
   7   3  -4   18.90    6.00
  -7  -3  -4   23.90    4.50
   7   3  -4   19.50    5.90
   7  -3   4   28.90    5.80
  -7   3  -4   21.20    4.30
  -7  -3   4   12.40    5.60
  -7   3  -4   15.40    5.60
   7  -3  -4   24.30    7.10
  -7   3  -4   21.30   17.30
   7   3   4   11.30    4.70
  -7  -3   4   25.30    6.70
   7  -3  -4   17.60    5.70
   7   3  -5   16.20    7.50
  -7   3   5   11.60    8.40
  -7  -3  -5   15.00    3.80
  -7   3   5   15.70    6.80
   7   3  -5   20.10    7.00
  -7   3   5    7.20    6.80
  -7   3   5   12.80    6.20
  -7  -3  -5   21.40    7.60
  -7  -3   5    9.80    6.90
   7  -3  -5   19.00    6.80
  -7   3  -5   19.10    4.70
  -7  -3   5   14.70    6.10
  -7   3  -5   13.30    6.60
  -7  -3   5   24.70    7.20
  -7  -3  -6    6.50    8.00
  -7   3   6   -3.10   11.00
   7   3  -6    1.60    9.60
   7   3  -6    6.60    8.40
  -7   3   6    6.80    7.90
  -7   3   6   -8.00    8.80
  -7   3   6    2.10    7.90
  -7   3  -6   11.70    8.70
  -7  -3   6   -7.30    8.80
   7  -3  -6    4.50    8.20
  -7  -3   6    0.90    8.70
   7  -3  -6    5.70    9.50
   8   3   0   50.09    6.70
  -8  -3   0   52.79   13.80
  -8  -3   0   55.99    6.10
  -8  -3   0   38.10    5.60
  -8   3   0   45.20    6.00
   8  -3   0   56.09    7.90
   8   3   0   49.10    6.10
  -8   3   0   44.50    6.00
   8   3  -1   17.70    5.90
   8  -3   1    8.80    6.20
  -8  -3  -1    6.70    4.40
  -8   3   1    3.20    5.50
   8   3  -1   13.70    9.20
  -8  -3  -1    6.00    5.70
  -8  -3  -1    7.30   11.30
  -8   3   1    9.00    5.00
  -8   3  -1    0.50    4.60
   8  -3  -1    8.00    5.80
  -8   3  -1    3.40    5.40
   8   3   1   -6.00   20.60
   8   3   1    0.20    5.30
  -8  -3   1   14.10    4.80
  -8  -3   1    6.90    5.20
   8   3   1    0.70    5.40
   8   3  -2   19.60    6.40
   8  -3   2   23.50    6.30
  -8   3   2   18.70    6.00
   8   3  -2   23.50    6.10
  -8  -3  -2   23.10    5.80
  -8  -3  -2   20.10    5.50
  -8   3   2   18.80    5.60
  -8  -3  -2   15.00   14.60
   8  -3   2   16.40    6.00
   8   3   2   33.50    7.20
  -8  -3   2    9.50    6.10
  -8   3  -2   24.20   13.40
   8  -3  -2   25.50    6.40
  -8  -3   2   30.40    4.60
   8   3   2   22.70    5.70
   8   3   2    4.50   15.90
   8  -3  -2   26.10    6.80
  -8  -3   2   22.50    5.90
  -8   3  -2   26.40    5.90
   8  -3   3    7.20    6.10
   8  -3   3   10.40    6.10
   8   3  -3   12.10    6.70
  -8  -3  -3   11.00    4.80
  -8   3   3   13.20    6.70
   8   3  -3   21.70    6.90
  -8  -3  -3   10.70    6.70
   8  -3  -3   19.40    6.60
  -8  -3   3    5.30    4.90
  -8   3  -3    8.80    6.50
  -8   3  -3    9.60    4.80
   8   3   3   20.90    6.20
   8   3   3   11.40    4.90
   8  -3  -3    6.50    6.50
  -8  -3   3   14.00    6.60
  -8   3   4    8.50    9.00
  -8  -3  -4   23.20    5.60
   8   3  -4   32.50    8.40
  -8  -3  -4   16.60    7.80
   8  -3   4   21.70    7.00
  -8   3   4   21.30    8.20
   8   3  -4   22.50    8.10
   8  -3  -4   19.80    7.40
  -8   3  -4   15.70    5.80
  -8  -3   4    4.50    7.50
   8  -3  -4   20.50    7.80
  -8  -3   4   19.00    8.20
  -8   3  -4   35.30    7.50
  -8   3   5    2.90    9.20
   8   3  -5   17.40    9.40
  -8   3   5    0.60   11.30
  -8  -3  -5    4.60    5.30
  -8  -3  -5    2.10    8.50
  -8  -3   5   -0.60   10.00
  -8   3  -5   11.10    8.90
   8  -3  -5   27.50    8.80
  -8  -3   5   22.00    7.90
  -9  -3   0   20.10    7.40
   9  -3   0   17.50    8.30
   9  -3   0   15.10    7.60
   9   3   0   21.70    7.70
  -9  -3   0   12.00    6.10
  -9   3   0   21.60    6.80
  -9   3   0    2.80    6.30
   9   3   0   12.20    7.20
  -9  -3  -1   -5.80    6.40
   9   3  -1    8.60    7.60
  -9   3   1   12.00    7.50
  -9  -3  -1    2.10    7.90
   9  -3   1    9.90    7.80
  -9   3   1    8.00    6.80
   9  -3   1    1.10    7.80
   9   3  -1    5.10    8.10
  -9  -3   1    7.20    7.70
  -9   3  -1    3.10    6.10
  -9  -3   1   -3.40    6.40
   9  -3  -1   14.90    8.00
  -9   3  -1    1.90    7.30
   9  -3  -1   12.80    8.20
   9   3   1    3.20    7.60
   9   3   1   14.90    7.50
   9   3  -2   15.00    8.30
  -9  -3  -2   -3.30    5.70
   9  -3   2    4.80    7.90
   9  -3   2    6.40    8.40
   9   3  -2   -8.00    8.70
  -9   3   2   -2.80    7.50
  -9   3   2   17.30    8.10
  -9  -3  -2   11.30    8.40
  -9  -3   2   -0.80    8.20
   9  -3  -2    9.40    8.90
   9   3   2   15.50    9.50
   9  -3  -2   14.60    8.40
  -9  -3   2   -7.20    7.30
  -9   3  -2    1.40    8.30
  -9   3   3    6.40    8.50
  -9  -3  -3   38.50    8.80
  -9  -3  -3   19.40    6.00
   9   3  -3   28.10    9.30
  -9   3   3   18.30    9.50
  -9  -3   3   21.90    9.00
   9  -3  -3   39.10    9.70
  -9   3  -3   37.30    9.00
  -9   3  -3   22.90    7.30
  -9  -3   3   11.80    8.30
  -9  -3  -4    4.50   10.80
  -9   3   4   13.40   10.30
  -9  -3  -4   11.60    6.60
  -9   3   4    0.70   10.20
  -9  -3   4    1.40   10.20
  -9   3  -4   25.80   10.20
  -9  -3   4    1.00   10.10
  -9   3  -4   27.30    7.90
  10   3   0    9.80   12.30
  10  -3   0   -3.40   11.30
  10   3   0   14.50   10.90
  10  -3   0    8.00   10.50
   0  -4   0 2991.90  151.78
   0   4   0 2979.40  151.58
   0  -4   0 2861.31  152.48
   0  -4   0 3044.60  151.38
   0   4   0 3039.60  151.58
   0   4   0 2870.41  151.68
   0  -4   0 2816.22  151.68
   0  -4  -1  366.96   19.80
   0  -4   1  343.87   20.30
   0  -4   1  361.26   21.00
   0   4   1  390.66   20.00
   0  -4   1  412.16   22.30
   0  -4  -1  371.56   20.00
   0  -4  -1  373.06   20.10
   0   4  -1  397.86   20.90
   0   4  -1  337.27   20.60
   0  -4  -1  351.06   19.70
   0  -4  -2 1484.35   80.29
   0  -4  -2 1582.44   79.49
   0  -4  -2 1414.06   77.19
   0   4  -2 1657.63   78.99
   0  -4   2 1520.95   79.19
   0   4   2 1581.24   77.39
   0  -4   2 1569.64   78.89
   0  -4  -2 1366.16   77.49
   0   4   2 1438.86   77.19
   0  -4   2 1486.85   78.69
   0   4   2 1552.84   79.49
   0   4  -2 1394.16   78.59
   0   4  -2 1457.05   79.29
   0   4  -3 4026.50  204.08
   0  -4   3 3935.21  201.68
   0   4   3 3914.01  202.98
   0  -4   3 3581.14  204.28
   0  -4  -3 3418.46  202.98
   0   4  -3 3626.04  202.28
   0  -4  -3 3802.72  199.78
   0  -4   3 4161.88  203.58
   0   4  -3 4258.57  202.08
   0  -4  -3 3965.70  203.58
   0   4  -3 3910.91  201.88
   0  -4   3 4194.28  202.18
   0  -4   4   25.50    4.20
   0   4  -4   24.90    4.30
   0   4  -4   25.10    8.40
   0  -4   4   29.60    5.30
   0   4  -4   20.40    3.90
   0   4   4   27.00    2.70
   0  -4   4   24.10    5.20
   0  -4  -4   28.60    6.60
   0  -4  -4   26.70    2.40
   0   4   4   27.20    2.80
   0  -4   4   32.30    4.40
   0  -4  -4   26.20    3.30
   0   4  -4   22.00    5.80
   0  -4  -4   23.10    6.70
   0   4   4   25.90    5.00
   0  -4  -4   24.60    3.20
   0  -4   5   58.29    6.60
   0   4   5   44.90    3.90
   0  -4  -5   42.70    8.80
   0   4  -5   35.80   10.60
   0   4  -5   40.60    5.50
   0  -4   5   41.90    4.90
   0  -4  -5   48.50    3.60
   0   4  -5   47.60    5.70
   0  -4   5   45.70    7.20
   0   4  -5   50.79    7.30
   0   4   5   39.50    6.30
   0  -4  -5   50.89    9.90
   0  -4  -5   46.40    4.20
   0  -4  -5   45.00    5.90
   0  -4   6  580.94   35.20
   0  -4   6  561.24   31.30
   0  -4  -6  540.75   30.30
   0  -4  -6  529.25   35.50
   0   4   6  558.44   34.80
   0   4  -6  521.45   32.90
   0   4  -6  559.84   32.10
   0  -4   6  502.35   30.20
   0  -4  -6  540.35   28.90
   0  -4   6  535.65   31.80
   0   4   6  527.55   28.30
   0   4  -6  545.05   32.50
   0  -4  -6  546.45   34.90
   0   4  -7  140.19   12.50
   0  -4   7  138.89   10.20
   0  -4  -7  137.49    7.80
   0   4  -7  140.39   11.50
   0   4  -7  162.88   11.00
   0  -4   7  146.89   12.30
   0  -4  -7  140.59    7.90
   0  -4  -7  137.79   10.00
   0   4   7  139.39   11.80
   0  -4  -8   -5.50    5.30
   0   4   8    1.80    6.40
   0   4  -8    2.70    5.90
   0   4  -8    1.10    6.60
   0  -4   8   -5.40    6.70
   0  -4   9    6.60    9.60
   0   4   9   16.40    9.20
   0   4  -9   20.30    8.20
   0   4  -9    4.80    9.60
   1  -4   0  301.97   16.50
  -1   4   0  268.87   15.40
  -1   4   0  224.38   15.70
   1  -4   0  282.37   15.30
  -1   4   0  310.27   16.30
   1  -4   0  282.87   16.00
  -1   4   0  252.27   16.00
   1  -4   0  250.87   15.60
   1   4   0  258.77   15.40
   1   4   0  285.67   15.50
   1   4   0  257.97   15.20
  -1  -4   0  255.67   15.20
  -1  -4   0  271.37   15.60
   1  -4   0  259.57   15.50
  -1  -4   0  251.17   15.20
  -1   4   0  276.27   15.60
  -1  -4  -1  682.43   42.50
  -1   4   1  757.62   42.20
  -1  -4  -1  754.22   44.50
  -1   4   1  810.82   42.20
  -1   4   1  838.22   42.40
   1   4  -1  723.23   43.20
   1   4  -1  759.72   42.70
   1  -4   1  812.12   42.50
  -1   4   1  816.52   42.20
  -1  -4  -1  883.71   42.20
  -1  -4  -1  757.42   41.60
   1   4  -1  784.52   44.20
  -1  -4  -1  743.53   41.70
  -1  -4  -1  922.01   42.30
   1  -4   1  736.63   42.90
   1   4  -1  799.12   42.70
  -1   4   1  698.73   43.80
   1  -4   1  848.72   42.80
  -1   4  -1  837.02   42.80
   1  -4  -1  850.81   43.10
  -1   4  -1  854.71   44.10
  -1   4  -1  731.23   42.30
  -1  -4   1  883.21   44.40
   1   4   1  808.42   41.60
  -1  -4   1  787.62   42.70
   1  -4  -1  781.12   42.40
   1  -4  -1  797.02   43.90
   1  -4  -1  841.92   42.80
   1  -4  -1  816.22   42.40
  -1   4  -1  728.83   43.00
   1  -4  -1  816.92   42.10
  -1  -4   1  863.21   43.30
  -1  -4   1  838.02   42.80
  -1   4  -1  743.93   42.00
  -1  -4  -2 3173.28  164.88
  -1   4   2 3167.48  165.68
  -1   4   2 3483.85  164.08
   1   4  -2 2975.80  164.78
   1  -4   2 3347.96  164.38
  -1   4   2 3093.59  163.68
   1  -4   2 3652.23  166.38
   1   4  -2 2795.92  165.08
   1   4  -2 3331.57  164.88
   1  -4   2 3083.39  164.88
   1  -4   2 3194.38  164.48
   1   4  -2 2773.92  166.08
   1  -4  -2 3427.16  166.58
  -1  -4   2 3206.48  164.88
  -1   4  -2 2887.51  164.98
  -1  -4   2 3228.88  165.28
  -1  -4   2 3118.39  164.68
   1  -4  -2 3301.57  164.08
   1  -4  -2 3021.30  163.88
   1  -4  -2 3091.99  163.78
  -1   4  -2 3403.46  164.78
   1  -4  -2 3139.69  165.28
   1  -4  -2 2774.62  163.88
  -1   4  -2 3656.63  166.68
  -1  -4  -3  706.63   38.50
   1  -4   3  626.34   38.40
   1   4  -3  588.44   38.00
   1   4  -3  691.53   38.00
   1   4  -3  640.14   37.70
  -1   4   3  665.63   39.00
  -1   4   3  703.73   36.50
  -1   4   3  737.73   36.70
   1  -4   3  653.43   38.30
   1  -4   3  654.73   37.20
   1  -4   3  715.03   37.90
   1   4   3  666.73   38.30
  -1  -4   3  655.13   37.60
  -1  -4   3  719.63   39.30
  -1  -4   3  744.73   39.10
  -1   4  -3  629.54   37.30
   1  -4  -3  692.63   39.00
  -1  -4   3  707.43   38.30
   1  -4  -3  697.13   36.70
   1  -4  -3  696.83   36.80
  -1  -4   3  680.63   37.90
   1  -4  -3  668.63   37.40
  -1   4  -3  696.83   37.70
   1  -4  -3  684.73   36.50
   1  -4  -3  747.53   39.90
  -1   4  -3  642.54   38.00
   1  -4   4   67.59    6.50
  -1  -4  -4   59.69    8.50
   1  -4   4   70.39    7.20
   1   4  -4   63.29    6.80
   1  -4   4   71.49    6.80
  -1   4   4   61.59    7.90
   1   4  -4   70.19    8.90
  -1  -4  -4   51.09    8.50
   1  -4   4   77.79    6.70
  -1   4   4   67.29    7.50
   1  -4   4   71.59    7.50
   1   4  -4   61.09    6.50
   1  -4  -4   63.29    6.20
  -1   4  -4   74.69   10.60
   1   4   4   58.19    7.00
   1  -4  -4   72.39    5.60
  -1   4  -4   63.49    6.20
  -1  -4   4   72.89    7.90
   1  -4  -4   65.89    5.90
  -1  -4   4   74.49    7.70
  -1  -4   4   69.29    5.90
   1  -4  -4   71.69    9.30
  -1  -4   4   66.69    6.30
   1  -4  -4   56.49    8.50
  -1  -4   4   51.79    6.50
  -1   4  -4   75.09    7.80
  -1  -4   4   63.59    7.50
  -1   4  -4   68.49    6.60
  -1   4   5  938.01   48.20
  -1  -4  -5 1038.70   52.89
   1  -4   5  940.81   51.99
   1  -4   5  874.21   49.10
  -1  -4  -5  927.81   51.79
   1  -4   5  808.52   48.80
   1   4  -5  892.61   51.09
   1   4  -5  944.61   50.59
  -1   4   5  782.62   51.79
   1  -4   5  929.61   49.00
   1   4  -5  865.71   50.09
  -1  -4  -5  840.42   47.30
   1  -4   5  871.81   48.70
   1  -4  -5  930.01   49.10
  -1   4  -5  907.11   49.80
  -1   4  -5  877.81   50.49
   1  -4  -5  799.82   47.90
  -1  -4   5  893.31   50.09
   1  -4  -5  905.81   52.29
  -1  -4   5  911.71   49.70
  -1  -4   5  889.91   49.50
  -1   4  -5  896.11   49.60
   1   4   5  901.61   51.69
  -1   4  -5  972.40   53.79
  -1  -4   5  918.21   52.69
   1  -4  -5  904.21   48.30
  -1   4   6  137.59    9.50
  -1   4   6  136.99    9.60
   1  -4   6  135.79   12.50
   1   4  -6  131.09   10.10
  -1  -4  -6  130.79   14.00
   1  -4   6  127.49    9.40
   1   4  -6  127.59   11.40
   1  -4   6  125.79   11.00
   1  -4   6  125.99    8.60
  -1  -4  -6  142.89   15.60
  -1  -4  -6  136.29    8.80
   1   4  -6  128.39   12.00
  -1   4   6  139.09   12.20
  -1   4  -6  139.39   10.60
   1  -4  -6  115.59    9.60
  -1  -4   6  129.79   12.00
  -1   4  -6  130.09   11.20
  -1  -4   6  129.19   13.30
  -1   4  -6  115.19   15.80
  -1  -4   6  133.89    9.40
  -1   4  -6  134.09   12.10
   1  -4  -6  159.58   12.30
   1  -4  -6  139.39    9.90
   1  -4  -6  132.19    9.10
   1   4   6  133.29   12.00
  -1  -4   6  126.89   10.50
  -1   4   7   27.10    5.50
  -1  -4  -7   32.90    3.90
   1   4  -7   32.20    4.60
  -1   4   7   44.00    5.70
   1  -4   7   27.20    5.00
   1   4  -7   42.50    7.60
  -1  -4  -7   44.30   10.60
   1  -4   7   44.80    5.30
  -1  -4  -7   28.80    9.60
   1   4  -7   39.20    5.70
  -1  -4   7   27.70    4.20
   1  -4  -7   27.20    3.70
  -1   4  -7   38.10    5.40
   1   4   7   35.00    5.20
  -1  -4   7   33.40    4.60
  -1   4  -7   38.10   14.50
   1  -4  -7   21.70    4.90
  -1   4  -7   41.10    7.40
   1  -4  -7   40.50    4.60
   1  -4  -7   32.50    9.00
  -1  -4   7   31.80    4.10
  -1   4  -7   39.20    5.70
  -1  -4  -8    1.90    6.90
  -1   4   8    5.80    6.30
   1   4  -8    9.10    5.90
   1  -4   8    0.00    6.40
   1   4  -8   11.70    7.10
   1   4   8   -1.00    6.60
   1  -4  -8    2.30    3.30
   1  -4  -8    6.60    6.00
  -1  -4   8    3.70    6.80
  -1   4  -8    2.30    5.50
  -1   4  -8    6.20    6.40
   1   4  -9    5.20    8.90
   1  -4   9    1.70    9.40
   1   4  -9    5.00   10.10
  -1   4   9    6.90   10.20
   1   4   9   16.40    9.20
  -1   4  -9    6.30    9.60
  -1   4  -9    5.50    8.10
  -1  -4   9    4.40   10.60
  -2  -4   0   20.40    3.30
   2  -4   0   18.70    3.60
  -2  -4   0   19.20    3.80
  -2  -4   0   21.90    4.00
  -2   4   0   25.00    4.50
   2   4   0   22.00    3.60
   2   4   0   19.70    4.20
  -2   4   0   24.00    3.60
   2  -4   0   21.90    4.00
   2  -4   0   25.80    4.40
   2   4   0   19.10    5.00
  -2   4   0   19.40    3.60
   2   4   0   17.70    3.70
  -2  -4   0   20.90    3.90
   2  -4   0   21.10    4.10
  -2   4   0   24.90    4.30
  -2  -4  -1 3453.65  171.18
  -2   4   1 3807.32  171.98
   2  -4   1 3774.02  173.28
   2  -4   1 3321.27  172.08
   2   4  -1 3502.55  171.68
  -2   4   1 3039.60  171.08
  -2   4   1 2932.11  173.08
  -2   4   1 3362.06  171.78
   2   4  -1 3327.57  172.38
   2   4  -1 3363.86  173.48
   2  -4   1 3262.07  171.28
  -2   4   1 3422.76  171.88
  -2  -4  -1 3606.94  171.88
  -2  -4  -1 3034.80  170.68
   2  -4   1 3217.58  171.58
   2   4  -1 3268.67  171.78
  -2  -4  -1 3161.38  170.58
  -2   4  -1 2944.91  171.88
   2   4   1 3129.19  170.68
  -2  -4   1 3199.58  172.58
  -2   4  -1 3533.95  171.88
   2  -4  -1 3139.89  171.18
  -2  -4   1 3494.55  171.78
  -2  -4   1 3606.64  172.68
   2   4   1 3410.36  170.68
   2  -4  -1 3246.08  171.58
  -2   4  -1 3205.48  171.38
   2   4   1 2971.90  170.38
   2  -4  -1 3349.47  171.78
  -2  -4   1 3402.96  171.68
   2  -4  -1 3255.17  171.88
   2   4   1 3623.64  171.18
  -2   4  -1 3197.78  172.68
   2  -4  -1 3132.29  172.08
  -2  -4  -2 1728.53   88.39
   2  -4   2 1939.21   90.39
  -2   4   2 1842.22   88.79
  -2  -4  -2 1543.65   86.79
  -2   4   2 1705.63   90.79
   2  -4   2 1694.73   89.09
  -2   4   2 1659.53   89.59
  -2  -4  -2 1490.65   86.89
  -2  -4  -2 1919.81   91.89
  -2   4   2 1673.43   89.59
  -2  -4  -2 1623.64   87.29
   2  -4   2 1615.24   88.19
   2   4  -2 1460.05   90.39
  -2   4   2 1616.74   88.19
   2   4  -2 1645.64   88.99
  -2   4   2 1793.12   88.39
   2   4  -2 1794.22   89.09
   2   4  -2 1673.03   89.79
   2  -4   2 1648.24   88.49
   2  -4  -2 1732.93   89.39
   2  -4  -2 1593.24   88.39
   2  -4  -2 1675.03   88.19
  -2   4  -2 1803.92   88.99
  -2   4  -2 1661.63   89.29
  -2  -4   2 1791.92   89.79
   2   4   2 1491.25   86.89
   2  -4  -2 1460.85   88.59
  -2   4  -2 1547.55   88.19
  -2  -4   2 1809.12   90.49
   2  -4  -2 1679.03   88.69
  -2  -4   2 1721.63   89.09
   2   4   2 1648.54   86.89
  -2  -4   2 1644.04   88.79
  -2   4  -2 1946.81   90.89
  -2  -4  -3 2279.57  115.09
   2  -4   3 2048.50  114.19
  -2  -4  -3 1884.71  111.99
  -2   4   3 2121.49  117.49
  -2   4   3 2191.58  116.19
  -2   4   3 2275.77  114.29
   2   4  -3 2322.77  115.39
   2   4  -3 2202.18  116.19
   2  -4   3 2389.06  115.19
  -2   4   3 2256.97  114.49
   2  -4   3 2195.28  114.29
  -2  -4  -3 2128.89  112.69
  -2   4   3 2016.10  113.29
   2  -4   3 2315.97  115.09
   2   4  -3 2093.59  115.19
  -2   4   3 1891.51  114.19
   2  -4  -3 2225.98  114.79
  -2   4  -3 2186.88  115.49
   2  -4  -3 2142.29  114.09
  -2   4  -3 2143.09  114.29
   2  -4  -3 2311.67  116.19
  -2  -4   3 2317.07  115.49
   2  -4  -3 2171.38  114.49
  -2   4  -3 2307.57  114.99
  -2  -4   3 2081.49  114.79
  -2  -4   3 2202.08  116.79
   2  -4  -3 2360.66  115.19
  -2   4   4  934.51   49.20
   2  -4   4  925.71   50.49
   2  -4   4  961.00   49.50
   2  -4   4  905.51   49.10
   2   4  -4  940.91   50.49
   2   4  -4  817.72   49.90
   2   4  -4  825.42   50.79
  -2   4   4  868.31   51.59
   2  -4   4 1045.40   50.29
  -2   4   4  947.01   49.40
  -2  -4  -4  930.51   50.69
   2  -4   4  855.11   48.90
  -2  -4  -4  793.32   47.30
  -2  -4   4  828.72   51.89
  -2   4  -4  903.91   50.39
   2  -4  -4  885.71   49.10
  -2   4  -4 1019.40   52.79
  -2  -4   4  897.51   50.39
   2   4   4  898.51   50.19
  -2   4  -4  944.81   49.80
  -2  -4   4  914.81   50.39
   2  -4  -4  866.01   51.29
  -2   4  -4  867.21   49.20
  -2  -4   4  873.41   49.70
   2  -4  -4  893.61   49.00
   2  -4  -4  908.81   49.80
  -2   4   5  174.68   13.00
  -2  -4  -5  170.98   11.20
   2  -4   5  175.58   13.00
   2  -4   5  195.68   11.80
  -2  -4  -5  181.28   15.10
   2   4  -5  170.88   14.00
   2   4  -5  170.78   13.40
  -2   4   5  161.08   14.80
   2  -4   5  170.48   12.00
   2  -4   5  198.28   14.10
   2  -4   5  180.48   12.20
   2   4  -5  161.28   18.40
  -2   4   5  179.98   12.90
  -2  -4   5  198.28   13.20
  -2   4  -5  191.48   14.00
  -2   4  -5  160.58   12.40
  -2   4  -5  197.78   18.00
   2  -4  -5  138.29   17.80
  -2  -4   5  183.88   15.30
  -2  -4   5  186.48   12.90
  -2  -4   5  184.18   14.60
   2  -4  -5  173.28   12.40
   2   4   5  187.28   13.90
   2  -4  -5  182.68   13.10
  -2   4  -5  180.98   13.30
   2  -4  -5  177.28   12.80
  -2  -4   5  184.38   13.90
  -2  -4  -6   32.70    3.00
   2   4  -6   20.20   13.60
  -2  -4  -6   26.40    8.20
  -2   4   6   26.20    6.30
   2   4  -6   25.40    4.60
  -2  -4  -6   21.80    6.20
   2  -4   6   33.80    6.80
   2  -4   6   22.50    3.80
  -2   4   6   23.30    5.40
  -2   4   6   26.50    5.80
   2  -4   6   32.80    4.50
   2   4  -6   27.30    7.70
  -2  -4  -6   31.00    8.70
  -2   4   6   27.30    6.30
   2   4  -6   33.80    5.00
   2  -4  -6   30.50    4.20
   2  -4  -6   33.80    4.10
  -2   4  -6   33.20    8.20
  -2   4  -6   21.00    9.90
  -2  -4   6   24.40    4.50
   2   4   6   27.20    4.40
  -2   4  -6   29.70    4.90
   2  -4  -6   42.00    9.10
   2  -4  -6   22.50    6.00
  -2   4  -6   30.70    4.50
  -2  -4   6   33.70    3.90
  -2  -4   6   37.10    6.60
   2  -4   7    2.00    9.30
  -2   4   7    0.10    6.40
  -2  -4  -7    2.20    3.10
   2   4  -7    4.60    6.70
  -2  -4  -7    4.20    8.70
   2  -4   7    3.60    4.40
  -2   4   7   -1.20    5.90
  -2   4   7    7.00    5.20
  -2   4  -7   -9.20   20.20
  -2  -4   7    3.70    5.20
  -2   4  -7    6.90    4.20
   2  -4  -7    6.80    3.60
   2   4   7   11.00    4.80
  -2  -4   7    2.50    6.00
   2  -4  -7   12.00    6.40
   2  -4  -7   -4.00    4.60
   2  -4  -7   13.70    9.10
  -2  -4   7    5.20    5.00
  -2  -4   7    2.50    3.50
  -2   4  -7    0.60    4.70
  -2   4   8   12.70    8.40
  -2   4   8   -3.20    7.10
   2  -4   8    3.70    6.40
   2   4  -8    5.20    6.40
   2   4  -8   -8.60    7.50
  -2   4  -8    7.40    6.90
  -2   4  -8    6.00    5.70
   2  -4  -8   14.60    4.60
  -2  -4   8  -11.40    7.40
   2   4   8   -2.40    7.00
   2  -4  -8    1.50    6.60
   3  -4   0 3206.58  175.78
   3  -4   0 3084.49  173.18
  -3  -4   0 3193.38  173.88
   3   4   0 2925.41  174.38
   3   4   0 3385.26  174.28
  -3   4   0 3392.06  175.28
  -3   4   0 3263.67  174.18
   3  -4   0 3552.04  174.88
   3  -4   0 3523.05  174.28
   3  -4   0 3428.76  175.28
  -3  -4   0 3691.13  175.98
  -3  -4   0 3489.55  174.38
   3   4   0 3490.25  174.18
  -3   4   0 2906.61  174.78
   3   4   0 3506.65  175.98
  -3   4   0 3711.43  175.08
  -3   4   1 3081.19  155.48
   3  -4   1 2973.90  156.18
  -3   4   1 3174.78  156.18
  -3   4   1 2981.80  156.18
  -3  -4  -1 3221.68  156.38
   3   4  -1 2942.21  155.68
  -3  -4  -1 2853.91  154.78
   3  -4   1 3044.90  157.08
  -3  -4  -1 3192.18  155.78
  -3   4   1 3138.99  156.18
   3  -4   1 2850.81  155.88
  -3  -4  -1 2871.01  154.48
   3  -4   1 2956.30  155.58
   3   4  -1 2880.41  157.38
   3   4  -1 2735.73  156.38
   3   4  -1 3186.98  155.68
   3   4   1 2673.63  154.68
   3  -4  -1 2619.24  156.18
   3  -4  -1 2876.11  155.68
   3  -4  -1 3139.99  156.38
  -3   4  -1 2711.83  154.98
  -3  -4   1 2945.81  155.58
  -3  -4   1 3024.80  157.98
   3   4   1 2853.21  154.78
  -3   4  -1 3162.28  155.98
   3  -4  -1 3113.39  155.38
   3  -4  -1 3075.59  155.18
  -3   4  -1 2891.91  156.28
  -3  -4   1 3225.98  155.98
   3   4   1 3213.18  154.78
  -3   4  -1 2965.50  157.48
   3   4  -2 2072.49  129.19
  -3   4   2 2462.45  127.29
  -3  -4  -2 2633.64  127.09
  -3   4   2 2325.07  127.79
  -3   4   2 2540.05  128.09
   3   4  -2 2338.27  128.69
  -3   4   2 2130.69  129.19
  -3   4   2 2563.04  127.79
   3   4  -2 2256.37  128.59
  -3  -4  -2 2489.35  126.39
  -3  -4  -2 2376.06  126.09
   3  -4   2 2594.44  128.79
   3  -4   2 2645.44  128.29
  -3   4   2 2576.54  127.79
   3   4  -2 2421.46  127.89
  -3  -4  -2 2236.38  125.69
  -3  -4  -2 2308.47  127.49
   3  -4   2 2474.95  127.09
   3  -4   2 2367.96  127.19
  -3   4  -2 2664.83  127.89
  -3  -4   2 2380.36  127.99
   3   4   2 2375.76  125.99
   3  -4  -2 2443.26  127.69
   3  -4  -2 2442.16  128.09
  -3   4  -2 2264.17  127.99
  -3   4  -2 2676.33  129.69
  -3  -4   2 2428.26  127.89
   3  -4  -2 2376.16  127.59
  -3  -4   2 2502.25  127.69
   3   4   2 2654.43  126.09
  -3  -4   2 2486.45  128.79
  -3   4  -2 2219.58  126.79
   3  -4  -2 2576.24  127.39
   3  -4  -2 2369.46  128.29
  -3   4   3 1263.57   72.39
  -3  -4  -3 1268.27   67.59
  -3  -4  -3 1268.07   68.99
  -3  -4  -3 1363.76   68.79
  -3   4   3 1370.66   69.99
   3  -4   3 1284.77   68.79
  -3   4   3 1281.67   69.29
  -3   4   3 1290.67   70.79
  -3   4   3 1340.97   69.49
   3  -4   3 1213.28   68.99
   3   4  -3 1389.16   70.49
  -3  -4  -3 1246.98   67.19
   3   4  -3 1246.88   71.19
   3  -4   3 1364.66   69.99
   3   4  -3 1250.47   70.29
  -3   4   3 1366.76   69.49
   3  -4   3 1330.77   69.29
   3  -4  -3 1360.26   70.89
   3  -4  -3 1333.87   69.59
  -3  -4   3 1276.77   70.19
  -3  -4   3 1323.87   71.29
   3  -4  -3 1233.38   69.69
   3   4   3 1157.28   67.19
  -3   4  -3 1351.06   70.09
  -3  -4   3 1388.46   71.19
   3   4   3 1382.86   67.39
   3  -4  -3 1207.48   70.19
  -3  -4   3 1293.27   69.99
  -3   4  -3 1149.29   68.79
  -3   4  -3 1192.88   70.19
  -3  -4  -4   12.90    8.90
   3   4  -4   13.60    5.00
   3  -4   4    9.80    2.80
   3   4  -4    5.40    6.80
   3  -4   4   15.20    3.00
  -3  -4  -4    9.70    2.70
  -3  -4  -4    6.30    2.60
   3  -4   4   13.30    2.60
   3   4  -4    7.70    9.50
  -3   4   4    0.60    4.10
   3   4  -4    2.20    4.30
  -3   4   4   10.90    2.20
  -3   4   4    9.00    6.10
  -3  -4  -4    5.10    5.00
  -3   4   4    8.00    5.50
  -3   4   4    4.50    4.00
  -3  -4  -4    5.80    4.50
   3  -4   4    5.90    4.70
   3  -4   4    6.30    5.00
  -3  -4   4   12.50    5.20
  -3  -4   4    9.70    6.30
  -3   4  -4    6.80    5.50
  -3  -4   4    9.10    3.70
  -3   4  -4   10.20    8.80
  -3   4  -4   11.00    3.60
  -3   4  -4    2.80    3.70
   3  -4  -4    7.40    3.50
   3  -4  -4    8.00    5.60
   3  -4  -4   10.40    3.40
   3  -4  -4    3.70    9.00
   3  -4  -4    3.10    6.30
  -3  -4   4   10.90    6.20
  -3  -4   4    5.50    4.50
  -3  -4  -5    9.00    7.60
  -3   4   5   16.30    3.60
  -3  -4  -5    7.30    6.20
   3  -4   5   15.50    3.40
   3   4  -5   15.10    4.10
   3   4  -5   21.70   11.20
  -3   4   5    8.00    4.70
   3   4  -5   18.20    7.20
   3  -4   5   15.60    5.50
   3   4  -5   17.90    4.00
  -3   4   5   20.90    6.70
  -3  -4  -5   10.00    2.30
  -3   4   5   23.10    4.80
  -3   4   5    9.30    3.30
   3  -4   5   20.50    3.30
  -3  -4  -5   10.10    5.30
  -3   4  -5   15.90    3.50
   3  -4  -5   13.40    3.80
  -3   4  -5   10.00    3.00
  -3   4  -5   16.60    9.50
  -3  -4   5    6.80    4.70
  -3   4  -5   14.60    4.10
   3  -4  -5   14.90    3.70
  -3  -4   5   20.50    7.00
   3  -4  -5    0.20    9.10
  -3   4  -5   17.00    6.50
   3  -4  -5    5.30    7.90
   3  -4  -5    5.30    6.20
   3   4  -6   42.00    9.50
  -3  -4  -6   28.20    6.80
   3   4  -6   30.00    4.80
  -3   4   6   37.00    5.60
  -3   4   6   48.10    4.90
  -3  -4  -6   46.20    9.90
   3  -4   6   40.40    5.10
   3   4  -6   34.80    5.90
  -3  -4  -6   40.60    3.80
  -3  -4   6   46.60    5.60
  -3  -4   6   48.90    8.20
   3  -4  -6   42.30    7.40
  -3   4  -6   35.90   12.10
  -3  -4   6   44.90    5.70
   3  -4  -6   49.70    5.00
  -3  -4   6   41.30    5.60
  -3   4  -6   39.50    8.30
   3  -4  -6   36.50   10.30
  -3   4  -6   41.60    5.10
   3  -4  -6   47.50    5.90
   3   4  -7   11.50    6.10
   3  -4   7   11.00    4.80
  -3   4   7   25.70    5.70
   3   4  -7   27.40   14.80
  -3   4   7    1.30    6.50
  -3  -4  -7   24.00   10.70
   3   4  -7   28.50    6.40
   3  -4   7   16.30   12.50
  -3   4   7   11.70    5.80
   3  -4  -7   12.10    5.30
  -3  -4   7   16.60    5.80
  -3   4  -7   20.00    5.70
  -3  -4   7   14.60    4.60
  -3  -4   7    9.20    5.30
  -3  -4   7   16.20    5.40
  -3   4  -7   18.20    4.30
   3  -4  -7   16.50    4.60
   3   4  -8    4.70    7.80
  -3   4   8    2.40    7.30
  -3   4   8    1.10    9.70
   3  -4   8   10.70    7.20
   3   4  -8   19.60    7.80
   3  -4  -8   10.40    5.90
  -3   4  -8    3.10    7.10
   3  -4  -8   14.50    7.80
  -3  -4   8    3.90    7.90
  -3   4  -8   14.50    6.10
  -4  -4   0  325.07   20.10
  -4   4   0  332.87   21.40
  -4   4   0  325.37   21.60
   4  -4   0  339.67   21.80
   4   4   0  338.47   20.50
  -4   4   0  316.97   20.20
   4  -4   0  328.47   22.00
  -4  -4   0  341.17   21.70
   4  -4   0  323.07   20.70
  -4  -4   0  321.97   20.90
   4  -4   0  319.87   18.70
  -4   4   0  312.87   21.20
   4   4   0  319.17   20.70
   4  -4   0  340.47   20.70
   4   4   0  321.67   20.30
  -4   4   1 1675.53   89.29
   4  -4   1 1692.63   89.09
  -4  -4  -1 1639.04   87.69
  -4   4   1 1580.84   87.89
   4  -4   1 1701.43   87.89
   4   4  -1 1576.84   88.29
   4  -4   1 1748.82   90.09
   4   4  -1 1495.15   88.79
   4  -4   1 1624.44   88.29
  -4  -4  -1 1554.84   87.09
  -4   4   1 1637.54   88.89
  -4  -4  -1 1725.23   88.89
   4   4  -1 1616.44   90.29
   4   4  -1 1688.13   88.19
  -4   4   1 1712.63   88.79
  -4   4  -1 1792.42   89.89
  -4   4  -1 1759.22   88.79
  -4   4  -1 1384.76   88.59
   4  -4  -1 1707.23   87.19
  -4  -4   1 1614.44   88.09
   4   4   1 1637.64   87.49
   4   4   1 1752.02   87.79
   4   4   1 1775.32   87.59
   4  -4  -1 1576.24   88.99
  -4  -4   1 1621.24   89.69
  -4  -4   1 1742.03   89.79
  -4   4  -1 1595.54   87.79
   4  -4  -1 1676.23   88.09
  -4  -4   1 1590.14   87.19
   4  -4  -1 1727.43   89.99
   4  -4  -1 1563.84   88.39
   4   4  -2  138.39   10.90
  -4   4   2  151.48   10.90
   4   4  -2  120.29   11.60
  -4   4   2  140.39   11.20
   4   4  -2  123.69   13.60
   4  -4   2  137.99   11.30
  -4  -4  -2  141.69    9.50
   4  -4   2  147.09   11.90
  -4   4   2  147.69   10.70
  -4  -4  -2  133.19    9.10
   4   4  -2  133.19   11.90
   4  -4   2  129.79   10.80
  -4   4   2  152.68   12.00
   4  -4   2  120.49   10.10
  -4   4   2  133.39   11.80
  -4  -4  -2  134.39   10.70
  -4   4  -2  120.99   11.00
  -4   4  -2  122.29   10.10
   4   4   2  123.69   10.30
  -4  -4   2  139.49   12.80
   4   4   2  127.89    8.80
   4  -4  -2  139.89   11.00
  -4  -4   2  125.69   10.70
  -4  -4   2  134.29   10.60
   4  -4  -2  127.09   11.70
   4  -4  -2  148.69   11.80
   4   4   2  144.69   10.30
  -4   4  -2  154.78   13.10
  -4   4  -2  138.59   13.20
  -4  -4   2  133.59   11.50
   4  -4  -2  130.69   11.30
  -4   4   3  683.43   39.70
  -4  -4  -3  688.43   37.40
  -4  -4  -3  675.03   37.50
   4   4  -3  646.64   39.50
   4  -4   3  684.03   38.70
   4   4  -3  679.13   39.80
  -4   4   3  721.03   39.10
  -4   4   3  712.93   39.60
  -4   4   3  671.03   42.30
   4  -4   3  628.14   38.10
   4  -4   3  728.03   39.80
   4  -4   3  612.74   36.80
  -4   4   3  697.63   39.70
  -4  -4  -3  744.73   40.50
   4  -4   3  750.32   39.70
   4   4  -3  590.24   40.50
  -4  -4  -3  662.73   36.80
  -4   4   3  667.63   39.20
  -4   4  -3  730.13   42.20
  -4   4  -3  744.53   39.80
  -4   4  -3  630.94   39.60
  -4  -4   3  725.73   41.00
  -4  -4   3  686.23   39.90
   4   4   3  732.73   37.30
   4  -4  -3  696.43   39.30
   4   4   3  579.14   36.70
   4  -4  -3  685.03   40.30
   4  -4  -3  695.43   39.80
  -4  -4   3  680.43   39.30
  -4   4  -3  639.14   38.20
   4  -4  -3  605.54   39.00
  -4  -4   3  696.03   40.30
   4  -4   4   79.19    7.00
  -4  -4  -4   80.69    5.80
  -4   4   4   73.59    8.90
  -4  -4  -4   84.19    7.70
   4  -4   4   83.69    6.70
   4   4  -4   82.69    8.70
   4  -4   4   93.29    7.80
  -4  -4  -4   63.49   12.20
   4   4  -4   97.89   11.60
  -4   4   4   74.19   10.70
  -4   4   4   86.99    9.20
  -4   4   4   87.89   10.60
  -4  -4  -4   78.59    8.50
   4  -4   4   85.49    9.30
   4   4  -4   75.99    9.00
   4   4  -4   75.09   12.90
  -4  -4  -4   92.39    7.20
  -4   4   4   83.29    7.40
  -4   4   4   98.49    8.20
  -4   4  -4   95.69   14.20
   4  -4  -4   85.19    8.90
  -4   4  -4   94.59    7.50
  -4   4  -4   99.99   10.20
  -4  -4   4   92.39    8.20
  -4  -4   4  103.39   10.80
   4   4   4   86.99    6.90
   4  -4  -4   87.29   10.70
  -4   4  -4   87.39    9.00
  -4  -4   4   92.09   10.70
   4  -4  -4   87.19   10.30
   4   4   4   68.69    6.30
  -4  -4   4   88.39    9.40
   4  -4  -4   71.69    8.00
  -4  -4  -5  128.69    8.20
  -4   4   5  113.79    9.60
  -4  -4  -5  134.99   11.10
   4  -4   5   93.09    7.80
   4   4  -5  125.69   12.90
   4  -4   5  118.39    8.50
  -4   4   5  112.59   11.60
  -4  -4  -5  105.89    7.50
  -4   4   5  106.49    8.70
   4   4  -5  100.59    9.90
  -4  -4  -5  107.69   10.60
   4  -4   5  118.89    8.20
   4   4  -5  101.79    9.00
   4  -4   5  109.89   10.90
  -4   4   5  101.89    7.90
  -4   4   5  103.89   10.20
   4  -4  -5  102.99   10.10
  -4   4  -5  100.99   11.60
  -4  -4   5  112.09   11.60
   4  -4  -5   97.89    8.70
  -4   4  -5  112.59   14.40
  -4  -4   5  105.79    9.30
  -4  -4   5  101.79   10.30
  -4   4  -5  103.39    9.40
   4  -4  -5  101.09   12.10
  -4   4   6    3.80    4.80
   4   4  -6   -0.90    5.20
   4   4  -6   12.40    5.10
  -4  -4  -6    3.40    6.50
  -4  -4  -6    9.70    3.30
  -4   4   6    2.70    5.70
  -4  -4  -6    2.00    9.10
  -4   4   6   -2.10    4.00
   4  -4   6   -2.00    3.60
   4   4  -6   11.30    8.30
   4  -4   6    5.40    3.70
  -4  -4  -6    4.10    6.20
  -4   4  -6    0.60   22.00
  -4  -4   6    6.40    5.00
   4  -4  -6   -1.00    4.90
  -4  -4   6    2.60    5.30
  -4  -4   6    5.00    4.50
  -4   4  -6   -1.20    6.20
   4  -4  -6   12.00    6.50
  -4   4  -6    0.70    4.60
  -4   4  -6    4.60    2.60
  -4   4  -6    5.70    4.00
  -4  -4   6   -4.40    6.70
   4  -4  -6    2.00    4.50
   4   4  -7   39.90    7.80
   4   4  -7   26.00    6.80
   4  -4   7   22.50    5.40
  -4   4   7   38.60    7.30
  -4  -4  -7   32.50    5.20
   4  -4  -7   29.60    6.40
  -4   4  -7   44.10    8.60
  -4  -4   7   30.60    7.30
   4  -4  -7   29.70    7.00
  -4  -4   7   18.90    5.80
  -4  -4   7   17.50    7.00
  -4   4  -7   32.70    5.20
  -4  -4   7   22.10    6.70
  -4   4   8    0.80   10.90
   4   4  -8    0.40    8.20
  -4   4   8   -4.30    9.00
   4   4  -8   -4.40    9.10
   4  -4   8   11.90    7.50
  -4   4  -8   -2.70    8.30
  -4  -4   8    0.20    9.20
  -4   4  -8    7.60    6.50
   4  -4  -8   15.00    7.60
   4  -4  -8   10.80    9.40
   5   4   0  445.86   27.60
  -5  -4   0  456.45   27.50
   5  -4   0  479.15   30.20
  -5  -4   0  486.05   29.70
  -5   4   0  384.36   28.50
   5   4   0  448.06   28.10
  -5   4   0  492.25   29.30
   5   4   0  407.36   29.40
   5  -4   0  444.06   28.00
  -5  -4   0  488.55   29.40
   5  -4   0  481.35   25.50
  -5  -4   0  432.66   25.30
  -5   4   0  444.16   29.20
   5  -4   0  479.35   28.20
   5   4   0  471.05   27.90
  -5   4   0  466.55   27.90
   5  -4   1  297.97   15.90
   5  -4   1  306.47   21.20
  -5   4   1  281.27   20.50
   5   4  -1  263.27   21.70
   5   4  -1  272.77   19.20
  -5   4   1  310.67   21.00
  -5  -4  -1  298.57   19.80
   5   4  -1  277.77   20.30
   5  -4   1  283.37   19.40
  -5  -4  -1  304.67   20.90
   5  -4   1  296.97   19.40
  -5  -4  -1  291.67   18.70
  -5   4   1  283.37   20.50
   5   4  -1  274.17   19.70
  -5   4   1  266.07   18.80
   5   4   1  289.97   18.90
  -5   4  -1  287.47   19.10
   5  -4  -1  275.07   21.00
  -5   4  -1  316.67   21.40
  -5  -4   1  305.27   21.00
   5   4   1  304.57   19.20
   5  -4  -1  299.87   18.20
  -5   4  -1  308.47   21.00
  -5   4  -1  277.47   20.50
   5  -4  -1  291.57   19.50
  -5  -4   1  289.67   19.40
   5   4   1  288.37   18.50
   5  -4  -1  276.17   19.60
  -5  -4   1  294.17   17.90
  -5  -4   1  288.07   21.10
  -5   4   2   75.89    9.50
  -5  -4  -2   69.79    6.80
  -5  -4  -2   71.59    9.10
  -5   4   2   81.49    8.00
   5   4  -2   53.19   11.00
   5  -4   2   77.49    8.60
   5  -4   2   63.89    6.80
  -5  -4  -2   84.49   10.60
   5  -4   2   63.69    4.30
   5  -4   2   69.09    4.40
  -5   4   2   83.69    8.90
   5   4  -2   72.39    8.40
   5   4  -2   69.39   10.10
  -5  -4  -2   65.89    5.00
  -5   4   2   80.29   10.30
   5  -4   2   84.99    9.10
   5   4  -2   67.09    8.30
   5  -4  -2   80.99   10.20
   5  -4  -2   76.29    8.40
  -5  -4   2   68.89   10.20
  -5   4  -2   79.19   11.00
  -5  -4   2   71.59    6.90
  -5   4  -2   74.69   10.80
   5  -4  -2   65.89    7.80
   5  -4  -2   78.09    9.00
   5   4   2   62.39    5.70
   5   4   2   73.69    8.30
   5   4   2   69.69    6.60
  -5   4  -2   62.79    7.20
  -5  -4   2   77.09    8.20
  -5   4  -2   58.79    8.00
  -5  -4   2   65.89   10.40
   5   4  -3   17.00    4.60
  -5   4   3   19.30    4.00
  -5   4   3   24.50    6.70
  -5  -4  -3   18.90    3.90
  -5  -4  -3   15.40    6.00
  -5  -4  -3   31.60    7.70
   5  -4   3   15.40    3.90
   5  -4   3   19.60    6.30
  -5   4   3   11.00    6.20
  -5   4   3   19.40    4.60
  -5   4   3   19.90    3.90
   5  -4   3   21.40    3.80
  -5  -4  -3   19.60    3.30
   5   4  -3   26.00    9.30
   5   4  -3   24.60    5.10
  -5  -4  -3   19.80    3.70
   5  -4  -3   18.70    4.60
  -5  -4   3   16.50    7.90
  -5   4  -3   15.70    4.30
  -5  -4   3   20.40    8.70
   5   4   3   17.10    5.50
  -5  -4   3   19.70    5.20
  -5   4  -3   19.80    4.10
  -5   4  -3   21.70    9.30
  -5   4  -3   28.20   10.50
  -5  -4   3   18.00    4.30
   5  -4  -3   26.30    6.70
   5   4   3   22.60    6.00
   5  -4  -3   12.20    4.10
   5  -4  -3   24.30    8.10
  -5  -4  -4  323.57   19.50
  -5   4   4  334.37   25.50
  -5   4   4  323.07   23.10
   5   4  -4  317.07   22.40
   5   4  -4  383.36   24.90
  -5  -4  -4  304.07   20.70
   5  -4   4  330.77   25.30
   5  -4   4  314.97   19.40
  -5   4   4  335.27   21.90
  -5  -4  -4  322.17   20.30
  -5   4   4  330.77   22.10
  -5  -4  -4  384.26   23.50
   5  -4   4  319.77   20.60
   5   4  -4  339.77   24.30
  -5   4   4  373.96   23.50
   5  -4   4  388.26   22.20
  -5  -4  -4  365.86   21.90
  -5  -4   4  339.17   25.00
   5  -4  -4  323.87   23.40
  -5   4  -4  298.67   25.60
  -5  -4   4  341.87   23.20
  -5   4  -4  368.76   23.60
   5   4   4  376.96   20.60
   5  -4  -4  327.07   22.40
  -5   4  -4  341.17   23.20
  -5   4  -4  341.37   21.40
  -5  -4   4  329.67   22.40
   5  -4  -4  358.46   23.60
   5  -4  -4  332.67   23.70
   5  -4   5   56.59    5.20
  -5   4   5   56.19    8.20
  -5  -4  -5   59.49    4.20
  -5   4   5   63.99    6.60
   5   4  -5   48.70    6.10
  -5   4   5   47.20    7.50
   5  -4   5   62.89    4.90
   5   4  -5   51.09    6.10
  -5   4   5   61.99    7.00
   5   4  -5   62.39   11.20
   5  -4   5   64.39    5.50
  -5  -4  -5   47.60    6.20
  -5  -4  -5   56.99    5.50
  -5  -4  -5   66.99   10.00
  -5   4   5   56.09    5.80
   5   4   5   46.60    4.90
   5  -4  -5   63.89    5.80
  -5   4  -5   62.09   10.00
  -5   4  -5   47.70    6.00
  -5  -4   5   51.79   10.50
  -5   4  -5   47.40    6.70
   5   4   5   60.69    5.40
  -5  -4   5   57.29    5.90
  -5  -4   5   57.19    7.80
   5  -4  -5   56.99    9.90
   5  -4  -5   46.30    6.40
  -5   4   6   24.20    7.10
   5   4  -6   28.40    6.10
   5  -4   6   34.50    4.70
   5  -4   6   21.00    4.70
  -5  -4  -6   24.70    5.10
  -5   4   6   17.30    4.30
   5   4  -6   20.70    6.20
  -5   4   6   22.50    6.30
  -5   4   6   18.20    5.40
   5   4  -6   37.70   15.30
  -5  -4  -6   -2.40   16.80
  -5  -4   6   29.50    6.20
   5  -4  -6   25.30    5.60
   5  -4  -6   24.60    6.70
   5  -4  -6   26.00   20.70
  -5  -4   6   24.70    6.20
  -5   4  -6   25.60    4.70
  -5  -4   6   22.90    6.90
  -5  -4   6   23.80    6.70
   5  -4   7   11.40    5.60
  -5  -4  -7   12.70   13.30
  -5   4   7    1.70    9.90
  -5   4   7    8.30    7.50
   5   4  -7   12.80    7.90
   5   4  -7    0.10    7.20
  -5  -4   7    4.00    8.30
  -5   4  -7   23.80    7.50
  -5   4  -7   14.40    5.40
   5  -4  -7    5.70    7.60
   5  -4  -7   13.40    6.40
  -5  -4   7   14.80    7.70
  -5  -4   7    8.40    7.70
  -6   4   0  402.06   29.30
  -6   4   0  434.16   27.60
   6  -4   0  419.26   24.20
   6  -4   0  463.75   30.40
   6  -4   0  442.06   28.20
   6   4   0  453.05   27.60
  -6  -4   0  451.15   27.50
  -6  -4   0  445.86   30.10
  -6  -4   0  495.05   29.60
   6   4   0  463.45   28.70
   6   4   0  371.86   29.40
   6  -4   0  435.16   28.30
  -6   4   0  464.15   30.00
   6  -4   1   -4.00    3.50
  -6   4   1    6.10    3.70
  -6   4   1   -4.40    6.40
   6   4  -1   -2.00    3.80
   6  -4   1   -3.90    3.70
   6   4  -1   -4.70    8.60
  -6  -4  -1    2.10    6.80
   6  -4   1    4.50   10.70
  -6   4   1    6.30    8.20
  -6  -4  -1   -0.10    3.20
   6  -4   1   -4.30    9.70
  -6  -4  -1   -5.00    7.90
   6   4  -1    2.40    7.10
   6  -4  -1  -11.00    7.30
   6  -4  -1    1.10    5.80
   6  -4  -1    0.60    4.10
  -6  -4   1    1.10    8.40
   6   4   1   -4.00    2.90
  -6   4  -1   -6.60    7.60
  -6  -4   1   -3.50    4.40
   6   4   1    1.00    8.20
   6   4   1    0.80    3.00
   6  -4  -1    3.10    3.90
  -6   4  -1   -1.20    3.50
   6   4   1    0.00    6.10
   6  -4  -1   -3.10    3.60
  -6  -4   1   -5.50    3.50
  -6   4  -1   -1.50    7.50
  -6   4  -1    1.10    4.00
  -6  -4   1    0.20    1.90
  -6  -4  -2   96.19    9.40
  -6  -4  -2  106.19   13.70
   6  -4   2   88.99    8.00
  -6   4   2   86.79    9.90
   6   4  -2   97.99    9.40
  -6  -4  -2  101.09   10.60
  -6  -4  -2   94.19    8.40
  -6   4   2   85.19   13.20
   6   4  -2  108.79   13.40
  -6   4   2  101.39   12.10
   6   4  -2   64.89   13.10
  -6   4   2   89.49    9.00
   6  -4   2   91.39   10.00
   6   4  -2   86.79    9.90
  -6   4  -2   82.49    8.60
  -6  -4   2   92.49    9.20
  -6   4  -2   92.79   13.30
   6  -4  -2  117.89   13.30
   6  -4  -2   95.29    9.30
  -6   4  -2   92.29   11.80
   6  -4  -2   95.89   10.30
   6  -4  -2  101.79    9.80
  -6  -4   2   93.49    8.20
   6   4   2   95.89    7.80
   6   4   2   91.69    7.80
   6   4   2  116.09   11.10
  -6   4  -2   91.69    9.80
  -6  -4   2  113.39   14.20
  -6  -4  -3  209.88   13.30
   6   4  -3  193.18   17.00
   6   4  -3  194.38   18.90
  -6  -4  -3  193.78   15.40
   6  -4   3  197.08   15.10
  -6   4   3  195.58   15.80
  -6   4   3  181.58   16.90
  -6  -4  -3  200.48   14.80
   6   4  -3  179.68   14.70
  -6   4   3  201.18   14.40
   6  -4   3  193.58   13.50
  -6  -4  -3  209.28   17.50
   6  -4  -3  178.38   15.70
   6  -4  -3  181.08   15.30
   6   4   3  203.58   14.70
  -6   4  -3  188.18   13.90
  -6   4  -3  205.88   17.70
   6  -4  -3  186.68   16.70
  -6  -4   3  189.68   14.70
   6   4   3  177.88   13.50
  -6   4  -3  189.58   15.50
   6   4   3  181.78   12.80
   6  -4  -3  198.18   15.80
  -6  -4   3  188.88   14.30
   6  -4   4   10.90    8.00
  -6  -4  -4    8.80    3.90
  -6   4   4    2.00    4.00
   6  -4   4   -4.90    4.10
   6   4  -4   -6.60    4.90
  -6  -4  -4    2.80    2.50
  -6  -4  -4    0.70    5.30
  -6  -4  -4    8.00    8.40
  -6   4   4    3.20    4.60
   6  -4   4    2.80    3.60
  -6   4   4   -9.60    7.40
  -6   4   4   -1.30    5.50
   6   4   4    0.60    5.00
   6   4   4    3.70    5.90
   6  -4  -4    0.40    4.80
   6  -4  -4    5.50    8.20
  -6   4  -4    0.70    3.10
   6  -4  -4    4.10    7.50
  -6  -4   4    4.30    4.30
  -6  -4   4    9.80    4.60
   6  -4  -4   10.40    4.80
  -6   4  -4   -4.90    7.90
  -6   4  -4   -3.90    4.60
   6   4  -5    3.50    5.90
  -6   4   5    6.00    4.90
  -6   4   5   -2.30    5.40
  -6   4   5    4.00    9.20
  -6  -4  -5    1.30    4.90
   6  -4   5   10.10    4.20
   6  -4   5    6.00    2.20
  -6  -4  -5    5.70    2.60
  -6   4   5   -3.00    6.30
  -6  -4  -5   -1.30    7.70
  -6   4   5   12.60    5.10
  -6  -4  -5   13.60   10.70
   6   4  -5    4.10    5.50
   6  -4   5   14.30    4.50
  -6   4  -5    3.40    5.20
   6   4   5    5.20    6.40
  -6   4  -5    2.50    3.70
  -6  -4   5    3.00    5.50
   6  -4  -5    8.80    5.60
   6  -4  -5    6.20    5.20
  -6   4  -5   11.30   12.90
  -6  -4   5    9.80    5.50
   6  -4  -5   13.10   10.10
  -6   4   6   36.70    6.60
   6   4  -6   31.40    7.60
  -6   4   6   42.30    9.20
  -6   4   6   31.80    7.40
   6   4  -6   26.40    7.10
  -6  -4  -6   45.00    7.00
  -6  -4   6   35.70    7.40
   6  -4  -6   39.70    8.60
  -6  -4   6   39.80    7.60
  -6   4  -6   41.20    7.80
  -6  -4   6   35.00    7.70
   6   4  -7    4.70    9.70
  -6   4   7   -9.70   12.30
   6   4  -7    8.00    8.80
  -6   4   7   14.70    9.10
   6  -4  -7   10.20    9.40
  -6  -4   7  -12.20    9.40
  -6   4  -7   15.10    6.20
  -6  -4   7   -3.50    9.30
  -6  -4   7   -8.90   10.40
  -6   4  -7   24.40    8.80
  -6  -4   7    4.00    9.30
  -7  -4   0  172.28   16.40
   7  -4   0  155.78   12.60
  -7  -4   0  143.69   14.70
   7   4   0  172.38   13.50
   7   4   0  169.28   12.30
  -7   4   0  159.58   16.50
  -7   4   0  147.49   14.40
   7  -4   0  173.38   15.70
  -7   4   0  160.88   17.60
  -7  -4   0  163.58   13.70
  -7  -4   0  144.79    9.20
  -7  -4  -1  141.59   11.70
  -7  -4  -1  149.49   15.00
   7  -4   1  141.79   12.80
  -7   4   1  150.58   11.70
   7   4  -1  149.09   12.30
   7  -4   1  143.49   11.50
  -7  -4  -1  138.99   11.80
   7   4  -1  150.58   11.10
  -7   4   1  145.49   13.20
   7   4   1  136.29   10.80
   7   4   1  132.19   11.60
  -7  -4   1  153.38    9.50
  -7   4  -1  134.39   13.00
  -7   4  -1  133.39   11.00
   7  -4  -1  117.99   10.90
  -7   4  -1  159.88   15.90
   7  -4  -1  125.49   12.10
  -7  -4   1  139.29   11.60
  -7  -4   1  139.19   15.30
  -7  -4   1  145.29   12.50
  -7   4   2   44.70    6.20
  -7  -4  -2   53.19    9.50
  -7  -4  -2   58.19    6.80
   7   4  -2   60.59    6.20
   7   4  -2   56.39    5.80
  -7  -4  -2   47.40    5.80
   7  -4   2   59.09    7.10
   7  -4   2   58.49    6.20
  -7   4   2   54.89    7.10
  -7   4  -2   64.99    6.40
  -7   4  -2   59.79   11.90
  -7  -4   2   61.29    5.20
  -7   4  -2   56.59    6.00
  -7  -4   2   51.99    5.90
   7   4   2   56.99    5.90
   7   4   2   42.00    5.30
   7  -4  -2   47.60    6.20
  -7  -4  -3   28.90    4.50
  -7  -4  -3   32.30    5.00
   7  -4   3   39.30    6.30
  -7   4   3   26.90    5.70
   7   4  -3   35.60    6.00
  -7   4   3   44.20    5.40
   7   4  -3   19.80    5.30
  -7  -4  -3   29.60    7.70
   7  -4  -3   29.90    5.90
  -7  -4   3   19.30    5.50
  -7   4  -3   29.00    5.40
   7   4   3   26.10    5.10
  -7   4  -3   27.50    5.30
   7  -4  -3   36.20    5.60
   7   4   3   35.50    3.80
  -7  -4   3   39.60    5.60
  -7   4  -3   38.00   10.00
   7   4  -4   21.60    6.20
  -7  -4  -4   27.60    6.20
   7   4  -4   37.60    6.00
  -7   4   4   18.00    9.10
   7  -4   4   30.70    6.50
  -7   4   4   27.80    5.60
   7  -4   4   35.40    6.30
   7  -4  -4   23.60    6.40
  -7   4  -4   27.30    5.90
   7  -4  -4   28.90    6.40
  -7  -4   4   18.30    6.40
  -7  -4   4   34.10    6.10
  -7   4  -4   21.50   26.20
  -7   4  -4   33.10    5.50
  -7  -4   4   23.70    6.30
  -7   4   5    1.20    8.60
  -7   4   5    5.00    6.70
  -7  -4  -5   -0.90    3.70
  -7   4   5   -2.60    7.30
  -7   4   5    3.40    6.60
   7   4  -5   12.20    7.60
   7   4  -5    5.30    7.10
  -7   4  -5    9.30    4.40
  -7   4  -5   18.70    6.80
   7  -4  -5   14.80    6.80
  -7  -4   5   -6.40    6.90
  -7  -4   5   12.60    6.20
   7  -4  -5    5.80    7.40
  -7  -4   5   -0.30    7.40
  -7  -4  -6    6.70    8.10
   7   4  -6   11.40    8.70
   7   4  -6   13.30    9.80
  -7   4   6  -10.10   10.90
  -7   4   6  -13.10    9.10
  -7   4   6    0.70    8.10
  -7   4  -6   -9.20    9.30
   7  -4  -6   17.50    8.30
  -7  -4   6   -0.70    9.30
  -7  -4   6    1.20    8.70
   7  -4  -6    6.20    9.30
  -8   4   0   31.60    5.40
  -8   4   0   21.30    5.30
  -8  -4   0   24.60    5.50
   8  -4   0   26.70    6.60
   8   4   0   19.50    5.50
   8  -4   0   37.70    6.30
  -8  -4   0   18.50    5.00
   8   4   0   30.70    6.40
  -8  -4   0   35.10   12.70
   8   4  -1   42.30    8.70
  -8  -4  -1   43.50    6.20
   8  -4   1   50.29    7.70
   8  -4   1   45.00    6.90
  -8  -4  -1   37.00    7.00
   8   4  -1   43.00    6.90
  -8  -4  -1   46.70   13.60
  -8   4   1   43.80    6.10
  -8   4   1   51.39    6.60
  -8   4  -1   41.70    7.00
   8  -4  -1   48.30    7.10
   8   4   1   13.20   15.90
   8   4   1   60.69    6.80
   8   4   1   58.99    7.00
  -8   4  -1   40.50    5.80
  -8  -4   1   43.10    6.00
  -8  -4   1   54.09    4.20
   8  -4  -1   54.79    6.80
  -8  -4   1   45.20    7.00
  -8   4   2   25.30    6.30
   8  -4   2   44.40    6.70
  -8   4   2   26.50    6.30
   8  -4   2   32.30    6.30
   8   4  -2   30.20    6.30
   8   4  -2   26.90    7.10
  -8  -4  -2   30.60    7.00
  -8  -4  -2   28.80    4.90
   8   4   2   30.50    6.30
  -8   4  -2   32.30    7.10
   8  -4  -2   34.90    7.00
  -8  -4   2   36.10    4.70
  -8  -4   2   33.50    7.30
  -8   4  -2   41.80   25.50
  -8   4  -2   41.00    5.30
   8  -4  -2   32.20    6.80
  -8  -4   2   40.80    6.30
  -8  -4  -3    5.20    4.20
   8   4  -3   10.00    7.00
  -8   4   3   -0.40    7.20
   8  -4   3   12.30    6.20
  -8  -4  -3    7.80    6.80
   8  -4   3    9.80    6.50
   8   4  -3   10.60    7.20
   8   4   3    0.30    8.80
  -8  -4   3   -3.80    6.70
   8  -4  -3   18.10    6.90
  -8   4  -3   12.60    6.70
  -8  -4   3    3.50    4.80
   8  -4  -3    9.00    6.70
  -8   4  -3   -2.50    5.60
  -8  -4   3    9.90    6.40
   8   4  -4    9.20    7.60
  -8   4   4   -8.60    9.30
  -8  -4  -4   10.40    7.90
   8   4  -4   16.70    8.00
  -8   4   4   18.60    7.50
  -8  -4   4   -0.40    7.20
   8  -4  -4   19.40    8.00
  -8  -4   4    7.70    8.30
  -8  -4   4    8.20    6.60
   8  -4  -4   12.90    7.50
  -8   4  -4    6.90    7.60
  -8   4  -4    2.90    5.40
  -8  -4  -5   -6.50    5.20
  -8   4   5  -11.10    9.10
  -8   4   5    2.20    9.30
   8   4  -5   11.00    9.40
  -8  -4  -5   -0.40    8.90
   8  -4  -5   12.70    9.10
  -8  -4   5  -14.20    8.90
  -8  -4   5   -2.70    9.90
  -8   4  -5   12.00    9.40
  -8  -4   5   -3.80    8.00
  -9  -4   0    0.10    6.10
  -9  -4   0   -7.20    7.80
   9   4   0    3.60    7.70
  -9   4   0    4.00    7.10
   9  -4   0   10.50    7.80
   9   4   0    8.80    7.80
   9  -4   0   -2.10    8.10
   9   4  -1   14.10    8.10
   9  -4   1   16.40    7.80
  -9   4   1    5.70    7.80
   9  -4   1   12.80    8.10
  -9  -4  -1   -0.30    7.50
  -9  -4  -1    5.10    5.90
   9   4  -1   16.40    8.00
  -9   4   1   10.90    6.70
   9  -4  -1   23.00    8.90
   9   4   1   10.80    7.90
  -9   4  -1   12.50    7.50
  -9   4  -1    3.30    6.50
   9   4   1   18.70    7.30
  -9  -4   1    2.00    6.50
   9  -4  -1   21.80    7.80
  -9  -4   1   15.60    7.40
  -9  -4  -2    7.90    8.50
   9  -4   2   24.90    8.20
  -9   4   2    2.70    8.40
   9  -4   2   15.30    8.40
   9   4  -2   16.20    8.70
   9   4  -2    5.90    8.30
  -9   4   2    3.30    7.50
   9  -4  -2   21.70    8.70
  -9   4  -2    9.70    8.40
   9  -4  -2   24.30    8.20
  -9   4  -2   -5.80    7.00
  -9  -4   2   11.50    7.90
  -9  -4   2   11.40    8.10
  -9  -4  -3   -2.90    6.40
   9   4  -3    2.70    9.60
   9   4  -3    8.60    9.40
  -9   4   3  -11.00    8.50
  -9   4   3   -0.50    9.00
  -9   4   3   -6.30   10.70
   9  -4   3   18.10    9.10
  -9  -4  -3   -8.80    9.50
  -9  -4   3   -4.10    9.50
  -9   4  -3   -1.60    8.90
   9  -4  -3   -7.90    9.20
  -9   4  -3   -4.00    6.80
   9  -4  -3    3.20    9.20
   0  -5   0    4.20    2.70
   0  -5   0    6.60    4.70
   0   5   0    4.50    2.80
   0   5   0    2.80    3.20
   0  -5   0    1.90    2.30
   0  -5   0    4.40    3.70
   0   5   0    1.20    2.50
   0  -5   0    1.60    2.30
   0  -5   2 1076.29   60.69
   0  -5  -2 1253.47   62.99
   0  -5   2 1187.28   62.59
   0   5  -2 1184.28   62.79
   0   5  -2 1345.77   64.69
   0  -5  -2 1182.08   60.59
   0  -5  -2 1008.10   60.19
   0  -5   2 1064.19   61.79
   0   5   2 1218.68   60.59
   0  -5  -2 1222.88   60.49
   0   5  -2 1124.39   62.09
   0   5  -2 1252.67   62.39
   0  -5  -2 1073.79   60.39
   0   5  -3   12.60    3.60
   0   5   3    6.00    2.00
   0   5  -3    8.70    3.20
   0  -5   3    7.80    4.60
   0  -5  -3    3.30    2.10
   0   5   3    6.40    3.60
   0   5  -3    9.20    4.80
   0  -5   3   13.30    3.70
   0   5   3    5.90    4.30
   0  -5  -3   10.20    7.30
   0  -5  -3    6.40    1.80
   0  -5  -3   10.30    5.00
   0  -5   3   11.60    4.30
   0   5   3    4.50    1.90
   0  -5  -3    5.10    1.50
   0  -5   3    2.40    1.80
   0  -5  -3    4.60    1.30
   0  -5  -4   12.10    2.50
   0  -5   4   22.00    3.60
   0  -5   4   19.20    4.00
   0   5   4   16.80    4.30
   0  -5  -4   14.50    2.70
   0   5   4   13.40    2.10
   0   5  -4   14.40    8.70
   0  -5  -4   15.90    6.50
   0   5  -4   21.10    3.80
   0   5  -4   25.20    6.40
   0  -5   4   23.40    5.50
   0  -5   4   23.10    4.70
   0  -5  -4   15.50    2.90
   0   5   4   18.70    1.80
   0   5  -4   14.20    3.50
   0  -5  -4   19.10    7.40
   0  -5  -4   12.30    1.90
   0  -5  -5  259.47   19.10
   0  -5   5  246.58   15.80
   0  -5   5  251.27   16.40
   0  -5  -5  237.58   14.50
   0  -5   5  259.27   18.60
   0   5  -5  230.48   16.90
   0   5   5  250.97   18.20
   0  -5   5  244.78   16.50
   0   5  -5  195.08   19.90
   0  -5  -5  246.48   13.10
   0  -5   5  205.68   15.70
   0   5  -5  235.88   16.20
   0   5  -5  249.18   17.10
   0  -5  -5  253.77   19.30
   0  -5   6   67.29    7.80
   0  -5  -6   52.19    6.70
   0  -5  -6   53.79    3.30
   0  -5  -6   62.69    4.70
   0  -5   6   57.29    7.00
   0   5   6   55.59    7.10
   0  -5  -6   56.89    3.30
   0  -5   6   64.19    5.50
   0   5  -6   62.39    9.60
   0   5  -6   45.60   14.00
   0  -5  -6   60.89   18.70
   0  -5   6   58.59   10.10
   0   5  -6   55.89    6.70
   0  -5  -6   47.70   11.10
   0   5  -6   67.39    6.40
   0  -5   7   14.00    3.90
   0   5   7   18.50    5.30
   0  -5  -7   10.70    3.40
   0   5   7    8.60    4.90
   0  -5  -7   12.60    6.30
   0   5  -7   14.30    7.00
   0   5  -7   17.40    5.00
   0   5   8   13.00    6.70
   0  -5  -8   18.30    7.50
   0   5  -8   24.70    6.70
   0   5  -8   24.30    6.60
   0  -5   8   27.50    7.40
   0   5   9    4.00    9.30
   0   5  -9    0.30    9.90
   0   5  -9    5.20    8.30
   0  -5   9   14.20   10.00
  -1   5   0 1769.22   83.89
  -1   5   0 1527.75   83.89
  -1  -5   0 1602.54   83.39
   1   5   0 1511.25   83.79
   1  -5   0 1648.94   84.19
  -1  -5   0 1582.14   83.39
  -1   5   0 1599.24   84.49
   1  -5   0 1592.34   83.89
   1  -5   0 1597.84   83.39
   1   5   0 1637.44   83.59
   1  -5   0 1557.44   84.79
   1   5   0 1612.44   83.29
  -1   5   0 1404.76   85.19
  -1  -5   0 1684.73   83.99
   1  -5   0 1669.93   83.79
   1  -5   1  911.31   48.30
   1   5  -1  932.61   48.50
   1   5  -1  925.91   50.39
  -1   5   1  893.41   48.00
   1  -5   1  912.41   48.00
   1  -5   1 1034.50   50.19
   1   5  -1  929.61   48.60
  -1  -5  -1  905.61   47.50
  -1  -5  -1  827.52   47.40
  -1   5   1  933.91   48.10
   1  -5   1  864.01   48.40
   1  -5   1  873.71   48.90
  -1  -5  -1 1018.90   51.19
  -1   5   1  920.81   48.20
  -1   5   1  881.61   49.99
  -1  -5  -1  917.31   47.70
  -1   5   1  908.01   48.00
   1   5  -1  855.21   49.00
   1  -5  -1  970.80   49.99
   1  -5  -1  928.51   47.90
  -1   5  -1  854.91   48.30
  -1  -5   1  947.01   49.20
   1  -5  -1  922.11   48.30
   1   5   1  798.72   46.70
  -1  -5   1  917.01   48.50
   1   5   1  887.21   47.40
  -1   5  -1  967.70   48.80
   1  -5  -1  945.21   48.30
  -1   5  -1  806.42   48.80
   1   5   1  808.02   47.40
   1   5   1  851.81   46.90
  -1  -5   1  967.60   48.70
   1  -5  -1  943.01   48.90
  -1   5   2  861.81   45.10
  -1  -5  -2  864.81   46.40
   1   5  -2  790.12   46.60
  -1  -5  -2  813.22   44.00
  -1  -5  -2  741.03   43.90
  -1   5   2  848.62   44.10
   1  -5   2  875.21   45.90
  -1   5   2  951.80   45.50
   1   5  -2  803.12   46.10
   1  -5   2  886.71   46.60
   1  -5   2  825.72   45.90
   1   5  -2  914.41   46.40
   1  -5  -2  810.22   45.60
   1  -5  -2  898.51   47.10
   1   5   2  812.82   44.00
  -1  -5   2  888.31   46.90
  -1   5  -2  774.02   46.50
  -1   5  -2  900.41   46.30
   1   5   2  819.02   43.90
  -1  -5   2  887.91   46.30
   1  -5  -2  829.62   45.00
  -1   5  -2  908.11   48.10
   1  -5  -2  909.11   47.90
   1  -5  -2  844.32   45.30
   1  -5  -2  869.61   45.30
  -1  -5   2  807.52   46.00
   1  -5   3   65.49    6.80
   1  -5   3   62.39    6.70
   1   5  -3   47.90    5.80
   1   5  -3   56.19    6.40
   1   5  -3   65.59    7.50
   1  -5   3   57.39    5.80
  -1   5   3   61.19    5.80
   1  -5   3   63.99    6.40
  -1   5   3   59.89    7.00
  -1   5   3   56.69    5.40
  -1  -5  -3   68.49    8.20
  -1  -5   3   52.79    6.90
  -1   5  -3   58.29    6.30
  -1   5  -3   57.99    5.80
  -1  -5   3   62.89    7.20
   1  -5  -3   63.09    8.50
   1  -5  -3   55.39    5.70
   1  -5  -3   57.59    5.00
   1  -5  -3   63.49    7.80
  -1  -5   3   63.49    7.00
  -1   5  -3   63.49    7.20
  -1  -5   3   56.69    5.60
  -1   5  -3   69.29   11.90
   1  -5  -3   60.39    5.60
   1  -5   4  582.64   34.70
  -1  -5  -4  653.63   36.90
   1  -5   4  683.63   37.10
   1   5  -4  571.94   35.40
   1   5  -4  623.74   36.50
  -1   5   4  656.13   34.20
   1  -5   4  628.04   35.00
   1   5  -4  657.23   36.40
  -1   5   4  567.24   37.10
   1  -5   4  662.13   35.60
  -1  -5   4  644.24   35.90
   1  -5  -4  644.24   38.00
   1  -5  -4  604.64   33.80
  -1  -5   4  602.94   35.20
   1  -5  -4  594.74   34.10
  -1  -5   4  649.24   35.90
  -1   5  -4  604.54   36.10
  -1  -5   4  571.84   37.10
  -1   5  -4  647.74   35.70
  -1   5  -4  693.63   39.20
  -1  -5   4  643.04   36.50
  -1   5  -4  571.04   35.00
   1  -5  -4  605.44   37.20
   1  -5  -4  593.54   33.70
   1  -5  -4  611.84   34.20
   1   5   4  603.34   36.30
   1   5  -5   47.70    7.90
  -1  -5  -5   30.40    8.40
  -1  -5  -5   19.90    9.00
  -1   5   5   27.60    5.10
   1  -5   5   39.70    6.60
  -1  -5  -5   31.70    3.20
   1   5  -5   34.30    5.60
   1   5  -5   21.70   10.80
   1  -5   5   45.10    6.40
  -1   5   5   28.40    5.30
   1  -5   5   30.20    6.00
  -1   5   5   26.40    4.90
  -1  -5  -5   28.60    3.40
  -1   5  -5   28.40    6.80
   1  -5  -5   35.20    4.00
  -1   5  -5   37.00    4.90
   1  -5  -5   45.50    8.60
  -1   5  -5   37.30    5.40
  -1  -5   5   40.00    6.60
   1  -5  -5   26.90    5.20
   1  -5  -5   30.60    9.50
  -1  -5   5   40.40    6.80
  -1  -5   5   42.20    7.50
   1   5   5   41.30    5.90
   1  -5  -5   32.50    3.60
  -1   5  -5   39.40   11.40
  -1  -5   5   22.70    4.10
  -1  -5   5   38.90    4.10
   1  -5   6  206.48   13.40
  -1   5   6  198.48   16.30
  -1  -5  -6  224.28   19.10
   1  -5   6  182.08   14.60
   1   5  -6  202.88   14.50
   1  -5   6  198.28   13.60
  -1   5   6  195.08   12.50
   1  -5   6  213.68   16.30
  -1  -5  -6  196.48   17.50
   1   5  -6  179.38   20.80
  -1   5   6  197.68   12.50
   1   5  -6  211.18   15.60
   1  -5  -6  194.88   12.40
  -1   5  -6  215.98   15.50
   1  -5  -6  223.68   13.40
  -1   5  -6  180.88   20.40
  -1   5  -6  193.28   15.80
   1   5   6  203.78   15.90
  -1  -5   6  218.48   13.70
  -1  -5   6  218.48   16.40
  -1  -5   6  202.88   15.80
   1  -5  -6  173.58   12.70
  -1   5  -6  197.78   14.20
   1   5  -7   22.30    7.60
  -1  -5  -7   23.50    3.50
  -1  -5  -7   12.00    6.40
  -1   5   7   15.00    5.00
  -1   5   7   11.70    6.10
   1   5  -7   25.50    4.60
   1  -5   7   21.60    5.30
   1   5  -7   34.40    5.60
  -1   5   7   16.70    4.30
  -1  -5  -7   22.50   10.60
  -1   5  -7   29.90    4.90
   1  -5  -7   18.80    4.80
  -1  -5   7   20.90    5.70
  -1   5  -7   29.40    7.20
  -1   5  -7   18.60    5.20
   1   5   7   31.20    6.00
  -1  -5   7   21.80    6.50
  -1  -5   7   31.60    5.40
   1  -5  -7   23.60    4.40
   1  -5  -7   39.50    8.60
   1  -5  -7   25.70    3.20
   1   5  -8    3.30    6.60
  -1   5   8   -0.30    6.50
   1  -5   8   -8.10    6.70
   1   5  -8    3.50    6.20
  -1   5   8   -2.90    8.50
  -1  -5   8    8.00    7.10
   1  -5  -8    4.70    5.90
  -1   5  -8    6.40    6.80
  -1   5  -8    6.60    5.80
   1   5   8    0.10    6.90
   1  -5  -8    4.40    2.50
  -2  -5   0   13.10    3.80
  -2   5   0   13.30    4.40
   2   5   0    9.20    4.00
  -2  -5   0   12.20    4.00
   2   5   0   12.10    2.80
   2   5   0   11.80    3.80
  -2   5   0   15.10    2.80
  -2  -5   0    9.80    2.90
  -2  -5   0   12.10    4.10
   2   5   0    3.00    4.60
   2  -5   0   14.30    4.30
   2  -5   0   10.10    3.20
  -2   5   0   12.70    4.10
   2  -5   0   12.30    4.10
  -2   5   0   15.30    3.60
   2  -5   0   10.50    3.60
  -2   5   1 3916.31  219.68
  -2  -5  -1 4204.38  219.68
  -2   5   1 4328.57  221.88
  -2  -5  -1 4130.49  219.18
  -2  -5  -1 4353.66  219.18
   2   5  -1 3936.91  221.88
  -2   5   1 4124.99  220.08
   2  -5   1 3984.70  220.08
   2   5  -1 4229.58  220.88
   2   5  -1 4317.27  220.38
  -2   5   1 4691.63  220.38
   2  -5   1 4304.07  219.98
   2  -5   1 4350.36  221.68
   2   5  -1 4642.94  220.38
  -2   5   1 4449.15  220.38
   2  -5   1 4442.76  220.88
  -2   5  -1 4091.69  221.68
   2  -5  -1 4321.27  220.48
  -2  -5   1 4179.18  220.08
   2  -5  -1 4363.16  219.78
   2   5   1 4534.65  219.18
   2  -5  -1 4278.37  220.18
  -2  -5   1 3818.12  221.28
   2  -5  -1 4257.17  220.28
  -2   5  -1 4038.10  220.78
  -2  -5   1 4506.15  221.18
  -2  -5   1 4299.17  220.28
  -2   5  -1 4224.48  219.98
   2   5   1 4224.28  219.28
   2  -5  -1 3912.01  220.78
  -2   5  -1 4679.23  220.68
   2   5   1 3792.02  218.68
  -2   5  -1 4714.33  221.98
  -2   5   2 2214.18  115.49
  -2  -5  -2 2000.20  114.19
  -2   5   2 2394.56  115.99
   2   5  -2 2248.58  117.29
  -2  -5  -2 2094.19  114.09
   2   5  -2 2217.58  116.69
   2  -5   2 2242.68  116.69
   2  -5   2 2226.68  116.09
  -2  -5  -2 2072.39  114.59
  -2   5   2 2150.28  118.69
   2   5  -2 2445.26  116.69
  -2  -5  -2 2491.95  119.49
  -2   5   2 2070.79  115.49
  -2  -5  -2 2227.68  115.89
   2  -5  -2 2200.58  115.89
  -2  -5   2 2281.37  116.29
  -2  -5   2 2316.97  116.59
   2  -5  -2 2137.09  116.29
   2  -5  -2 2236.68  116.69
  -2   5  -2 1963.80  116.59
   2   5   2 2234.68  114.19
   2  -5  -2 2339.97  115.59
   2   5   2 2064.39  114.19
  -2   5  -2 2480.05  116.69
  -2  -5   2 2246.88  117.19
  -2   5  -2 2063.39  115.59
   2  -5  -2 2445.26  116.39
  -2   5  -2 1950.20  114.69
  -2  -5   2 2246.38  117.69
  -2   5   3 3113.39  151.68
  -2   5   3 2863.31  151.18
   2  -5   3 3209.38  153.78
   2  -5   3 2740.33  151.58
  -2  -5  -3 3022.50  152.38
  -2   5   3 2860.51  150.18
   2  -5   3 3033.20  152.48
   2   5  -3 2839.32  152.48
   2   5  -3 2831.32  153.38
   2  -5   3 2964.00  151.58
  -2  -5  -3 2554.84  149.49
   2   5  -3 3053.69  152.58
  -2   5   3 2824.82  153.28
  -2   5  -3 3104.99  152.38
  -2  -5   3 2746.13  153.58
   2  -5  -3 2734.63  151.88
   2  -5  -3 3127.69  153.48
  -2  -5   3 2803.92  152.08
   2  -5  -3 2893.01  151.18
  -2  -5   3 3066.99  152.68
  -2  -5   3 2835.52  153.98
  -2   5  -3 2756.32  152.78
  -2  -5   3 2974.30  153.08
   2  -5  -3 2925.11  151.58
   2  -5  -3 2932.61  151.78
   2   5  -4 1231.48   65.99
   2  -5   4 1363.96   65.59
   2  -5   4 1227.68   65.89
  -2   5   4 1214.38   64.19
   2  -5   4 1166.78   64.39
  -2   5   4 1283.27   64.59
  -2   5   4 1158.78   67.09
  -2  -5  -4 1266.27   66.29
  -2  -5  -4 1020.90   61.99
   2   5  -4 1110.09   65.59
   2  -5   4 1198.98   64.59
   2  -5   4 1361.96   66.39
  -2  -5  -4 1099.29   62.19
   2   5  -4 1190.88   66.79
  -2   5  -4 1217.78   65.29
  -2  -5   4 1255.37   66.19
   2  -5  -4 1203.48   64.49
   2  -5  -4 1202.48   64.99
  -2   5  -4 1177.38   64.89
   2  -5  -4 1237.28   64.29
  -2   5  -4 1173.58   65.99
  -2  -5   4 1199.88   65.39
   2  -5  -4 1146.19   66.79
  -2  -5   4 1104.39   67.19
  -2  -5   4 1213.78   65.79
   2  -5   5  415.06   22.70
   2   5  -5  364.36   24.60
  -2   5   5  355.46   22.00
  -2   5   5  388.96   22.50
   2   5  -5  334.67   23.20
  -2   5   5  334.77   24.80
  -2  -5  -5  366.36   20.10
  -2  -5  -5  392.66   25.00
   2   5  -5  381.96   24.30
   2  -5   5  379.76   22.60
   2  -5   5  365.36   22.80
   2  -5   5  374.16   24.10
   2  -5   5  329.77   21.60
  -2  -5   5  346.47   25.10
  -2  -5   5  370.76   23.80
  -2   5  -5  414.26   28.30
   2  -5  -5  360.96   22.60
  -2  -5   5  360.46   22.80
   2   5   5  371.96   24.00
  -2   5  -5  361.76   23.80
   2  -5  -5  355.26   21.90
  -2  -5   5  374.36   22.80
   2  -5  -5  348.27   22.10
  -2   5  -5  365.96   22.60
  -2  -5   5  355.96   23.90
  -2   5  -5  363.76   23.30
   2  -5   6  355.56   20.80
   2   5  -6  382.86   25.10
  -2   5   6  362.16   21.80
   2  -5   6  324.87   21.20
   2  -5   6  389.46   24.40
   2   5  -6  354.86   27.50
  -2  -5  -6  374.26   25.60
   2   5  -6  357.86   24.40
  -2   5   6  344.57   21.90
  -2   5   6  334.07   29.00
  -2  -5  -6  303.87   22.70
  -2   5  -6  369.46   27.40
  -2  -5   6  366.76   22.20
  -2  -5   6  324.67   26.90
   2  -5  -6  350.76   21.30
   2  -5  -6  356.56   22.40
  -2  -5   6  371.36   23.40
   2   5   6  344.77   23.80
  -2   5  -6  350.76   23.50
  -2  -5   6  384.86   22.40
  -2   5  -6  379.36   22.50
   2  -5  -6  351.86   21.80
  -2   5  -6  357.46   23.40
   2   5  -7   49.90    6.50
  -2  -5  -7   20.50   10.70
  -2   5   7   45.20    8.60
   2  -5   7   25.90    6.30
   2   5  -7   41.80    9.80
   2  -5   7   30.50    5.00
  -2  -5  -7   35.20    3.80
  -2   5   7   33.40    6.20
   2   5  -7   39.20    6.00
   2   5   7   46.60    5.30
  -2  -5   7   25.60    6.20
   2  -5  -7   39.00   10.40
  -2  -5   7   31.80   11.10
  -2   5  -7   37.40    5.30
   2  -5  -7   40.40    4.40
  -2  -5   7   43.60    5.30
  -2   5  -7   28.50    5.00
   2  -5  -7   36.70    5.30
  -2   5   8   -2.90    8.10
  -2   5   8    5.90    7.30
   2   5  -8   13.50    7.70
   2  -5   8    6.00    7.20
  -2   5  -8   12.50    7.00
  -2  -5   8    9.10    6.80
   2  -5  -8   22.30    6.80
  -3   5   0 1971.40   95.59
  -3  -5   0 1765.32   94.49
   3   5   0 1559.14   95.99
   3  -5   0 1676.33   96.29
  -3   5   0 1848.42   94.79
  -3  -5   0 1843.62   94.79
   3  -5   0 1756.42   95.19
   3   5   0 1833.62   95.19
   3  -5   0 1576.94   98.69
  -3  -5   0 1924.01   96.19
  -3   5   0 1915.61   96.59
   3   5   0 1795.12   94.69
   3  -5   0 1857.11   94.79
  -3  -5   0 1910.31   95.69
  -3   5   0 1717.73   95.59
  -3  -5  -1 2141.39  117.39
  -3   5   1 2448.26  118.99
   3  -5   1 2309.97  118.79
  -3   5   1 2333.17  118.39
   3   5  -1 2378.66  118.59
   3   5  -1 2290.17  118.79
  -3  -5  -1 2381.76  118.59
   3  -5   1 2290.37  118.19
   3  -5   1 2339.97  120.79
  -3   5   1 2437.96  119.19
   3   5  -1 2110.19  119.39
  -3  -5  -1 2219.18  117.69
   3  -5   1 2160.08  121.19
   3   5  -1 1957.20  123.09
  -3   5   1 2154.98  120.29
  -3   5   1 2105.49  118.99
  -3  -5   1 2177.48  118.39
   3  -5  -1 2358.16  118.19
   3   5   1 2240.98  117.39
  -3  -5   1 2284.57  119.59
   3  -5  -1 2240.98  120.19
  -3  -5   1 2327.77  120.09
  -3  -5   1 2402.36  118.89
  -3   5  -1 2163.88  118.19
   3  -5  -1 2291.87  119.89
  -3   5  -1 1916.41  118.89
   3  -5  -1 2326.37  118.29
   3   5   1 2125.79  117.59
   3   5   1 2459.65  117.69
   3  -5  -1 2215.48  118.69
  -3   5  -1 2209.28  119.89
  -3   5  -1 2409.76  118.99
   3   5  -2  880.91   47.90
  -3  -5  -2  854.31   45.70
   3   5  -2  812.22   48.50
   3  -5   2  931.51   48.40
  -3   5   2  897.31   47.60
   3  -5   2  799.82   47.10
  -3  -5  -2  820.72   46.00
  -3  -5  -2  865.21   46.60
  -3  -5  -2  996.30   47.50
   3  -5   2  963.30   49.20
  -3   5   2  887.21   47.60
  -3   5   2  896.31   47.70
   3  -5   2  856.01   47.10
  -3  -5  -2  825.62   46.60
  -3   5   2  795.82   49.80
   3   5  -2  786.72   47.60
  -3   5   2  879.11   47.20
  -3   5  -2  806.12   46.90
   3   5   2  832.02   45.90
  -3  -5   2  830.82   47.90
  -3  -5   2  813.82   47.50
  -3  -5   2  870.01   48.80
   3  -5  -2  860.01   47.20
  -3   5  -2  904.51   48.00
   3  -5  -2  825.52   47.40
  -3   5  -2  853.41   48.40
   3   5   2  906.11   45.90
   3  -5  -2  831.72   48.20
   3  -5  -2  870.31   48.10
  -3   5   3 1417.56   80.39
   3   5  -3 1504.15   81.99
  -3  -5  -3 1644.24   81.09
   3  -5   3 1625.64   81.99
  -3  -5  -3 1535.35   79.89
  -3  -5  -3 1426.36   78.89
  -3   5   3 1620.34   81.49
  -3   5   3 1619.04   80.89
   3   5  -3 1568.34   81.89
   3  -5   3 1705.03   82.99
  -3  -5  -3 1437.06   78.49
  -3   5   3 1618.34   81.09
  -3  -5  -3 1346.27   80.19
   3  -5   3 1526.95   80.79
   3   5  -3 1454.75   82.89
  -3   5   3 1364.76   82.09
   3  -5   3 1490.25   80.99
  -3   5   3 1374.96   84.19
  -3  -5  -3 1377.66   84.19
   3  -5  -3 1513.95   81.29
  -3  -5   3 1501.35   81.59
  -3   5  -3 1622.74   81.89
  -3  -5   3 1582.04   82.79
  -3   5  -3 1701.73   84.49
   3  -5  -3 1564.54   81.89
  -3  -5   3 1481.85   82.59
   3  -5  -3 1561.04   82.19
   3   5   3 1343.27   78.49
   3   5   3 1620.74   78.69
  -3   5  -3 1357.26   81.89
  -3  -5   3 1541.35   82.09
   3  -5  -3 1503.45   82.19
   3  -5  -3 1575.74   81.09
  -3   5  -3 1447.96   80.69
  -3  -5  -4  750.12   37.80
  -3   5   4  620.54   37.20
   3  -5   4  681.33   38.70
   3  -5   4  690.63   38.90
  -3   5   4  733.13   38.60
  -3  -5  -4  713.93   39.40
   3   5  -4  649.14   40.90
   3   5  -4  636.84   39.70
  -3   5   4  651.23   37.10
   3  -5   4  636.34   38.10
   3   5  -4  690.93   40.20
  -3   5   4  589.04   40.30
  -3   5   4  713.83   43.00
  -3   5   4  699.73   39.10
   3  -5  -4  690.13   38.90
   3  -5  -4  688.33   39.00
   3  -5  -4  674.13   39.60
  -3  -5   4  677.63   40.20
  -3   5  -4  712.33   39.60
  -3   5  -4  672.23   40.00
  -3   5  -4  764.22   43.00
  -3  -5   4  691.03   39.50
   3  -5  -4  671.43   40.80
  -3  -5   4  718.43   40.70
  -3  -5   4  654.73   41.10
  -3   5   5  605.74   32.30
   3   5  -5  570.84   34.30
   3  -5   5  628.84   32.50
   3   5  -5  520.45   34.70
   3  -5   5  574.24   33.30
   3  -5   5  522.15   31.60
   3  -5   5  545.15   32.10
   3   5  -5  542.55   33.90
   3  -5   5  562.54   32.60
  -3  -5  -5  586.74   34.00
  -3  -5  -5  598.54   30.80
  -3   5   5  567.84   32.90
  -3   5   5  533.35   35.30
   3  -5  -5  555.34   32.80
  -3  -5   5  577.94   34.30
   3  -5  -5  486.05   35.00
  -3  -5   5  510.35   35.10
  -3   5  -5  532.45   32.30
  -3   5  -5  561.24   34.10
  -3   5  -5  554.94   37.40
   3  -5  -5  567.94   33.60
  -3   5  -5  586.94   33.70
   3  -5  -5  523.55   32.50
  -3  -5   5  518.85   32.90
  -3   5   6    4.90    5.30
   3  -5   6   15.50    2.60
   3  -5   6   14.50    3.70
  -3  -5  -6   12.20    6.90
   3   5  -6   15.60    4.40
   3  -5   6   22.10    4.40
  -3   5   6   17.00    4.80
   3   5  -6   16.40    8.40
  -3  -5  -6   11.40    5.00
  -3  -5   6   22.30    5.00
  -3  -5   6   17.90    4.20
   3  -5  -6   23.50    4.00
  -3   5  -6   13.70    3.40
  -3  -5   6   14.50    4.60
  -3  -5   6   13.30    6.80
   3  -5  -6   17.30    4.60
  -3   5  -6   12.80    4.40
  -3   5  -6   25.40    7.40
   3  -5  -6   11.10    9.50
  -3  -5   6    5.40    5.50
  -3   5  -6   18.00   12.40
   3   5  -7   13.20    6.20
  -3   5   7   13.50    5.80
   3  -5   7   10.70    5.70
   3   5  -7   17.90    5.30
  -3   5   7    9.30    6.80
  -3  -5  -7   10.10   16.70
  -3  -5  -7   13.50    3.80
   3   5  -7   -3.70   20.40
  -3  -5   7    8.30    5.00
   3  -5  -7   19.20    4.60
  -3   5  -7   23.80    6.70
  -3   5  -7   10.30    4.50
   3  -5  -7   18.00    5.60
  -3  -5   7    8.40    5.50
  -3  -5   7    9.80    5.20
  -3  -5   7    3.60    6.10
   3  -5   8    3.50    7.40
  -3   5   8    5.70    7.80
   3   5  -8   18.90    7.90
   3   5  -8   20.20    8.10
  -3   5   8   -3.80    9.80
  -3   5  -8   14.50    6.30
   3  -5  -8    1.80    8.10
  -3   5  -8   14.60    7.60
  -3  -5   8    8.10    8.10
   3  -5  -8    9.20    5.60
  -4   5   0 1443.96   78.69
  -4   5   0 1504.05   78.29
   4  -5   0 1443.46   77.89
  -4   5   0 1411.76   77.39
   4   5   0 1382.96   77.29
   4  -5   0 1530.55   78.89
  -4  -5   0 1344.07   76.89
  -4  -5   0 1501.45   78.69
   4  -5   0 1442.06   77.39
   4   5   0 1335.07   77.49
  -4   5   0 1531.65   78.89
   4  -5   0 1348.67   79.49
   4   5   0 1495.35   77.29
   4  -5   0 1461.45   75.99
  -4  -5   0 1453.55   77.59
  -4  -5  -1  976.10   52.39
  -4   5   1  826.72   53.09
  -4   5   1  986.30   53.49
   4  -5   1  988.30   53.89
   4   5  -1  962.50   53.79
   4  -5   1  897.01   52.79
  -4   5   1  970.60   53.59
   4  -5   1  949.90   52.49
  -4   5   1  889.91   52.39
  -4  -5  -1  945.01   51.79
   4   5  -1  878.21   52.69
   4  -5   1  962.50   54.79
   4   5  -1  964.20   52.89
  -4  -5  -1 1002.40   53.39
   4   5   1  995.40   52.09
  -4   5  -1 1019.90   53.69
  -4   5  -1  959.50   54.29
  -4  -5   1  964.10   53.09
  -4   5  -1  892.01   52.29
   4  -5  -1  979.80   51.99
  -4  -5   1  958.90   52.79
  -4  -5   1 1015.00   54.39
   4  -5  -1  983.60   52.79
   4   5   1  948.01   52.09
   4   5   1 1022.80   52.19
   4  -5  -1 1014.30   54.79
   4  -5  -1  879.11   52.79
   4  -5  -1  928.41   53.69
  -4  -5  -2 1008.90   55.19
   4   5  -2 1012.20   57.89
  -4   5   2 1025.70   56.19
  -4  -5  -2 1014.20   54.69
   4   5  -2  976.90   56.69
   4  -5   2  981.20   56.09
  -4   5   2  992.90   59.09
  -4   5   2  958.70   56.59
  -4  -5  -2 1031.80   54.49
   4  -5   2 1093.39   57.59
   4  -5   2  994.00   55.89
  -4   5   2 1037.70   56.89
   4  -5   2 1128.79   58.19
  -4  -5  -2  998.10   58.89
  -4   5   2 1063.09   56.99
   4   5  -2 1043.80   56.79
   4  -5  -2 1061.49   56.29
   4  -5  -2  919.41   56.29
   4  -5  -2 1043.20   57.49
  -4  -5   2 1036.20   57.09
  -4  -5   2 1011.60   56.49
   4  -5  -2  984.70   57.59
  -4  -5   2 1026.80   56.39
   4   5   2 1134.89   55.19
  -4  -5   2 1052.19   58.09
  -4   5  -2  934.81   55.69
  -4   5  -2  964.70   58.19
   4   5   2 1014.70   55.09
  -4   5  -2 1057.49   58.59
  -4   5  -2  960.30   57.19
   4  -5  -2 1095.59   56.49
  -4   5   3  313.07   23.40
  -4  -5  -3  336.57   20.90
  -4   5   3  310.17   21.00
  -4  -5  -3  291.17   17.70
   4   5  -3  316.37   21.60
  -4   5   3  292.57   20.40
   4   5  -3  288.47   20.50
   4  -5   3  301.57   20.20
  -4  -5  -3  321.77   19.20
   4   5  -3  297.57   21.80
  -4   5   3  321.77   20.50
   4  -5   3  295.37   18.20
  -4  -5  -3  286.17   18.60
   4  -5   3  337.27   21.20
   4  -5   3  324.17   21.20
  -4   5   3  329.77   20.00
  -4   5   3  324.07   20.10
   4  -5   3  285.87   19.10
  -4   5  -3  301.27   20.80
  -4   5  -3  328.27   21.30
  -4  -5   3  293.47   20.60
  -4  -5   3  304.37   20.30
   4  -5  -3  305.97   20.50
  -4  -5   3  307.07   21.90
   4  -5  -3  310.37   20.60
   4  -5  -3  299.47   21.00
  -4  -5   3  301.67   21.50
   4  -5  -3  316.27   21.20
   4   5   3  341.27   18.50
  -4   5  -3  295.67   19.60
  -4   5  -3  309.27   23.30
   4  -5   4  612.84   36.30
   4   5  -4  604.24   37.60
  -4  -5  -4  585.54   33.40
   4  -5   4  646.74   35.50
   4  -5   4  725.73   37.70
   4   5  -4  655.03   38.40
   4  -5   4  575.44   35.50
  -4   5   4  618.64   35.90
  -4  -5  -4  624.94   36.60
   4  -5   4  674.63   37.20
  -4  -5  -4  649.54   37.80
   4   5  -4  623.54   39.10
  -4   5   4  671.63   36.70
  -4   5   4  641.14   41.20
  -4  -5  -4  575.04   34.00
  -4   5   4  638.74   38.50
  -4  -5  -4  650.63   35.60
  -4   5   4  634.84   37.60
  -4  -5   4  633.44   38.50
   4   5   4  682.53   33.70
  -4  -5   4  646.84   38.80
  -4  -5   4  614.94   38.10
   4   5   4  551.94   33.30
   4  -5  -4  621.54   38.40
   4  -5  -4  568.74   39.10
   4  -5  -4  613.54   37.10
  -4   5  -4  672.23   41.00
  -4   5  -4  621.74   36.10
  -4   5  -4  633.84   38.20
   4  -5  -4  617.64   38.10
  -4   5  -4  667.63   37.70
  -4  -5   4  621.44   37.40
  -4   5   5   61.49    6.10
   4  -5   5   54.69    4.80
  -4   5   5   73.89    7.50
  -4   5   5   68.69    5.10
   4  -5   5   69.39    6.00
   4  -5   5   63.69    5.80
   4   5  -5   75.59    7.20
  -4  -5  -5   64.89    9.00
   4   5  -5   66.99   10.80
  -4  -5  -5   65.49    9.20
  -4   5   5   64.49    8.30
  -4   5   5   54.89    6.70
  -4  -5  -5   68.99    5.50
  -4  -5   5   67.69   10.20
  -4   5  -5   60.59    6.60
  -4   5  -5   70.39   10.60
  -4  -5   5   72.09    7.00
  -4   5  -5   66.19   14.30
   4  -5  -5   58.29    5.90
   4  -5  -5   61.79    7.40
  -4  -5   5   63.09    7.50
   4   5  -6   28.20    9.30
   4  -5   6   29.90    4.20
  -4  -5  -6   18.10    7.20
  -4   5   6   19.30    4.70
   4   5  -6   27.80    5.10
   4  -5   6   24.50    4.60
  -4  -5  -6   24.50    3.80
  -4   5   6   22.80    5.30
   4   5  -6   17.30    5.10
   4  -5   6   16.70    4.30
  -4  -5  -6   28.80    7.20
  -4  -5   6   19.00    5.20
  -4   5  -6   16.50    6.70
  -4  -5   6   18.70    8.90
  -4   5  -6   19.30    4.70
  -4  -5   6   25.30    5.50
  -4  -5   6   26.50    5.50
   4  -5  -6   25.70    5.50
   4  -5  -6   27.40    5.20
   4  -5  -6   16.30   10.70
  -4   5  -6   30.00    4.40
  -4   5   7   30.30    7.50
   4   5  -7   24.10    6.90
  -4  -5  -7    9.80    4.80
  -4   5   7    3.10    8.50
   4   5  -7   18.40    6.20
  -4  -5   7   23.30    6.60
   4  -5  -7   25.10    6.90
  -4   5  -7   29.30    5.40
  -4   5  -7   16.00    6.30
  -4  -5   7   15.10    6.50
  -4  -5   7   10.00    6.20
  -4  -5   7   18.20    6.40
   4  -5  -7   24.70    7.20
   4   5  -8   14.70    9.20
  -4   5   8    3.20   11.70
   4  -5   8    4.90    7.80
   4   5  -8    4.90    9.40
  -4   5   8    2.00    9.40
   4  -5  -8   15.50    7.20
  -4  -5   8    3.10    8.90
  -4   5  -8   -4.70    8.90
  -4   5  -8    5.90    6.80
   4  -5  -8   16.80    9.50
   5   5   0   -2.00    2.70
  -5   5   0   -4.40    6.40
   5   5   0   -2.50    7.90
   5   5   0    2.10    2.70
   5  -5   0   -2.60    3.70
   5  -5   0    0.20    3.30
  -5  -5   0   -3.60    6.50
   5  -5   0   -1.40    5.90
  -5   5   0    2.10    6.00
   5  -5   0   -3.00    3.00
  -5   5   0    2.40    3.60
  -5  -5   0    3.00    3.50
   5   5   0    0.60    5.40
   5  -5   0    3.80    6.60
  -5  -5   0    1.90    4.30
  -5  -5   0    2.40    6.60
  -5   5   0    3.20    4.50
   5  -5   1 1316.97   72.49
  -5  -5  -1 1346.77   74.69
   5  -5   1 1335.67   75.89
  -5  -5  -1 1519.65   77.19
   5   5  -1 1316.07   76.69
  -5   5   1 1465.05   76.89
   5   5  -1 1429.66   75.99
   5  -5   1 1408.16   76.99
  -5   5   1 1391.16   76.89
  -5   5   1 1379.76   77.19
   5  -5   1 1402.56   75.59
  -5  -5  -1 1479.75   75.79
   5  -5   1 1260.57   77.39
   5   5  -1 1375.56   76.09
  -5   5   1 1365.46   75.59
  -5  -5   1 1369.76   74.29
  -5  -5   1 1434.86   76.59
   5   5   1 1446.76   75.19
   5  -5  -1 1437.36   75.89
   5  -5  -1 1358.16   76.19
   5  -5  -1 1329.47   78.19
  -5  -5   1 1411.36   77.59
  -5  -5   1 1291.37   75.39
   5   5   1 1423.86   75.19
   5   5   1 1364.66   75.19
  -5   5  -1 1378.56   77.49
  -5   5  -1 1309.17   76.99
  -5   5  -1 1462.25   76.69
   5  -5  -1 1482.05   74.49
  -5   5  -1 1397.06   75.59
   5  -5   2  250.37   18.90
   5  -5   2  232.98   16.70
   5   5  -2  227.18   17.30
  -5  -5  -2  251.27   14.40
   5  -5   2  248.98   18.40
   5   5  -2  228.48   17.90
   5  -5   2  243.08   17.40
  -5   5   2  225.78   17.40
  -5   5   2  250.87   18.30
  -5  -5  -2  262.27   18.50
  -5  -5  -2  244.98   17.00
  -5   5   2  244.68   18.40
  -5   5   2  249.97   17.00
   5   5  -2  250.57   18.50
  -5  -5  -2  249.88   15.80
   5  -5  -2  233.88   17.30
   5  -5  -2  203.68   17.80
  -5  -5   2  233.78   17.00
  -5   5  -2  242.28   16.60
  -5   5  -2  268.87   19.00
  -5  -5   2  245.98   16.50
   5   5   2  255.77   16.60
   5  -5  -2  257.17   17.20
  -5  -5   2  255.47   19.20
  -5  -5   2  240.08   19.30
   5   5   2  234.28   14.90
  -5   5  -2  254.77   19.80
  -5   5  -2  219.68   17.80
   5   5   2  236.48   15.70
   5  -5  -2  248.08   18.30
  -5   5   3  253.57   17.50
   5  -5   3  216.68   15.80
   5   5  -3  222.58   17.20
  -5   5   3  248.48   20.30
   5   5  -3  236.78   18.50
   5  -5   3  212.38   13.80
  -5  -5  -3  226.48   16.10
  -5  -5  -3  249.78   14.90
  -5   5   3  234.38   18.10
   5   5  -3  251.27   19.40
  -5  -5  -3  269.57   18.40
   5  -5   3  201.98   16.80
   5  -5   3  232.98   17.50
  -5  -5  -3  243.38   14.90
  -5   5   3  262.17   17.10
   5   5   3  268.37   16.10
   5  -5  -3  233.58   17.30
   5  -5  -3  223.28   17.70
  -5  -5   3  236.68   19.10
  -5   5  -3  242.78   16.50
  -5  -5   3  228.08   17.00
  -5   5  -3  261.67   18.70
   5  -5  -3  242.78   18.20
  -5   5  -3  272.07   21.90
  -5   5  -3  220.98   17.60
   5  -5  -3  257.47   17.90
  -5  -5   3  230.88   18.40
   5   5   3  221.18   15.40
  -5  -5   3  253.07   17.70
  -5  -5  -4   42.00    4.40
  -5   5   4   36.50    5.00
   5   5  -4   40.10   10.20
  -5  -5  -4   37.40    6.70
  -5   5   4   27.20    7.60
   5  -5   4   49.30    4.70
  -5  -5  -4   37.00    6.30
   5  -5   4   41.70    3.70
   5   5  -4   41.40    5.60
  -5  -5  -4   39.30    3.70
  -5   5   4   50.79    5.70
   5   5  -4   38.80    5.10
  -5  -5  -4   40.60    8.60
  -5   5   4   43.00    6.40
  -5   5   4   44.80    5.70
  -5  -5  -4   25.70    9.90
  -5  -5   4   48.40    5.90
   5  -5  -4   31.60    5.90
   5  -5  -4   35.30    5.40
   5  -5  -4   34.20    9.40
  -5   5  -4   34.10   13.20
  -5   5  -4   45.70    6.30
   5   5   4   47.60    6.00
  -5   5  -4   45.20    8.80
   5  -5  -4   13.60   19.60
   5  -5  -4   44.60    8.60
  -5  -5   4   35.70    5.50
  -5   5  -4   32.10    4.80
  -5  -5   4   35.90    9.80
   5   5   4   33.70    5.30
   5  -5   5   30.60    4.60
  -5   5   5   24.90    4.00
  -5  -5  -5   33.50    4.30
  -5  -5  -5   25.00    2.70
  -5  -5  -5   31.50    6.60
   5   5  -5   25.60    5.10
   5   5  -5   24.10   10.30
   5  -5   5   18.60    3.60
  -5   5   5   25.30    6.40
   5  -5   5    9.40    7.60
  -5  -5  -5    4.80   11.10
  -5   5   5   26.20    6.50
   5  -5   5   23.70    3.80
  -5  -5  -5   37.90    8.30
  -5   5   5   25.20    4.90
  -5   5   5   18.40    5.70
   5  -5  -5   26.70    7.80
  -5   5  -5   25.20    4.60
  -5  -5   5   30.20    5.10
   5  -5  -5   21.90    4.80
   5  -5  -5   32.00    4.60
   5   5   5   30.60    3.00
  -5  -5   5   27.20    5.60
   5   5   5   27.30    3.10
   5  -5   6    0.30    4.10
   5   5  -6    5.80    6.20
  -5   5   6    1.90    5.80
  -5  -5  -6   -3.20    4.40
  -5   5   6    0.40    3.20
  -5   5   6   -6.80    7.00
   5   5  -6    7.20    5.60
  -5  -5   6    9.40    5.70
  -5  -5   6   -0.20    5.90
  -5  -5   6    6.20    6.10
  -5   5  -6    4.60    4.40
   5  -5  -6    8.20    5.80
  -5   5  -6   -0.50    5.70
   5  -5  -6    3.50    6.10
   5   5  -7   26.90    8.10
   5   5  -7   18.50    8.40
  -5   5   7   -2.60   10.30
  -5   5   7   18.90    7.70
   5  -5   7    8.60    5.80
   5  -5  -7    7.70    8.00
  -5  -5   7   -6.80   13.60
  -5  -5   7    3.80    8.30
  -5  -5   7    1.40    7.50
  -5  -5   7   18.10    7.80
  -5   5  -7   12.50    7.40
  -6  -5   0 1324.67   71.29
   6  -5   0 1369.26   71.19
   6  -5   0 1317.67   74.59
  -6  -5   0 1456.55   77.19
   6  -5   0 1354.26   75.19
   6  -5   0 1328.07   77.49
   6   5   0 1330.17   74.49
  -6   5   0 1361.96   74.69
  -6  -5   0 1286.97   73.99
  -6   5   0 1400.46   76.19
   6   5   0 1308.67   75.09
  -6  -5   0 1398.06   75.29
  -6  -5  -1  212.78   17.90
  -6  -5  -1  192.68   14.10
   6  -5   1  183.38   16.00
  -6   5   1  211.38   17.40
  -6   5   1  214.18   17.90
   6  -5   1  175.68   16.00
  -6   5   1  198.78   14.90
   6   5  -1  195.98   15.80
   6  -5   1  169.78   14.60
  -6  -5  -1  207.88   16.20
   6   5  -1  181.88   16.30
  -6   5   1  175.48   15.60
   6   5  -1  198.18   15.10
  -6  -5  -1  189.38   11.30
  -6   5  -1  203.38   15.20
   6  -5  -1  202.18   16.70
   6  -5  -1  180.98   14.80
  -6  -5   1  208.38   13.10
   6   5   1  199.38   16.10
   6   5   1  209.58   14.50
   6  -5  -1  199.58   17.10
  -6  -5   1  193.08   14.80
   6   5   1  187.28   13.60
   6  -5  -1  205.78   13.80
  -6   5  -1  174.88   15.60
  -6  -5   1  195.08   17.20
  -6   5  -1  197.28   17.50
   6  -5   2   26.10    6.30
  -6   5   2   15.70    4.90
  -6   5   2   31.20   11.10
   6   5  -2   29.30    5.10
  -6  -5  -2   18.60    4.00
  -6   5   2   17.60    4.70
  -6  -5  -2   24.90    9.90
  -6  -5  -2   24.60    7.90
   6  -5   2   25.60    4.20
   6   5  -2   15.40    5.30
  -6   5   2   30.40    8.40
   6   5  -2   20.80    8.10
   6   5  -2    2.60   12.40
   6   5   2   20.20    6.80
  -6   5  -2   17.50    5.00
   6   5   2    5.00    8.70
   6   5   2   25.70    3.60
   6  -5  -2   27.30    7.50
  -6  -5   2   33.40    9.20
  -6  -5   2   26.50    3.80
  -6   5  -2   18.70   10.30
  -6  -5   2   20.70    5.00
   6  -5  -2   24.40    6.60
   6   5   2   16.60    4.10
   6  -5  -2   16.20    5.30
   6  -5  -2   19.50    4.60
  -6   5  -2   24.80    8.60
   6   5  -3   42.30    5.80
  -6   5   3   45.10    6.20
   6   5  -3   50.39    7.30
   6  -5   3   41.30    5.40
  -6  -5  -3   46.60    5.00
  -6  -5  -3   62.59    9.50
  -6   5   3   42.10    9.80
  -6   5   3   39.40    8.50
  -6   5   3   49.20    5.70
  -6  -5  -3   57.49    8.60
   6  -5   3   50.49    5.20
  -6  -5  -3   51.09    6.40
   6  -5  -3   56.59    9.40
   6  -5  -3   47.10    6.10
   6  -5  -3   39.40    9.60
  -6   5  -3   60.59   10.70
   6   5   3   49.90    8.00
  -6   5  -3   50.79    6.00
   6   5   3   38.10    6.00
  -6  -5   3   60.19    6.60
  -6  -5   3   47.60    5.70
  -6   5   4   35.20    5.20
  -6  -5  -4   54.59   10.20
  -6  -5  -4   31.90    7.20
  -6   5   4   40.20    6.30
  -6   5   4   33.30    8.80
   6   5  -4   40.50    4.40
   6  -5   4   35.10    5.30
  -6  -5  -4   36.40    5.60
  -6  -5  -4   38.50    4.10
   6  -5   4   31.90    3.70
  -6   5   4   30.50    5.30
   6   5  -4   37.90    5.00
   6  -5   4   45.00    4.70
   6   5   4   27.40    7.20
   6  -5  -4   28.70    5.20
  -6  -5   4   33.00    5.40
  -6   5  -4   33.80    4.40
   6   5   4   32.50    7.50
   6  -5  -4   45.80   10.10
  -6   5  -4   53.09   11.30
   6  -5  -4   30.90    5.40
  -6  -5   4   32.00    5.80
   6  -5  -4   38.20   10.40
  -6   5  -4   28.90    7.80
   6  -5   5    8.30    5.00
  -6  -5  -5    7.40   10.00
  -6  -5  -5    8.90    2.50
  -6  -5  -5    6.90    4.90
   6   5  -5    3.20    6.00
  -6   5   5    3.50    4.90
  -6  -5  -5   -4.50    8.50
   6  -5   5    8.20    4.30
   6  -5   5   12.50    3.00
  -6   5   5    2.30   11.20
   6   5  -5   21.00    5.70
  -6   5   5    2.10    6.20
  -6   5   5    4.50    7.00
  -6   5   5   10.50    5.10
   6  -5  -5   17.30    6.00
  -6   5  -5   10.20    4.00
   6  -5  -5   10.90    5.60
  -6   5  -5    1.30    5.50
   6   5   5    7.00    6.60
   6  -5  -5   10.70    9.50
  -6  -5   5    8.70    5.60
  -6   5   6    9.30    6.70
  -6  -5  -6    3.00    6.00
  -6   5   6    0.30    7.10
   6   5  -6    2.00    7.60
  -6  -5  -6    9.80    2.60
  -6   5   6   -0.50    9.10
   6   5  -6    5.30    7.80
  -6   5   6    3.10    8.40
  -6  -5   6    5.70    7.30
   6  -5  -6    5.80    6.60
  -6   5  -6   14.30    7.50
  -6  -5   6   17.70    7.00
  -6  -5   6    6.80    6.90
   6  -5  -6    3.70    7.70
  -6   5   7    1.40   12.00
   6   5  -7    4.40   10.10
   6   5  -7   11.30   10.80
  -6   5   7    9.90    9.40
  -6   5  -7   -1.30    9.70
  -6  -5   7   -6.30    9.40
   6  -5  -7    8.50    8.30
  -6  -5   7   -0.40    9.90
   6  -5  -7    2.00   10.20
  -6   5  -7    5.50    6.60
  -7  -5   0  389.36   25.00
  -7   5   0  347.17   29.40
   7   5   0  391.76   25.40
   7   5   0  426.76   26.40
  -7   5   0  363.26   26.90
  -7  -5   0  422.86   27.90
   7  -5   0  383.16   26.00
  -7   5   0  400.96   29.50
   7  -5   0  408.96   29.40
  -7   5   1   27.30    4.90
  -7   5   1   25.20    4.20
   7   5  -1   30.50    5.40
  -7  -5  -1   32.80    4.60
  -7  -5  -1   35.30   10.00
   7   5  -1   32.50    4.90
   7  -5   1   41.70    5.20
   7  -5   1   31.90    7.50
  -7   5  -1   28.20    4.80
  -7  -5   1   21.70   10.40
   7  -5  -1   35.50    5.50
  -7  -5   1   37.90    3.50
  -7  -5   1   30.20    4.60
   7   5   1   37.40    5.00
  -7   5  -1   42.70   11.70
   7   5   1   16.60   10.20
   7   5   1   29.10    5.50
  -7   5  -1   23.40    4.50
   7  -5  -1   26.60    5.50
   7  -5  -1   26.40    5.30
  -7   5   2   18.00    4.80
   7  -5   2   20.00    5.80
  -7  -5  -2   16.90    4.40
   7   5  -2   14.80    5.00
  -7  -5  -2   12.70    7.50
  -7   5   2    5.70    4.80
   7  -5   2   18.50    5.10
   7   5  -2   15.10    4.80
   7  -5  -2   14.50    4.80
  -7   5  -2    7.70    4.60
  -7  -5   2   10.90    3.40
  -7  -5   2   15.20    4.50
   7   5   2   16.90    4.30
   7  -5  -2   23.60    6.20
   7   5   2    6.90    7.70
  -7   5  -2   18.10    4.20
   7   5   2   16.60    4.50
  -7   5  -2   25.30   10.50
  -7  -5  -3   14.90    3.60
   7  -5   3    3.20   11.50
  -7   5   3   14.90    5.20
   7  -5   3   18.80    5.20
  -7   5   3   17.70    5.30
   7   5  -3    7.30    5.60
  -7  -5  -3   10.90    6.90
  -7  -5  -3   20.80    5.30
   7  -5   3   10.00    5.10
  -7   5   3   21.00    6.50
   7   5  -3   14.00    5.30
   7  -5  -3   24.90    5.60
   7  -5  -3   16.70    7.20
   7   5   3   18.00    5.00
  -7   5  -3   28.10    5.30
  -7  -5   3   21.00    4.50
   7   5   3    5.00    7.40
  -7   5  -3   23.30    4.50
  -7   5  -3   24.00   11.10
   7   5   3   25.00    5.40
  -7  -5   3   22.50    5.50
   7  -5  -3   11.30    5.10
  -7  -5  -4    1.40    5.20
  -7   5   4    4.20    7.30
  -7   5   4    2.20    6.00
  -7  -5  -4    1.70    3.30
  -7   5   4    1.40    9.70
   7  -5   4   13.40    5.80
   7   5  -4   11.50    6.20
   7  -5   4    1.20    5.00
   7   5  -4    5.60    6.20
  -7  -5   4    5.00    5.30
  -7  -5   4    7.10    5.70
  -7   5  -4    7.80    4.70
   7  -5  -4    2.30    5.70
   7  -5  -4    6.40    6.30
  -7   5  -4    7.20    5.90
  -7  -5   4    6.10    6.40
  -7  -5  -5    5.30    3.60
  -7   5   5   -0.60    8.00
   7   5  -5   -0.20    7.30
  -7   5   5    2.30    9.00
  -7   5   5    9.60    6.80
  -7  -5   5    7.30    7.30
   7  -5  -5    8.40    7.00
  -7   5  -5    5.00    4.70
  -7  -5   5    1.60    6.40
  -7  -5   5   -2.00    7.20
  -7   5  -5    6.00    7.10
   7  -5  -5   12.40    7.50
   7   5  -6    6.90    9.40
   7   5  -6   20.40    9.30
  -7   5   6  -13.10   11.50
  -7  -5  -6    7.70    8.60
  -7  -5   6  -14.20    9.00
   7  -5  -6    6.40   10.00
   7  -5  -6   13.20    9.50
  -7   5  -6   -0.20    8.80
  -7  -5   6    3.20    8.60
  -7  -5   6   -8.10    9.50
   8  -5   0   13.30    5.70
  -8   5   0    8.30    5.80
   8  -5   0   15.50    6.40
  -8  -5   0   11.40    4.50
  -8  -5   0   14.30    5.70
   8   5   0   12.80    5.70
   8   5   0    5.30    5.90
  -8  -5   0   -6.10   12.70
  -8   5   0    5.70    5.00
   8   5  -1   28.40    6.00
  -8   5   1   44.60    6.40
  -8  -5  -1   40.00   11.00
  -8  -5  -1   38.00    7.10
   8   5  -1   31.90   10.40
  -8  -5  -1   38.80    5.30
  -8   5   1   39.00    6.20
   8  -5   1   58.49    7.90
   8  -5  -1   50.79    8.10
  -8   5  -1   39.00    5.70
   8   5   1   31.30   17.10
  -8   5  -1   39.00    6.20
   8  -5  -1   55.29    6.80
   8   5   1   29.20    6.60
   8   5   1   50.69    6.40
  -8  -5   1   47.40    4.30
  -8  -5   1   48.40    6.30
  -8  -5   1   42.20    5.80
   8   5  -2   27.00    7.40
  -8  -5  -2   17.80    5.10
   8  -5   2   28.20    6.60
  -8   5   2   19.00    6.50
   8  -5   2   35.80    7.00
  -8  -5  -2   17.80    6.10
   8   5  -2   27.70    7.40
   8   5   2   36.60    7.30
  -8  -5   2   26.70    6.20
  -8   5  -2   25.20    5.60
   8  -5  -2   40.40    7.00
   8   5   2   33.00    6.00
  -8  -5   2   26.50    5.10
  -8  -5   2   22.20    6.20
  -8   5  -2   25.20    6.20
  -8   5   3   15.10    6.50
   8  -5   3   37.60    7.10
  -8  -5  -3   22.00    5.00
  -8   5   3    9.80    8.20
   8  -5   3   21.30    6.80
  -8   5   3   22.30    6.90
   8   5  -3   26.20    7.20
   8   5  -3   27.60    7.10
  -8  -5  -3   26.60    6.90
   8  -5  -3   32.40    7.50
  -8  -5   3   25.40    6.50
  -8   5  -3   23.00    7.00
   8  -5  -3   21.90    7.20
  -8  -5   3   23.90    7.30
  -8   5  -3   17.20    5.30
  -8  -5  -4   21.80    5.00
   8   5  -4   30.60    8.40
  -8   5   4    6.50    7.80
  -8   5   4   26.70    8.30
  -8  -5  -4   25.50    8.00
   8   5  -4   29.20    8.50
  -8   5  -4   27.50    8.00
   8  -5  -4   20.20    7.80
  -8  -5   4   20.30    6.70
  -8   5  -4   24.50    6.40
  -8  -5   4   28.30    8.10
   8  -5  -4   40.50    8.70
  -8  -5   4    7.70    7.70
   8   5  -5   17.10   10.00
  -8   5   5   -4.90   11.90
  -8  -5  -5  -10.50    9.60
   8   5  -5    6.40    9.90
  -8   5   5   -1.80    9.20
  -8   5  -5  -11.80    6.80
  -8  -5   5    7.00    7.90
  -8  -5   5   -3.10    9.30
   8  -5  -5  -14.50    9.90
  -8   5  -5    0.30   10.20
   8  -5  -5    6.10   10.00
   9   5   0   46.30    9.20
  -9   5   0   45.80    8.00
   9  -5   0   44.50    9.10
   9  -5   0   43.90    9.40
  -9  -5   0   34.90    8.20
  -9  -5   0   24.70    7.90
   9   5   0   57.69    9.10
  -9   5   0   40.30    7.60
   9   5  -1    3.30    8.30
  -9  -5  -1    0.70    8.00
   9  -5   1   21.00    8.20
   9  -5   1   10.50    8.50
   9   5  -1    7.00    8.40
  -9   5   1  -11.20    7.30
  -9   5   1    5.60    8.00
  -9  -5  -1   -6.40    6.10
   9   5   1    6.70    7.70
  -9   5  -1   -4.00    7.60
   9  -5  -1    2.40    8.40
  -9   5  -1  -10.80    7.30
  -9  -5   1   -6.60    7.80
   9  -5  -1   12.60    8.20
  -9   5   2   29.80    8.60
   9   5  -2   30.90    9.00
   9   5  -2   34.90   10.30
  -9   5   2   16.00    7.90
   9  -5   2   30.10    9.00
  -9  -5  -2   42.90    8.50
   9  -5   2   52.99   11.20
   9  -5  -2   30.30    9.40
  -9  -5   2   13.10    7.70
  -9  -5   2   22.50    8.40
  -9   5  -2   26.40    8.80
  -9   5  -2   29.30    6.90
   9  -5  -2   43.30    9.40
  -9  -5  -3   -6.00    9.50
  -9   5   3    0.30   10.70
  -9   5   3   -5.50    9.40
   9   5  -3   -5.10    9.50
   9  -5   3    9.40    9.30
   9  -5   3   21.20   12.80
   9   5  -3    5.10   10.20
   9  -5  -3   14.70    9.50
  -9  -5   3   -7.60    9.00
   9  -5  -3    0.50   10.00
  -9  -5   3  -12.50    8.80
  -9   5  -3    0.80    9.00
   0  -6  -1 1480.55   79.69
   0   6  -1 1568.04   80.49
   0  -6   1 1712.43   82.49
   0  -6   1 1550.44   80.19
   0   6  -1 1365.36   80.59
   0   6   1 1349.66   79.09
   0   6   1 1531.75   79.19
   0   6   1 1558.54   79.59
   0  -6   1 1544.35   80.39
   0  -6   1 1538.45   80.89
   0   6  -1 1604.64   80.59
   0  -6  -1 1485.65   79.59
   0  -6  -1 1621.34   80.59
   0  -6  -1 1504.65   79.49
   0   6  -2  309.47   18.00
   0   6  -2  263.07   17.10
   0  -6  -2  292.27   15.80
   0  -6  -2  269.37   15.80
   0   6  -2  301.17   19.80
   0  -6   2  318.57   19.50
   0  -6   2  281.87   17.30
   0   6  -2  247.08   17.60
   0  -6   2  297.67   18.10
   0  -6  -2  276.37   15.80
   0  -6  -2  295.07   18.30
   0  -6  -2  293.47   16.10
   0  -6   2  255.37   16.10
   0   6   2  297.07   15.90
   0   6  -3 1975.80  105.99
   0  -6   3 2087.29  106.19
   0   6  -3 1896.91  104.99
   0  -6  -3 1863.21  102.59
   0  -6  -3 1841.02  102.49
   0   6   3 1895.91  102.49
   0  -6  -3 2054.09  106.09
   0   6  -3 2232.68  105.59
   0   6   3 2150.08  102.69
   0  -6  -3 1917.11  102.69
   0  -6  -3 1879.21  102.59
   0   6  -3 2060.29  107.99
   0  -6   3 2066.09  104.99
   0  -6  -4 1951.90  100.29
   0  -6   4 1814.92   99.19
   0   6  -4 1943.41   97.89
   0  -6  -4 1700.73   94.29
   0  -6  -4 1964.70   99.29
   0  -6  -4 1769.12   94.69
   0   6  -4 1741.43  100.39
   0   6   4 1865.61   99.09
   0  -6   4 1904.91   97.89
   0  -6  -4 1820.92   94.39
   0   6  -4 1854.51   97.69
   0  -6  -4 1775.12   94.49
   0  -6   4 1861.31   97.19
   0   6  -4 1696.73   98.19
   0  -6  -5   64.19    5.60
   0  -6   5   57.99    5.40
   0  -6   5   50.29    7.50
   0   6  -5   59.69    8.80
   0   6  -5   62.89    7.10
   0   6  -5   33.70   13.00
   0  -6   5   56.19    6.40
   0   6  -5   52.89    6.70
   0  -6  -5   54.99   10.60
   0  -6  -5   64.49   10.20
   0  -6  -5   55.39    3.30
   0   6   5   55.79    7.10
   0  -6   5   62.89    7.50
   0  -6   5   60.39    7.90
   0  -6   6  157.38   12.40
   0  -6   6  167.18   13.90
   0   6  -6  146.09   11.60
   0  -6   6  141.99   11.00
   0  -6  -6  171.18   10.10
   0   6   6  157.88   13.10
   0   6  -6  142.59   12.60
   0  -6  -6  145.99   11.30
   0  -6  -6  163.58   15.90
   0  -6   7    2.50    4.70
   0  -6  -7    5.10    3.40
   0   6  -7    7.80    4.70
   0  -6   7   -1.40    5.50
   0  -6   7   -2.60    4.20
   0   6   7   -0.70    6.10
   0   6  -7    3.30    5.30
   0   6  -7   12.00    6.20
   0  -6   7    0.40    5.20
   0   6   7    4.80    4.90
   0  -6  -7    3.20    5.50
   0   6  -8   -4.20    6.20
   0  -6   8   -6.20    7.10
   0   6   8   -1.60    6.90
   0   6  -8   -0.70    6.70
  -1  -6   0 3252.27  157.58
   1  -6   0 3015.70  155.68
  -1  -6   0 2985.80  155.78
   1  -6   0 2821.62  156.08
  -1   6   0 3252.87  155.88
   1   6   0 3060.09  155.38
  -1  -6   0 2838.32  155.18
  -1  -6   0 2801.22  155.18
   1   6   0 3082.19  156.48
   1   6   0 2576.24  155.28
   1   6   0 2779.92  155.08
  -1   6   0 2854.11  155.78
   1  -6   0 2911.51  155.28
  -1   6   0 2915.61  155.28
   1  -6   0 3446.56  157.28
   1  -6   0 2957.80  155.98
  -1   6   0 3175.48  156.48
  -1  -6   0 3359.06  157.18
   1  -6   1 1720.03   87.19
  -1  -6  -1 1548.74   85.89
   1   6  -1 1565.64   86.99
   1   6  -1 1629.64   87.49
   1  -6   1 1656.53   86.59
  -1  -6  -1 1561.74   85.99
  -1   6   1 1700.83   86.49
  -1   6   1 1530.15   86.29
   1   6  -1 1901.81   89.59
   1  -6   1 1633.44   86.79
   1  -6   1 1820.92   88.99
   1   6  -1 1759.92   87.19
  -1   6   1 1451.45   86.19
  -1  -6  -1 1660.33   89.49
  -1   6   1 1663.53   86.59
   1  -6   1 1701.33   87.69
  -1  -6  -1 1693.03   86.39
   1  -6  -1 1703.23   86.39
   1   6   1 1481.75   85.89
  -1   6  -1 1708.93   87.29
  -1  -6   1 1804.82   89.09
   1  -6  -1 1664.13   86.69
  -1  -6   1 1617.54   86.89
   1   6   1 1637.54   85.99
   1  -6  -1 1738.73   87.69
   1   6   1 1441.56   85.29
  -1   6  -1 1559.84   86.69
   1  -6  -1 1750.82   88.59
  -1  -6   1 1646.24   87.69
   1   6   1 1698.43   85.69
  -1   6  -1 1933.31   89.19
  -1  -6   1 1634.14   86.99
  -1   6  -1 1446.76   87.39
   1  -6  -1 1674.43   86.79
   1   6  -2 3674.83  223.48
   1  -6   2 4264.77  223.58
   1   6  -2 4539.35  223.38
   1   6  -2 3962.40  225.18
  -1   6   2 4744.63  222.28
  -1   6   2 3959.70  221.78
   1  -6   2 4237.58  222.98
  -1  -6  -2 4508.35  223.58
   1   6  -2 4153.58  223.28
   1  -6   2 4382.06  222.78
  -1  -6   2 4499.55  223.38
  -1  -6   2 4136.09  225.08
   1  -6  -2 4752.82  224.28
  -1  -6   2 4382.56  223.18
   1  -6  -2 4136.69  222.18
  -1   6  -2 4242.88  223.88
  -1   6  -2 4576.44  225.38
  -1  -6   2 4613.14  224.18
  -1   6  -2 4586.54  223.38
   1  -6  -2 4444.76  225.18
   1   6   2 4311.07  220.98
   1  -6  -2 4119.29  221.88
   1  -6  -2 4145.99  222.48
   1  -6  -2 4389.86  222.28
  -1   6  -2 4076.19  222.98
  -1   6   3  613.34   31.80
   1  -6   3  650.23   35.00
   1  -6   3  525.95   32.50
   1  -6   3  608.94   33.60
   1   6  -3  627.34   33.80
  -1   6   3  552.74   31.40
   1   6  -3  556.54   33.20
  -1  -6  -3  580.24   33.70
   1   6  -3  516.75   33.60
   1  -6   3  581.64   32.70
  -1  -6   3  609.34   33.40
  -1  -6   3  540.85   32.80
  -1   6  -3  596.94   33.40
   1  -6  -3  619.24   32.10
   1  -6  -3  579.64   35.10
  -1   6  -3  537.55   32.80
  -1   6  -3  609.14   35.90
  -1  -6   3  560.34   33.60
   1  -6  -3  588.84   31.80
   1  -6  -3  567.14   31.50
   1  -6  -3  592.64   31.70
  -1   6  -3  550.74   33.70
   1  -6  -3  586.84   34.20
  -1   6   4  204.88   16.40
   1   6  -4  212.58   15.50
   1  -6   4  230.28   16.10
   1  -6   4  222.08   15.80
   1   6  -4  208.08   15.90
  -1  -6  -4  242.58   17.10
   1   6  -4  234.28   17.00
   1  -6   4  225.38   15.20
  -1   6   4  232.08   13.80
   1  -6   4  203.08   14.40
   1  -6   4  222.78   16.20
  -1  -6   4  232.28   15.20
   1  -6  -4  229.78   14.10
  -1  -6   4  230.98   16.10
   1  -6  -4  233.98   18.20
   1  -6  -4  223.08   16.90
  -1  -6   4  210.48   15.70
  -1   6  -4  204.68   14.90
  -1   6  -4  236.58   19.30
  -1  -6   4  214.68   17.20
   1  -6  -4  220.78   13.90
   1  -6  -4  212.78   13.60
  -1   6  -4  239.58   16.30
  -1   6  -4  232.08   16.00
   1  -6  -4  219.58   13.40
  -1  -6   4  249.68   16.70
   1   6  -5  564.84   33.40
  -1  -6  -5  570.44   34.80
   1  -6   5  543.75   32.10
   1   6  -5  534.95   32.80
  -1   6   5  483.25   34.20
  -1   6   5  527.85   30.00
  -1   6   5  578.84   30.20
   1   6  -5  566.44   34.20
   1  -6   5  539.15   31.70
   1  -6   5  628.14   33.10
   1  -6   5  595.44   34.80
   1  -6   5  573.14   32.50
  -1  -6  -5  528.35   28.70
   1   6   5  528.35   33.90
   1  -6  -5  544.05   30.10
  -1  -6   5  544.95   30.60
   1  -6  -5  531.85   34.60
  -1  -6   5  553.94   32.90
   1  -6  -5  510.05   30.20
  -1  -6   5  529.25   32.10
  -1  -6   5  553.94   33.20
  -1   6  -5  561.74   33.00
   1  -6  -5  572.54   31.10
  -1  -6   5  562.24   35.10
  -1   6  -5  536.35   37.30
   1  -6  -5  585.84   36.10
  -1   6  -5  533.85   32.40
  -1   6  -5  534.15   33.60
   1   6  -6   60.19    6.90
  -1   6   6   55.49    5.30
  -1  -6  -6   58.69    5.30
  -1  -6  -6   45.70   13.00
   1   6  -6   59.39    6.60
   1   6  -6   55.69   10.70
   1  -6   6   53.19    4.60
   1  -6   6   59.69    7.30
  -1   6   6   63.19    7.50
  -1   6   6   59.79    5.50
   1  -6   6   58.39    8.40
  -1  -6  -6   58.29   11.80
  -1  -6   6   53.59    8.00
   1   6   6   62.09    7.00
  -1   6  -6   66.79   10.10
  -1   6  -6   48.40   14.00
  -1  -6   6   62.59    5.20
  -1  -6   6   76.09    8.50
   1  -6  -6   51.09    4.50
  -1   6  -6   61.19    6.70
   1  -6  -6   47.30    5.60
  -1   6  -6   51.29    5.40
   1  -6  -6   60.79    5.50
   1   6  -7   69.49    6.40
   1   6  -7   78.89   11.10
   1  -6   7   55.69    6.30
  -1   6   7   63.89    6.80
   1  -6   7   47.90    7.10
  -1  -6  -7   62.79   17.60
  -1   6   7   49.60    6.60
   1   6  -7   67.69    6.90
  -1  -6  -7   71.99    5.10
   1  -6   7   70.29    7.70
  -1   6  -7   66.49    7.30
  -1  -6   7   63.59   12.10
   1  -6  -7   53.89    5.80
   1  -6  -7   71.29    9.10
   1   6   7   70.99    6.80
   1  -6  -7   59.89    5.50
  -1  -6   7   68.29    7.00
   1  -6  -7   59.89    4.60
  -1   6  -7   57.69    6.50
  -1  -6   7   71.69    5.90
   1   6  -8   20.40    7.00
   1  -6   8   10.10    7.40
   1   6  -8   24.00    7.90
  -1   6   8   15.60    7.00
  -1  -6   8   25.10    7.30
  -1   6  -8   15.30    6.50
   1  -6  -8   15.00    9.00
  -1   6  -8    8.80    7.40
   2   6   0 2679.43  144.59
   2   6   0 2813.62  144.29
   2   6   0 2694.83  144.69
   2  -6   0 2733.53  144.89
   2  -6   0 2750.32  145.29
  -2   6   0 2614.14  145.29
   2   6   0 2815.72  145.99
   2  -6   0 2776.52  144.49
  -2   6   0 3008.70  145.79
  -2  -6   0 2690.93  144.29
   2  -6   0 2824.52  146.39
  -2   6   0 3081.49  145.19
  -2   6   0 2614.24  144.39
  -2  -6   0 2721.23  144.99
  -2   6   0 2862.51  146.09
  -2  -6   0 2872.01  144.49
  -2  -6   0 2730.43  145.99
  -2   6   1 2182.58  116.59
  -2   6   1 2244.38  116.49
   2   6  -1 2310.47  116.69
   2  -6   1 2264.67  116.39
  -2   6   1 2182.38  118.69
   2   6  -1 2268.87  116.79
  -2   6   1 2271.87  116.49
   2  -6   1 2156.58  118.09
   2   6  -1 2151.18  117.49
  -2   6   1 2184.18  116.09
  -2  -6  -1 2220.38  116.09
   2  -6   1 2247.68  116.79
  -2  -6  -1 2208.58  115.49
   2  -6   1 2247.08  117.29
  -2  -6  -1 2121.69  115.49
  -2   6  -1 2313.57  118.29
  -2  -6   1 2168.18  118.19
  -2  -6   1 2411.06  116.89
   2   6   1 2307.17  115.59
   2  -6  -1 2292.17  116.19
  -2   6  -1 2444.96  117.09
   2  -6  -1 2258.97  116.89
  -2   6  -1 1968.90  116.99
   2   6   1 2014.60  114.99
  -2  -6   1 2102.99  116.39
  -2   6  -1 2200.18  116.39
   2  -6  -1 2076.99  116.39
  -2  -6   1 2315.17  117.49
   2  -6  -1 2203.28  117.69
   2  -6  -1 2404.16  116.99
  -2   6  -1 2309.67  116.69
   2   6   1 2177.08  115.59
   2   6   1 2264.87  115.69
   2   6  -2   58.19    6.80
   2  -6   2   69.19    6.90
  -2   6   2   70.39    6.40
   2  -6   2   78.19    7.80
   2   6  -2   71.99    7.80
  -2  -6  -2   72.69    6.80
  -2   6   2   72.89    5.90
  -2  -6  -2   65.79    5.60
  -2  -6  -2   59.59    9.40
  -2   6   2   51.69    7.60
   2  -6   2   55.09    6.20
  -2  -6  -2   68.79    4.90
   2   6  -2   68.19    6.90
  -2  -6  -2   54.49    6.90
  -2  -6  -2   64.49    5.30
   2  -6   2   67.09    7.90
  -2   6   2   68.59    6.30
  -2   6   2   70.59    7.00
  -2  -6   2   72.49    7.80
  -2  -6   2   67.49    6.60
   2  -6  -2   49.20    9.80
   2  -6  -2   70.89    6.70
   2   6   2   60.29    6.60
  -2   6  -2   82.89    9.40
   2  -6  -2   64.99    6.10
   2  -6  -2   68.59    6.60
  -2   6  -2   65.39    6.30
  -2   6  -2   69.49    8.00
  -2   6  -2   64.89    7.00
   2  -6  -2   67.69    6.80
  -2  -6   2   61.49    7.70
   2   6   2   66.89    5.10
   2  -6   3  189.18   14.10
   2   6  -3  158.58   13.70
  -2  -6  -3  183.68   10.70
   2  -6   3  191.38   13.20
   2   6  -3  195.98   14.40
   2   6  -3  175.18   13.30
  -2   6   3  194.08   11.20
  -2   6   3  189.78   13.10
  -2   6   3  190.78   12.70
   2  -6   3  210.78   14.60
  -2   6   3  170.08   11.10
  -2  -6  -3  159.88   15.50
   2  -6   3  187.08   12.70
  -2   6  -3  164.58   13.40
   2  -6  -3  199.58   13.00
  -2  -6   3  190.28   14.20
  -2  -6   3  189.28   14.70
   2  -6  -3  195.38   12.90
  -2  -6   3  174.08   13.00
   2  -6  -3  180.68   14.00
  -2   6  -3  191.18   14.10
  -2   6  -3  214.08   16.40
   2  -6  -3  193.78   12.60
   2  -6  -3  185.98   13.10
  -2  -6   3  199.48   14.70
  -2   6   4  480.45   27.40
  -2  -6  -4  490.35   29.60
   2  -6   4  460.75   27.50
  -2   6   4  442.26   29.80
   2   6  -4  470.85   28.90
   2  -6   4  536.05   29.60
   2   6  -4  474.55   29.30
   2  -6   4  518.25   29.00
  -2   6   4  450.95   27.20
   2   6  -4  435.86   29.70
   2  -6   4  467.95   28.10
   2  -6   4  483.35   29.00
  -2   6  -4  450.95   28.00
   2  -6  -4  472.35   27.40
  -2  -6   4  467.45   28.30
  -2  -6   4  471.75   29.40
   2  -6  -4  446.56   29.90
  -2  -6   4  467.35   29.10
  -2   6  -4  525.55   32.20
  -2   6  -4  457.95   29.00
   2  -6  -4  468.75   27.20
  -2   6  -4  505.85   29.30
  -2  -6   4  454.95   30.50
   2  -6  -4  475.95   27.80
  -2  -6  -5  154.58   14.50
   2   6  -5  152.08   11.90
   2   6  -5  123.39   11.90
   2  -6   5  145.09   12.10
  -2   6   5  134.59   10.70
   2   6  -5  148.29   13.40
  -2   6   5  135.49   12.70
   2  -6   5  141.09   11.90
  -2  -6  -5  141.79    8.40
   2  -6   5  139.69    9.70
   2  -6   5  147.39   12.10
  -2   6   5  140.69   10.80
  -2   6  -5  148.19   12.10
  -2  -6   5  136.59   10.30
  -2   6  -5  155.08   13.40
  -2   6  -5  131.59   10.70
   2  -6  -5  137.99   10.60
   2  -6  -5  125.39   10.60
  -2   6  -5  152.88   17.80
  -2  -6   5  138.19   13.20
  -2  -6   5  139.99   10.80
   2  -6  -5  135.99   10.10
  -2  -6   5  140.99   12.50
   2  -6   6   12.60    3.80
   2  -6   6    3.60    4.40
  -2   6   6    6.20    5.10
   2   6  -6   19.10    8.10
  -2  -6  -6    8.30    3.10
  -2  -6  -6   10.30    8.40
   2   6  -6   18.10    4.20
  -2   6   6    7.90    4.80
   2  -6   6   18.20    3.30
  -2   6   6   15.60    5.00
  -2  -6  -6    7.90    9.40
  -2  -6  -6    7.20    3.50
  -2   6   6    9.10    4.00
  -2   6  -6   22.50   11.90
  -2  -6   6    7.50    6.40
  -2  -6   6   14.60    5.40
  -2   6  -6   14.20    7.40
  -2   6  -6    7.00    4.10
   2  -6  -6   12.80    3.20
  -2  -6   6   13.90    4.30
   2  -6  -6   13.60    4.80
   2  -6  -6   -0.60    8.90
  -2  -6   6   16.20    3.90
  -2  -6   6   11.80    3.10
  -2   6   7   12.50    6.60
   2  -6   7    7.10    5.00
   2  -6   7    4.50    4.40
  -2   6   7    8.80    6.90
  -2   6   7   17.90    5.50
   2   6  -7   10.60    5.50
   2   6  -7    4.60    5.00
  -2  -6  -7    1.10    2.90
  -2   6  -7   11.50    4.60
  -2  -6   7    5.70    4.30
   2  -6  -7    8.40    6.60
  -2  -6   7    0.10    3.90
   2  -6  -7   14.30    9.30
  -2   6  -7   21.20    8.10
  -2  -6   7   16.70    5.70
   2  -6  -7    7.70    4.90
   2  -6  -7    8.00    3.30
  -2   6   8   12.20    9.60
   2   6  -8    1.40    7.60
   2  -6   8   -0.10    6.80
   2   6  -8   10.80    7.50
  -2   6   8   12.60    7.70
  -2   6  -8    7.50    7.40
   2  -6  -8    9.00    7.00
   2  -6  -8   10.50    4.10
  -2   6  -8   10.60    6.20
  -2  -6   8    8.50    7.90
  -3   6   0  369.36   22.10
   3  -6   0  382.86   22.20
  -3  -6   0  378.76   22.00
   3  -6   0  373.86   22.60
  -3  -6   0  389.86   24.40
   3   6   0  369.06   22.10
  -3   6   0  375.96   23.60
  -3   6   0  339.27   22.80
  -3   6   0  361.26   23.20
   3  -6   0  334.27   23.60
   3   6   0  363.16   22.30
  -3   6   0  369.96   23.30
   3   6   0  382.56   22.20
  -3  -6   0  397.96   23.50
  -3  -6   0  390.06   22.50
   3  -6   0  391.46   23.60
   3  -6   1   21.70    5.20
   3  -6   1   16.80    4.00
  -3  -6  -1   23.00    4.30
  -3  -6  -1   19.60    4.50
   3   6  -1   19.70    4.00
   3   6  -1   10.50    7.50
   3  -6   1   20.20    6.00
  -3   6   1   27.00    5.60
  -3   6   1   20.50    3.90
   3  -6   1   18.70    4.70
   3   6  -1   24.90    5.70
  -3   6   1   20.80    4.70
  -3  -6  -1   18.70    3.30
  -3  -6  -1   22.80    5.40
  -3   6   1   25.60    5.10
   3   6  -1   19.10    4.30
  -3   6   1   21.50    4.10
   3   6   1   22.80    5.50
  -3  -6   1   21.00    3.80
  -3   6  -1   19.70    4.40
  -3   6  -1   27.80    4.30
   3   6   1   26.50    6.10
   3  -6  -1   24.50    5.30
   3   6   1   24.70    4.60
  -3   6  -1   19.10    6.60
   3  -6  -1   24.30    4.60
   3  -6  -1   25.00    5.70
  -3  -6   1   21.90    4.80
  -3   6  -1   19.10    6.10
   3   6   1   21.50    3.10
  -3  -6   1   20.00    5.80
   3  -6  -1   20.40    4.00
  -3  -6   1   22.40    6.10
   3  -6  -1   19.30    5.30
  -3   6  -1   23.00    3.50
  -3  -6  -2 2732.73  147.09
  -3   6   2 2848.52  148.29
  -3   6   2 2844.82  151.48
  -3   6   2 2584.14  148.29
   3  -6   2 3042.00  149.79
  -3   6   2 3041.40  148.99
   3  -6   2 2633.14  148.49
  -3  -6  -2 2713.63  146.79
  -3  -6  -2 2859.11  148.29
   3   6  -2 2542.85  149.79
   3  -6   2 2797.42  148.39
   3  -6   2 3177.68  150.98
  -3   6   2 2935.21  148.59
   3   6  -2 3028.70  149.19
  -3  -6  -2 2897.21  147.99
  -3  -6  -2 2753.82  147.79
   3   6  -2 2624.44  148.99
  -3   6  -2 2447.16  149.29
   3  -6  -2 2888.61  149.09
   3  -6  -2 2661.23  148.59
  -3  -6   2 3115.39  150.58
  -3  -6   2 2785.22  150.58
  -3  -6   2 2849.01  148.89
   3  -6  -2 2953.40  148.39
   3  -6  -2 2754.62  149.59
   3   6   2 3008.10  147.49
   3  -6  -2 2838.22  149.19
  -3   6  -2 2958.70  149.29
  -3   6  -2 2760.22  148.49
  -3   6  -2 3012.60  151.28
  -3  -6   2 2971.40  149.39
   3   6  -3  632.14   39.10
  -3   6   3  685.43   37.70
  -3   6   3  703.93   38.00
   3  -6   3  651.63   38.30
  -3  -6  -3  677.73   37.30
   3   6  -3  733.83   39.90
  -3  -6  -3  632.24   36.20
   3  -6   3  731.83   39.70
  -3   6   3  715.73   38.30
   3  -6   3  707.43   40.20
   3   6  -3  647.94   40.30
  -3  -6  -3  669.13   35.90
   3  -6   3  671.03   38.40
  -3  -6  -3  686.23   38.60
  -3   6   3  708.23   38.90
  -3   6   3  706.43   42.20
   3   6   3  688.63   35.90
   3  -6  -3  684.13   38.40
  -3   6  -3  704.23   39.60
  -3   6  -3  683.83   37.10
   3  -6  -3  641.74   39.20
   3  -6  -3  688.43   39.40
  -3  -6   3  693.23   39.70
  -3   6  -3  733.03   42.10
  -3  -6   3  680.43   40.10
  -3   6  -3  644.84   38.30
   3  -6  -3  660.53   38.50
   3   6   3  631.34   35.80
   3  -6  -3  673.03   39.80
  -3  -6   3  676.23   39.00
  -3   6  -3  624.64   39.50
  -3  -6   3  708.73   40.50
  -3   6   4  250.07   17.60
  -3   6   4  245.08   14.80
  -3  -6  -4  260.37   15.60
   3  -6   4  257.97   16.90
   3  -6   4  280.97   18.20
  -3  -6  -4  260.47   17.70
  -3   6   4  240.58   18.60
  -3   6   4  267.17   16.40
   3  -6   4  233.48   16.00
   3   6  -4  233.98   18.50
   3  -6   4  265.17   17.40
   3  -6   4  272.27   18.10
   3   6  -4  272.87   19.40
  -3   6   4  216.68   15.00
   3   6  -4  230.38   17.50
  -3  -6   4  261.27   19.10
   3  -6  -4  231.28   18.40
   3  -6  -4  248.28   17.00
  -3   6  -4  250.47   18.20
   3  -6  -4  255.37   17.50
  -3  -6   4  242.38   17.10
  -3  -6   4  264.97   19.00
  -3   6  -4  281.67   18.80
  -3   6  -4  280.67   21.50
  -3  -6   4  251.37   18.70
   3  -6  -4  248.18   16.90
   3  -6   5    8.70    5.50
   3   6  -5    3.10    7.20
   3   6  -5   11.00    4.20
  -3  -6  -5    3.40    3.90
  -3   6   5    2.70    5.50
   3  -6   5   10.80    5.90
  -3   6   5    3.70    3.70
  -3  -6  -5   -2.00    8.80
  -3   6   5    8.80    4.30
   3  -6   5    2.20    3.40
  -3  -6  -5    0.00    6.50
   3   6  -5    7.40    3.50
   3   6  -5    2.10   12.20
   3  -6   5    3.60    2.80
  -3   6  -5   11.70    4.00
   3  -6  -5   -4.20    9.00
   3  -6  -5    2.60    3.10
  -3   6  -5    5.80    6.70
  -3  -6   5    2.60    4.00
  -3   6  -5    4.80    2.90
  -3  -6   5   -0.70    6.90
  -3   6  -5   11.30   11.00
  -3  -6   5   -4.60    4.80
   3  -6  -5   -0.50    3.00
   3  -6  -5    2.60    5.50
   3   6  -6   44.30    5.50
  -3   6   6   48.80    5.80
   3   6  -6   35.20    9.90
  -3  -6  -6   36.80    9.50
   3  -6   6   37.40    4.60
   3  -6   6   50.69    4.40
  -3  -6  -6   43.40    3.90
   3  -6   6   40.70    5.40
   3  -6  -6   40.60    7.30
  -3   6  -6   42.50    9.20
  -3  -6   6   42.40    8.40
  -3  -6   6   39.50    5.20
  -3  -6   6   50.89    5.90
   3  -6  -6   40.50    5.50
  -3   6  -6   45.70    5.40
  -3   6  -6   38.00    5.00
  -3  -6   6   41.60    5.30
   3  -6  -6   46.80    5.00
   3  -6   7   13.90    5.70
   3   6  -7   29.30    6.10
  -3   6   7    3.70    7.30
  -3  -6  -7   21.30    5.20
  -3   6   7   13.10    5.90
   3   6  -7   26.30    6.20
   3  -6   7   25.20    6.90
  -3  -6   7   28.00    7.20
  -3  -6   7    7.10    4.90
  -3   6  -7   15.20    5.80
   3  -6  -7   20.90    5.80
  -3   6  -7   21.30    5.50
  -3  -6   7   13.60    5.20
  -3   6   8   -0.40    9.70
   3   6  -8    9.00    7.60
   3  -6   8   -7.10    7.50
   3   6  -8    9.70    9.20
  -3   6   8   11.30    8.40
   3  -6  -8    0.30    5.40
  -3  -6   8   -7.20    8.40
   3  -6  -8   19.10    8.80
  -3   6  -8   14.60    6.60
  -3   6  -8    6.60    8.50
  -4   6   0 1708.43   90.19
   4  -6   0 1632.14   91.09
  -4  -6   0 1701.03   88.89
   4   6   0 1702.03   89.09
   4  -6   0 1652.83   88.59
  -4   6   0 1604.74   88.69
   4  -6   0 1646.44   90.09
  -4  -6   0 1676.33   89.89
   4   6   0 1710.33   88.59
   4  -6   0 1592.24   89.19
  -4   6   0 1781.42   89.69
  -4   6   0 1647.24   89.99
  -4  -6   0 1591.44   88.29
   4   6   0 1710.43   88.79
   4  -6   0 1694.23   87.59
  -4  -6   0 1514.15   90.09
  -4  -6  -1   96.49    9.60
  -4  -6  -1   95.99    7.80
   4   6  -1   90.79    8.80
   4  -6   1  103.79   10.50
  -4   6   1   90.39   10.00
  -4   6   1   86.19    9.50
  -4  -6  -1   84.99    8.80
   4  -6   1   89.39    8.40
   4  -6   1   92.49    9.40
  -4   6   1   93.89    9.60
  -4  -6  -1   94.69    9.40
   4  -6   1   86.99    9.80
   4   6  -1   93.89    8.40
   4   6  -1   98.39    9.60
  -4   6   1   93.99    9.00
  -4   6   1  101.99    8.60
   4  -6  -1   70.39    8.90
  -4  -6   1   88.39    8.50
   4   6   1   93.19    7.40
   4   6   1   85.29    7.70
   4  -6  -1   84.69    8.40
   4  -6  -1   89.29    9.80
  -4   6  -1   97.59    8.50
   4  -6  -1   94.79    8.80
  -4  -6   1  106.19   10.60
  -4  -6   1   95.99   10.30
   4   6   1   94.29    8.50
  -4   6  -1   89.29   10.10
  -4   6  -1   97.49   10.50
   4  -6  -1   99.19    8.50
  -4   6  -1   84.09    8.80
  -4  -6  -2  266.17   16.50
   4   6  -2  242.48   19.00
   4  -6   2  266.57   17.80
   4  -6   2  260.87   17.50
  -4   6   2  268.47   18.20
  -4   6   2  263.27   18.50
   4  -6   2  285.37   19.20
   4  -6   2  267.67   19.00
  -4   6   2  260.97   17.30
   4   6  -2  260.07   18.00
   4   6  -2  287.27   19.00
  -4   6   2  252.37   17.70
  -4   6   2  270.57   20.40
  -4  -6  -2  257.37   16.00
  -4  -6  -2  283.27   18.20
  -4  -6  -2  262.07   17.00
  -4   6  -2  276.17   19.20
  -4   6  -2  239.28   19.90
  -4   6  -2  279.57   19.00
  -4  -6   2  273.27   19.20
  -4  -6   2  257.47   19.30
   4  -6  -2  236.18   17.70
   4  -6  -2  270.87   18.20
   4   6   2  242.88   15.30
  -4   6  -2  258.57   17.50
   4  -6  -2  270.17   18.20
   4   6   2  265.57   16.80
   4  -6  -2  269.07   19.10
   4  -6  -2  245.48   18.50
   4   6   2  289.07   16.80
  -4  -6   2  257.47   17.80
   4   6  -3  644.04   40.70
  -4   6   3  666.13   38.80
   4  -6   3  701.73   40.00
   4   6  -3  716.53   40.20
   4  -6   3  682.63   38.70
  -4   6   3  695.03   38.60
  -4  -6  -3  728.53   38.10
   4   6  -3  603.74   39.20
   4  -6   3  715.83   40.50
  -4  -6  -3  630.74   36.80
  -4   6   3  660.13   42.30
  -4   6   3  686.73   39.70
  -4  -6  -3  745.23   42.20
   4  -6   3  631.34   38.30
  -4  -6  -3  650.53   36.30
  -4   6   3  701.53   38.80
   4   6   3  716.23   36.80
  -4  -6   3  633.94   39.60
  -4   6  -3  637.14   41.80
   4  -6  -3  632.74   39.00
  -4   6  -3  631.94   38.30
   4  -6  -3  676.33   39.80
  -4   6  -3  642.94   40.00
   4  -6  -3  697.53   39.30
  -4   6  -3  703.23   40.00
  -4  -6   3  699.13   41.00
  -4  -6   3  687.73   40.30
  -4  -6   3  657.93   39.30
   4  -6  -3  627.64   39.90
   4   6  -4  245.98   19.40
  -4   6   4  269.87   16.60
  -4   6   4  249.78   18.10
   4   6  -4  267.87   19.30
   4   6  -4  244.98   18.30
  -4  -6  -4  283.37   18.20
  -4  -6  -4  288.87   17.70
  -4   6   4  280.87   17.20
  -4   6   4  245.98   21.00
  -4  -6  -4  246.58   14.30
   4  -6   4  296.07   19.20
  -4  -6  -4  242.18   15.20
   4  -6   4  309.17   18.70
  -4   6   4  233.88   18.60
   4  -6   4  241.18   16.50
   4  -6   4  264.87   18.40
  -4   6   4  265.17   19.30
   4  -6   4  264.97   16.60
  -4   6  -4  247.88   22.20
   4  -6  -4  224.28   21.50
   4  -6  -4  272.47   19.90
  -4   6  -4  265.17   18.80
  -4  -6   4  247.68   20.10
   4   6   4  231.48   14.20
  -4   6  -4  258.77   17.30
  -4   6  -4  265.17   20.30
  -4  -6   4  266.87   19.40
   4  -6  -4  254.07   17.90
   4  -6  -4  253.17   18.70
  -4  -6   4  261.17   18.30
  -4  -6   4  279.77   20.70
   4   6  -5  105.49    8.90
  -4   6   5   86.99    6.50
  -4   6   5   97.39    8.80
   4   6  -5  103.99   12.70
   4  -6   5   85.79    7.20
   4  -6   5   95.39   10.10
  -4  -6  -5  112.99   11.10
  -4  -6  -5  102.59    7.40
   4  -6   5  102.09    8.20
   4   6  -5  105.69   10.90
   4  -6   5   99.39    8.00
  -4   6   5   98.59    7.50
  -4   6   5   87.89    7.60
  -4   6  -5   93.59    8.90
  -4  -6   5   92.49   12.60
  -4  -6   5   87.19    9.40
   4  -6  -5   97.39    8.40
   4  -6  -5   91.39    8.40
  -4   6  -5  108.69   17.20
  -4  -6   5  100.89    8.50
   4  -6  -5   92.79   13.70
   4  -6   6   -2.30    7.50
  -4  -6  -6    2.30    7.30
   4  -6   6    5.30    4.10
  -4   6   6    4.90    5.10
   4  -6   6    3.30    4.00
  -4  -6  -6    5.20    3.20
   4   6  -6   14.70    9.60
  -4   6   6   -2.50    6.30
   4   6  -6   10.20    5.50
  -4   6   6   -2.20    4.70
   4  -6   6    6.80    3.80
   4   6  -6   -3.20    4.90
  -4  -6   6   -5.60    8.50
   4  -6  -6   12.20    5.30
  -4  -6   6    2.20    6.50
  -4   6  -6   -0.30    9.70
   4  -6  -6    0.30    4.50
  -4   6  -6   -3.70    3.60
  -4  -6   6    4.00    5.00
  -4  -6   6    4.00    5.10
  -4   6  -6   -4.60    6.50
  -4  -6   6   10.30    5.00
   4  -6  -6    9.60    9.20
  -4   6   7   34.60    7.60
   4  -6   7   10.50    8.10
   4   6  -7   22.50    7.70
   4   6  -7   31.50    6.90
  -4  -6   7   10.60    6.80
   4  -6  -7   26.70    6.30
  -4  -6   7   13.70    6.50
   4  -6  -7   12.80    6.90
  -4  -6   7   22.70    7.10
  -4   6  -7   23.30    5.90
  -4   6  -7   28.90    7.50
  -4   6   8   21.40    9.70
  -4   6   8    0.70   12.40
   4  -6   8    1.60    8.10
   4   6  -8    4.40   10.40
   4   6  -8   20.20    9.60
   4  -6  -8   10.00    9.50
  -4  -6   8   21.40    9.80
  -4   6  -8    6.60    7.10
  -4   6  -8   13.80    9.50
   4  -6  -8   10.00    7.20
   5   6   0  380.26   23.50
  -5   6   0  359.26   24.60
  -5   6   0  362.66   23.20
  -5   6   0  361.86   24.90
   5   6   0  373.16   23.00
   5  -6   0  356.16   23.70
   5   6   0  346.37   23.20
  -5   6   0  392.76   25.10
  -5  -6   0  386.36   25.60
   5  -6   0  358.86   25.60
  -5  -6   0  347.27   22.80
  -5  -6   0  374.36   23.90
   5  -6   0  358.36   23.60
   5  -6   0  362.36   21.50
   5  -6   0  347.67   24.70
  -5   6   1  707.13   39.80
   5  -6   1  668.83   39.60
   5   6  -1  682.63   40.60
   5   6  -1  656.43   39.70
   5  -6   1  678.93   42.00
  -5   6   1  682.33   40.70
  -5  -6  -1  743.63   41.20
  -5  -6  -1  662.93   38.50
   5   6  -1  697.83   40.00
   5  -6   1  667.13   39.80
   5  -6   1  679.73   37.00
   5  -6   1  693.53   41.10
  -5  -6  -1  684.33   39.60
  -5   6   1  675.93   40.80
  -5   6   1  663.23   40.80
  -5   6  -1  736.33   41.20
  -5  -6   1  707.53   40.80
   5  -6  -1  662.13   40.00
   5  -6  -1  654.13   40.90
  -5   6  -1  690.53   39.60
   5  -6  -1  693.83   39.90
   5   6   1  702.53   38.80
   5  -6  -1  579.24   41.10
   5   6   1  649.54   38.60
  -5   6  -1  662.13   41.30
  -5  -6   1  634.74   39.30
   5   6   1  694.33   39.10
  -5  -6   1  686.53   41.50
   5  -6  -1  714.23   38.50
   5  -6   2  365.26   24.10
   5  -6   2  395.36   26.00
   5  -6   2  383.46   25.60
  -5  -6  -2  386.46   24.20
  -5  -6  -2  374.46   22.90
  -5   6   2  392.96   25.50
  -5   6   2  411.16   25.90
  -5   6   2  373.96   25.50
  -5   6   2  333.37   26.80
  -5   6   2  387.16   24.40
   5  -6   2  384.56   26.20
   5   6  -2  372.46   24.90
   5   6  -2  390.96   25.70
   5   6  -2  369.16   25.70
  -5  -6  -2  432.56   26.20
  -5  -6  -2  390.16   22.20
  -5  -6   2  400.96   26.50
  -5  -6   2  381.56   24.00
  -5   6  -2  437.46   26.50
   5   6   2  407.46   23.80
   5  -6  -2  360.36   26.00
  -5   6  -2  435.66   27.90
   5   6   2  376.26   23.00
  -5   6  -2  363.96   25.60
   5  -6  -2  415.36   24.80
   5   6   2  398.96   22.10
  -5  -6   2  334.77   26.00
  -5   6  -2  369.86   24.10
  -5  -6   2  365.76   24.60
   5  -6  -2  382.36   25.30
   5  -6  -2  368.86   24.80
   5   6  -3   67.19    8.50
   5  -6   3   59.69    9.10
  -5  -6  -3   66.19    9.50
   5  -6   3   58.29    6.30
   5  -6   3   64.29    4.80
  -5  -6  -3   64.19    8.00
  -5   6   3   61.79    6.70
   5   6  -3   74.79    9.60
  -5   6   3   48.30    6.20
   5  -6   3   60.39    8.00
  -5  -6  -3   66.69    6.80
  -5   6   3   68.69    9.50
   5   6  -3   57.79    7.60
  -5   6   3   54.79    9.40
  -5  -6  -3   61.99    5.60
   5   6   3   58.49    7.20
  -5   6  -3   62.19   10.00
  -5  -6   3   61.99    6.80
   5  -6  -3   62.29    9.30
   5   6   3   64.09    7.10
   5  -6  -3   49.10    9.40
  -5   6  -3   54.39    6.70
  -5   6  -3   57.69    7.60
  -5  -6   3   63.19    7.20
  -5  -6   3   55.29   10.60
   5  -6  -3   53.49    7.40
  -5   6  -3   51.69   11.90
  -5  -6   3   52.49   10.70
   5  -6  -3   45.10    6.70
   5  -6   4  275.47   16.60
  -5   6   4  302.57   18.80
  -5  -6  -4  284.87   18.00
   5   6  -4  267.27   19.30
   5   6  -4  252.87   24.80
  -5   6   4  255.37   18.40
  -5  -6  -4  325.57   20.30
  -5   6   4  273.07   19.40
  -5  -6  -4  265.97   15.90
  -5  -6  -4  232.28   24.50
   5  -6   4  319.87   19.60
   5   6  -4  298.27   22.00
   5  -6   4  253.67   17.50
  -5   6   4  275.27   25.10
  -5  -6  -4  260.17   17.30
   5  -6  -4  272.17   20.10
  -5   6  -4  260.27   18.00
   5   6   4  304.87   16.90
   5  -6  -4  276.37   23.70
  -5   6  -4  294.67   20.50
  -5  -6   4  282.47   20.20
   5  -6  -4  266.37   21.10
   5  -6  -4  269.87   20.20
  -5   6  -4  288.87   21.00
  -5  -6   4  273.57   19.00
   5   6   4  242.78   16.00
   5  -6   5   65.89    5.50
  -5  -6  -5   57.29    8.60
   5  -6   5   58.99    6.00
  -5   6   5   64.79    6.00
  -5  -6  -5   65.79    9.30
  -5  -6  -5   65.19    4.50
  -5  -6  -5   79.09    6.00
  -5   6   5   65.99    5.70
   5   6  -5   97.49   22.80
  -5   6   5   67.89    8.20
   5   6  -5   67.99    6.80
   5   6  -5   70.19    7.10
   5  -6   5   75.59    6.50
  -5   6   5   70.09    7.30
  -5   6   5   62.99    8.20
  -5  -6   5   57.39    6.70
   5  -6  -5   65.59   11.20
   5  -6  -5   67.29    6.20
  -5  -6   5   62.69    6.70
  -5   6  -5   71.09    9.80
   5  -6  -5   72.99    7.50
  -5   6  -5   59.69   10.30
  -5   6   6    5.10    6.10
   5   6  -6   14.60    5.90
   5  -6   6   12.80    4.30
   5  -6   6   20.20    5.40
   5  -6   6   20.50    4.80
  -5   6   6    5.60    7.70
   5   6  -6   14.40    6.40
  -5   6   6   11.60    6.10
  -5  -6  -6    9.50    4.50
  -5   6  -6    5.30    6.30
  -5   6  -6    6.60    4.60
  -5  -6   6    7.80    6.80
   5  -6  -6    0.40    6.00
  -5  -6   6    8.50    6.00
   5  -6  -6   14.20    5.70
   5   6  -7    9.10    9.00
   5   6  -7    8.60    7.80
   5  -6   7    9.40    6.10
  -5   6   7   15.80    8.00
  -5   6   7   -8.50   10.30
  -5  -6   7    7.20    8.10
  -5   6  -7    7.00    5.90
  -5   6  -7   13.30    7.90
   5  -6  -7   16.10    8.60
  -5  -6   7   -2.80    8.00
   6  -6   0  513.35   28.90
  -6   6   0  516.15   33.10
  -6  -6   0  502.45   31.10
   6   6   0  533.15   32.10
   6  -6   0  486.45   31.70
  -6  -6   0  516.35   28.70
   6  -6   0  501.15   34.20
  -6  -6   0  542.25   32.80
   6  -6   0  490.05   32.20
  -6   6   0  503.35   31.50
  -6  -6   0  523.75   34.20
  -6   6   0  493.55   33.10
   6   6   0  517.85   31.20
   6   6  -1  309.17   21.70
  -6   6   1  304.07   22.90
   6  -6   1  264.37   21.50
   6  -6   1  297.97   23.10
  -6   6   1  310.87   20.80
  -6  -6  -1  300.67   19.90
   6  -6   1  308.67   17.40
   6  -6   1  305.57   21.30
  -6   6   1  305.17   23.60
  -6   6   1  298.57   22.10
  -6  -6  -1  335.97   24.30
  -6  -6  -1  330.37   22.50
   6   6  -1  305.07   20.90
  -6   6  -1  344.17   23.70
   6   6   1  297.87   21.60
   6   6   1  315.77   19.80
  -6  -6   1  315.77   19.10
  -6  -6   1  292.47   23.50
  -6   6  -1  290.87   20.60
  -6   6  -1  281.77   22.20
   6  -6  -1  288.77   20.90
  -6  -6   1  323.97   23.00
  -6  -6   1  296.67   20.80
   6   6   1  317.47   20.10
   6  -6  -1  306.27   22.20
  -6  -6  -2  206.08   14.10
   6  -6   2  177.28   11.20
  -6  -6  -2  207.38   16.00
  -6   6   2  205.48   15.30
  -6   6   2  180.78   17.70
  -6  -6  -2  208.78   12.20
  -6   6   2  194.08   16.30
   6   6  -2  177.18   15.00
   6  -6   2  202.58   11.40
   6  -6   2  218.28   15.10
   6   6  -2  209.58   16.80
  -6   6   2  203.38   17.40
  -6  -6  -2  227.78   18.10
   6  -6   2  210.68   17.00
   6  -6  -2  200.28   17.10
   6  -6  -2  189.28   15.40
  -6   6  -2  207.98   15.10
   6   6   2  217.78   13.50
   6  -6  -2  215.18   15.70
  -6  -6   2  217.18   14.60
  -6   6  -2  244.18   18.70
   6   6   2  207.58   14.10
  -6  -6   2  196.58   15.60
   6   6   2  216.48   16.20
  -6  -6   2  224.38   19.00
  -6   6  -2  197.18   16.30
   6  -6  -2  210.88   17.30
  -6  -6  -3   37.60    8.30
   6   6  -3   27.00    5.10
  -6  -6  -3   29.90    4.00
  -6   6   3   31.40    4.70
   6  -6   3   26.90    3.10
  -6  -6  -3   41.50    7.60
  -6  -6  -3   36.40    4.00
   6   6  -3   21.70    4.70
   6  -6   3   24.20    5.30
  -6   6   3   17.70    5.60
  -6   6   3   25.00    4.90
  -6   6   3   33.50    9.30
   6  -6   3   26.80    5.20
   6   6   3   46.10    8.40
   6  -6  -3   28.40    9.10
   6  -6  -3   41.40    7.60
  -6   6  -3   27.20    5.10
   6  -6  -3   29.00    4.70
  -6  -6   3   26.70    4.00
  -6   6  -3   21.00    4.20
  -6   6  -3   33.00   10.00
   6   6   3   34.40   10.20
  -6  -6  -4   25.50    6.50
   6   6  -4   23.80    5.80
   6  -6   4   23.10    3.20
   6  -6   4   28.30    5.10
  -6   6   4   19.20    5.90
  -6  -6  -4   16.90    4.70
   6   6  -4   18.60    5.30
  -6  -6  -4   18.90    4.40
  -6   6   4   28.20    5.30
   6  -6   4   19.80    5.50
  -6  -6  -4   26.20    3.40
  -6   6   4   17.10    7.50
  -6  -6  -4   24.30    9.10
  -6   6   4   26.40    4.80
  -6  -6   4   23.20    4.70
   6   6   4   29.80    7.10
  -6   6  -4   24.50    4.80
   6  -6  -4   33.00    5.40
  -6   6  -4   17.10    4.80
   6  -6  -4   23.80    8.90
  -6   6  -4   28.60    9.20
   6  -6  -4   16.00    4.70
  -6  -6   4   33.00    6.00
  -6  -6   4    9.30    6.80
   6  -6   5   59.09    6.80
  -6   6   5   51.29    5.90
  -6  -6  -5   42.90   16.80
   6  -6   5   46.10    4.60
   6  -6   5   42.00    5.60
  -6  -6  -5   49.40    4.20
   6   6  -5   48.00    6.80
  -6  -6  -5   50.99    6.40
   6   6  -5   49.30    6.90
  -6   6   5   57.99    6.80
  -6   6   5   42.30    7.90
  -6  -6  -5   31.00   13.60
  -6   6  -5   53.89    6.40
  -6  -6   5   51.09    6.50
  -6   6  -5   47.00    5.90
  -6  -6   5   40.40    6.80
   6  -6  -5   55.79    6.30
   6   6  -6    5.00    7.80
  -6  -6  -6    1.50    6.20
  -6   6   6   -3.40    8.00
   6   6  -6    1.20    7.50
  -6   6   6  -11.50    9.30
  -6   6  -6   -4.40    7.20
  -6  -6   6   -2.60    7.20
  -6  -6   6  -10.00    7.50
   6  -6  -6    7.40    6.70
   6  -6  -6   17.70    8.00
  -6  -6   6   -3.90    7.50
   6   6  -7   23.60   10.30
  -6   6   7   -3.40   12.90
  -6   6  -7   12.20    7.10
  -6   6  -7   10.90    9.80
  -6  -6   7   -1.90    9.80
  -6  -6   7    4.10   10.00
   6  -6  -7   11.50    9.30
  -6  -6   7    3.20    9.80
   6  -6  -7   12.80   10.70
   7  -6   0   30.60    5.30
   7   6   0   34.80    4.40
   7   6   0   29.10   12.70
  -7   6   0   31.30    4.80
  -7  -6   0   31.70    3.20
  -7  -6   0   42.80   10.80
   7  -6   0   35.40    4.20
  -7  -6   0   34.20    4.40
   7   6   0   29.90    5.20
   7  -6   0   31.20    5.70
  -7   6   0   42.50    5.00
   7  -6   1  186.48   12.90
  -7  -6  -1  165.78   15.70
  -7  -6  -1  151.98   11.60
   7   6  -1  177.68   12.90
   7   6  -1  163.98   14.30
   7  -6   1  175.68   14.40
  -7   6   1  162.08   13.90
  -7   6  -1  155.28   14.00
  -7   6  -1  142.69   15.70
   7   6   1  168.98   12.30
  -7   6  -1  173.58   12.50
  -7  -6   1  189.98   11.30
  -7  -6   1  158.28   12.70
   7  -6  -1  145.09   13.40
  -7  -6   1  162.48   17.10
   7  -6  -1  136.09   13.20
   7   6   1  157.58   10.90
  -7  -6  -2   55.29    5.60
  -7  -6  -2   28.60    9.40
  -7   6   2   48.90    7.10
  -7  -6  -2   50.29    5.10
   7   6  -2   40.30    5.60
   7  -6   2   49.70    9.00
   7   6  -2   57.89    6.20
   7  -6   2   43.20    5.90
  -7   6   2   43.40    6.00
  -7   6   2   36.40    5.40
  -7   6  -2   42.00   12.30
  -7   6  -2   46.50    5.20
   7  -6  -2   44.60    7.50
   7   6   2   51.39    6.00
  -7   6  -2   39.60    6.30
   7  -6  -2   45.30    6.50
  -7  -6   2   44.60    5.70
   7  -6  -2   39.60    5.80
  -7  -6   2   52.09    5.00
   7   6   2   50.09    5.20
   7   6  -3   10.30    5.50
  -7   6   3    8.80    5.40
   7  -6   3    9.00    5.40
  -7  -6  -3    5.20    3.40
  -7   6   3    9.00    5.80
  -7  -6  -3   16.70    5.40
   7   6  -3   -3.30    5.50
  -7  -6   3    9.90    4.40
  -7  -6   3    9.10    5.00
   7  -6  -3   10.00    5.20
   7   6   3    9.60    4.60
  -7   6  -3   17.30    4.20
   7   6   3    2.30    3.80
  -7   6  -3   18.40    5.30
  -7   6  -3    3.20   10.80
   7  -6  -3    8.60    7.30
   7  -6  -3   20.00    5.70
  -7  -6  -4   39.20    4.60
   7   6  -4   42.10    7.50
  -7   6   4   27.30    7.60
   7  -6   4   41.00    6.80
  -7   6   4   37.70    6.70
  -7  -6  -4   23.30    6.40
  -7   6   4   29.70    9.90
   7  -6   4   34.70    6.40
  -7   6  -4   37.70    6.50
  -7  -6   4   24.20    8.20
   7  -6  -4   26.30    6.50
  -7  -6   4   28.10    6.80
  -7   6  -4   25.80    5.20
   7  -6  -4   38.60    6.40
   7   6  -5    9.20    7.80
  -7  -6  -5    6.60    3.50
   7   6  -5   12.70    7.80
  -7   6   5    8.90    8.40
  -7   6   5    9.40    6.90
  -7   6   5    2.80    9.20
  -7  -6   5    1.50    7.20
  -7  -6   5   16.80    6.50
  -7   6  -5    8.70    5.00
  -7   6  -5   15.60    7.30
   7  -6  -5   22.70    7.00
  -7  -6   5   15.40    7.60
   7   6  -6   -3.00    9.60
  -7   6   6   21.90   12.30
   7   6  -6   21.20   10.00
  -7  -6   6   -7.30    9.40
  -7  -6   6    2.40    9.30
  -7   6  -6    2.90    9.70
  -7  -6   6   -3.70    9.60
  -8  -6   0   31.30    6.90
   8   6   0   13.30    6.10
   8  -6   0   34.50    6.90
  -8  -6   0   15.90   13.90
   8  -6   0   39.90    8.20
  -8   6   0   22.50    6.10
   8   6   0   22.70    6.90
  -8   6   0   29.00    5.80
  -8  -6   0   22.40    5.20
   8  -6   1   31.00    6.80
   8  -6   1   26.60    7.00
  -8  -6  -1   23.30    6.20
  -8   6   1   27.80    5.50
  -8   6   1   31.50    6.30
   8   6  -1   25.40    6.10
  -8  -6  -1   37.40    6.00
  -8  -6   1   24.10    5.60
   8   6   1   32.10    6.70
   8  -6  -1   28.50    7.00
  -8   6  -1   22.60    5.80
  -8  -6   1   21.30    6.20
  -8  -6   1   32.90    4.20
  -8   6  -1   22.80    6.20
   8   6   1    4.90   16.90
   8   6  -2   20.40    6.80
  -8  -6  -2   10.90    4.40
   8   6  -2    4.70    6.70
  -8  -6  -2   23.80    6.30
  -8   6   2   13.10    6.80
   8  -6   2   11.70    6.40
  -8   6   2    6.90    7.60
  -8   6   2    5.40    5.90
   8  -6  -2   11.50    7.10
  -8  -6   2   11.10    4.30
   8  -6  -2    9.50    6.30
  -8   6  -2   16.30    6.20
  -8  -6   2    0.00    6.30
   8   6   2    7.00    5.20
  -8   6  -2   11.90    5.20
   8   6  -3   28.50    7.60
   8   6  -3   22.10    7.30
   8  -6   3   35.40    7.80
  -8   6   3   22.80    7.40
  -8  -6  -3   35.90    6.90
  -8  -6  -3   26.80    5.60
  -8   6   3   15.90    8.20
   8  -6   3   31.80    8.00
   8  -6  -3   43.80    8.20
   8  -6  -3   36.60    7.80
  -8  -6   3   20.70    7.20
  -8  -6   3   35.70    6.90
  -8   6  -3   17.30    5.60
  -8   6  -3   18.00    7.30
  -8  -6   3   33.60    7.20
  -8   6   4   -1.20    9.80
  -8  -6  -4   -2.60    4.90
   8  -6   4    9.40    7.70
   8   6  -4    2.10    8.60
  -8  -6  -4    0.10    8.00
   8   6  -4    5.70    8.60
   8  -6   4   14.90    8.10
  -8   6   4    4.40    7.70
   8  -6  -4    6.70    9.10
  -8   6  -4   -8.40    8.20
  -8  -6   4   -9.20    8.30
  -8  -6   4   -3.10    6.80
   8  -6  -4   12.40    8.10
   8   6  -5    5.40   10.10
  -8   6   5  -11.80   11.10
  -8   6   5   -1.40    9.50
  -8   6   5    1.50   17.50
  -8  -6  -5   -9.30    9.60
  -8  -6   5   15.10    8.80
  -8   6  -5   20.60   10.40
   8  -6  -5    9.50   10.80
  -8   6  -5   -8.60    7.40
  -8  -6   5  -14.60    9.90
  -9   6   0   11.30    7.80
   9   6   0   15.30    7.70
  -9  -6   0    5.30    8.10
   9  -6   0   10.20    8.20
   9   6   0   -4.20    8.50
  -9   6   0  -11.90    7.20
  -9  -6   0   -7.00    6.30
   9  -6   0    3.90    9.00
   9  -6   1   22.20    8.90
  -9   6   1    2.80    7.60
   9   6  -1   15.10    8.90
   9   6  -1   28.30    8.00
   9  -6   1   20.90    8.30
  -9  -6  -1   22.90    8.70
  -9   6   1   15.90    8.20
   9  -6  -1   14.60    9.20
  -9  -6   1    9.00    7.90
   9   6   1   23.10    9.50
   9   6   1   16.50    7.80
   9  -6  -1   15.60    8.60
  -9   6  -1   14.00    8.00
  -9  -6  -2    8.40    9.20
  -9   6   2    6.90   10.40
   9   6  -2   37.90   10.40
  -9  -6  -2   18.20    6.10
   9   6  -2   18.80    8.60
   9  -6   2   16.70    9.00
   9  -6   2   18.50    9.40
  -9   6   2   27.00    9.40
  -9  -6   2   22.30    8.00
  -9   6  -2   16.90    8.60
   9  -6  -2   37.90   10.30
  -9   6  -2   14.40    7.80
   9  -6  -2   25.70    9.10
  -9  -6   2   29.50    8.30
  -9  -6  -3   -9.40    9.40
   9  -6   3   13.40   10.30
   9  -6   3   26.50    9.90
   9   6  -3    1.20   10.60
  -9   6   3   -1.50    9.60
   9   6  -3   17.30   10.40
  -9   6   3  -12.20   11.90
   9  -6  -3   14.20    9.40
  -9  -6   3   -3.70    9.10
   9  -6  -3   21.80   11.10
  -9   6  -3    4.30    8.60
  -9  -6   3    3.30    9.50
  -9   6  -3   12.30   10.10
   0   7   0    1.00    2.40
   0  -7   0    1.90    2.90
   0  -7   0    4.10    2.30
   0  -7   0    3.00    3.30
   0  -7   0    3.30    4.00
   0  -7   0    4.00    3.40
   0   7   0   -1.50    2.90
   0   7   0    8.30    2.80
   0   7   0    0.70    3.00
   0   7   0    3.10    3.90
   0   7   1 4151.98  210.18
   0   7  -1 3986.30  211.38
   0   7  -1 4418.16  213.38
   0   7   1 3804.42  210.08
   0   7   1 4130.79  210.58
   0  -7  -1 4167.88  210.88
   0  -7   1 4387.66  213.48
   0   7  -1 4307.97  211.58
   0  -7   1 4019.70  211.38
   0  -7   1 4079.99  211.08
   0   7  -1 3981.50  211.88
   0  -7  -1 3880.51  210.48
   0  -7   1 3918.01  211.78
   0  -7  -1 4032.60  211.58
   0  -7  -1 4059.99  210.38
   0   7  -2 2709.13  166.98
   0   7  -2 3147.98  166.78
   0  -7   2 3395.66  168.18
   0  -7  -2 2928.61  164.88
   0  -7   2 3139.99  166.58
   0   7   2 3451.45  165.18
   0  -7  -2 3648.73  166.08
   0  -7   2 2716.53  168.28
   0  -7  -2 3136.19  165.08
   0  -7   2 3494.95  166.68
   0   7  -2 3618.34  167.18
   0   7  -2 3053.19  172.68
   0  -7  -2 3296.87  170.58
   0  -7  -2 3123.89  165.18
   0  -7  -3  667.63   38.00
   0  -7  -3  664.93   34.50
   0   7   3  694.03   34.50
   0  -7   3  735.53   39.70
   0  -7   3  642.04   36.60
   0   7  -3  615.24   39.60
   0  -7  -3  622.64   34.40
   0  -7  -3  590.84   34.30
   0   7  -3  606.04   36.70
   0   7  -3  620.24   37.60
   0   7  -3  691.63   37.50
   0  -7   3  654.83   37.60
   0  -7  -3  662.63   34.70
   0   7  -4  297.57   24.80
   0  -7  -4  343.17   23.80
   0  -7  -4  319.37   17.70
   0  -7  -4  341.27   22.70
   0   7  -4  303.67   20.80
   0  -7  -4  332.07   17.60
   0  -7   4  349.47   21.60
   0  -7  -4  324.57   18.20
   0   7  -4  314.67   21.60
   0  -7   4  337.67   20.90
   0   7  -4  308.17   26.20
   0  -7   4  338.37   20.60
   0  -7  -4  334.57   18.00
   0   7  -5   14.40   11.20
   0   7  -5   22.60    5.60
   0   7  -5   19.70    7.20
   0  -7   5   23.70    6.50
   0  -7  -5   29.30    3.90
   0  -7   5   17.30    3.80
   0  -7  -5   29.60   10.20
   0  -7   5   15.00    4.60
   0  -7  -5   39.80    8.70
   0   7  -5   20.10    5.20
   0  -7   5   28.30    4.90
   0  -7  -5   33.10    4.30
   0  -7   5   23.60    7.10
   0  -7  -6   24.80   10.60
   0   7  -6   17.40    4.30
   0   7   6    8.80    5.00
   0   7  -6   16.20   14.10
   0  -7   6   22.80    6.40
   0  -7   6   22.10    4.80
   0  -7   6   19.10    4.10
   0   7  -6   13.70    4.10
   0  -7   6   28.00    4.30
   0   7   6   14.60    3.90
   0   7  -6   21.20    7.90
   0  -7   7    9.60    4.50
   0   7   7    8.30    7.50
   0  -7   7    0.90    5.50
   0   7  -7   17.90    5.10
   0  -7   7   19.30    5.30
   0   7  -7    9.20    4.40
   0   7  -8   -3.20    6.70
   0   7  -8    6.60    7.20
   0  -7   8    4.90    7.40
  -1  -7   0 1908.11  108.39
   1  -7   0 2263.77  110.59
   1   7   0 1911.51  108.59
  -1  -7   0 1931.61  108.39
   1   7   0 1745.73  109.89
  -1   7   0 2040.50  109.09
   1   7   0 1999.60  108.39
   1  -7   0 2079.39  108.49
   1   7   0 2403.36  110.19
  -1  -7   0 2327.27  111.19
  -1  -7   0 2117.99  110.19
  -1  -7   0 2181.68  109.29
  -1   7   0 2165.28  108.99
  -1   7   0 2277.87  109.99
   1  -7   0 2105.09  109.69
   1  -7   0 1996.00  108.79
   1  -7   0 1973.50  109.09
  -1   7   0 2048.00  108.59
   1   7  -1  821.72   47.50
  -1  -7  -1  734.93   49.00
  -1   7   1  811.72   46.20
  -1  -7  -1  775.42   47.00
   1  -7   1  921.41   46.80
   1   7  -1  827.42   47.00
   1   7  -1  892.31   47.10
   1  -7   1  874.01   47.70
  -1   7   1  873.11   46.40
   1  -7   1  934.61   49.00
  -1  -7  -1  808.72   45.90
  -1  -7  -1  887.11   46.50
   1  -7   1  880.11   46.80
   1  -7   1  813.02   46.90
  -1   7   1  934.81   46.80
  -1   7   1  859.21   46.40
   1   7   1  775.32   45.90
  -1   7  -1  963.10   49.10
  -1  -7   1  827.62   46.80
   1  -7  -1  927.61   46.40
   1  -7  -1  897.21   48.60
  -1  -7   1  836.82   47.00
   1   7   1  889.41   46.00
  -1   7  -1  905.51   47.40
  -1   7  -1  778.32   46.60
   1  -7  -1  858.91   46.60
  -1   7  -1  885.91   47.90
   1   7   1  924.21   45.80
   1  -7  -1  908.61   47.00
   1  -7  -1  931.51   48.00
  -1  -7   1  855.61   47.70
   1   7   1  894.51   45.50
   1   7  -2 7751.32  426.96
   1   7  -2 7669.83  426.36
   1  -7   2 8089.29  426.16
   1   7  -2 9141.09  426.76
  -1   7   2 8875.71  425.36
   1  -7   2 8242.28  426.36
  -1   7   2 7824.22  424.96
  -1  -7  -2 8610.04  426.76
  -1   7  -2 7546.54  426.06
  -1  -7   2 8085.79  426.26
  -1   7  -2 8732.33  426.66
   1  -7  -2 8370.16  427.06
   1  -7  -2 7951.60  425.26
   1  -7  -2 8468.35  428.56
  -1  -7   2 8002.90  427.36
  -1   7  -2 8000.60  427.16
  -1  -7   2 7785.32  428.26
  -1  -7   2 9081.19  427.56
   1  -7  -2 8275.37  425.46
  -1   7  -2 9274.77  429.06
   1  -7   3 1075.69   57.69
  -1  -7  -3  992.50   54.09
  -1  -7  -3 1016.90   53.79
   1   7  -3 1013.10   57.29
   1   7  -3  961.00   59.59
  -1   7   3 1001.00   55.29
  -1  -7  -3 1112.59   57.99
   1  -7   3 1096.09   56.89
   1   7  -3 1027.40   58.19
   1  -7   3 1009.30   56.79
  -1  -7  -3 1009.80   53.79
  -1  -7  -3  933.81   53.89
   1  -7   3  974.60   58.69
  -1  -7   3 1097.19   57.39
  -1   7  -3 1028.00   57.09
  -1   7  -3 1132.29   57.69
   1  -7  -3 1030.50   55.39
   1  -7  -3 1079.69   59.69
  -1  -7   3 1116.49   59.39
  -1  -7   3 1097.29   58.19
   1  -7  -3 1120.09   58.49
   1  -7  -3 1122.29   55.89
   1  -7  -3 1088.29   55.69
  -1  -7   3 1002.80   56.99
  -1   7  -3  955.90   57.69
   1  -7  -3 1005.20   55.99
  -1   7  -3 1168.98   60.59
   1  -7   4   89.59    8.00
  -1  -7  -4   96.79   10.80
   1  -7   4  103.49   10.00
   1   7  -4   94.29   11.00
   1   7  -4   82.79    8.70
  -1   7   4   97.39    7.60
   1  -7   4   94.99    9.80
   1  -7   4   95.09    9.70
   1   7  -4   83.99    9.20
   1  -7  -4   98.49   12.00
  -1  -7   4   93.29    8.50
   1  -7  -4  102.79    7.00
   1  -7  -4   90.99    7.40
  -1   7  -4   93.39   13.20
  -1  -7   4   81.19    9.70
  -1  -7   4  101.59   10.20
  -1   7  -4  107.79   10.70
   1  -7  -4   99.69    8.00
  -1   7  -4   90.89    8.60
  -1   7  -4   95.49    9.30
  -1  -7   4  108.19    9.90
   1  -7  -4  104.89    7.40
   1  -7  -4   98.29   11.00
  -1  -7   4  100.89   10.30
   1   7  -5  248.58   18.20
   1  -7   5  228.68   16.00
   1   7  -5  275.87   19.00
   1  -7   5  257.67   17.80
   1   7  -5  249.78   17.50
   1  -7   5  246.28   17.50
  -1   7   5  258.97   14.90
  -1  -7  -5  252.77   19.80
   1  -7   5  273.07   18.80
  -1   7   5  255.17   19.10
  -1   7   5  245.58   14.70
   1  -7   5  266.97   17.70
   1  -7  -5  242.98   19.60
  -1   7  -5  249.58   18.30
   1  -7  -5  249.28   15.50
   1  -7  -5  218.58   14.90
   1  -7  -5  239.38   14.60
  -1   7  -5  263.17   17.30
  -1   7  -5  246.58   22.40
  -1  -7   5  244.88   19.20
  -1  -7   5  253.37   15.40
   1  -7  -5  253.87   20.90
  -1  -7   5  245.48   18.10
  -1  -7   5  235.88   16.40
  -1  -7  -6   10.40    2.70
  -1   7   6   15.40    3.20
   1   7  -6   16.10    4.80
   1   7  -6    5.60    4.80
  -1   7   6   21.60    4.50
  -1  -7  -6   22.00   10.70
   1  -7   6    7.20    4.00
   1  -7   6    7.90    5.70
   1   7  -6    5.60    8.60
   1  -7   6   10.20    3.30
  -1  -7  -6   12.90    2.80
  -1   7   6   10.90    2.90
  -1  -7   6   16.40    3.80
  -1   7  -6   13.80    7.00
  -1  -7   6    5.60    4.50
   1  -7  -6   -3.80    6.70
   1  -7  -6   10.50    2.30
  -1   7  -6   15.40    4.30
  -1  -7   6   15.50    4.40
   1  -7  -6   13.80    3.10
  -1  -7   6    7.10    6.70
   1  -7  -6   11.20    3.50
  -1   7  -6    7.00    3.90
  -1   7  -6    8.90   12.30
   1  -7   7   27.50    5.90
  -1  -7  -7   24.80    3.80
  -1   7   7   30.40    6.10
   1   7  -7   44.10    5.40
   1   7  -7   46.10    5.60
   1  -7   7   34.30    5.70
  -1   7  -7   39.10    5.40
  -1  -7   7   23.70    6.10
   1  -7  -7   34.80    2.80
   1  -7  -7   32.10    4.90
  -1   7  -7   41.30    5.70
  -1  -7   7   48.50   16.30
  -1   7  -7   46.20   11.00
   1  -7  -7   33.80    2.70
  -1  -7   7   23.90    5.60
  -1   7   8   14.50    7.40
   1  -7   8   15.10    7.60
  -1   7   8    9.40    8.50
   1   7  -8   12.40    6.50
   1   7  -8   16.30    8.00
  -1  -7   8    6.50    7.70
  -1   7  -8   27.30    7.40
  -1   7  -8   17.90    7.60
   2   7   0 6321.07  331.07
  -2  -7   0 5381.36  331.87
   2  -7   0 6982.90  333.27
   2   7   0 6273.67  332.07
  -2  -7   0 6685.33  331.57
   2  -7   0 6540.85  330.77
  -2  -7   0 6452.15  330.67
   2  -7   0 6467.55  331.67
   2  -7   0 6448.96  331.27
  -2   7   0 6169.28  330.77
   2   7   0 6434.36  330.77
  -2   7   0 6252.07  331.57
  -2   7   0 6929.01  332.27
  -2   7   0 6737.83  331.37
   2   7   0 6541.85  330.67
  -2  -7   0 6200.78  330.57
  -2  -7  -1  558.64   29.70
  -2   7   1  576.84   30.20
  -2   7   1  546.55   29.80
   2  -7   1  521.55   29.70
  -2   7   1  494.55   29.20
   2  -7   1  520.85   31.60
   2   7  -1  478.45   30.10
   2   7  -1  443.16   31.70
  -2  -7  -1  538.15   33.90
  -2  -7  -1  533.55   29.00
  -2  -7  -1  546.25   28.80
   2  -7   1  491.05   31.40
   2   7  -1  541.55   30.00
   2   7  -1  494.45   31.70
   2  -7   1  535.15   30.00
  -2   7   1  493.85   31.40
   2  -7  -1  548.75   31.60
   2  -7  -1  558.84   30.30
   2   7   1  493.15   28.40
  -2   7  -1  527.05   34.90
  -2   7  -1  525.65   29.60
   2   7   1  533.35   28.80
  -2  -7   1  510.45   34.60
  -2   7  -1  566.24   30.40
  -2  -7   1  544.05   30.00
   2  -7  -1  518.65   29.70
  -2   7  -1  459.25   30.20
   2  -7  -1  563.94   31.30
  -2  -7   1  500.85   29.60
   2  -7  -1  531.55   29.40
  -2  -7   1  497.05   31.50
   2   7   1  506.95   28.90
   2  -7   2  285.37   19.00
  -2   7   2  274.27   16.40
  -2  -7  -2  241.08   15.40
  -2   7   2  278.47   16.20
   2   7  -2  260.87   17.90
  -2  -7  -2  268.07   15.20
   2  -7   2  263.37   17.10
  -2   7   2  264.67   16.20
   2  -7   2  254.47   17.00
   2   7  -2  252.17   17.30
  -2  -7  -2  269.57   16.00
  -2   7   2  279.27   16.90
   2   7  -2  278.17   17.90
  -2  -7  -2  238.48   19.80
   2  -7   2  280.27   18.20
  -2   7  -2  256.37   16.80
  -2  -7   2  266.17   17.80
   2  -7  -2  277.57   16.70
  -2   7  -2  287.47   17.80
   2  -7  -2  269.17   19.40
   2   7   2  259.87   15.20
  -2   7  -2  283.57   19.80
  -2   7  -2  236.98   17.60
   2  -7  -2  260.07   17.90
  -2  -7   2  308.47   19.40
  -2  -7   2  268.97   18.40
   2  -7  -2  273.77   17.30
  -2  -7   2  273.17   17.30
   2  -7  -2  299.17   17.80
   2  -7  -2  267.07   16.70
  -2  -7  -3  844.62   46.40
  -2   7   3  939.91   49.10
   2  -7   3  957.00   50.69
  -2   7   3  893.21   48.80
  -2  -7  -3  900.01   50.09
  -2   7   3  788.92   47.00
   2  -7   3  880.41   49.40
   2  -7   3  968.60   51.89
  -2  -7  -3  859.41   47.20
   2   7  -3  973.10   50.69
  -2  -7  -3  840.32   46.40
   2   7  -3  799.52   50.69
  -2   7   3  807.02   47.00
   2   7  -3  845.62   50.09
   2  -7   3  877.41   49.50
   2  -7  -3  910.31   48.70
   2  -7  -3  917.51   49.70
   2  -7  -3  937.81   49.50
  -2  -7   3  926.81   50.39
  -2  -7   3  899.11   49.99
  -2   7  -3  959.60   50.59
  -2   7  -3  979.40   53.19
   2  -7  -3  922.11   52.89
  -2  -7   3  961.40   52.29
  -2  -7   3  989.70   51.59
   2  -7  -3  918.61   49.10
   2  -7  -3  872.01   50.89
  -2   7  -3  841.62   50.59
   2   7  -4  160.68   14.00
   2  -7   4  154.08   12.10
   2  -7   4  143.29   12.20
   2  -7   4  146.49   10.80
   2  -7   4  152.38   12.50
  -2   7   4  153.68   11.20
  -2   7   4  152.68   11.40
   2   7  -4  135.69   12.50
  -2  -7  -4  156.28   13.40
   2   7  -4  138.69   11.90
  -2  -7   4  120.19   12.80
  -2   7  -4  149.09   11.70
  -2   7  -4  151.78   13.10
  -2  -7   4  150.08   11.70
  -2   7  -4  149.29   16.00
  -2   7  -4  144.29   12.30
  -2  -7   4  150.48   13.10
  -2  -7   4  132.59   13.30
   2  -7  -4  159.08   11.10
   2  -7  -4  143.49   11.10
   2  -7  -4  151.78   14.10
   2  -7  -4  150.38   10.50
   2  -7  -4  149.88   12.00
  -2  -7   4  162.48   14.00
  -2  -7  -5  126.79   12.60
   2   7  -5  128.59   12.80
   2   7  -5   90.59    9.60
  -2   7   5  106.79    9.40
   2   7  -5   99.99   10.20
   2  -7   5  116.69   10.70
   2  -7   5  131.89   10.30
  -2   7   5  100.59   11.00
   2  -7   5  122.09   10.80
   2  -7   5  105.09    8.40
   2  -7   5  125.49   11.20
  -2   7   5  115.49    9.70
  -2  -7   5  120.49   12.00
  -2   7  -5  120.19   15.80
   2  -7  -5  107.79    9.30
  -2  -7   5  113.29    9.20
  -2   7  -5  105.19    9.30
  -2   7  -5  110.29   10.20
   2  -7  -5  106.89    8.60
  -2  -7   5  104.99   11.50
   2  -7  -5  120.19    9.20
   2  -7   6  184.48   14.50
   2  -7   6  203.48   12.90
   2   7  -6  167.58   13.70
  -2  -7  -6  186.28   19.70
   2   7  -6  182.78   14.50
  -2   7   6  181.18   14.60
   2  -7   6  188.48   14.00
   2  -7   6  185.78   12.30
  -2  -7  -6  168.38   10.50
   2   7  -6  202.28   16.90
  -2   7   6  189.18   12.90
  -2   7  -6  178.38   14.30
  -2  -7   6  171.88   13.10
  -2  -7   6  177.78   15.30
   2  -7  -6  172.78   11.70
   2  -7  -6  177.08   12.80
  -2  -7   6  192.38   14.90
  -2  -7   6  182.08   12.20
  -2   7  -6  195.28   16.40
  -2   7  -6  178.78   14.80
   2  -7  -6  184.88   12.90
   2   7  -7   30.00   21.20
  -2   7   7   34.20    6.40
   2   7  -7   25.10    6.80
   2   7  -7   32.50    5.80
  -2  -7  -7   19.90   10.00
  -2   7   7   28.70    7.60
   2  -7   7   26.60    5.60
  -2  -7   7   27.10    5.90
  -2  -7   7   24.30    6.30
   2  -7  -7   31.00    4.10
  -2   7  -7   27.60    6.50
   2  -7  -7   25.00    5.70
  -2   7  -7   38.20    5.80
   2   7  -8   -0.90    8.30
  -2   7   8   -6.60    8.10
  -2   7   8    0.60    9.20
   2  -7   8    5.70    7.40
   2   7  -8    6.80    7.00
   2  -7  -8    2.70   11.30
  -2  -7   8   -4.00    7.80
  -2   7  -8   19.90    6.70
  -2   7  -8    3.70    8.00
   3   7   0   95.79    8.50
  -3  -7   0   98.89    9.70
  -3  -7   0   91.59    8.70
  -3  -7   0   87.09    8.70
   3  -7   0   95.69    8.30
   3   7   0   88.89    7.80
  -3   7   0   90.89    8.90
  -3  -7   0   86.89    7.60
   3   7   0   95.59    7.80
  -3   7   0   99.19    9.40
  -3   7   0   81.59    8.20
  -3   7   0  102.19    8.10
   3  -7   0   94.69    9.30
  -3   7   0   98.59    9.40
   3  -7   0   93.59    9.40
   3  -7   0   87.79    8.50
  -3  -7  -1  660.53   37.80
  -3   7   1  707.73   39.30
  -3   7   1  701.93   39.40
   3  -7   1  694.03   39.20
   3  -7   1  691.63   38.90
  -3  -7  -1  664.73   39.30
  -3  -7  -1  753.02   39.30
   3   7  -1  700.83   39.10
  -3   7   1  683.53   38.60
  -3   7   1  702.33   41.10
  -3  -7  -1  675.63   38.10
   3   7  -1  667.13   39.70
   3  -7   1  774.22   41.50
   3  -7   1  754.32   40.40
  -3   7   1  621.74   41.10
   3   7  -1  673.43   39.00
   3  -7  -1  676.23   38.80
   3   7   1  727.03   38.10
   3  -7  -1  668.03   40.60
   3  -7  -1  708.43   38.70
   3   7   1  628.94   38.50
   3  -7  -1  686.43   39.10
   3  -7  -1  680.33   39.70
  -3   7  -1  729.43   39.70
   3   7   1  682.43   37.50
  -3   7  -1  650.93   40.80
  -3   7  -1  729.63   40.30
  -3   7  -1  657.03   38.70
  -3  -7   1  687.73   39.00
  -3  -7   1  726.03   40.40
   3   7   1  699.13   38.40
  -3  -7   1  702.73   39.30
   3   7   1  697.53   38.80
  -3  -7   1  673.63   40.40
  -3   7  -1  672.03   39.30
   3  -7   2  217.98   15.30
  -3  -7  -2  165.88   11.90
   3   7  -2  174.18   14.00
   3   7  -2  175.88   14.00
  -3   7   2  200.28   12.80
  -3  -7  -2  202.28   13.20
  -3   7   2  182.88   15.10
  -3   7   2  195.88   12.80
   3  -7   2  188.98   13.30
  -3  -7  -2  165.68   12.50
  -3   7   2  196.88   13.30
   3   7  -2  189.68   13.50
  -3   7   2  190.68   14.00
  -3  -7  -2  165.28   11.20
   3  -7   2  173.78   12.90
   3  -7   2  181.38   14.30
   3   7   2  187.28   11.80
  -3  -7   2  176.18   14.30
   3  -7  -2  177.68   13.60
  -3   7  -2  190.48   14.60
  -3   7  -2  173.38   13.70
  -3   7  -2  168.58   15.40
   3  -7  -2  186.98   13.90
  -3   7  -2  192.68   12.50
  -3  -7   2  171.18   14.20
  -3   7  -2  174.58   12.70
   3  -7  -2  182.08   13.60
  -3  -7   2  169.98   13.00
  -3  -7   2  182.68   14.60
   3  -7  -2  155.28   12.60
   3  -7  -2  185.58   14.10
   3   7   2  177.98   11.90
   3  -7   3  194.58   14.30
  -3   7   3  206.08   14.90
   3  -7   3  217.28   15.70
   3  -7   3  186.58   13.60
  -3  -7  -3  178.08   11.90
  -3   7   3  200.08   12.80
  -3  -7  -3  188.18   11.30
  -3  -7  -3  199.18   13.00
  -3  -7  -3  210.18   13.20
  -3   7   3  209.08   17.20
  -3   7   3  207.48   13.60
  -3  -7  -3  193.18   14.60
   3   7  -3  197.68   14.90
   3   7  -3  209.58   16.00
   3   7  -3  193.38   15.40
  -3   7   3  205.88   13.40
   3  -7   3  215.98   15.60
  -3  -7   3  197.18   15.80
  -3   7  -3  196.18   15.10
  -3   7  -3  203.88   16.20
   3   7   3  194.08   11.50
   3  -7  -3  192.18   14.30
  -3   7  -3  208.48   12.80
   3  -7  -3  202.18   14.20
   3   7   3  177.48   11.50
  -3  -7   3  170.68   15.50
   3  -7  -3  196.68   15.60
  -3  -7   3  195.78   15.90
  -3  -7   3  193.38   14.30
   3  -7  -3  216.38   15.60
  -3   7  -3  202.58   17.80
  -3   7  -3  188.88   13.80
   3  -7  -3  189.38   13.90
  -3  -7  -4  179.18   14.20
  -3   7   4  141.19   11.90
   3   7  -4  194.28   16.20
  -3   7   4  178.88   13.90
   3  -7   4  181.68   14.60
  -3  -7  -4  184.28   11.60
   3  -7   4  160.98   12.00
   3  -7   4  207.88   13.40
   3  -7   4  173.38   13.80
  -3   7   4  178.78   12.10
  -3  -7  -4  157.78   13.60
   3   7  -4  160.38   14.20
   3   7  -4  164.58   13.50
   3  -7   4  168.88   13.50
  -3   7   4  169.18   10.80
   3  -7  -4  165.88   13.60
  -3  -7   4  176.38   15.10
  -3  -7   4  181.08   15.30
  -3   7  -4  184.08   14.60
  -3   7  -4  163.78   18.20
  -3  -7   4  169.48   13.20
  -3   7  -4  185.38   15.30
   3  -7  -4  172.68   12.60
   3  -7  -4  169.88   15.40
   3  -7  -4  174.88   14.50
   3  -7  -4  179.68   13.20
  -3  -7   4  172.98   14.60
   3  -7   5   21.20    3.90
   3   7  -5   16.00    3.90
  -3   7   5   14.90    4.10
   3   7  -5   30.60    8.60
  -3  -7  -5   18.90    4.20
  -3   7   5   18.30    6.40
  -3   7   5    7.10    4.90
   3  -7   5   12.40    3.20
  -3  -7  -5    5.70    8.30
  -3  -7  -5   18.60    6.60
   3   7  -5   11.30    4.50
  -3   7   5   23.40    3.90
   3  -7   5   14.90    6.60
   3  -7   5   16.10    4.00
   3  -7  -5   16.60    3.90
   3  -7  -5   11.70    3.40
  -3   7  -5   21.40    7.30
  -3   7  -5   29.30   14.00
  -3   7  -5   12.00    3.80
   3  -7  -5   14.50    5.90
  -3   7  -5   15.90    3.90
  -3  -7   5   19.10    7.60
  -3  -7   5   10.00    3.90
  -3  -7   5   21.40    4.90
   3   7  -6   31.30    5.80
   3  -7   6   29.40    4.40
   3  -7   6   34.10    4.70
  -3  -7  -6    2.70   15.30
   3   7  -6   24.90    4.90
  -3  -7  -6   38.80   10.70
  -3   7   6   24.90    7.60
   3  -7   6   14.80    6.20
  -3  -7  -6   25.70    4.60
   3   7  -6   44.20   10.20
  -3   7   6   40.10    5.50
   3  -7   6   28.70    4.40
  -3   7  -6   22.10    8.30
  -3  -7   6   25.80    8.80
   3  -7  -6   34.90    5.10
  -3  -7   6   27.50    5.10
   3  -7  -6   27.10    6.50
   3  -7  -6    7.50   10.90
  -3   7  -6   35.70    5.50
  -3  -7   6   17.80    4.80
  -3   7  -6   23.70    4.80
  -3  -7   6   30.40    5.50
   3  -7  -6   23.30    4.60
   3   7  -7    9.70    6.90
   3  -7   7   20.20    7.90
  -3   7   7   14.00    5.90
  -3   7   7    0.20    7.70
   3  -7   7    0.40    5.70
   3   7  -7   23.90    6.30
  -3  -7   7   14.00    6.10
  -3  -7   7   10.60    5.30
   3  -7  -7    9.40    4.40
  -3  -7   7    4.30    6.40
   3  -7  -7    6.80    6.00
   3   7  -8   26.30    8.70
   3   7  -8    8.70    8.90
  -3   7   8   10.90    8.90
  -3   7  -8   16.00    8.50
  -3   7  -8   10.00    7.20
   3  -7  -8   13.40    9.20
   3  -7  -8   12.30    5.40
  -3  -7   8   -5.70    9.00
  -4  -7   0  854.81   48.20
   4  -7   0  896.31   49.99
   4  -7   0  724.03   50.19
   4  -7   0  880.71   47.60
  -4   7   0  908.51   49.60
  -4  -7   0  898.61   50.29
  -4   7   0  822.82   48.30
  -4   7   0  842.72   49.90
   4   7   0  885.01   48.40
  -4   7   0  897.31   49.99
   4   7   0  908.21   48.80
   4  -7   0  814.62   48.80
  -4  -7   0  862.81   48.60
  -4  -7   0  964.80   50.29
  -4   7   0  899.11   50.59
   4   7   0  839.12   48.30
   4  -7   0  885.41   48.70
  -4  -7  -1    2.80    4.60
   4   7  -1    5.10    3.30
   4  -7   1    4.00    5.90
   4  -7   1    3.10    2.50
  -4   7   1    5.00    3.90
  -4   7   1    4.30    3.20
   4   7  -1   -4.80    8.20
  -4   7   1    2.40    5.70
  -4  -7  -1    6.70    3.10
   4  -7   1    1.60    3.60
   4  -7   1    6.90    4.40
   4   7  -1    7.30    5.60
  -4  -7  -1    5.60    3.50
  -4  -7  -1   -0.50    5.50
  -4   7   1    1.40    3.00
  -4   7   1    6.10    5.70
   4   7   1    5.00    2.00
  -4   7  -1    7.20    3.50
  -4   7  -1   -0.10    3.30
   4  -7  -1    3.30    4.80
  -4   7  -1    5.30    5.90
  -4  -7   1   -0.80    3.70
  -4   7  -1    1.00    4.90
   4  -7  -1    2.90    3.80
   4   7   1    4.90    4.90
   4   7   1   -2.30    5.40
   4  -7  -1    4.50    5.40
   4  -7  -1    4.90    4.60
  -4  -7   1    3.70    3.00
  -4  -7   1    6.10    6.50
  -4  -7   1    1.10    5.80
  -4   7  -1    5.40    3.40
  -4  -7  -2  144.49   11.00
  -4   7   2  130.59   13.20
  -4   7   2  139.19   11.00
   4   7  -2  145.69   13.00
   4  -7   2  135.49   11.00
   4  -7   2  132.69   12.50
   4  -7   2  138.69   11.20
  -4  -7  -2  156.48   11.60
   4   7  -2  125.29   12.10
   4   7  -2  136.89   11.50
  -4  -7  -2  150.18   12.30
   4  -7   2  152.38   13.20
  -4   7   2  132.69   12.30
  -4  -7  -2  140.39    9.70
  -4   7   2  131.19   11.00
  -4   7   2  140.49   12.20
  -4  -7  -2  141.99   11.00
  -4  -7   2  148.69   13.30
   4  -7  -2  147.19   12.50
  -4   7  -2  174.28   14.10
  -4  -7   2  141.09   11.80
  -4   7  -2  138.99   11.20
  -4   7  -2  122.79   13.70
   4   7   2  152.88   11.10
  -4   7  -2  163.48   11.40
   4  -7  -2  142.49   13.10
  -4  -7   2  135.39   13.10
   4   7   2  133.69   10.70
   4  -7  -2  143.69   12.30
   4  -7  -2  136.99   12.30
   4  -7  -2  132.19   11.30
  -4   7  -2  116.89   11.70
   4   7  -3  180.78   15.10
  -4  -7  -3  148.69   11.30
  -4   7   3  156.88   12.80
   4   7  -3  148.79   13.50
   4  -7   3  160.08   11.80
  -4   7   3  157.28   11.60
  -4  -7  -3  135.99   15.00
  -4  -7  -3  161.38   10.10
  -4   7   3  160.28   15.20
   4  -7   3  154.38   13.00
  -4  -7  -3  155.48   18.60
  -4   7   3  163.58   12.00
   4  -7   3  169.28   14.00
  -4   7   3  154.88   14.40
   4  -7   3  168.38   14.30
   4   7  -3  171.08   13.30
  -4  -7   3  165.88   13.00
  -4  -7   3  144.39   13.70
   4  -7  -3  162.58   14.40
  -4   7  -3  152.68   12.10
  -4  -7   3  176.48   15.30
  -4   7  -3  163.78   11.40
   4  -7  -3  176.68   14.20
   4  -7  -3  150.68   13.10
  -4   7  -3  160.88   14.60
   4   7   3  172.28   11.10
   4  -7  -3  162.18   12.60
  -4  -7   3  162.38   13.30
   4  -7  -3  145.79   13.10
  -4   7  -3  149.99   13.40
  -4   7  -3  157.98   16.70
  -4   7   4  133.09   10.10
  -4  -7  -4  131.39   10.40
  -4   7   4  110.89    8.80
  -4  -7  -4  122.39    7.30
   4  -7   4  126.49   12.50
   4  -7   4  107.39   11.80
   4   7  -4  111.79   10.90
  -4  -7  -4  142.69   11.70
   4   7  -4  127.09   13.90
   4  -7   4  150.88   10.00
  -4   7   4  120.39   13.10
  -4   7   4  134.49   10.80
  -4  -7  -4  142.39   12.10
  -4   7   4  132.39   13.70
   4  -7   4  108.39    9.20
   4   7  -4  125.09   12.30
   4  -7   4  144.79   11.50
  -4   7  -4  140.89   10.70
   4  -7  -4  121.59   10.50
  -4   7  -4  144.59   14.10
  -4  -7   4  121.39   10.70
   4   7   4  117.69    7.10
  -4  -7   4  131.69   13.70
  -4  -7   4  128.39   11.70
   4  -7  -4  111.89   13.40
  -4   7  -4  118.09   11.00
   4  -7  -4  124.49   13.10
  -4  -7   4  112.09   14.00
  -4   7  -4  109.29   15.30
   4  -7  -4  118.49   11.30
   4  -7   5   15.20    3.60
  -4  -7  -5   27.20    7.60
  -4   7   5   13.20    3.80
  -4  -7  -5   13.90   11.60
  -4   7   5   17.40    3.60
   4   7  -5   28.80    9.40
  -4  -7  -5   25.20    3.20
   4   7  -5   27.50    4.80
   4  -7   5   23.30    5.00
  -4   7   5   19.70    3.30
   4  -7   5   21.30    4.00
   4   7  -5   28.90    4.60
  -4  -7  -5   22.90    7.30
   4  -7   5   18.80    7.10
  -4   7  -5   28.40    8.30
   4  -7  -5   11.80    5.90
  -4  -7   5   29.30   10.80
  -4  -7   5   24.50    4.70
  -4  -7   5   14.70    6.40
  -4   7  -5   24.60    4.00
   4  -7  -5   26.40    4.20
  -4   7  -5   19.90    4.40
   4  -7  -5   15.70    7.00
  -4  -7  -6    3.10    3.20
   4   7  -6   14.60    5.10
  -4  -7  -6   -1.80    5.90
  -4   7   6    9.00    5.50
  -4  -7  -6    6.20    8.40
  -4   7   6    9.30    4.60
   4  -7   6    2.40    4.10
   4  -7   6    4.00    4.50
   4  -7   6    5.10    4.40
  -4   7   6   -1.60    6.80
   4   7  -6    5.20    5.60
   4   7  -6   16.60   11.20
   4  -7  -6    6.50    5.30
  -4   7  -6   11.20   15.10
  -4  -7   6   12.50    5.30
  -4  -7   6    8.00    5.50
   4  -7  -6   11.10    4.40
   4  -7  -6   12.90    7.40
  -4   7  -6   21.80    5.90
  -4   7  -6    9.60    4.30
   4   7  -7   20.60    6.90
  -4   7   7   31.10    8.00
   4  -7   7   15.60    6.00
   4   7  -7   22.70    7.50
  -4  -7   7   22.00    7.20
  -4   7  -7   28.00    7.90
   4  -7  -7   20.80    7.50
  -4  -7   7   28.20    7.60
  -4   7  -7   26.10    6.40
   4  -7  -7   16.30    5.70
  -4  -7   7   14.40    6.70
  -4   7   8    6.10   13.30
   4   7  -8   19.90   10.30
   4  -7   8    9.90    8.30
   4  -7  -8   18.10    7.30
  -4   7  -8   11.10    9.90
  -4   7  -8    6.40    8.00
   5   7   0  111.29    9.20
   5  -7   0  107.39   12.10
  -5   7   0  125.59   13.20
  -5  -7   0  122.69   12.80
  -5  -7   0  121.49   12.00
  -5  -7   0  101.79    9.60
   5  -7   0  115.79    9.30
   5   7   0  111.39   11.20
   5  -7   0   98.49   11.30
   5  -7   0  110.39   10.30
  -5   7   0  113.69   12.20
  -5   7   0  111.49   10.10
   5  -7   0  121.49   12.00
   5   7   0  104.29    9.80
  -5   7   0  104.09   10.70
  -5   7   1  299.87   21.90
   5  -7   1  317.97   21.70
  -5   7   1  341.87   23.00
  -5   7   1  316.77   22.20
  -5  -7  -1  347.07   23.00
   5  -7   1  323.17   19.20
   5  -7   1  320.87   23.30
   5  -7   1  312.57   21.50
  -5  -7  -1  305.87   20.10
   5  -7   1  349.17   23.90
   5   7  -1  333.07   22.00
  -5   7   1  299.97   23.30
  -5  -7  -1  337.77   21.40
  -5   7   1  314.87   21.20
   5   7  -1  325.57   22.00
   5   7  -1  299.37   20.80
  -5   7  -1  277.67   22.10
   5  -7  -1  331.47   20.50
  -5   7  -1  334.77   23.40
   5  -7  -1  322.77   22.90
  -5  -7   1  300.07   20.90
   5  -7  -1  279.37   22.70
  -5  -7   1  314.97   23.30
  -5   7  -1  304.67   20.80
   5   7   1  324.97   20.00
   5  -7  -1  309.47   21.40
  -5  -7   1  328.07   22.60
   5   7   1  334.77   21.20
   5  -7  -1  327.57   22.00
   5   7   1  325.27   20.20
  -5   7  -1  331.77   23.40
  -5  -7  -2   25.50    4.10
  -5  -7  -2   14.50    6.40
  -5   7   2   26.30    5.90
  -5   7   2   17.70    7.20
  -5   7   2   23.10    4.10
  -5   7   2   15.80    4.50
  -5  -7  -2   19.80    7.30
   5   7  -2   15.70    4.40
  -5   7   2   26.50    7.70
   5  -7   2   11.90    3.80
   5  -7   2   13.80    5.20
   5  -7   2   19.50    8.50
   5   7  -2   31.60    8.70
   5  -7   2    7.30    8.90
  -5  -7  -2   17.90    4.80
   5   7  -2    9.20    4.30
   5  -7  -2   15.50    7.50
  -5   7  -2   15.40    4.60
  -5   7  -2   10.20    4.30
   5   7   2   18.80    2.50
  -5   7  -2   13.90    7.90
   5  -7  -2   18.30    7.90
   5  -7  -2   21.00    6.20
   5   7   2   12.70    5.40
   5  -7  -2   12.30    4.50
   5   7   2   17.80    3.30
  -5  -7   2   16.50    4.60
  -5   7  -2   18.80    8.40
  -5  -7   2   23.30    4.10
   5  -7  -2   14.10    4.50
   5   7   2   22.10    5.90
  -5  -7   2   13.60    7.40
  -5   7   3  273.27   19.60
  -5   7   3  270.77   18.20
  -5  -7  -3  263.37   17.70
   5   7  -3  246.68   19.00
  -5   7   3  254.77   21.50
   5  -7   3  262.07   17.70
  -5  -7  -3  294.17   17.60
   5  -7   3  270.47   19.60
  -5  -7  -3  289.57   19.60
   5  -7   3  282.87   20.70
   5   7  -3  273.47   20.50
   5   7  -3  261.27   21.10
  -5  -7  -3  263.27   16.40
  -5   7   3  267.97   18.80
   5  -7  -3  263.67   20.10
  -5   7  -3  294.27   21.00
  -5  -7   3  225.58   24.50
  -5  -7   3  278.47   19.20
  -5   7  -3  270.17   18.30
   5   7   3  252.37   17.20
   5  -7  -3  254.77   19.80
   5   7   3  308.97   17.60
   5  -7  -3  279.37   19.80
  -5  -7   3  265.27   18.90
   5  -7  -3  240.88   18.70
  -5   7  -3  275.67   20.00
  -5  -7   3  266.87   21.60
   5  -7   4   28.30    8.70
  -5  -7  -4   25.50    6.60
  -5  -7  -4   22.30    2.90
  -5   7   4   34.60    5.80
  -5  -7  -4   22.70   17.30
   5   7  -4   24.80   10.90
   5  -7   4   31.00    4.00
  -5   7   4   29.60    4.20
  -5   7   4   16.30    6.70
   5   7  -4   22.90    4.90
  -5  -7  -4   27.60    7.90
  -5  -7  -4   29.70    6.20
   5  -7   4   31.90    3.50
   5  -7   4   32.60    4.90
  -5   7   4   23.90    4.40
   5  -7  -4   20.60    4.30
   5  -7  -4   33.70    8.70
  -5  -7   4   35.70    5.60
  -5  -7   4   24.40    5.00
   5  -7  -4   24.90   10.40
  -5   7  -4   41.10    9.80
   5   7   4   29.10    5.20
  -5   7  -4   27.70    4.30
   5  -7  -4   25.40    5.30
   5   7   4   22.10    3.90
  -5  -7  -5   35.60    7.80
  -5  -7  -5   45.80    8.70
   5  -7   5   44.50    5.90
  -5   7   5   35.80    4.30
   5  -7   5   42.80    5.40
  -5  -7  -5   39.30    2.50
  -5   7   5   27.20    6.80
  -5   7   5   32.20    5.20
   5   7  -5   44.40    5.80
  -5  -7  -5   34.80    4.60
   5  -7   5   39.60    4.50
  -5  -7   5   47.10    5.60
  -5  -7   5   20.50    7.70
  -5   7  -5   47.30   11.50
  -5   7  -5   30.50    5.30
   5  -7  -5   33.20    5.20
   5  -7  -5   31.80    8.90
  -5  -7   5   36.50    5.70
   5  -7  -5   34.10    7.40
   5  -7   6   41.60    6.00
   5   7  -6   56.39    7.00
   5  -7   6   43.10    5.70
  -5   7   6   33.60    7.60
  -5  -7  -6   42.60    5.70
   5   7  -6   35.00    7.00
  -5   7  -6   42.00    6.20
  -5  -7   6   33.60    7.10
   5  -7  -6   36.90    7.60
  -5   7  -6   44.50    6.50
  -5  -7   6   34.70    7.00
   5  -7  -6   41.80    6.00
  -5   7   7   -4.80   10.80
   5   7  -7    3.50    8.80
   5   7  -7   17.40    8.00
  -5  -7   7  -11.90    8.60
   5  -7  -7   15.20    7.30
  -5  -7   7   -6.60    8.20
  -5  -7   7   -2.90    8.40
  -5   7  -7   -2.10    8.70
   5  -7  -7   10.50    8.80
  -5  -7   7  -12.20    9.20
  -5   7  -7    8.80    6.40
   6  -7   0  277.97   22.10
  -6  -7   0  287.47   23.10
   6   7   0  291.17   18.80
   6  -7   0  297.37   18.00
  -6   7   0  283.77   21.10
  -6  -7   0  296.67   21.30
   6  -7   0  277.57   21.20
   6  -7   0  248.38   19.60
   6   7   0  288.47   19.80
  -6   7   0  273.77   19.80
  -6  -7   0  293.87   19.50
  -6   7   0  297.27   23.00
  -6   7   1  299.07   23.90
   6  -7   1  292.07   20.80
  -6   7   1  308.57   23.50
  -6   7   1  299.67   22.90
  -6   7   1  305.37   22.20
  -6  -7  -1  318.07   21.60
   6  -7   1  279.67   23.70
   6   7  -1  310.67   20.70
  -6   7   1  315.17   21.00
   6  -7   1  320.17   18.10
  -6  -7  -1  319.67   23.80
  -6  -7  -1  302.87   20.00
   6  -7   1  306.37   23.10
   6   7  -1  301.97   21.60
   6  -7   1  319.07   27.00
  -6   7  -1  287.77   20.50
   6  -7  -1  272.37   22.60
  -6  -7   1  307.47   20.80
   6   7   1  284.47   19.40
   6   7   1  319.37   20.00
   6  -7  -1  305.87   22.50
   6  -7  -1  294.77   21.10
   6  -7  -1  319.47   19.90
   6   7   1  277.47   27.00
  -6  -7   1  305.37   19.10
  -6   7  -1  319.07   23.60
  -6   7  -1  292.97   22.20
  -6  -7   1  333.47   23.20
  -6   7   2  111.79    9.50
   6   7  -2  107.89    9.60
  -6  -7  -2  121.99    9.20
  -6  -7  -2  133.39   13.50
  -6  -7  -2  120.29   12.50
  -6  -7  -2  118.29    8.60
  -6   7   2  112.89   11.90
  -6   7   2   99.99   12.40
   6  -7   2  129.89   11.90
   6  -7   2  124.69   13.80
  -6   7   2   97.09   10.50
   6   7  -2  108.39   10.80
   6  -7   2  112.69    7.90
   6  -7   2  100.89    9.50
   6  -7  -2  119.49   13.00
   6   7   2  127.09    9.20
   6  -7  -2  110.69   11.20
  -6   7  -2  107.69   10.20
  -6   7  -2  123.69   14.10
   6   7   2  125.79   15.00
  -6  -7   2  130.49    9.80
   6  -7  -2  103.29    9.90
   6  -7  -2  136.79   11.80
  -6  -7   2  111.79   10.00
   6   7   2  107.39    8.00
  -6   7  -2  103.19   10.90
  -6  -7   2   96.49   13.90
  -6  -7  -3    9.80    3.60
   6   7  -3   12.60    4.60
  -6  -7  -3    2.60    8.20
   6  -7   3   13.40    2.40
  -6   7   3   11.80    4.20
   6  -7   3    9.20    4.20
  -6   7   3   15.40    4.00
   6  -7   3   12.80    4.60
  -6  -7  -3   13.00    3.60
   6   7  -3   18.70    4.80
  -6  -7  -3   14.50    6.30
  -6   7   3    8.80    5.00
  -6   7   3    7.90    7.90
   6  -7  -3   17.00    8.50
  -6  -7   3   14.70    7.10
   6  -7  -3    8.80    4.70
  -6   7  -3    9.40    3.40
   6  -7  -3   14.20    7.00
  -6  -7   3   15.50    3.70
  -6   7  -3   15.30    4.50
   6   7   3   12.70    6.70
   6  -7  -3    8.70    4.30
   6   7   3   15.70    6.50
  -6   7  -3   10.00    9.40
  -6  -7  -4  108.69   10.20
  -6   7   4  121.49    9.90
   6   7  -4  116.19   10.70
  -6   7   4  102.19   11.10
   6  -7   4  134.59   11.20
   6   7  -4  109.99    9.60
  -6  -7  -4   97.59    9.00
  -6   7   4  133.29   10.20
   6  -7   4  108.59    9.60
  -6  -7  -4  141.39   14.00
   6  -7   4  108.99    7.70
  -6  -7  -4  121.49    8.30
  -6   7  -4  137.59   16.10
   6  -7  -4  117.49    9.60
  -6  -7   4  127.79    9.70
   6  -7  -4  121.09    9.90
   6   7   4  141.59   10.70
   6  -7  -4  102.59   13.00
  -6   7  -4  125.39   10.30
  -6  -7   4  133.99    9.20
  -6   7  -4  117.89    9.70
  -6   7   5   35.70    5.80
  -6   7   5   23.40    6.00
  -6   7   5   31.90    7.70
  -6  -7  -5   28.20    3.20
   6  -7   5   30.00    4.30
   6  -7   5   31.60    6.80
  -6  -7  -5   40.70   25.10
   6  -7   5   40.90    6.50
   6   7  -5   28.50    6.50
  -6  -7   5   20.90    5.90
  -6   7  -5   40.80    6.40
  -6  -7   5   19.80    6.00
  -6   7  -5   24.00    5.70
  -6   7  -5   24.60    4.70
   6  -7  -5   43.90    7.20
   6  -7  -5   27.50    6.70
  -6   7   6    7.20    9.70
   6   7  -6    1.10    7.90
   6   7  -6   -3.40    7.90
  -6  -7  -6   -6.00    8.90
  -6   7  -6   -1.10    7.50
  -6  -7   6   -9.70    8.60
   6  -7  -6    2.50    7.50
   6  -7  -6   14.80    8.30
  -6  -7   6    7.50    7.40
  -7  -7   0   21.10    4.90
  -7  -7   0   25.40   10.20
   7   7   0   17.30    4.80
   7  -7   0   20.80    5.10
  -7   7   0   18.80    4.80
  -7   7   0   17.50    4.60
   7   7   0    4.60   11.60
   7  -7   0   21.70    4.50
   7  -7   0   14.60    4.90
  -7  -7   0   20.90    3.00
   7   7   0   19.40    4.30
  -7   7   1   -1.10    4.40
  -7   7   1   -1.50    5.50
   7  -7   1   11.40    4.80
  -7  -7  -1   -5.80    5.60
  -7  -7  -1   -2.90    3.90
   7   7  -1   -2.50    4.90
  -7  -7  -1    6.50    2.70
   7  -7   1    2.20    5.30
  -7   7   1   -2.70    4.70
  -7  -7  -1   17.90    9.10
   7  -7  -1    4.90    5.40
   7   7   1    3.00    4.10
   7   7   1    6.70    8.70
   7  -7  -1    6.20    3.80
  -7   7  -1    0.80    4.70
  -7  -7   1   -0.70    2.90
   7   7   1   -0.80    4.90
  -7  -7   1   -5.40    4.10
  -7  -7   1    4.30   10.00
  -7   7  -1   -1.10    4.20
  -7  -7   1   -5.80    5.70
   7  -7  -1    1.80    4.40
   7  -7   2   27.20    6.70
   7   7  -2   23.30    5.40
   7  -7   2   28.00    5.70
  -7  -7  -2   21.30    8.50
  -7  -7  -2   24.50    4.40
  -7   7   2   12.90    6.30
   7   7  -2   28.40    6.00
  -7   7   2   22.30    6.10
  -7  -7   2   31.80    4.70
   7   7   2    9.10   10.50
  -7   7  -2   28.50    4.70
  -7   7  -2   37.10   13.10
   7  -7  -2   23.30    5.60
  -7  -7   2   21.40    5.30
   7   7   2   24.80    4.40
   7  -7  -2   30.50    6.10
   7  -7  -2   28.80    7.60
   7   7   2   24.50    4.60
  -7   7  -2   25.10    5.30
  -7  -7  -3   10.20    3.60
   7  -7   3   12.80    6.10
   7  -7   3    9.10    5.40
   7   7  -3    9.40    6.00
  -7   7   3    8.70    5.80
  -7  -7  -3   13.90    5.50
  -7   7   3    7.60    5.20
  -7   7   3    5.80    8.80
   7   7  -3    9.60    5.80
   7   7   3    6.90    4.60
  -7  -7   3   16.60    4.30
   7  -7  -3   10.60    9.30
  -7  -7   3   -4.90    6.70
  -7   7  -3   18.70   14.20
   7  -7  -3    9.00    6.00
  -7   7  -3    2.60    4.40
   7   7  -4   16.90    6.80
  -7   7   4    8.80    6.40
  -7  -7  -4    1.60    3.60
   7  -7   4   12.40    5.90
   7   7  -4   18.30    6.50
  -7   7   4    5.90    7.80
   7  -7   4   11.00    8.10
  -7  -7  -4    6.10    6.10
  -7  -7   4   16.60    6.50
   7  -7  -4   17.30    7.20
  -7   7  -4   11.00    4.80
  -7  -7   4    6.70    5.60
  -7   7  -4    9.10    6.50
  -7   7   5    2.00    9.60
  -7   7   5   -4.60    9.70
   7   7  -5   -2.00    8.20
  -7   7   5  -11.80    8.60
   7   7  -5    7.80    8.20
  -7  -7   5    0.60    7.50
  -7   7  -5   -3.40    5.30
  -7   7  -5    9.60    8.30
   7  -7  -5    4.30    8.60
  -7  -7   5   -8.30    7.70
   7  -7  -5   15.30    7.20
  -7   7   6   -6.40   12.30
  -7  -7   6  -10.10    9.70
  -7  -7   6  -15.10   10.00
   7  -7  -6    2.20   10.10
  -7  -7   6   -5.80    8.90
  -7   7  -6   10.20   10.30
   8  -7   0   15.30    6.90
  -8   7   0   11.40    6.20
   8  -7   0   16.60    6.40
   8   7   0   11.50    5.40
  -8  -7   0    5.80    5.50
   8   7   0    6.00    6.40
  -8  -7   0    5.80   16.10
  -8  -7  -1   10.10    4.80
  -8   7   1   20.30    7.40
  -8  -7  -1   16.40    6.30
   8  -7   1   12.80    6.40
   8   7  -1   10.60    6.30
  -8   7   1   10.50    6.70
   8  -7   1   28.20    7.40
  -8   7   1   20.70    5.80
   8  -7  -1   13.40    7.00
   8   7   1    8.50    6.30
  -8   7  -1   15.90    6.20
  -8   7  -1   13.30    5.50
   8  -7  -1   12.60    6.30
  -8  -7   1    7.60    5.40
  -8   7   2    7.60    8.20
   8   7  -2   28.50    7.90
  -8   7   2   23.00    6.20
  -8  -7  -2   10.90    5.10
   8   7  -2   18.30    6.70
   8  -7   2   16.50    6.90
  -8  -7  -2   23.10    6.60
  -8   7   2   26.70    6.70
   8  -7   2   14.90    7.30
   8   7   2   27.40    6.00
   8  -7  -2   20.80    6.90
  -8   7  -2   15.70    5.30
  -8  -7   2   20.80    6.10
  -8  -7   2   22.30    5.40
   8  -7  -2   16.50    6.70
  -8   7  -2   18.10    6.70
   8  -7   3   31.00    9.00
  -8   7   3   30.30    9.00
   8   7  -3   46.10    9.00
  -8   7   3   49.60    8.70
  -8  -7  -3   44.90    7.20
  -8  -7  -3   36.00    5.80
  -8   7   3   26.00    7.50
   8   7  -3   41.10    7.70
  -8  -7   3   56.79    6.80
  -8   7  -3   31.50    7.80
  -8  -7   3   54.39    7.90
  -8   7  -3   42.50    6.70
   8  -7  -3   49.20    8.20
   8  -7  -3   57.59    9.90
  -8   7   4  -10.30   10.50
  -8   7   4    0.80    8.90
   8   7  -4    5.50    8.70
   8   7  -4    7.40    8.80
   8  -7   4   17.20   10.40
  -8  -7  -4    2.20    8.00
   8  -7   4   12.40    8.70
  -8  -7   4   -2.90    8.30
   8  -7  -4    1.80    9.10
  -8  -7   4    1.70    8.20
  -8   7  -4  -11.70    7.20
  -8  -7   4    7.80    7.10
  -8   7  -4   16.50    8.50
   8  -7  -4   19.50    8.30
  -9   7   0    4.40    8.20
   9   7   0   11.00    8.20
  -9  -7   0   -0.50    8.20
   9   7   0   -3.60    8.70
   9  -7   0    5.60    9.20
   9  -7   0   13.00    8.60
  -9  -7  -1    0.80    8.60
   9   7  -1    3.20    8.60
   9   7  -1   11.20    9.40
   9  -7   1    8.80    8.80
  -9   7   1   -1.40    9.90
  -9   7   1   -0.40    9.10
  -9  -7  -1  -10.40    7.10
   9  -7   1    8.30    9.30
   9   7   1   -1.10    7.90
  -9   7  -1   -1.90    8.30
   9  -7  -1    8.50    9.50
  -9  -7   1   -2.60    7.80
  -9   7  -1  -10.00    7.00
  -9  -7   1    1.10    8.50
   9  -7  -1    5.40    8.40
   9   7  -2    2.80    9.00
  -9  -7  -2    0.60    8.90
  -9   7   2  -13.20   10.20
   9  -7   2    6.20   10.10
  -9  -7  -2  -11.50    6.70
  -9   7   2  -14.20    8.60
  -9   7   2    2.10    9.70
   9   7  -2    5.80   10.00
   9  -7   2    3.30   10.20
  -9   7  -2   18.30    8.90
   9  -7  -2   17.50    9.70
  -9  -7   2    0.80    8.90
  -9  -7   2    0.60    8.10
   9  -7  -2   10.10    9.00
   9   7  -3   17.60   10.30
   9  -7   3   10.40   10.30
  -9  -7  -3   -7.30    6.90
  -9   7   3   -2.70   11.10
   9  -7   3   15.80   13.10
  -9  -7  -3  -13.50   10.60
   9   7  -3    2.60   11.00
  -9   7  -3    6.10   14.10
   9  -7  -3   12.90   10.20
  -9  -7   3   14.80    9.40
   0  -8   0 2569.54  136.79
   0  -8   0 2639.14  138.79
   0   8   0 2672.43  136.99
   0   8   0 2507.45  137.09
   0  -8   0 2653.53  136.69
   0   8   0 2978.80  138.39
   0   8   0 2347.07  136.59
   0  -8   0 2684.93  137.49
   0   8  -1 2253.07  108.79
   0  -8   1 2194.48  109.29
   0   8   1 1917.81  107.79
   0  -8  -1 1995.50  108.89
   0  -8   1 2399.96  111.19
   0   8  -1 1988.80  108.89
   0  -8   1 2087.19  108.19
   0  -8   1 1989.10  108.39
   0  -8  -1 1956.70  107.49
   0   8  -1 2048.10  108.49
   0   8   1 2034.70  107.39
   0  -8  -1 1995.70  107.89
   0   8   1 2128.49  107.69
   0   8   1 1920.01  107.49
   0  -8  -1 2085.19  107.49
   0  -8   2   85.39    9.90
   0  -8   2   99.19    9.70
   0  -8  -2  105.79    7.70
   0   8  -2   90.59   12.80
   0  -8  -2   98.69    9.30
   0   8  -2   97.29    8.50
   0   8  -2  100.59   11.50
   0  -8  -2  105.59    8.20
   0  -8   2  106.99    9.10
   0   8  -2   88.39    8.70
   0   8   2  104.09    7.40
   0  -8  -2  104.79    7.20
   0  -8   2  100.39    8.40
   0  -8  -2  101.79    7.50
   0  -8  -3 1878.01   98.09
   0  -8  -3 1954.00  101.49
   0  -8   3 2022.40  101.49
   0  -8   3 1765.62   99.99
   0  -8   3 1882.41  100.09
   0  -8  -3 2143.29   98.79
   0   8  -3 1850.91  100.59
   0   8   3 2025.20   97.99
   0   8  -3 1732.33  103.19
   0   8  -3 1707.43  101.09
   0  -8  -3 1775.42   97.79
   0  -8  -3 1810.72   97.79
   0   8  -3 2099.29  101.19
   0  -8   3 1793.52  102.69
   0   8  -4    9.10    4.60
   0  -8   4    4.50    5.30
   0   8  -4    6.30    9.00
   0   8   4   10.10    1.90
   0  -8   4   13.10    6.40
   0   8  -4    0.50    3.70
   0  -8  -4    7.00    1.40
   0  -8  -4    7.90    2.40
   0   8   4    7.20    1.70
   0  -8   4    7.80    3.40
   0  -8  -4    9.40    2.80
   0  -8  -4    7.90    6.30
   0  -8  -4    6.00    7.80
   0  -8  -4    9.70    3.30
   0   8  -4    7.60    6.60
   0  -8   4    5.70    4.20
   0  -8  -5    4.70    3.40
   0  -8   5    5.20    3.40
   0  -8  -5    1.50    2.70
   0  -8  -5   -0.60    8.90
   0   8  -5   -7.10    9.20
   0  -8  -5    0.80    7.30
   0  -8   5    0.60    5.40
   0   8  -5   -4.00    3.10
   0   8  -5   -7.40    5.90
   0   8  -6    2.70    3.60
   0   8   6    3.40    5.00
   0  -8  -6    1.30   16.00
   0  -8   6    4.20    3.90
   0   8  -6   10.30    8.60
   0  -8  -6    1.60    2.30
   0   8  -6    2.80    4.50
   0  -8  -6   -6.10    4.00
   0  -8   6    0.00    4.80
   0  -8   6   -4.30    3.80
   0  -8   6    6.10    6.00
   0  -8  -7   14.40    4.00
   0  -8   7    6.30    5.60
   0   8  -7    8.10    5.50
   0   8  -7   17.90   12.30
   0  -8   7    3.90    4.80
   0   8   7    5.20    6.80
   0  -8   7    8.20    6.00
   0   8  -8   12.70    7.20
   0  -8   8   -0.90    8.00
   0   8  -8   16.00    7.60
   1  -8   0  632.14   33.80
   1  -8   0  633.84   35.10
  -1   8   0  566.44   34.10
  -1  -8   0  587.04   33.60
  -1   8   0  587.34   34.00
   1  -8   0  605.24   34.50
   1   8   0  612.44   33.80
  -1  -8   0  654.03   36.30
   1   8   0  668.93   35.40
   1  -8   0  600.44   33.90
  -1  -8   0  593.24   33.70
   1   8   0  571.74   33.80
   1  -8   0  654.73   35.80
  -1  -8   0  595.34   34.30
  -1   8   0  573.94   33.60
  -1   8   0  699.43   35.50
  -1  -8   0  588.74   35.60
   1   8   0  546.25   33.50
  -1  -8  -1 3704.33  189.38
   1  -8   1 3362.06  193.08
  -1  -8  -1 3527.95  189.38
   1  -8   1 3619.64  192.58
  -1  -8  -1 3625.74  190.98
   1   8  -1 3346.97  190.88
  -1   8   1 3446.36  189.68
   1   8  -1 3638.14  190.58
   1  -8   1 3631.24  190.58
   1  -8   1 3646.14  190.38
  -1   8   1 3667.73  189.88
   1   8  -1 4085.19  193.28
  -1  -8  -1 3856.61  190.18
  -1   8   1 3305.47  189.78
  -1   8   1 3695.73  190.38
   1  -8   1 3789.82  190.38
   1  -8  -1 3501.95  189.98
   1  -8  -1 4076.09  192.68
  -1  -8   1 3381.86  190.28
  -1   8  -1 3884.61  190.98
   1  -8  -1 3415.06  189.58
   1   8   1 3219.78  188.88
   1   8   1 3637.84  189.58
   1  -8  -1 3668.93  190.48
  -1   8  -1 4000.50  192.98
   1   8   1 3878.11  189.38
  -1  -8   1 3696.63  191.68
   1   8   1 3852.81  189.58
  -1  -8   1 3882.71  190.68
   1  -8  -1 4118.99  192.08
  -1  -8   1 3682.33  194.58
  -1   8   2 2436.36  135.79
  -1  -8  -2 2665.03  135.69
   1  -8   2 2558.24  137.09
   1   8  -2 2568.94  137.39
  -1   8   2 2493.65  136.69
  -1  -8  -2 2482.55  135.19
   1   8  -2 2538.45  139.89
  -1   8   2 2543.45  134.89
   1   8  -2 2553.34  138.09
  -1  -8  -2 2464.45  135.09
   1  -8   2 2759.52  138.29
   1  -8   2 2483.85  135.49
   1  -8   2 2729.93  137.09
   1  -8   2 2847.81  139.99
   1   8  -2 2795.92  137.59
  -1   8  -2 2390.06  136.99
  -1   8  -2 2751.72  140.09
  -1   8  -2 2791.82  139.99
   1  -8  -2 2614.64  137.29
   1  -8  -2 2611.44  136.29
  -1   8  -2 2373.16  137.89
  -1  -8   2 2698.33  138.39
   1  -8  -2 2663.43  135.89
   1   8   2 2609.04  135.19
   1  -8  -2 2853.71  138.39
  -1  -8   2 2717.23  137.49
   1  -8  -2 2842.62  139.79
  -1  -8   2 2586.84  137.19
   1  -8  -2 2558.04  136.29
  -1  -8  -3  535.85   27.50
  -1  -8  -3  569.84   28.70
  -1  -8  -3  554.44   31.70
   1   8  -3  485.25   31.40
  -1  -8  -3  495.65   27.50
   1  -8   3  538.05   31.50
  -1   8   3  533.75   29.00
   1   8  -3  537.25   31.00
   1  -8   3  523.35   30.40
  -1  -8  -3  481.15   27.80
   1  -8   3  542.25   30.60
   1   8  -3  530.65   31.00
  -1   8   3  493.35   28.80
   1  -8  -3  500.75   33.00
   1  -8  -3  555.24   29.50
  -1   8  -3  533.35   31.80
   1  -8  -3  515.95   28.90
  -1  -8   3  496.05   30.30
   1  -8  -3  520.15   29.00
  -1   8  -3  512.55   31.50
  -1  -8   3  540.25   31.30
  -1   8  -3  530.45   30.80
   1   8   3  535.55   27.30
   1  -8  -3  499.85   31.80
   1  -8  -3  482.85   29.40
  -1  -8   3  541.05   33.10
  -1   8  -3  513.65   33.60
   1   8   3  512.85   27.30
  -1  -8   3  526.15   31.70
  -1  -8  -4  431.36   28.00
  -1  -8  -4  451.15   22.70
  -1  -8  -4  367.96   22.50
   1   8  -4  410.96   26.80
   1   8  -4  454.45   27.80
   1  -8   4  420.76   25.90
   1  -8   4  429.16   26.40
   1  -8   4  457.95   27.40
  -1   8   4  471.85   24.60
   1  -8   4  416.46   27.90
   1   8  -4  415.96   27.70
   1  -8  -4  411.86   24.20
  -1   8  -4  409.36   30.10
   1  -8  -4  439.46   24.30
  -1  -8   4  423.76   26.30
  -1   8  -4  421.96   27.70
  -1  -8   4  471.95   28.60
  -1  -8   4  446.06   27.40
  -1   8  -4  397.86   26.40
   1  -8  -4  473.75   25.20
   1  -8  -4  427.56   29.50
  -1   8  -4  465.05   27.70
   1  -8  -4  456.25   25.00
  -1  -8   4  454.95   27.70
   1  -8  -4  405.16   28.10
   1   8  -5   96.99   11.50
   1  -8   5  109.09    9.90
   1  -8   5  103.59    9.80
   1  -8   5   94.59    7.60
  -1  -8  -5   88.99   11.80
   1  -8   5   95.39   10.30
   1  -8   5   74.99    9.40
  -1   8   5   94.69    7.30
   1   8  -5   96.99    9.00
  -1   8   5   85.69    7.00
   1   8  -5   91.29    9.10
   1  -8  -5   94.19    7.20
   1  -8  -5   80.19    7.30
  -1   8  -5   86.59    8.60
  -1   8  -5   90.99   15.60
  -1  -8   5  104.79   11.00
  -1  -8   5   88.99    9.90
   1  -8  -5   91.89    8.50
   1  -8  -5   87.99    6.50
  -1   8  -5   93.89    9.30
  -1   8  -5   99.39   11.10
   1  -8  -5   88.59   12.80
  -1  -8   5   80.29    9.30
  -1  -8   5  102.09    7.90
   1   8  -6    2.10    8.00
   1   8  -6    7.50    4.20
   1  -8   6   -4.30    4.40
  -1   8   6    2.70    1.80
   1   8  -6    8.30    3.80
  -1  -8  -6    0.50    2.50
  -1   8   6    6.80    2.20
   1  -8   6    1.90    5.80
   1  -8   6   -0.80    3.70
  -1   8   6   -6.80    5.00
  -1  -8  -6    8.60   11.70
  -1  -8  -6    5.30    2.20
   1  -8   6    5.60    3.40
  -1   8  -6    1.80    7.20
  -1  -8   6   -0.40    4.80
  -1  -8   6    1.00    6.40
  -1  -8   6   -4.50    4.30
  -1  -8   6    3.90    4.00
   1  -8  -6   -7.60    7.00
  -1   8  -6   -1.50    4.00
  -1  -8   6    1.00    0.90
  -1   8  -6   10.30    4.10
   1  -8  -6    4.60    1.80
   1  -8   7   39.80    6.50
   1  -8   7   51.59    6.30
   1   8  -7   51.39   17.50
   1   8  -7   48.10    5.80
   1   8  -7   45.60    6.20
  -1  -8   7   44.10    6.80
  -1   8  -7   38.80    6.40
  -1   8  -7   38.20    6.70
   1  -8  -7   39.60    5.40
  -1  -8   7   37.40    6.80
   1  -8   8   37.00   10.00
   1   8  -8   35.70    7.90
   1   8  -8   38.40    8.70
  -1   8  -8   31.90    7.40
  -1   8  -8   24.50    7.80
   2  -8   0  371.46   22.90
  -2   8   0  379.36   22.40
   2   8   0  375.76   22.60
   2   8   0  413.06   24.40
  -2  -8   0  383.26   22.30
   2  -8   0  397.96   22.70
   2  -8   0  363.06   24.40
  -2  -8   0  317.97   23.60
  -2   8   0  386.96   23.40
  -2   8   0  402.86   23.20
  -2   8   0  402.66   24.00
  -2  -8   0  400.16   23.40
   2   8   0  381.46   22.40
  -2  -8   0  370.56   22.50
   2   8   0  391.06   22.40
   2  -8   0  352.56   23.10
  -2  -8  -1  244.88   18.40
   2   8  -1  221.98   14.60
   2   8  -1  219.88   14.80
  -2   8   1  225.38   14.80
  -2   8   1  225.98   14.70
  -2   8   1  238.88   14.30
   2  -8   1  234.38   16.60
   2   8  -1  214.18   15.20
  -2  -8  -1  247.18   14.90
   2  -8   1  208.98   14.30
  -2  -8  -1  210.48   13.50
  -2   8   1  217.58   14.40
   2  -8   1  218.28   15.60
   2  -8   1  199.88   14.50
  -2  -8  -1  211.78   13.90
   2  -8  -1  237.18   14.60
  -2   8  -1  219.88   14.40
  -2   8  -1  234.48   17.00
  -2  -8   1  217.48   15.60
  -2   8  -1  225.08   15.50
   2   8   1  197.58   13.90
   2  -8  -1  204.48   14.30
   2  -8  -1  220.98   16.30
  -2  -8   1  227.48   14.80
  -2   8  -1  220.18   15.70
  -2  -8   1  208.98   16.30
   2  -8  -1  223.08   15.80
   2   8   1  219.78   14.10
   2   8   1  236.78   14.00
  -2  -8   1  208.08   14.40
   2   8  -2  538.65   30.40
   2  -8   2  527.55   30.90
  -2   8   2  507.45   28.60
  -2  -8  -2  484.15   27.90
  -2  -8  -2  520.65   27.80
   2  -8   2  493.55   29.70
  -2   8   2  523.55   29.30
  -2  -8  -2  545.75   28.70
  -2   8   2  517.75   28.90
   2  -8   2  526.95   29.70
  -2   8   2  491.05   28.40
   2   8  -2  470.25   29.70
   2   8  -2  516.35   30.80
  -2  -8   2  483.15   29.60
  -2   8  -2  463.85   29.30
   2  -8  -2  522.55   32.10
   2  -8  -2  472.85   30.10
   2  -8  -2  527.65   29.10
  -2  -8   2  507.35   30.30
  -2   8  -2  476.65   30.50
   2  -8  -2  484.25   29.10
  -2  -8   2  509.05   31.10
  -2  -8   2  505.75   31.90
  -2   8  -2  547.85   30.70
  -2   8  -2  540.25   32.70
   2  -8  -2  518.75   30.70
   2  -8  -2  529.45   30.90
   2   8   2  517.35   27.80
   2   8  -3  893.41   47.70
  -2   8   3  874.31   46.00
   2  -8   3  903.21   48.00
  -2   8   3  821.42   43.70
  -2  -8  -3  861.61   43.50
   2  -8   3  868.51   49.20
  -2  -8  -3  804.12   43.40
  -2   8   3  803.72   46.40
  -2   8   3  728.53   43.50
   2  -8   3  775.62   46.30
   2   8  -3  780.42   47.00
   2   8  -3  804.72   48.20
  -2  -8  -3  855.01   47.40
  -2  -8  -3  836.12   44.40
   2  -8   3  780.92   46.40
   2   8   3  763.32   43.20
  -2   8  -3  880.91   47.70
  -2   8  -3  822.72   49.80
   2   8   3  817.02   43.20
   2  -8  -3  843.12   45.70
  -2  -8   3  843.52   47.00
   2  -8  -3  856.11   48.10
  -2  -8   3  850.71   49.60
  -2  -8   3  879.61   48.50
  -2   8  -3  805.62   47.90
   2  -8  -3  940.91   47.20
   2  -8  -3  828.82   45.90
   2  -8  -3  855.51   49.60
  -2  -8   3  869.91   47.60
   2  -8   4  299.57   19.70
  -2   8   4  285.77   18.30
  -2  -8  -4  318.07   21.30
   2   8  -4  297.77   21.40
   2  -8   4  317.07   20.80
  -2   8   4  306.37   18.70
   2  -8   4  278.97   18.70
  -2  -8  -4  295.27   16.20
   2  -8   4  282.07   20.50
   2   8  -4  282.07   19.80
   2   8  -4  275.97   20.60
   2  -8  -4  303.37   21.90
  -2   8  -4  273.17   20.30
   2  -8  -4  314.67   19.50
   2  -8  -4  308.57   19.00
  -2  -8   4  291.37   19.50
  -2  -8   4  283.27   21.10
  -2  -8   4  284.97   21.10
  -2   8  -4  282.27   19.40
  -2   8  -4  320.37   21.00
   2  -8  -4  292.27   18.30
   2  -8  -4  298.57   18.40
  -2  -8   4  301.37   20.80
  -2  -8   4  300.87   21.20
  -2   8  -4  286.87   23.60
   2  -8   5  153.08   11.90
   2  -8   5  141.19   12.50
  -2   8   5  123.99   10.40
  -2   8   5  135.19   10.50
   2   8  -5  132.49   11.20
   2   8  -5  132.89   11.80
  -2  -8  -5  115.19   13.20
   2  -8   5  136.09   11.30
   2   8  -5  129.59   13.30
   2  -8   5  120.69    9.60
   2  -8  -5  117.69   10.30
  -2   8  -5  115.99   17.10
   2  -8  -5  122.69    9.40
  -2  -8   5  133.19   12.50
   2  -8  -5  134.29   10.10
  -2   8  -5  129.99   11.30
  -2  -8   5  128.69   13.20
  -2  -8   5  126.79   10.50
  -2   8  -5  121.89   10.30
  -2   8  -5  131.09   13.00
  -2   8   6   40.30    6.30
   2   8  -6   49.20   12.10
   2  -8   6   51.59    5.30
   2  -8   6   49.00    7.90
   2   8  -6   39.80    5.30
   2  -8   6   40.10    4.50
   2  -8   6   40.80    6.10
  -2   8  -6   41.30    5.40
  -2  -8   6   41.20    5.10
  -2  -8   6   37.70    4.30
  -2  -8   6   31.80    8.40
  -2   8  -6   53.09    8.80
   2  -8  -6   31.90    4.10
   2  -8  -6   37.70    6.00
  -2   8  -6   47.50    5.80
  -2   8   7    7.50    7.80
   2   8  -7    6.90    5.40
   2   8  -7    8.80    6.50
   2  -8   7    6.10    4.70
   2  -8   7    4.70    4.90
   2  -8   7   -5.60    5.60
  -2   8  -7   12.20    5.20
   2  -8  -7    8.10    5.20
  -2  -8   7    5.00    6.20
   2  -8  -7    4.00    3.20
  -2  -8   7   -3.20    5.60
  -2   8  -7    5.60    6.20
   2   8  -8   10.30    9.20
   2   8  -8   10.60    8.20
  -2   8   8    0.70   10.00
   2  -8   8   -7.40    8.50
  -2   8  -8   -0.80    8.40
  -2  -8   8    3.40    8.10
   3  -8   0  543.65   36.80
  -3   8   0  598.84   36.00
  -3  -8   0  586.44   34.40
   3   8   0  613.74   34.70
  -3  -8   0  555.64   35.90
  -3  -8   0  633.84   35.00
   3  -8   0  639.74   36.10
   3   8   0  656.73   34.90
  -3  -8   0  668.73   36.10
   3  -8   0  616.94   35.20
  -3   8   0  599.24   34.70
   3   8   0  516.45   36.00
  -3   8   0  636.04   35.60
  -3   8   0  601.44   36.30
   3   8   0  619.44   34.80
   3  -8   0  647.44   35.10
  -3   8   0  630.84   36.10
  -3  -8  -1  577.74   35.60
  -3   8   1  595.04   35.20
  -3   8   1  582.94   34.30
  -3   8   1  620.74   37.20
  -3  -8  -1  600.34   33.80
   3   8  -1  609.14   35.00
   3  -8   1  599.84   36.00
  -3  -8  -1  649.24   39.90
   3  -8   1  565.04   34.90
   3   8  -1  598.74   35.80
   3  -8   1  654.23   37.30
  -3  -8  -1  605.54   34.20
  -3   8   1  596.54   35.10
  -3   8   1  604.24   35.10
   3   8  -1  602.44   35.00
   3  -8   1  633.44   34.80
  -3   8  -1  657.03   35.60
   3  -8  -1  590.94   36.60
  -3  -8   1  608.14   36.70
  -3   8  -1  608.94   37.00
  -3   8  -1  649.14   35.60
  -3   8  -1  593.14   34.60
   3  -8  -1  594.64   34.90
   3  -8  -1  613.74   34.70
   3   8   1  645.64   34.10
  -3  -8   1  581.74   34.60
  -3  -8   1  584.84   36.50
   3   8   1  626.24   34.70
   3  -8  -1  611.54   35.70
   3   8   1  555.74   34.40
  -3  -8   1  634.64   36.30
   3   8   1  599.94   33.30
  -3   8  -1  542.05   35.70
   3  -8  -1  636.74   35.10
  -3  -8  -2  377.96   22.20
  -3   8   2  370.86   25.40
   3  -8   2  403.86   24.90
  -3   8   2  382.56   22.40
   3   8  -2  341.87   23.50
  -3  -8  -2  361.06   21.10
  -3  -8  -2  350.06   26.60
  -3   8   2  373.06   22.20
  -3   8   2  368.46   22.80
   3   8  -2  339.57   22.70
   3  -8   2  351.06   22.50
  -3  -8  -2  357.16   20.60
   3  -8   2  349.77   22.50
  -3   8   2  361.86   21.90
   3   8  -2  354.86   22.90
   3  -8   2  379.06   24.00
   3   8   2  371.56   20.90
  -3   8  -2  403.26   22.20
   3   8   2  336.97   21.00
   3  -8  -2  380.06   23.40
  -3  -8   2  364.36   23.10
  -3  -8   2  359.26   24.30
  -3  -8   2  352.96   22.60
   3  -8  -2  378.26   22.50
   3  -8  -2  352.16   22.40
  -3   8  -2  333.07   22.10
   3  -8  -2  369.66   23.80
  -3  -8   2  393.86   24.60
  -3   8  -2  384.96   24.00
  -3   8  -2  301.37   24.50
   3  -8  -2  370.56   23.40
  -3   8  -2  309.37   23.10
  -3  -8  -3  364.06   22.10
  -3   8   3  414.66   23.30
  -3   8   3  409.56   23.70
   3   8  -3  407.36   26.10
   3  -8   3  380.46   24.70
  -3   8   3  420.66   24.00
   3  -8   3  425.96   26.90
  -3   8   3  404.66   25.00
   3   8  -3  390.16   26.40
   3  -8   3  382.86   24.50
  -3  -8  -3  399.36   21.80
  -3  -8  -3  421.96   25.40
   3   8  -3  387.56   25.40
  -3  -8  -3  417.66   23.60
   3  -8   3  416.86   26.10
  -3   8  -3  393.56   26.10
  -3  -8   3  393.36   25.10
   3  -8  -3  384.86   24.50
   3  -8  -3  416.36   25.70
   3  -8  -3  412.46   26.30
  -3  -8   3  390.06   26.60
   3   8   3  376.06   21.80
  -3   8  -3  369.06   24.40
   3  -8  -3  383.16   25.20
  -3   8  -3  400.86   28.50
   3  -8  -3  421.16   24.60
  -3   8  -3  445.26   26.60
  -3  -8   3  403.66   26.80
  -3  -8   3  385.96   25.50
   3  -8   4 1146.49   59.29
  -3   8   4 1034.40   55.69
   3   8  -4 1068.79   58.39
   3  -8   4  921.71   55.89
  -3   8   4  876.21   53.29
  -3  -8  -4  989.00   54.89
  -3   8   4 1056.89   56.29
   3   8  -4  966.70   58.79
   3  -8   4 1087.89   57.89
   3   8  -4  912.21   57.19
  -3  -8  -4 1071.69   57.59
  -3  -8  -4 1071.69   54.49
  -3   8   4  924.01   52.89
   3  -8  -4  998.30   55.89
  -3  -8   4 1075.19   59.19
   3  -8  -4  997.10   58.49
  -3   8  -4 1056.59   61.39
  -3   8  -4 1073.39   57.89
  -3  -8   4 1002.20   58.69
  -3  -8   4 1032.00   57.29
   3  -8  -4  994.60   56.09
  -3   8  -4  974.30   58.09
   3  -8  -4 1061.29   57.29
   3  -8  -4 1027.80   57.29
  -3  -8   4 1047.50   58.19
   3  -8   5   22.30    4.40
  -3  -8  -5   25.20    7.80
  -3   8   5   15.70    6.50
   3   8  -5   27.70    8.90
   3  -8   5   22.40    7.20
   3  -8   5   19.10    4.10
  -3  -8  -5   21.70    4.20
  -3  -8  -5    7.80   11.00
   3   8  -5   13.90    4.20
  -3  -8   5   16.80    4.40
  -3   8  -5   20.50    3.70
  -3  -8   5   15.20    4.10
   3  -8  -5   18.10    4.10
  -3   8  -5   31.10   19.50
   3  -8  -5   17.20    3.90
  -3   8  -5   25.70    8.10
  -3  -8   5   26.50    8.60
  -3   8  -5   17.70    4.40
   3  -8  -5   24.90    6.80
   3   8  -6   10.50    4.70
   3  -8   6    9.20    4.30
   3   8  -6   14.40    5.20
  -3  -8  -6    4.80    3.20
  -3   8   6   11.00    6.30
   3  -8   6   21.40    4.80
  -3  -8  -6    5.50    2.80
   3   8  -6    1.00    9.40
   3  -8   6    3.80    6.70
  -3   8   6    3.80    6.70
   3  -8   6    9.90    4.20
  -3  -8   6   10.60    4.90
  -3  -8   6    1.90    4.90
  -3  -8   6    6.70    9.00
   3  -8  -6   13.40    4.60
  -3  -8   6    4.10    4.00
  -3   8  -6    6.30    4.40
   3  -8  -6   14.20    5.20
  -3   8  -6   19.30    7.70
  -3  -8   6    6.10    6.90
  -3   8  -6   12.60    4.70
   3  -8  -6    3.90   11.40
   3  -8  -6   11.00    4.80
   3  -8   7   18.30    9.00
   3   8  -7   26.80    6.80
  -3  -8   7   20.30    5.90
   3  -8  -7   16.40    6.20
  -3   8  -7   18.90    5.80
  -3  -8   7    7.50    6.50
   3  -8  -7   28.30    5.30
  -3   8  -7   29.20    6.30
   3   8  -8   30.60    9.40
   3   8  -8    3.70   10.10
  -3   8   8    2.70   11.30
   3  -8  -8   16.70    5.40
  -3   8  -8   21.10    7.60
  -3  -8   8   12.80    9.00
   4  -8   0  191.68   14.80
  -4   8   0  204.68   14.60
  -4  -8   0  221.18   15.90
  -4  -8   0  215.78   15.60
  -4  -8   0  222.08   16.50
  -4   8   0  214.38   16.20
   4  -8   0  184.78   16.00
   4   8   0  210.38   15.00
  -4   8   0  208.78   16.20
  -4   8   0  202.18   15.60
   4  -8   0  197.88   17.40
  -4  -8   0  206.38   14.50
  -4   8   0  225.08   16.50
   4  -8   0  206.68   15.50
   4   8   0  206.88   14.60
   4   8   0  195.08   14.00
  -4  -8  -1 1244.98   66.69
  -4  -8  -1 1219.88   66.19
   4   8  -1 1201.38   67.49
   4  -8   1 1237.18   70.09
   4   8  -1 1238.18   68.49
   4  -8   1 1214.68   67.19
  -4   8   1 1242.28   67.89
  -4  -8  -1 1409.26   68.89
  -4   8   1 1231.08   69.99
   4  -8   1 1160.28   67.49
  -4  -8  -1 1282.97   68.09
   4  -8   1 1213.48   68.59
  -4   8   1 1243.98   67.99
   4   8  -1 1240.18   67.49
  -4   8   1 1221.38   68.19
  -4   8   1 1227.28   67.19
   4  -8  -1 1272.77   67.39
  -4   8  -1 1307.17   68.49
  -4   8  -1 1177.38   68.59
  -4   8  -1 1281.17   68.49
   4  -8  -1 1162.08   67.59
  -4  -8   1 1265.57   67.89
  -4   8  -1 1320.97   69.79
   4  -8  -1 1206.88   66.89
   4   8   1 1312.57   66.59
  -4   8  -1 1190.98   67.19
   4  -8  -1 1185.18   68.39
   4  -8  -1 1117.59   69.49
   4   8   1 1180.38   66.29
  -4  -8   1 1148.09   67.09
   4   8   1 1196.68   65.79
  -4  -8   1 1213.38   68.79
  -4  -8   1 1235.88   69.39
   4   8  -2  106.99   10.90
  -4   8   2  122.19    9.70
   4  -8   2  117.09   11.60
  -4  -8  -2  118.89   11.20
  -4  -8  -2  117.99   10.00
  -4   8   2  122.59   11.10
  -4   8   2  121.39   10.10
  -4  -8  -2  111.49    8.50
   4  -8   2  130.19   12.30
   4  -8   2  117.59    9.80
   4   8  -2  124.19   10.50
  -4   8   2  114.69   11.30
  -4  -8  -2  143.69   10.60
   4  -8   2  113.59   10.80
  -4   8   2  127.19   12.90
   4   8  -2  106.49   11.70
  -4  -8   2  117.49   12.60
   4  -8  -2  132.19   11.80
   4  -8  -2  107.09   11.40
   4  -8  -2  118.49   12.70
  -4   8  -2  108.09   11.40
  -4  -8   2  112.79   12.30
  -4   8  -2  120.79   10.40
  -4  -8   2   96.09   11.10
  -4   8  -2  123.89    9.80
   4  -8  -2  115.09   11.30
   4   8   2  125.59    9.80
   4   8   2  107.19    9.70
  -4  -8   2  112.49   10.60
  -4   8  -2  120.19   12.90
  -4   8  -2   93.79   12.40
   4  -8  -2  100.99   10.00
   4   8  -3  260.57   20.40
  -4  -8  -3  309.47   19.00
  -4   8   3  283.27   18.40
   4  -8   3  282.27   18.90
   4   8  -3  292.07   20.50
  -4  -8  -3  262.47   17.40
  -4  -8  -3  283.17   16.50
  -4  -8  -3  306.07   19.20
  -4   8   3  273.07   19.80
  -4   8   3  287.67   19.10
  -4  -8  -3  262.27   24.80
   4  -8   3  290.87   21.20
  -4   8   3  302.47   18.80
  -4   8   3  281.97   22.80
   4  -8   3  287.77   20.70
  -4  -8  -3  293.07   19.00
   4   8  -3  267.57   19.50
  -4  -8   3  290.47   21.60
  -4   8  -3  318.97   21.60
   4  -8  -3  278.97   21.30
  -4   8  -3  261.27   18.70
  -4  -8   3  280.27   20.00
  -4   8  -3  301.67   18.00
   4  -8  -3  289.87   20.00
  -4  -8   3  282.37   19.50
   4  -8  -3  294.87   20.60
  -4   8  -3  259.27   22.60
   4  -8  -3  258.47   18.90
  -4  -8   3  289.77   21.40
   4  -8  -3  285.37   20.40
  -4   8  -3  270.27   20.40
   4   8   3  307.17   17.20
   4  -8   4  174.68   13.30
   4   8  -4  154.18   12.50
  -4   8   4  149.49   11.20
   4   8  -4  153.98   15.60
   4  -8   4  174.08   11.50
  -4  -8  -4  162.08   13.60
   4  -8   4  141.39   10.80
  -4   8   4  140.49   11.40
  -4  -8  -4  142.69    8.40
  -4   8   4  146.99   10.10
   4  -8   4  175.88   14.20
   4   8  -4  132.29   13.20
   4  -8  -4  142.59   14.70
   4  -8  -4  159.48   14.60
   4  -8  -4  141.29   12.10
  -4  -8   4  156.18   15.60
  -4  -8   4  151.58   13.20
  -4   8  -4  149.59   11.70
  -4  -8   4  151.58   20.50
   4  -8  -4  141.89   12.40
  -4   8  -4  165.68   16.00
  -4   8  -4  133.09   17.90
  -4   8  -4  144.59   13.00
  -4  -8   4  143.69   12.30
   4   8  -5   18.50    4.70
  -4   8   5   -0.80    5.40
  -4  -8  -5    4.70    6.70
   4  -8   5   -2.80    6.60
  -4  -8  -5   11.60    6.40
   4  -8   5   16.80    4.50
   4   8  -5   19.00   10.20
   4   8  -5    2.50    4.40
   4  -8   5    7.70    3.40
  -4   8   5   10.30    4.10
   4  -8  -5    4.10    6.20
  -4  -8   5   11.20    4.30
  -4   8  -5   11.60    4.00
  -4   8  -5    5.20    7.80
  -4   8  -5    9.40    4.50
   4  -8  -5    8.60    4.20
  -4  -8   5    3.10    4.30
   4  -8  -5    1.80   16.80
   4  -8  -5    8.10    3.60
  -4  -8   5   -2.70    6.10
   4  -8   6   52.09    6.00
   4  -8   6   57.29    6.10
   4   8  -6   52.89    6.50
  -4  -8  -6   51.09   13.20
  -4   8   6   54.89    6.30
  -4  -8  -6   49.00    5.10
   4   8  -6   43.20    6.60
  -4   8  -6   64.99    6.50
  -4   8  -6   61.59    6.10
  -4  -8   6   46.50    6.90
   4  -8  -6   53.19    6.00
   4  -8  -6   54.69    6.80
   4   8  -7   12.50    7.80
   4  -8   7    1.00    6.50
   4   8  -7    8.30    7.00
  -4   8   7    5.90    9.60
  -4   8  -7    5.40    7.10
  -4  -8   7    0.20    7.40
  -4  -8   7   13.70    7.20
   4  -8  -7    7.70    5.80
   4  -8  -7    2.00    7.50
  -4  -8   7   -0.30    6.70
  -5  -8   0   29.20    9.40
  -5   8   0   19.80    4.30
  -5  -8   0   19.30    6.80
  -5   8   0   23.30    5.10
  -5  -8   0   25.80    5.00
  -5   8   0   18.80    4.70
   5  -8   0   24.70    7.70
   5   8   0   25.50    7.30
   5  -8   0   21.00    5.80
  -5  -8   0   14.60    7.20
   5  -8   0   16.20    5.00
   5   8   0    1.10    8.30
   5   8   0   18.00    4.00
   5  -8   0   25.00    7.60
  -5   8   0   17.40    8.90
   5  -8   0   23.70    8.20
   5   8   0   15.20    3.50
  -5   8   0   24.40    7.90
   5  -8   1  398.26   27.60
  -5  -8  -1  402.56   24.80
  -5  -8  -1  398.86   26.00
  -5   8   1  417.46   26.90
  -5   8   1  382.06   28.10
  -5   8   1  401.26   26.80
  -5   8   1  399.06   27.10
  -5   8   1  396.96   25.70
   5  -8   1  378.86   25.90
   5  -8   1  421.66   28.60
   5   8  -1  401.66   25.80
  -5  -8  -1  444.56   27.80
   5   8  -1  422.66   27.00
   5  -8   1  414.56   26.50
  -5  -8   1  422.46   27.20
   5  -8  -1  394.06   26.20
   5   8   1  444.16   25.80
  -5  -8   1  421.26   28.30
   5  -8  -1  425.76   25.40
   5   8   1  408.76   24.90
  -5   8  -1  418.86   27.90
  -5   8  -1  370.26   27.40
   5  -8  -1  416.26   27.70
   5   8   1  404.66   24.50
  -5   8  -1  441.56   27.50
   5  -8  -1  413.16   26.70
  -5  -8   1  405.16   25.80
  -5   8  -1  412.26   25.90
   5  -8  -1  389.36   28.30
   5  -8   2  977.50   57.49
   5   8  -2 1012.10   58.09
  -5  -8  -2 1050.89   55.59
  -5   8   2  992.40   57.79
  -5   8   2 1034.10   61.39
   5  -8   2 1066.59   59.49
   5  -8   2  989.20   57.29
  -5  -8  -2 1062.29   55.59
  -5  -8  -2 1074.19   56.49
   5   8  -2  976.10   58.79
  -5  -8  -2 1125.89   58.59
   5   8  -2 1009.60   58.09
  -5   8   2 1046.60   58.39
   5  -8   2 1032.40   59.99
  -5   8   2 1034.90   57.39
  -5   8  -2 1069.19   58.09
   5  -8  -2  885.81   59.29
   5   8   2  885.61   54.19
  -5  -8   2  958.90   57.39
   5   8   2 1117.89   56.29
   5  -8  -2 1063.79   57.49
  -5   8  -2 1103.09   59.19
  -5   8  -2  947.01   58.99
   5  -8  -2 1000.40   59.09
  -5  -8   2 1091.59   59.09
   5   8   2  934.81   56.29
   5  -8  -2 1029.60   57.59
  -5   8  -2 1007.00   57.29
   5  -8  -2  990.30   57.89
   5   8  -3   60.79    7.20
   5  -8   3   44.00    6.20
   5  -8   3   65.49    8.00
   5   8  -3   49.90    7.10
  -5   8   3   65.89    6.40
  -5   8   3   61.19    9.20
  -5  -8  -3   62.09    5.40
   5  -8   3   58.59   10.50
   5   8  -3   61.49   12.20
  -5  -8  -3   59.79    9.30
  -5   8   3   54.49    5.90
  -5  -8  -3   63.29    8.00
  -5   8   3   52.39    6.90
  -5  -8  -3   63.29    7.70
  -5   8  -3   58.39    7.70
  -5  -8   3   50.09   12.90
  -5   8  -3   53.69    6.30
   5  -8  -3   47.40    6.00
   5  -8  -3   47.90    7.10
  -5  -8   3   58.39    6.90
   5   8   3   54.29    7.50
  -5  -8   3   63.89    7.00
  -5   8  -3   69.79    6.60
   5  -8  -3   62.49    9.90
  -5   8  -3   76.29   11.60
   5   8   3   64.19    7.40
   5  -8  -3   56.69    9.10
   5  -8   4    3.40    3.80
   5  -8   4    3.00    2.70
  -5  -8  -4   -0.20    6.70
  -5  -8  -4    4.80    5.40
  -5   8   4    5.10    5.20
  -5  -8  -4   -0.20    1.80
  -5   8   4    2.90    5.70
  -5   8   4    5.80    3.30
  -5   8   4    2.10    3.90
   5   8  -4    9.60    4.30
   5  -8   4   -2.60    7.10
  -5  -8  -4   -3.40    3.90
  -5  -8  -4   -3.90    3.90
   5  -8   4    3.80    4.50
  -5   8  -4   -0.60    2.80
  -5  -8   4   11.80    3.90
   5   8   4    7.40    3.50
  -5   8  -4    8.60    8.80
  -5  -8   4   10.70    5.20
   5   8   4    0.50    2.50
  -5   8  -4    8.00    3.20
   5  -8  -4   -2.60    4.30
   5  -8  -4   -4.50    3.90
   5  -8  -4    2.50    8.20
  -5  -8   4    4.40    4.20
   5  -8   5   90.19    7.90
  -5   8   5   67.79    5.80
   5  -8   5   61.09    6.10
  -5  -8  -5   85.49    6.70
  -5  -8  -5   88.59    9.60
   5  -8   5   49.80   10.70
  -5   8   5   64.49   11.70
  -5   8   5   62.29    7.30
   5   8  -5   71.29    8.00
  -5  -8  -5   70.59    9.80
   5  -8   5   71.69    6.30
   5   8  -5   84.49    7.10
  -5  -8   5   74.59    8.50
   5  -8  -5   95.09   10.70
   5  -8  -5   83.19   11.30
  -5   8  -5   86.89    7.60
   5  -8  -5   81.19    7.40
  -5   8  -5   59.29   12.90
  -5  -8   5   65.59    7.40
  -5   8   6    2.80    8.70
   5  -8   6   25.60    6.90
   5  -8   6   11.70    5.00
   5   8  -6   13.60    7.20
  -5  -8  -6   18.30    5.40
   5  -8   6   17.50    5.70
  -5   8   6   21.00    8.70
  -5   8  -6   26.80    7.50
  -5  -8   6   18.20    7.70
  -5  -8   6    5.30    6.40
   5  -8  -6   28.80    5.80
   5  -8  -6   11.20    6.80
   5   8  -7   31.40    9.20
  -5   8   7    4.30   11.10
  -5   8  -7   28.80    8.40
  -5  -8   7   11.60    8.80
  -5   8  -7   20.30    7.10
  -5  -8   7   10.60    8.50
  -5  -8   7    7.40    8.70
   5  -8  -7   16.10    8.80
   6  -8   0  133.89   12.80
  -6   8   0  139.29   12.10
   6  -8   0  124.59   11.30
  -6   8   0  153.68   13.50
   6  -8   0  105.99   12.40
   6   8   0  143.19   11.00
  -6   8   0  118.29   11.00
  -6  -8   0  147.49   17.00
  -6  -8   0  144.99   15.30
   6  -8   0  127.89   13.00
  -6  -8   0  136.59   11.40
   6   8   0  141.29   10.60
  -6   8   0  129.79   16.40
  -6  -8  -1   50.99    6.20
  -6  -8  -1   56.09    9.40
   6   8  -1   43.10    6.20
   6  -8   1   54.89    6.10
  -6   8   1   52.39    7.50
   6  -8   1   47.30    6.20
  -6  -8  -1   59.09   11.90
  -6   8   1   60.59   15.40
   6   8  -1   44.30    6.70
  -6   8   1   57.39    7.60
   6  -8   1   44.80    6.80
  -6   8   1   60.29    6.70
  -6  -8   1   45.60   10.10
   6  -8  -1   49.30   11.10
  -6  -8   1   44.20    6.00
   6   8   1   46.00    5.80
   6   8   1   44.70    5.40
   6  -8  -1   53.49    7.60
  -6  -8   1   56.59    5.00
   6  -8  -1   49.00    7.00
   6  -8  -1   54.79    6.30
  -6   8  -1   52.99   11.80
  -6   8  -1   48.60    6.00
  -6   8  -1   49.70    5.90
   6  -8   2   46.70    5.70
  -6  -8  -2   34.70    9.50
  -6  -8  -2   33.40    5.80
  -6  -8  -2   33.70    8.90
  -6   8   2   43.70    9.00
   6  -8   2   44.70    5.10
  -6   8   2   29.10    5.10
   6  -8   2   35.80    5.40
  -6  -8  -2   45.70    4.80
  -6   8   2   44.40    5.30
   6   8  -2   46.50    5.60
   6   8  -2   29.30    5.40
  -6   8  -2   27.20    5.50
   6  -8  -2   29.40    5.80
  -6  -8   2   25.20    8.00
  -6   8  -2   42.90    6.30
   6  -8  -2   46.70   10.00
   6  -8  -2   47.10    7.50
  -6  -8   2   45.00    5.10
  -6   8  -2   56.19   11.00
   6   8   2   39.70    3.80
  -6  -8   2   40.70   11.40
   6   8   2   39.40    4.80
  -6  -8  -3   40.00    5.90
   6  -8   3   35.00    5.10
  -6  -8  -3   35.80   10.20
  -6  -8  -3   43.90    4.50
  -6   8   3   42.60    5.10
  -6   8   3   36.20    8.40
   6  -8   3   31.70    3.30
  -6   8   3   25.20    5.90
  -6   8   3   46.80    5.30
  -6  -8  -3   40.70    8.00
   6   8  -3   43.60    5.40
   6  -8   3   41.30    5.00
  -6   8  -3   40.70   11.20
   6  -8  -3   23.50    8.40
  -6  -8   3   32.70    4.90
   6  -8  -3   38.90    9.60
   6   8   3   29.90    7.40
   6   8   3   45.00   12.70
  -6   8  -3   42.90    5.30
  -6   8  -3   37.20    5.00
  -6  -8   3   34.20    5.30
   6  -8  -3   31.10    5.20
   6  -8  -3   31.80    5.60
  -6   8   4    3.50    6.50
   6  -8   4    4.30    4.70
  -6   8   4   -3.00    5.20
   6  -8   4    6.70    5.30
  -6  -8  -4   -0.10    2.60
  -6  -8  -4    7.30    6.80
   6   8  -4    3.50    4.40
   6  -8   4    2.60    2.60
  -6  -8  -4  -14.90    8.90
   6   8  -4   14.00    5.60
  -6   8   4    1.60    7.80
   6   8   4    5.00    6.00
  -6  -8   4   -2.60    5.20
  -6  -8   4   15.10    6.40
  -6   8  -4    3.00    4.30
  -6   8  -4    3.10    5.20
  -6  -8   4    1.40    6.00
  -6   8  -4   14.10   11.80
   6  -8  -4   19.80    9.70
  -6   8  -4    8.80    4.00
   6  -8  -4    1.80    4.90
   6   8   4    3.00    5.90
   6  -8  -4    2.10    5.60
   6   8  -5   15.90    6.50
  -6   8   5    0.50    5.00
  -6  -8  -5    0.10    5.40
  -6  -8  -5    3.90    2.00
   6  -8   5    1.00    3.70
   6  -8   5   13.30    6.20
  -6   8   5    2.80    6.10
   6  -8   5   10.40    6.10
   6   8  -5   15.50    6.70
  -6   8  -5   -5.10    5.20
  -6  -8   5   -2.90    6.20
   6  -8  -5   13.30    6.60
   6  -8  -5   11.20    5.70
  -6  -8   5  -11.10    6.30
  -6   8  -5   -4.30    6.20
  -6  -8   5  -11.70    8.80
   6   8  -6   10.90    8.60
   6   8  -6    7.10    8.20
  -6   8   6    3.30   10.60
  -6   8  -6   12.20    8.70
  -6  -8   6   -5.70    7.50
  -6   8  -6   16.70    7.00
   6  -8  -6   -1.50    7.00
   6  -8  -6   -5.40    8.90
   7  -8   0   -3.10    5.60
  -7  -8   0    5.50    9.30
  -7   8   0    8.10    4.80
   7   8   0    4.50    4.60
   7  -8   0   11.20    4.90
   7   8   0   11.10    5.00
   7  -8   0    8.30    4.10
  -7  -8   0    2.30    3.90
   7   8   0  -11.30   11.00
  -7  -8   0    2.50    2.70
  -7   8   0    2.50    4.30
  -7   8   1    0.20    5.00
   7   8  -1   11.30    5.30
  -7  -8  -1   -0.40    3.60
   7   8  -1    6.10    5.00
   7  -8   1    7.70    5.90
   7  -8   1    2.60    5.20
  -7  -8  -1    7.00    2.20
   7  -8   1    6.80    3.40
  -7  -8  -1   14.70    9.20
  -7   8   1    8.50    5.90
   7   8   1   -0.10   11.00
  -7  -8   1    1.70    6.00
  -7  -8   1   -7.70   10.80
   7  -8  -1    3.40    4.00
   7  -8  -1    8.30    5.20
   7  -8  -1    7.70    5.40
   7   8   1   11.40    4.10
  -7  -8   1   13.30    3.80
  -7   8  -1    4.60    4.10
   7   8   1    0.60    4.70
  -7  -8   1    3.10    4.70
  -7   8  -1   13.40    4.70
  -7  -8  -2    6.90    4.00
  -7  -8  -2    1.00    8.60
  -7   8   2   -0.90    5.20
   7   8  -2    9.00    9.00
   7  -8   2   10.90    6.10
   7   8  -2    4.20    5.10
   7  -8   2    3.40    5.20
  -7  -8  -2    2.40    3.40
  -7  -8  -2   -3.90    5.50
  -7   8   2   10.80    6.40
   7  -8  -2   -1.60    5.70
  -7   8  -2    1.80    5.30
   7   8   2   -3.70   11.20
   7  -8  -2    5.20    5.20
  -7  -8   2    1.00    3.90
   7   8   2   -1.10    5.00
  -7   8  -2    3.30    4.30
   7  -8  -2   -4.40    6.10
  -7  -8   2    1.40    6.20
   7   8   2    7.50    3.60
   7  -8   3    6.80    5.70
   7   8  -3   15.10    5.80
   7   8  -3   24.70    7.00
   7  -8   3   18.30    6.10
  -7  -8  -3   17.60    4.50
  -7   8   3    9.80    6.00
  -7   8   3    4.90    6.80
  -7  -8   3   23.20    5.50
  -7   8  -3   35.60   27.60
   7  -8  -3   15.20   11.60
   7   8   3    6.20    5.30
  -7   8  -3    7.60    4.60
   7  -8  -3    8.70    6.50
  -7   8  -3   18.70    5.80
   7  -8  -3   15.00    5.70
   7  -8   4    6.00    6.20
   7   8  -4   12.20    7.10
   7  -8   4   12.60    6.90
  -7  -8  -4    7.90    6.70
   7   8  -4   12.60    7.10
  -7   8   4    7.70    6.60
  -7  -8  -4    3.10    3.70
  -7   8   4   -1.50   11.80
  -7   8   4    2.40    8.40
  -7   8  -4   12.60    5.80
   7  -8  -4   10.70    7.10
   7  -8  -4   19.70    6.40
  -7  -8   4    6.00    5.90
  -7  -8   4    7.10    6.70
  -7   8  -4    3.80    5.80
  -7   8  -4   10.70    6.90
  -7  -8   4  -13.60    9.70
  -7   8   5   -4.30   10.20
  -7  -8  -5    3.70    3.40
   7  -8   5   22.80    8.70
   7   8  -5    0.80    8.70
   7   8  -5   21.20    8.60
  -7   8   5   -5.70    9.40
  -7   8  -5   11.70    8.10
  -7  -8   5    6.80    7.20
   7  -8  -5   16.20    9.10
   7  -8  -5    8.90    8.50
  -7   8  -5   -3.80    5.70
  -7  -8   5   -6.60    8.20
   8   8   0    8.80    6.70
  -8   8   0   -4.40    7.10
   8  -8   0    5.40    6.50
  -8   8   0   -4.70    6.40
  -8  -8   0    5.50   34.30
  -8   8   0   -3.20    5.60
   8  -8   0   14.50    7.40
   8   8   0   10.20    6.20
   8   8  -1    7.60    6.50
  -8  -8  -1   -2.70    5.30
   8  -8   1   -1.80    7.40
   8   8  -1    0.90    7.80
   8  -8   1    2.00    6.70
  -8   8   1   -0.60    7.90
  -8   8  -1    1.20    6.60
   8   8   1    4.50    5.80
   8  -8  -1    7.50    7.30
  -8  -8   1    3.80    4.00
   8   8   1    2.30    7.20
   8  -8  -1    8.40    6.70
  -8   8  -1   -2.70    5.40
  -8  -8  -2    8.30    5.20
  -8  -8  -2   17.90    7.70
   8   8  -2    9.40    7.50
  -8   8   2   -4.10    8.60
   8   8  -2    5.50    6.80
   8  -8   2    9.00    7.70
  -8   8   2    4.80    6.60
   8  -8   2   20.70    7.80
  -8   8  -2   19.90    5.90
  -8  -8   2   10.70    6.40
  -8   8  -2   19.60    7.00
   8  -8  -2    1.10    7.70
   8   8   2   29.60   12.20
  -8  -8   2   10.40    5.00
  -8   8   3   34.00    8.10
   8   8  -3   55.59    8.50
  -8  -8  -3   45.30    8.90
  -8   8   3   42.90    9.90
   8   8  -3   47.80    9.40
  -8   8   3   51.59    9.00
   8  -8   3   38.60    8.80
  -8  -8  -3   56.59    6.30
   8  -8   3   52.39    8.50
  -8   8  -3   60.29    8.30
  -8  -8   3   58.69    7.30
  -8  -8   3   45.30    8.20
   8  -8  -3   45.70    9.50
  -8   8   4    1.20    8.80
   8  -8   4   33.20   11.90
  -8  -8  -4   -4.10    8.60
   8  -8   4   20.50    9.40
  -8   8   4   -4.50   10.10
   8   8  -4    7.80    9.00
   8   8  -4    1.40    9.20
  -8   8  -4    0.50    7.40
  -8   8  -4    0.70    9.50
  -8  -8   4    5.40    7.30
  -8  -8   4   -3.30    8.50
   8  -8  -4    9.90    8.70
   8  -8  -4    6.30    9.20
   9   8   0    1.00    8.30
  -9   8   0   -1.60    8.90
   9  -8   0   -0.10   10.30
  -9  -8   0   -7.60    8.80
   9  -8   0    5.50    8.60
  -9   8   0   -6.20    9.70
   9   8   0    2.60   10.20
  -9   8   1   20.00    9.70
  -9  -8  -1   -1.00    6.50
   9  -8   1    9.30    9.80
   9   8  -1   11.20    9.90
  -9  -8  -1    1.00    9.60
   9  -8   1    0.10    9.00
   9   8  -1   13.80    8.50
  -9   8  -1   14.20    8.80
   9   8   1   19.30    9.40
   9  -8  -1   12.90   10.30
  -9   8  -1    1.60    7.70
  -9  -8   1    9.70    8.30
   9  -8  -1   26.10    9.10
  -9  -8   1    2.40    8.80
  -9  -8  -2    1.70    7.00
   9   8  -2   13.60   10.40
  -9   8   2    9.20    9.60
  -9  -8  -2   -6.20   10.10
   9  -8   2   12.30   11.00
  -9   8   2    7.30   11.50
   9  -8   2    9.20    9.70
   9   8  -2    6.10    9.90
   9  -8  -2   14.90   10.60
  -9   8  -2    9.20    9.40
  -9  -8   2    5.70    9.30
  -9   8  -2    1.90    7.80
  -9  -8   2    8.00    8.40
   9  -8  -2   24.80    9.50
   0  -9   0   -1.50    3.70
   0   9   0   -0.80    2.00
   0   9   0   -1.70    1.70
   0   9   0   -2.60    4.50
   0   9   0   -0.10    3.30
   0  -9   0   -1.10    3.20
   0  -9   0   -2.70    4.40
   0   9   0   -1.50    2.90
   0  -9   0   -1.90    2.50
   0  -9   0   -2.10    2.00
   0  -9   1 1153.48   57.99
   0  -9   1 1115.89   60.49
   0   9  -1 1075.89   58.69
   0  -9  -1 1141.69   57.89
   0   9   1 1122.09   57.09
   0   9   1 1022.80   57.09
   0  -9  -1 1093.79   57.19
   0  -9   1 1095.59   58.79
   0   9  -1 1074.29   57.99
   0  -9   1 1031.10   57.79
   0   9   1  970.10   56.59
   0   9  -1 1138.09   58.29
   0   9  -1  922.41   62.59
   0   9   1  999.30   58.59
   0  -9  -1 1096.89   58.79
   0  -9  -1 1069.79   56.99
   0  -9  -2 2436.26  111.89
   0  -9  -2 1881.81  112.29
   0  -9  -2 1946.71  114.99
   0  -9   2 2175.78  113.79
   0  -9  -2 2107.59  110.99
   0   9  -2 2087.89  113.69
   0  -9   2 2348.36  112.89
   0   9   2 1819.02  112.69
   0  -9   2 2079.69  112.59
   0   9  -2 2129.19  112.89
   0   9  -2 2216.88  115.79
   0   9  -2 2343.77  113.39
   0   9   2 2157.58  111.19
   0  -9  -2 2172.78  111.19
   0  -9  -3 2434.16  122.69
   0  -9   3 2459.35  121.39
   0   9  -3 2578.24  122.29
   0  -9  -3 2058.89  119.69
   0   9  -3 2118.79  122.29
   0  -9   3 2181.98  120.99
   0  -9   3 2531.25  122.69
   0   9   3 2136.69  118.89
   0   9  -3 2200.78  124.49
   0  -9  -3 2223.58  118.69
   0  -9  -3 2453.55  119.29
   0   9  -3 2440.76  121.79
   0  -9  -3 2256.47  118.79
   0  -9   3 2040.70  123.29
   0  -9  -4   12.00    4.40
   0  -9   4    4.90    3.40
   0   9   4    9.90    2.40
   0  -9  -4   16.60    6.50
   0   9  -4   14.90    5.10
   0  -9  -4   11.10    3.20
   0  -9  -4    6.90    1.60
   0  -9   4    9.70    5.90
   0   9  -4    6.50    9.60
   0   9  -4   14.40    4.30
   0  -9  -4   12.20    2.90
   0  -9   4    3.10    5.70
   0  -9   4    8.40    6.40
   0   9  -4    2.30    6.90
   0  -9  -4    5.60    8.50
   0  -9   5   -0.60    3.60
   0   9  -5   -2.60    3.30
   0   9   5    1.60    4.70
   0  -9  -5   -2.40    7.40
   0  -9   5   -9.00    6.20
   0  -9   5    4.10    3.60
   0  -9   5   -2.10    3.00
   0   9  -5    1.70    6.80
   0  -9  -5   -1.70    9.00
   0   9  -5   -4.80    3.30
   0  -9  -5   -4.60    2.80
   0  -9  -5    0.30    4.50
   0   9  -5    3.10   12.20
   0  -9   6    4.40    4.30
   0  -9   6    6.90    4.00
   0  -9   6    7.00    6.80
   0   9   6   -2.20    5.70
   0   9  -6   12.50    8.20
   0   9  -7   18.00    5.20
   0  -9  -7   24.70    4.70
   0  -9   7   21.30    5.50
   0  -9   7   23.40    6.50
   0  -9   7    9.00    6.30
   0   9  -7   26.00    6.80
   0   9  -8   10.10    7.80
   0  -9   8    5.80    8.00
   0   9  -8    7.50    8.00
   1   9   0 1484.85   81.39
  -1   9   0 1589.54   82.89
   1  -9   0 1531.35   81.79
   1   9   0 1569.14   81.49
   1  -9   0 1654.03   83.99
  -1   9   0 1496.55   81.99
   1   9   0 1428.76   81.49
  -1  -9   0 1412.46   83.49
   1  -9   0 1668.43   83.19
  -1   9   0 1522.35   81.39
   1  -9   0 1532.95   81.39
  -1   9   0 1605.14   81.99
  -1  -9   0 1606.34   81.49
  -1  -9   0 1616.24   82.49
   1  -9   0 1504.95   83.49
  -1  -9   0 1393.56   83.09
   1  -9   1  844.22   45.10
   1   9  -1  778.72   49.60
   1  -9   1  854.91   47.50
   1   9  -1  793.82   45.00
  -1   9   1  769.32   44.10
   1  -9   1  813.02   44.80
   1   9  -1  819.82   45.10
  -1  -9  -1  722.93   45.50
  -1  -9  -1  852.61   44.80
  -1  -9  -1  786.52   43.80
  -1  -9  -1  792.32   43.90
   1   9  -1  791.42   45.60
  -1   9   1  759.52   44.10
   1  -9   1  817.82   45.20
  -1   9   1  843.72   44.40
   1  -9   1  803.82   45.90
  -1   9   1  842.82   44.70
  -1  -9   1  819.32   45.10
  -1  -9   1  799.92   45.90
  -1  -9   1  860.31   46.60
   1   9   1  789.12   44.10
   1  -9  -1  877.61   46.40
   1   9   1  876.11   44.00
  -1  -9   1  831.22   45.20
  -1   9  -1  878.71   47.40
   1  -9  -1  791.92   44.50
   1  -9  -1  845.52   45.20
   1  -9  -1  807.72   44.30
   1   9   1  787.22   43.60
  -1   9  -1  857.11   45.50
   1  -9  -1  875.51   47.10
   1   9   1  764.42   44.60
  -1   9  -1  744.13   45.60
  -1  -9  -2  276.47   16.10
   1  -9   2  270.47   17.90
   1   9  -2  280.57   18.60
  -1  -9  -2  242.48   17.10
   1  -9   2  277.47   16.60
  -1  -9  -2  278.07   16.00
   1  -9   2  267.27   17.70
  -1   9   2  255.87   16.60
  -1   9   2  272.07   15.50
  -1  -9  -2  280.97   16.70
   1  -9   2  286.47   20.30
   1   9  -2  281.57   18.50
   1   9  -2  279.17   18.00
  -1   9   2  283.17   17.10
   1  -9   2  279.57   19.10
  -1   9   2  271.77   15.60
  -1  -9   2  254.87   19.70
   1  -9  -2  278.57   18.00
   1  -9  -2  290.27   19.00
  -1   9  -2  246.68   17.60
  -1  -9   2  266.27   17.70
   1   9   2  278.87   16.20
  -1   9  -2  279.97   18.70
   1  -9  -2  277.37   16.80
  -1  -9   2  301.77   18.70
   1  -9  -2  296.37   17.50
   1  -9  -2  282.47   20.20
   1  -9  -2  290.87   16.90
  -1  -9   2  271.57   18.00
  -1   9  -2  263.87   18.60
  -1   9  -2  317.77   21.20
  -1  -9   2  278.07   19.10
   1  -9   3  228.08   16.50
   1   9  -3  238.58   17.80
  -1  -9  -3  242.38   14.30
  -1   9   3  263.67   15.80
  -1  -9  -3  265.57   18.40
  -1  -9  -3  250.37   14.20
   1  -9   3  272.37   18.50
   1  -9   3  290.67   19.90
   1   9  -3  250.07   17.30
  -1  -9  -3  254.47   16.00
   1   9  -3  262.87   18.40
  -1  -9  -3  250.47   14.90
   1  -9   3  243.48   16.70
  -1   9   3  255.07   15.60
  -1  -9   3  240.78   16.90
  -1   9  -3  241.58   17.10
   1  -9  -3  267.27   16.20
   1  -9  -3  249.68   15.70
  -1  -9   3  263.37   18.60
   1   9   3  252.57   14.30
   1  -9  -3  262.27   18.60
   1  -9  -3  233.38   16.20
  -1   9  -3  250.67   20.40
  -1   9  -3  275.37   18.70
  -1   9  -3  237.88   17.90
   1   9   3  250.17   14.20
  -1  -9   3  300.07   20.30
   1  -9  -3  255.17   15.50
  -1  -9   3  267.47   18.30
   1  -9  -3  264.97   19.90
  -1  -9  -4  239.28   15.20
  -1  -9  -4  273.07   19.80
   1  -9   4  245.78   19.40
  -1   9   4  283.07   16.00
   1   9  -4  263.67   18.20
   1  -9   4  278.27   19.10
   1   9  -4  239.88   18.80
   1   9  -4  283.57   20.00
  -1  -9  -4  247.88   14.50
   1  -9   4  257.47   18.10
   1  -9   4  244.18   17.00
  -1   9  -4  262.67   19.10
  -1  -9   4  240.28   17.40
  -1   9  -4  271.27   19.40
  -1  -9   4  271.57   19.70
   1  -9  -4  264.37   15.60
   1  -9  -4  256.87   20.50
  -1  -9   4  267.17   19.10
   1  -9  -4  274.27   16.60
  -1   9  -4  237.58   22.00
   1  -9  -4  256.97   19.90
   1  -9  -4  263.07   15.80
  -1  -9   4  267.47   19.30
   1  -9  -4  292.67   16.60
  -1   9  -4  244.48   17.60
  -1   9   5   46.00    5.00
   1   9  -5   45.10    9.50
  -1  -9  -5   29.60   12.00
   1  -9   5   42.60    8.40
   1   9  -5   37.50    6.40
  -1   9   5   37.60    5.10
   1   9  -5   32.60    4.90
   1   9  -5   29.80   13.80
   1  -9   5   46.00    4.70
  -1  -9  -5   45.20   10.90
   1  -9   5   54.39    6.50
  -1  -9  -5   37.70    3.20
   1  -9   5   53.29    6.70
  -1   9  -5   44.10    5.90
   1  -9  -5   46.20    6.50
  -1   9  -5   31.60   13.40
  -1  -9   5   35.20    6.90
  -1   9  -5   46.60    6.40
   1  -9  -5   32.30    3.70
   1  -9  -5   40.40    4.10
   1  -9  -5   37.10   11.30
  -1  -9   5   36.00    8.70
  -1  -9   5   43.90    5.70
  -1  -9   5   47.80    6.50
  -1   9  -5   55.99    9.60
   1   9  -6   29.70    9.60
   1  -9   6   24.10    5.10
   1   9  -6   34.00    4.70
   1  -9   6   26.50    7.70
  -1  -9  -6   28.80    3.30
   1  -9   6   20.80    4.80
   1  -9   6   36.70    5.60
   1   9  -6   37.00    4.80
  -1   9  -6   34.50    4.60
  -1   9  -6   37.40   10.10
   1  -9  -6   36.30    4.10
  -1  -9   6   24.30    8.40
   1  -9  -6   29.50    2.70
  -1  -9   6   29.20    5.40
  -1  -9   6   27.50    5.50
  -1  -9   6   19.50    5.10
   1   9  -7    9.30    6.10
   1  -9   7    3.10    5.80
   1   9  -7    1.50    5.30
   1  -9   7   -8.50    5.80
  -1   9   7   -1.20    7.50
   1  -9   7   14.20    5.80
  -1   9  -7   -4.20    5.90
  -1  -9   7   -1.10    5.60
  -1   9  -7    2.50    5.50
  -1  -9   7   10.80    5.40
   1  -9  -7    5.10    4.50
  -1  -9   7   -6.40    6.90
  -1   9   8   18.00    9.80
   1  -9   8   -9.80    8.30
   1   9  -8   11.70    8.10
   1   9  -8    5.80    8.40
  -1  -9   8   -5.50    8.10
  -1   9  -8    3.20    8.90
  -1   9  -8   14.10    7.60
   2  -9   0 3650.73  205.28
  -2  -9   0 3578.24  204.58
   2  -9   0 4038.40  206.38
  -2   9   0 3720.13  204.88
  -2   9   0 3724.23  206.08
  -2  -9   0 4536.15  209.28
   2  -9   0 3691.03  207.28
   2   9   0 3776.02  205.08
   2   9   0 4260.87  206.98
   2   9   0 3843.62  204.98
  -2   9   0 4001.90  206.18
   2   9   0 4151.08  204.98
  -2  -9   0 3927.01  204.88
   2  -9   0 3967.80  204.98
  -2  -9   0 4347.06  206.28
   2  -9   0 4024.50  206.18
   2   9  -1 1352.46   72.59
  -2   9   1 1443.16   72.59
  -2   9   1 1367.46   72.49
   2  -9   1 1367.06   72.39
   2  -9   1 1298.37   73.39
  -2  -9  -1 1337.77   71.49
   2  -9   1 1355.36   72.79
  -2  -9  -1 1269.27   75.69
   2  -9   1 1225.98   74.39
  -2  -9  -1 1318.37   71.29
  -2   9   1 1346.67   72.19
   2   9  -1 1349.56   72.49
  -2  -9  -1 1440.46   72.49
   2   9  -1 1305.37   73.19
  -2   9   1 1317.17   71.89
   2  -9  -1 1360.06   72.89
   2   9   1 1267.07   70.69
   2  -9  -1 1388.66   71.99
   2  -9  -1 1269.47   74.09
  -2   9  -1 1452.55   74.99
   2  -9  -1 1458.85   74.59
  -2   9  -1 1296.67   73.39
   2   9   1 1333.97   71.59
   2   9   1 1355.76   71.29
  -2  -9   1 1318.87   72.49
  -2  -9   1 1377.36   72.49
   2   9   1 1334.27   71.39
   2  -9  -1 1378.66   72.49
  -2   9  -1 1464.45   73.29
  -2   9  -1 1338.37   72.39
  -2  -9   1 1274.87   73.29
   2   9  -2  271.87   19.00
   2  -9   2  305.57   18.70
  -2   9   2  292.07   16.90
  -2   9   2  280.27   17.80
   2  -9   2  271.17   20.10
  -2  -9  -2  292.47   17.40
  -2  -9  -2  267.97   16.20
  -2   9   2  277.77   17.20
   2  -9   2  280.77   19.40
   2  -9   2  276.97   18.20
   2   9  -2  300.47   18.70
   2   9  -2  272.77   18.30
  -2   9   2  279.77   17.00
  -2  -9   2  243.18   17.80
   2  -9  -2  291.87   19.00
  -2  -9   2  236.88   19.50
  -2   9  -2  296.97   19.50
  -2   9  -2  267.17   19.00
   2  -9  -2  273.97   17.60
  -2  -9   2  290.37   18.70
  -2   9  -2  261.77   17.80
   2   9   2  291.87   16.50
   2  -9  -2  301.27   20.90
   2  -9  -2  289.27   18.30
  -2  -9   2  282.77   19.80
  -2   9  -2  259.77   20.70
   2  -9  -2  278.37   18.90
   2  -9  -2  288.37   17.70
  -2   9   3  889.91   48.10
  -2  -9  -3  868.61   45.70
  -2   9   3  735.53   45.20
  -2  -9  -3  909.21   49.70
  -2  -9  -3  810.82   45.60
   2   9  -3  799.32   50.39
  -2  -9  -3  904.91   46.80
   2  -9   3  860.11   48.80
   2  -9   3  926.11   51.69
   2  -9   3  860.81   48.80
  -2   9   3  876.41   51.09
   2  -9   3  876.51   50.09
   2   9  -3  826.02   49.30
   2   9  -3  936.51   50.09
  -2   9  -3  834.22   50.19
   2   9   3  837.32   45.50
  -2   9  -3  863.71   49.20
   2  -9  -3  858.31   48.00
   2   9   3  854.71   45.60
  -2  -9   3  891.81   49.80
   2  -9  -3  874.81   52.29
  -2   9  -3  834.72   52.09
  -2  -9   3  852.51   49.10
  -2   9  -3  942.31   50.19
   2  -9  -3  860.11   50.09
  -2  -9   3  884.71   50.59
   2  -9  -3  927.91   48.80
   2  -9  -3  940.01   49.50
   2  -9  -3  896.71   47.80
  -2  -9   3  993.30   52.39
  -2  -9  -4  773.22   43.60
   2   9  -4  694.93   43.70
   2  -9   4  779.62   43.30
   2   9  -4  760.12   43.80
   2  -9   4  715.73   43.80
  -2   9   4  718.93   40.50
  -2   9   4  733.73   40.70
   2  -9   4  682.03   41.50
  -2  -9  -4  708.63   38.80
   2   9  -4  686.73   42.60
   2  -9  -4  749.62   41.70
   2  -9  -4  748.53   40.70
  -2  -9   4  743.63   44.20
   2  -9  -4  743.23   40.60
  -2   9  -4  685.73   43.30
   2  -9  -4  782.22   41.80
  -2  -9   4  750.12   43.90
  -2   9  -4  651.93   45.60
  -2  -9   4  710.73   43.10
  -2   9  -4  822.02   43.70
  -2  -9   4  727.23   42.40
  -2   9  -4  712.43   42.20
   2  -9  -4  725.63   45.80
   2  -9   5   44.00    6.20
  -2  -9  -5   35.00    3.10
   2   9  -5   41.60    9.50
  -2   9   5   39.50    6.40
  -2  -9  -5   36.20    9.70
   2  -9   5   43.50    5.50
   2  -9   5   36.70    4.70
   2   9  -5   32.00    5.10
  -2   9   5   34.40    6.50
   2   9  -5   48.10    5.50
   2  -9   5   49.20    8.60
  -2  -9   5   34.60    6.00
   2  -9  -5   40.80    6.40
   2  -9  -5   45.00    4.40
  -2   9  -5   47.80   15.60
  -2   9  -5   45.40    6.20
  -2   9  -5   38.60    9.10
  -2  -9   5   39.90    8.10
  -2  -9   5   32.10    5.00
   2  -9  -5   34.70    7.40
  -2  -9   5   38.50    5.60
   2  -9  -5   38.00    4.60
  -2   9  -5   34.10    4.30
  -2   9   6   27.60    5.90
  -2   9   6   14.10    4.80
   2  -9   6   27.30    4.70
   2  -9   6   19.00    7.00
   2   9  -6   31.70    9.80
   2  -9   6   17.00    4.30
   2   9  -6   18.70    5.00
   2  -9   6   18.10    5.70
  -2  -9   6   13.70    6.00
  -2  -9   6   17.70    3.50
  -2   9  -6   28.80    8.50
  -2   9  -6   18.00    4.90
   2  -9  -6   21.00    4.40
   2  -9  -6   23.30    3.60
  -2  -9   6   18.80    5.00
  -2   9  -6   20.20    4.30
  -2  -9   6    9.90    8.90
   2  -9   7   20.30    5.70
   2  -9   7   18.00    6.40
   2  -9   7   15.70    5.70
   2   9  -7   12.10    5.80
   2   9  -7   10.20    6.90
  -2  -9   7   25.00    6.80
  -2   9  -7   22.30    6.10
   2  -9  -7   23.70    6.40
  -2   9  -7   24.70    6.60
   2  -9  -7   20.60    3.90
  -2  -9   7    4.40    8.60
  -2  -9   7   15.40    6.70
   2   9  -8    2.90    8.90
   2   9  -8    3.80    8.90
   2  -9   8   -7.80    8.50
  -2   9   8    4.50   11.60
  -2  -9   8   -5.50    8.70
  -2   9  -8    6.30    7.60
  -2   9  -8    8.20    8.50
   3  -9   0  130.09   10.50
  -3   9   0  126.99   11.50
   3  -9   0  130.89   11.10
   3  -9   0  118.49   11.80
  -3  -9   0  131.39   11.20
   3   9   0  105.79   12.30
  -3  -9   0  102.99   10.80
   3   9   0  131.69    9.90
  -3  -9   0  148.79   12.10
  -3  -9   0  118.19    9.70
  -3   9   0  138.29   11.10
  -3   9   0  142.19   10.40
   3  -9   0  126.59   11.60
   3   9   0  132.39   10.70
   3   9   0  131.89    9.90
  -3   9   0  134.99   11.90
   3   9  -1  738.13   43.10
   3   9  -1  770.12   42.70
   3  -9   1  744.23   43.90
  -3  -9  -1  738.23   41.30
  -3   9   1  735.83   42.60
  -3   9   1  785.02   43.00
  -3  -9  -1  745.83   41.70
   3  -9   1  716.83   44.70
   3  -9   1  756.42   42.40
   3  -9   1  686.13   42.40
  -3   9   1  795.52   43.10
  -3  -9  -1  662.83   43.10
  -3  -9  -1  765.82   42.80
  -3   9   1  769.22   42.20
   3   9  -1  745.73   42.60
   3  -9  -1  791.12   43.00
   3  -9  -1  769.52   44.80
  -3   9  -1  626.04   42.40
   3  -9  -1  732.53   42.60
  -3  -9   1  821.02   44.30
   3   9   1  843.72   42.40
   3   9   1  796.42   41.70
  -3   9  -1  753.72   42.40
  -3  -9   1  757.82   44.60
  -3   9  -1  687.73   44.30
   3  -9  -1  727.13   44.30
  -3  -9   1  754.72   42.50
   3  -9  -1  754.22   43.40
  -3  -9   1  769.92   43.00
  -3   9  -1  756.32   43.80
   3   9   1  763.02   40.80
  -3   9  -1  801.22   43.70
   3   9   1  746.83   42.60
  -3  -9  -2   13.90    5.40
   3  -9   2   17.10    6.60
   3  -9   2   16.00    3.80
  -3  -9  -2    9.80    8.20
   3   9  -2   12.30    5.10
  -3   9   2   11.50    4.80
  -3   9   2   17.50    6.30
   3   9  -2   12.00    3.80
   3   9  -2    7.20    6.50
  -3  -9  -2   11.80    2.70
   3  -9   2   16.20    5.90
  -3  -9  -2   13.80    4.70
  -3   9   2   17.10    3.10
   3  -9   2   18.60    6.30
  -3  -9  -2   13.10    3.60
  -3   9   2   10.30    6.00
  -3   9   2   11.90    3.10
   3  -9  -2   12.40    5.90
  -3  -9   2   10.10    4.90
  -3   9  -2   15.00    4.40
  -3  -9   2   13.80    5.30
   3  -9  -2   11.30    4.20
  -3  -9   2    8.90    6.70
   3  -9  -2   14.10    6.30
   3  -9  -2   19.20    6.50
  -3   9  -2    5.50    7.00
   3   9   2   14.80    4.30
   3  -9  -2   15.00    4.40
  -3   9  -2    9.70    3.20
   3   9   2   15.60    4.40
  -3  -9   2   21.10    6.90
  -3   9  -2   15.10    4.30
  -3   9  -2   13.10    7.10
   3  -9   3  278.27   19.00
   3   9  -3  297.87   20.50
  -3   9   3  292.37   17.70
  -3  -9  -3  286.47   17.70
  -3   9   3  287.17   17.50
   3  -9   3  268.27   18.30
   3   9  -3  253.47   19.60
   3   9  -3  270.57   19.30
   3  -9   3  279.87   20.10
  -3   9   3  290.17   16.80
  -3  -9  -3  279.47   19.50
   3  -9   3  262.87   20.40
  -3  -9  -3  280.67   15.70
  -3   9   3  272.47   18.90
  -3   9  -3  250.07   22.10
   3  -9  -3  286.17   18.50
  -3   9  -3  244.58   18.10
  -3  -9   3  277.17   20.50
   3  -9  -3  300.57   20.20
  -3  -9   3  286.07   21.00
  -3  -9   3  273.97   18.80
   3  -9  -3  259.67   18.10
  -3   9  -3  292.67   20.60
  -3  -9   3  284.87   20.50
   3  -9  -3  282.77   19.80
  -3   9  -3  273.17   19.90
   3  -9  -3  305.27   19.60
   3   9   3  259.97   15.90
   3   9   3  267.67   15.70
   3   9  -4   16.30    4.70
   3   9  -4   20.20    4.70
  -3  -9  -4   25.80    7.30
  -3   9   4   30.00    3.80
  -3   9   4   27.60    6.10
  -3  -9  -4   21.90    3.40
   3   9  -4   31.70   10.00
   3  -9   4   40.40    8.50
  -3  -9  -4   10.50    9.90
   3  -9   4   26.70    5.80
  -3  -9  -4   24.50    5.00
  -3  -9   4   25.90    5.00
  -3   9  -4   16.60   12.30
   3  -9  -4   22.10    7.70
  -3   9  -4   27.80    4.60
  -3  -9   4   23.70    8.20
   3  -9  -4   20.70    6.10
   3  -9  -4   25.60    4.50
   3  -9  -4   23.70    8.80
  -3  -9   4   21.10    5.00
  -3   9  -4   25.50    4.90
  -3   9  -4   32.70    8.80
  -3  -9   4   22.60    9.00
   3  -9  -4   14.50    4.10
   3   9  -5   40.20    5.30
   3  -9   5   43.30    5.80
  -3  -9  -5   50.29    9.80
   3  -9   5   37.00    4.40
   3  -9   5   42.40    5.60
  -3  -9  -5   46.50    5.00
   3  -9   5   34.30    8.60
  -3   9   5   48.40    9.10
   3   9  -5   35.10    5.70
  -3   9   5   46.40    4.80
  -3  -9  -5   27.80    5.50
   3   9  -5   37.80    9.80
  -3  -9   5   36.80    5.30
   3  -9  -5   32.00    4.50
  -3  -9   5   35.00    5.40
  -3   9  -5   46.20    9.90
  -3   9  -5   41.00    4.90
   3  -9  -5   48.70    7.20
  -3   9  -5   49.90    5.50
   3  -9  -5   49.70    6.10
  -3  -9   5   34.50   11.70
   3   9  -6   49.50   13.00
   3  -9   6   40.00    5.70
   3   9  -6   35.40    5.60
   3  -9   6   30.80    8.90
   3  -9   6   30.10    6.10
  -3   9   6   40.80    9.00
  -3  -9   6   46.50    5.80
   3  -9  -6   13.70   12.50
  -3   9  -6   34.60    5.40
  -3  -9   6   40.70    5.90
   3  -9  -6   42.00    5.10
  -3   9  -6   42.40   11.10
  -3   9  -6   51.89    5.80
   3  -9  -6   46.50    6.00
   3   9  -7   15.40    7.10
   3  -9   7   11.10    6.60
   3  -9   7   31.20    7.80
   3   9  -7   17.10    7.40
  -3   9  -7   28.90    7.10
  -3  -9   7   16.10    6.70
  -3   9  -7   16.10    6.80
  -3  -9   7   30.70    7.60
   3  -9  -7   22.00    5.10
   3  -9  -7   29.00    7.90
   3   9  -8    4.80   10.00
   3   9  -8    9.10   14.10
   3  -9   8   -7.50    8.70
  -3   9   8    7.20   12.00
  -3   9  -8    2.50    7.90
  -3   9  -8   -1.90    9.10
  -3  -9   8   11.10   15.40
   3  -9  -8   11.40    5.40
   4   9   0   18.40    3.40
   4  -9   0   24.70    6.90
   4  -9   0   30.50    6.50
  -4   9   0   30.60    5.50
  -4   9   0   26.10    6.90
   4   9   0   28.30    4.30
   4  -9   0   30.40    7.40
   4  -9   0   19.40    4.80
  -4   9   0   26.00    8.00
  -4   9   0   22.60    4.50
  -4   9   0   27.90    5.20
  -4  -9   0   27.00    5.10
   4   9   0   16.50   10.00
  -4  -9   0   29.10    7.90
   4   9   0   30.50    6.70
  -4  -9   0   26.50    4.80
  -4  -9   0   28.90    7.10
  -4   9   1   87.09   10.40
   4  -9   1   93.29   10.30
   4   9  -1   74.69    9.70
   4  -9   1   73.89   10.00
   4  -9   1   82.99   10.20
  -4  -9  -1   88.99   10.80
  -4   9   1   79.79    7.60
  -4  -9  -1   84.99    8.70
  -4   9   1   84.19   10.00
  -4   9   1   81.89    8.50
   4   9  -1   74.59    7.90
  -4  -9  -1   82.49    9.70
  -4  -9  -1   79.99    7.50
   4  -9   1   77.89    8.70
  -4   9   1   84.99   10.00
   4   9  -1   88.99    8.70
  -4  -9   1   86.69   10.80
   4   9   1   87.59   10.30
   4   9   1   87.39    9.20
   4  -9  -1   80.09   10.10
   4  -9  -1   90.59    9.00
  -4  -9   1   88.39    9.60
   4  -9  -1   61.59    9.00
  -4   9  -1   93.29    9.00
   4  -9  -1   93.59    9.20
  -4  -9   1   85.19   10.70
  -4   9  -1   81.29    9.50
  -4   9  -1   84.09    8.30
  -4   9  -1  102.49   11.40
   4   9   1   81.99    7.30
  -4  -9   1   75.19    8.70
   4  -9  -1   79.29   11.00
  -4   9  -1   91.99   11.10
   4   9   1   79.09    6.60
   4   9  -2  296.37   20.60
  -4   9   2  284.87   19.30
   4  -9   2  256.47   20.80
   4   9  -2  269.47   20.00
  -4   9   2  275.07   20.00
  -4  -9  -2  290.47   17.30
   4  -9   2  286.47   20.80
  -4   9   2  264.47   21.40
   4   9  -2  272.77   19.40
  -4  -9  -2  300.47   19.60
   4  -9   2  281.37   19.60
   4  -9   2  261.47   18.80
  -4  -9  -2  307.17   19.30
  -4  -9  -2  291.77   18.40
  -4   9   2  287.87   18.40
  -4   9   2  282.47   18.90
   4  -9  -2  269.07   20.80
  -4   9  -2  306.37   21.60
   4   9   2  253.97   17.80
  -4  -9   2  271.87   19.10
  -4   9  -2  277.77   18.90
  -4   9  -2  271.67   22.10
   4  -9  -2  289.17   19.50
   4   9   2  298.17   18.10
  -4  -9   2  279.37   21.20
   4  -9  -2  285.37   20.00
  -4   9  -2  300.37   18.90
  -4   9  -2  245.48   20.10
  -4  -9   2  294.97   21.10
   4  -9  -2  283.07   21.10
   4  -9  -2  275.67   19.00
  -4  -9   2  260.67   20.50
  -4   9   3  403.96   23.70
   4  -9   3  399.86   26.50
   4   9  -3  387.86   26.10
  -4  -9  -3  375.26   21.30
  -4  -9  -3  415.46   24.20
  -4  -9  -3  335.07   29.90
  -4  -9  -3  399.56   24.20
   4   9  -3  393.26   26.10
  -4   9   3  389.06   23.20
  -4   9   3  366.26   23.60
  -4  -9  -3  342.97   22.00
  -4   9   3  346.07   24.60
   4   9  -3  364.86   24.70
   4  -9   3  361.56   23.70
   4  -9   3  367.76   25.70
   4  -9  -3  381.76   26.30
   4  -9  -3  395.56   25.80
   4   9   3  373.96   24.50
  -4   9  -3  390.46   26.20
  -4  -9   3  375.46   24.60
  -4  -9   3  403.06   26.50
   4  -9  -3  379.76   24.30
  -4   9  -3  326.67   27.90
   4  -9  -3  363.36   24.20
   4  -9  -3  372.36   25.80
  -4   9  -3  362.66   25.70
   4   9   3  405.46   21.90
  -4   9  -3  341.97   23.70
   4  -9   4   80.99   10.70
   4   9  -4   85.19    8.50
   4  -9   4   97.09    9.70
  -4   9   4   81.69    7.00
  -4  -9  -4   91.69    9.20
  -4   9   4   77.29    8.10
   4   9  -4  111.69   13.90
   4   9  -4   86.89    9.70
  -4  -9  -4   81.19    5.00
  -4   9   4   87.29    6.40
   4  -9   4   82.39    7.50
  -4  -9  -4  102.29   10.70
   4  -9  -4   93.69   11.20
  -4   9  -4   95.19    9.30
  -4  -9   4   74.29    8.20
   4  -9  -4   97.89   10.90
   4  -9  -4   66.69    7.70
   4  -9  -4   85.69    8.40
  -4   9  -4  106.29   12.30
  -4  -9   4   84.99    8.50
   4  -9   5    7.20    4.60
   4  -9   5    6.20    3.80
   4  -9   5    5.50    6.90
  -4   9   5    4.80    6.00
   4  -9   5    9.20    3.70
   4   9  -5   -0.20    4.60
  -4  -9  -5   10.00    7.50
  -4   9   5    2.80    4.10
   4   9  -5   -0.60    4.80
  -4   9  -5    3.20    4.50
  -4  -9   5   12.10    6.20
  -4   9  -5    0.80    9.10
   4  -9  -5    7.40    4.30
   4  -9  -5    4.40    6.60
  -4  -9   5    7.30    4.50
  -4   9  -5    4.90    3.90
  -4  -9   5    7.50    4.40
   4  -9  -5    4.90    4.00
   4  -9   6  113.19    9.00
  -4  -9  -6  124.79    8.20
  -4   9   6   93.09    9.00
   4   9  -6  124.99   10.30
   4   9  -6  116.69    9.30
   4  -9   6  114.69    9.70
   4  -9   6  105.89    9.30
   4  -9  -6  126.59    9.20
  -4  -9   6   96.19    9.50
   4  -9  -6  129.49    9.50
  -4   9  -6  114.89    9.70
  -4   9  -6  110.89    8.90
   4  -9   7    9.80    6.70
  -4   9   7   -3.00   10.20
   4   9  -7   12.80    8.30
   4   9  -7   12.40    7.30
  -4   9  -7    3.90    7.50
  -4  -9   7    6.00    7.80
  -4  -9   7   18.90    8.70
   4  -9  -7   16.70    6.00
   4  -9  -7    9.40    7.70
  -4   9  -7    7.00    6.60
  -5  -9   0  578.74   40.00
  -5   9   0  703.73   40.70
  -5  -9   0  651.63   38.20
   5   9   0  660.83   38.50
  -5   9   0  670.53   41.10
  -5   9   0  639.84   40.10
  -5   9   0  650.33   38.60
   5  -9   0  649.14   39.20
   5  -9   0  696.63   37.80
  -5  -9   0  671.23   39.10
   5   9   0  691.83   38.60
   5   9   0  582.84   38.20
  -5   9   0  659.23   40.30
   5  -9   0  629.74   39.10
  -5  -9   0  698.43   41.10
  -5   9   1  133.19   12.50
   5  -9   1  106.29   10.10
  -5   9   1  132.19   11.20
  -5  -9  -1  123.79   11.70
   5  -9   1  100.29   11.70
  -5   9   1  109.89   13.20
  -5   9   1  105.99   12.30
  -5   9   1  129.39   10.70
   5   9  -1  114.89   10.60
  -5  -9  -1  118.59   13.10
  -5  -9  -1  117.99    9.80
   5  -9   1  125.99   13.60
   5   9  -1  122.79   10.10
  -5  -9  -1  108.19   10.90
   5  -9   1  108.19   12.30
  -5  -9   1  104.09   10.20
  -5  -9   1  121.29   13.20
  -5   9  -1  114.29   14.30
   5   9   1  123.19   11.60
   5   9   1  116.59    8.80
  -5  -9   1  128.09   14.00
  -5   9  -1  110.59   11.50
   5   9   1  106.89    9.00
   5  -9  -1  104.39   12.70
  -5   9  -1  112.49   10.10
  -5   9  -1  128.49   11.20
   5  -9  -1  118.39   12.40
   5  -9  -1  110.89   10.70
   5  -9  -1  124.29   13.00
   5  -9  -1  123.69   11.40
   5   9  -2   68.49    8.40
  -5  -9  -2   64.19    7.90
  -5   9   2   68.99    9.60
   5   9  -2   64.99    7.70
  -5  -9  -2   76.49   10.90
  -5   9   2   77.89    7.80
  -5   9   2   63.29    7.60
   5  -9   2   68.99   11.10
   5   9  -2   67.69   11.70
   5  -9   2   67.19   11.30
   5  -9   2   73.59    9.00
  -5  -9  -2   77.19    6.60
  -5   9   2   80.79   10.20
   5  -9   2   74.49    8.10
  -5  -9  -2   72.59    9.20
  -5   9  -2   90.49   12.50
   5  -9  -2   61.39    7.60
   5  -9  -2   61.59    8.50
   5   9   2   70.39    7.00
   5   9   2   62.09    5.40
   5   9   2   85.29    9.10
   5  -9  -2   64.09    9.60
  -5   9  -2   72.19    8.60
  -5  -9   2   79.09   12.50
  -5   9  -2   72.69    7.90
  -5  -9   2   84.09    8.50
  -5   9  -2   75.69    8.30
   5  -9  -2   69.19   11.90
   5  -9  -2   68.79   10.30
   5   9  -3  151.88   13.00
  -5   9   3  166.28   17.90
  -5   9   3  161.58   13.80
  -5  -9  -3  158.78   10.40
  -5  -9  -3  146.09   12.30
  -5  -9  -3  173.28   13.10
   5   9  -3  145.39   12.90
   5  -9   3  160.78   16.10
   5  -9   3  144.99   12.00
  -5   9   3  156.38   12.30
  -5   9   3  157.08   12.10
   5  -9   3  149.49   14.10
  -5  -9  -3  181.48   14.60
  -5   9  -3  138.79   13.50
  -5  -9   3  159.78   12.70
   5   9   3  169.88   12.20
  -5   9  -3  163.38   12.00
  -5  -9   3  153.38   12.60
   5  -9  -3  169.28   14.40
   5  -9  -3  146.09   13.70
   5   9   3  144.69   11.90
  -5   9  -3  135.89   15.00
   5  -9  -3  151.48   14.30
   5  -9  -3  140.69   15.60
  -5  -9   3  165.28   18.00
  -5   9  -3  177.98   16.30
  -5  -9  -4   76.09   10.20
   5  -9   4   72.89    6.60
  -5   9   4   83.09    6.90
   5   9  -4   83.69    7.70
   5   9  -4   79.29    7.40
   5  -9   4   76.39   12.30
   5  -9   4   68.49    6.40
  -5   9   4   82.39    7.10
  -5  -9  -4   81.89    9.70
  -5  -9  -4   58.89    7.10
  -5  -9  -4   74.59    5.30
  -5   9   4   75.49    8.70
   5  -9   4   90.29    7.90
  -5   9  -4   89.69    7.50
  -5  -9   4   70.59    6.80
   5   9   4   62.99    5.80
   5  -9  -4   84.39    8.30
   5  -9  -4   74.19    7.50
  -5   9  -4   83.69    7.30
  -5   9  -4   82.69   12.70
   5   9   4   79.19    6.10
  -5   9  -4   64.59    6.00
   5  -9  -4   78.09   10.70
   5   9  -5   78.19    7.70
   5  -9   5   82.29    7.20
  -5  -9  -5   97.39   11.80
  -5   9   5   67.59    5.70
   5   9  -5   65.89    7.30
   5  -9   5   82.89    7.10
   5  -9   5   66.19   14.00
   5  -9   5   92.29    8.40
  -5   9   5   61.69    7.70
  -5  -9   5   94.29    8.10
   5  -9  -5   75.89    7.20
  -5   9  -5   81.89   15.80
   5  -9  -5   85.09    7.70
  -5   9  -5   85.39    7.60
  -5  -9   5   79.99    7.30
   5  -9  -5  103.59   15.80
   5  -9   6   31.50    7.50
   5  -9   6    9.70    5.30
   5   9  -6   19.40    7.00
   5   9  -6   25.10    7.30
   5  -9   6   20.10    6.80
   5  -9  -6   17.60    7.40
  -5  -9   6   16.80    6.90
  -5  -9   6    9.00    6.50
  -5   9  -6   31.20    7.00
   5  -9  -6   18.50    6.20
  -5   9  -6    3.70    6.90
   5   9  -7   15.40    9.80
  -5   9   7    7.70   11.90
   5  -9  -7   25.70    9.90
  -5   9  -7   11.20    8.90
  -5  -9   7   19.20    8.90
  -5   9  -7    3.30    7.70
   5  -9  -7   13.50    7.90
  -5  -9   7   -5.10    9.30
  -6   9   0    4.50    3.80
   6  -9   0   -2.70    4.00
  -6  -9   0    5.80    4.10
   6  -9   0    5.50    4.30
   6   9   0    1.30    3.60
  -6   9   0    4.10    4.70
  -6  -9   0   -8.50    5.10
   6   9   0   -1.90    3.90
   6   9   0   -3.90   11.70
  -6   9   0    5.50    3.80
  -6  -9   0    0.40    7.40
   6   9  -1   11.10   12.70
  -6  -9  -1   16.30    7.80
   6  -9   1   13.50    4.30
  -6  -9  -1   10.00   11.30
   6  -9   1    0.70    7.60
   6  -9   1    8.60    4.30
  -6  -9  -1    5.20    4.70
  -6   9   1   10.40    4.10
  -6   9   1    5.40    4.70
   6   9  -1   10.40    4.70
  -6   9  -1   10.50   10.40
   6  -9  -1    4.30    5.90
   6  -9  -1    8.60    8.50
   6   9   1   -7.90    9.20
   6  -9  -1   14.50    5.80
   6  -9  -1    7.80    5.00
   6   9   1   10.20    3.70
  -6   9  -1    8.10    4.20
  -6  -9   1    8.70    3.80
  -6   9  -1   12.20    3.90
   6   9   1    9.00    3.30
  -6   9  -1   11.10    4.60
  -6  -9   1   -1.00    4.90
  -6  -9   1    7.70    9.10
  -6  -9  -2  203.68   15.70
  -6  -9  -2  186.88   12.90
   6  -9   2  187.68   14.10
  -6  -9  -2  195.68   17.20
  -6   9   2  159.18   16.70
  -6   9   2  192.38   14.40
   6   9  -2  198.48   14.60
  -6   9   2  199.98   16.70
  -6   9   2  170.48   14.50
   6  -9  -2  173.88   14.20
   6   9   2  163.58   12.80
   6  -9  -2  184.58   15.80
  -6  -9   2  184.38   13.60
   6   9   2  196.28   12.60
  -6   9  -2  220.98   19.20
  -6   9  -2  184.68   15.40
  -6  -9   2  197.08   18.30
  -6  -9   2  188.18   13.90
  -6   9  -2  178.68   13.30
   6  -9  -2  188.98   15.50
   6  -9  -2  176.68   15.50
  -6   9  -2  219.08   15.30
   6   9   2  164.98   11.10
  -6  -9  -3   45.70    8.40
   6  -9   3   42.70    5.60
  -6  -9  -3   43.30    4.60
  -6  -9  -3   38.60    7.40
  -6  -9  -3   38.10   11.00
   6   9  -3   37.30    4.60
  -6   9   3   43.20    5.70
   6  -9   3   45.50    6.60
   6   9  -3   42.70    5.60
  -6   9   3   38.20    9.50
  -6   9   3   46.00    6.60
  -6   9   3   55.39    5.80
  -6   9  -3   50.29   12.50
  -6   9  -3   48.50    5.40
  -6  -9   3   36.00    4.70
  -6   9  -3   42.50    5.40
   6  -9  -3   37.00   10.60
   6  -9  -3   30.50    5.50
   6  -9  -3   45.70   10.60
  -6  -9   3   38.30    5.20
   6   9   3   38.60    8.30
  -6   9  -3   48.80    5.70
   6  -9  -3   42.10    6.20
  -6  -9  -4    7.40   10.00
  -6  -9  -4    8.60   11.50
   6   9  -4    4.60    5.90
   6   9  -4    9.00    6.00
  -6  -9  -4    2.70    8.60
   6  -9   4    0.20    3.10
  -6   9   4    6.40    4.80
  -6  -9  -4    4.80    2.60
  -6   9   4    9.40    6.70
   6  -9   4   14.50    6.00
   6  -9   4    5.50    5.20
  -6   9   4   -2.40    6.10
  -6   9   4   -0.10    9.60
   6  -9  -4   20.70    9.60
  -6  -9   4    4.40    5.20
  -6  -9   4   14.60    5.40
  -6   9  -4    7.60    4.50
   6   9   4   13.70    7.30
  -6  -9   4    0.80    6.90
  -6   9  -4   -0.90    4.40
   6  -9  -4   14.40    5.70
  -6   9  -4    8.90    5.60
  -6   9  -4   11.70   11.50
  -6   9   5   35.20    5.90
   6  -9   5   37.00    7.90
   6   9  -5   34.70    7.10
  -6  -9  -5   47.80    6.50
   6  -9   5   28.90    7.70
  -6   9   5   19.30    7.40
   6   9  -5   28.30    7.30
  -6  -9   5   43.50    6.90
   6  -9  -5   36.50    6.70
  -6  -9   5   30.90    7.50
  -6   9  -5   30.30    8.30
   6  -9  -5   41.80    7.50
   6   9  -6   24.60    9.40
   6   9  -6   23.30    8.70
  -6   9   6   14.30   10.20
   6  -9  -6   25.10    8.20
   6  -9  -6   21.50    9.20
  -6   9  -6   37.00    8.70
  -6  -9   6    2.80    8.20
  -6   9  -6   16.40    6.70
  -7  -9   0   -0.90    9.50
  -7   9   0    2.30    5.20
   7   9   0   19.40    6.40
  -7   9   0   10.10    4.60
   7  -9   0   13.40    5.20
   7   9   0   31.50   15.70
   7   9   0   12.70    4.60
  -7   9   0    7.20    5.90
   7  -9   0    7.60    6.00
  -7  -9   0   15.10    3.80
  -7  -9   0   10.70    4.20
   7  -9   0   11.10    5.70
   7  -9   1   47.80    6.60
   7  -9   1   28.20    6.10
   7   9  -1   38.50    6.30
   7   9  -1   39.60    6.00
  -7  -9  -1   25.50    5.40
  -7   9   1   50.09    6.70
  -7  -9  -1   44.10    9.80
  -7   9   1   32.60    5.70
   7  -9   1   27.30    6.30
  -7   9  -1   32.50    6.90
   7   9   1   13.00   12.60
   7   9   1   27.80    6.80
  -7   9  -1   35.60    5.60
  -7  -9   1   39.00    5.30
   7   9   1   38.30    5.80
  -7  -9   1   44.20    4.90
   7  -9  -1   45.10    6.70
   7  -9  -1   44.10    4.70
  -7  -9   1   59.19   13.70
  -7   9  -1   35.10    5.60
   7  -9  -1   39.70    8.20
  -7   9   2   35.10    5.80
  -7   9   2   26.80    5.80
   7  -9   2   49.10   10.50
   7   9  -2   36.80    5.70
  -7  -9  -2   35.90    5.10
   7   9  -2   37.00    7.50
  -7  -9  -2   25.60   11.20
  -7  -9  -2   34.20    9.10
   7  -9  -2   23.00    5.80
  -7  -9   2   35.10    5.90
  -7  -9   2   35.80    5.50
   7   9   2   40.10    4.40
   7   9   2   43.90    6.20
  -7   9  -2   42.40    5.70
   7  -9  -2   42.20    7.00
   7  -9  -2   32.20    9.30
  -7   9   3   24.30    7.50
   7   9  -3   19.70    6.90
   7  -9   3   31.20    6.70
  -7   9   3    6.30    6.80
   7  -9   3   24.30    6.80
  -7   9   3   15.10    6.10
   7   9  -3   22.90    6.30
  -7  -9  -3   20.20    4.50
  -7   9  -3   10.10    5.10
   7  -9  -3   12.10    7.00
  -7  -9   3   27.30    5.80
   7  -9  -3   24.10    6.60
  -7   9  -3   16.60    6.60
  -7   9  -3   21.00    6.30
  -7  -9   3   31.60    6.40
  -7  -9  -4    5.50    3.80
  -7   9   4    8.30    6.80
   7  -9   4   12.40    7.60
   7   9  -4   17.40    7.50
   7  -9   4   10.20    7.30
  -7   9   4   14.70    8.60
   7   9  -4    9.20    7.70
   7  -9  -4    9.60    7.70
  -7  -9   4   -7.50    9.70
  -7  -9   4    9.70    6.90
   7  -9  -4   22.20    6.90
  -7   9  -4    8.90    7.30
  -7   9  -4   14.30    6.50
  -7  -9   4   11.30    6.40
  -7   9  -4   -1.70    5.40
  -7   9   5   10.00    9.70
   7   9  -5    3.90    9.00
   7   9  -5   24.40    9.20
  -7   9   5    6.80   10.50
   7  -9   5   24.60    8.60
  -7  -9  -5   18.50   11.30
   7  -9  -5   19.70    8.00
  -7   9  -5   -2.20    6.20
  -7  -9   5   -8.10    8.10
   7  -9  -5   11.00   10.40
  -7   9  -5   11.90    8.80
  -7  -9   5   -1.80    8.60
   8   9   0   30.00    7.40
   8  -9   0   24.30    8.20
  -8   9   0   32.20    6.90
  -8  -9   0   26.80    6.00
  -8   9   0   16.70    8.10
   8  -9   0   36.90    7.60
   8   9   0   27.60    7.70
  -8   9   0   19.00    6.00
   8  -9   1   42.10    7.90
   8  -9   1   54.59    8.50
  -8   9   1   52.19    7.50
   8   9  -1   43.20    8.50
  -8  -9  -1   48.90    6.90
  -8   9   1   29.90    8.60
   8   9  -1   27.90    6.70
   8  -9  -1   49.20    8.10
   8   9   1   38.00    9.20
   8   9   1   35.00    7.20
  -8   9  -1   29.90    6.90
  -8  -9   1   29.30    7.30
  -8  -9   1   40.20    5.60
  -8   9  -1   55.69    9.10
  -8   9  -1   50.89    8.20
   8  -9  -1   52.59    8.70
   8  -9   2    6.60    7.70
   8   9  -2    1.20    8.00
  -8   9   2   18.00    7.80
   8  -9   2   21.30    7.60
  -8   9   2    4.20    7.00
   8   9  -2   12.10    7.00
  -8  -9  -2   11.50    5.20
  -8  -9   2    9.70    5.20
  -8  -9   2    0.40    6.70
   8  -9  -2   24.10    7.50
  -8   9  -2   17.90    7.40
  -8   9   3    8.50    8.20
  -8   9   3   29.60   10.20
   8   9  -3   10.60    9.00
  -8  -9  -3   18.60    5.20
   8  -9   3   40.50    9.10
  -8  -9  -3   33.00    8.90
   8   9  -3   17.90    8.80
  -8   9   3   19.80    8.30
   8  -9   3   14.40    8.50
  -8   9  -3    9.80    7.40
  -8  -9   3   23.90    7.10
   8  -9  -3   23.80    9.00
  -8  -9   3   11.10    7.80
  -8   9  -3   23.10    9.80
   8  -9  -3   26.80    7.90
  -8   9  -3   27.60    8.40
   8  -9   4    9.30    9.90
   8   9  -4   -0.70    9.80
   8  -9   4   14.70   13.40
  -8  -9  -4   -3.50    9.50
  -8   9   4   11.70    9.20
   8   9  -4   17.40    9.60
  -8   9   4    5.70   11.80
  -8   9  -4    3.90    7.30
  -8   9  -4    3.60   10.00
  -8  -9   4   -4.50    8.00
  -8  -9   4   -4.00    8.90
   8  -9  -4   19.30   10.80
   8  -9  -4    9.60    9.10
  -9   9   0  -11.50   11.70
   9   9   0    6.40   10.80
  -9   9   0    3.50    9.50
   9  -9   0    4.40    9.50
  -9  -9   0   -8.00    7.20
  -9  -9   0   -8.80    9.50
   9  -9   0    4.20   10.30
   9   9   0   13.80    8.80
   9  -9   1   12.00   11.00
   9   9  -1    3.70    9.50
  -9  -9  -1   -1.00    6.80
   9  -9   1   10.60    9.70
   9   9  -1   26.50   10.40
  -9   9   1    2.20    9.40
  -9  -9  -1   -1.30    9.60
   9  -9  -1    1.70    9.40
   9  -9  -1   10.60   10.70
  -9   9  -1  -12.20   10.60
  -9   9  -1    4.60    9.40
   9  -9   2    5.50   11.80
  -9   9   2   -5.80   12.70
  -9  -9  -2   -2.10   10.00
  -9   9   2  -12.40   10.30
   9   9  -2    0.70    9.60
   9   9  -2    3.20   11.00
   9  -9   2    3.80   10.30
   9  -9  -2   15.20   10.10
  -9   9  -2   23.90   16.20
   0 -10   0  335.27   20.10
   0 -10   0  322.87   22.00
   0 -10   0  322.47   20.80
   0  10   0  335.77   20.20
   0  10   0  328.57   20.40
   0  10   0  331.67   20.10
   0 -10   0  310.07   19.80
   0  10   0  359.76   21.90
   0  10   1   75.49    6.90
   0 -10   1   70.29    8.30
   0 -10  -1   63.09    7.20
   0 -10  -1   70.49    6.30
   0  10  -1   72.39    6.70
   0 -10   1   68.49    8.10
   0 -10   1   71.59    6.90
   0  10  -1   68.89    7.20
   0  10   1   75.99    7.00
   0 -10  -1   74.79    7.30
   0  10   1   72.49    5.80
   0  10  -1   79.29    9.70
   0  10   1   72.09    6.20
   0  10  -1   78.29    8.10
   0 -10  -1   77.29    7.40
   0 -10   1   69.49    8.50
   0 -10  -2  183.48   12.20
   0 -10   2  178.18   14.00
   0 -10  -2  169.58   11.00
   0 -10   2  179.88   13.10
   0  10  -2  158.88   12.40
   0 -10   2  175.28   12.60
   0 -10  -2  155.58   15.10
   0  10   2  181.58   11.60
   0  10  -2  144.69   15.10
   0  10  -2  153.38   13.00
   0 -10  -2  185.38   12.70
   0  10   2  161.18   11.30
   0 -10   2  177.68   14.80
   0 -10  -2  184.48   11.50
   0  10  -2  174.28   13.10
   0 -10  -3   11.10    2.80
   0  10  -3    5.80    4.20
   0  10   3   10.80    3.40
   0 -10  -3    6.60    7.20
   0  10  -3    6.40    8.00
   0 -10   3    6.70    5.80
   0 -10   3   14.80    5.90
   0  10  -3    7.00    6.70
   0 -10   3    6.50    3.70
   0 -10  -3   10.80    2.10
   0 -10  -3   11.90    3.30
   0 -10  -3   10.30    4.00
   0  10  -3    4.90    3.70
   0 -10  -3    7.40    5.90
   0 -10   3    9.20    6.30
   0  10  -4  721.93   44.10
   0 -10   4  735.23   45.40
   0 -10  -4  770.62   40.20
   0  10   4  643.64   38.80
   0 -10   4  722.43   42.50
   0 -10  -4  780.52   44.60
   0  10  -4  801.62   44.20
   0 -10   4  777.42   44.10
   0 -10   4  759.42   42.90
   0 -10  -4  709.13   39.20
   0  10  -4  701.63   42.90
   0 -10  -4  845.72   47.40
   0 -10  -4  687.13   39.00
   0  10   4  728.93   39.60
   0 -10   5  248.48   19.00
   0  10  -5  246.58   17.50
   0 -10   5  243.08   18.50
   0 -10  -5  262.97   15.20
   0 -10   5  250.47   17.00
   0  10  -5  257.77   19.80
   0 -10  -5  227.08   22.60
   0  10  -5  227.88   18.60
   0 -10  -5  259.77   15.10
   0 -10   5  246.68   18.90
   0  10   6   17.40    6.40
   0 -10  -6    4.80    3.60
   0 -10   6    1.10    4.30
   0 -10   6   14.40    8.10
   0 -10  -6   10.50    3.00
   0 -10   6    8.10    4.50
   0  10  -6   -0.50    8.60
   0  10  -6    7.90    4.10
   0 -10   6    7.90    4.30
   0 -10   7   45.60    6.50
   0  10  -7   61.79    7.70
   0 -10   7   45.60    7.40
   0  10  -7   58.59    6.90
   0 -10   8   16.30    9.10
   0  10  -8   17.80    7.50
  -1  10   0 2411.36  121.59
   1 -10   0 2186.38  121.19
   1 -10   0 2382.76  122.19
   1  10   0 2252.97  121.19
  -1  10   0 2178.98  120.89
   1 -10   0 2476.75  123.99
   1  10   0 2266.27  121.09
   1  10   0 2316.77  121.09
   1 -10   0 2373.86  121.09
   1  10   0 2525.95  122.79
  -1 -10   0 2383.26  122.09
  -1 -10   0 2007.70  122.79
   1 -10   0 2483.95  123.79
  -1  10   0 2287.77  121.79
  -1 -10   0 2092.09  120.69
   1 -10   1  213.98   15.40
   1  10  -1  156.68   14.90
   1  10  -1  184.38   13.30
  -1  10   1  184.58   12.40
  -1  10   1  174.68   12.00
  -1 -10  -1  183.48   12.20
  -1  10   1  190.58   12.80
  -1 -10  -1  168.08   13.20
  -1  10   1  195.38   12.10
   1  10  -1  163.38   12.40
   1 -10   1  196.18   13.50
   1  10  -1  173.98   13.10
   1 -10   1  176.98   13.10
   1 -10   1  178.88   13.80
   1 -10   1  174.48   12.60
  -1 -10  -1  163.18   11.50
  -1 -10  -1  191.38   13.20
   1  10   1  177.48   11.90
  -1  10  -1  175.98   13.40
   1  10   1  182.28   12.40
   1 -10  -1  206.88   15.30
  -1 -10   1  174.98   12.60
  -1  10  -1  186.98   13.70
   1 -10  -1  187.28   12.50
   1 -10  -1  181.18   13.70
  -1  10  -1  171.58   14.80
   1  10   1  189.68   11.30
  -1 -10   1  190.18   14.20
   1 -10  -1  169.18   13.20
   1 -10  -1  161.88   12.00
   1  10   1  168.18   12.80
  -1  10  -1  169.68   12.60
  -1 -10   1  164.98   14.00
  -1  10   2  380.06   24.10
  -1 -10  -2  363.86   24.10
   1 -10   2  408.66   25.90
  -1 -10  -2  403.36   22.80
  -1 -10  -2  433.86   23.80
   1  10  -2  338.07   27.20
   1 -10   2  404.46   24.70
   1  10  -2  421.36   24.90
   1  10  -2  440.86   25.60
  -1  10   2  382.46   22.10
  -1 -10  -2  405.26   22.70
   1 -10   2  385.56   26.60
   1 -10   2  431.86   23.60
   1  10  -2  385.76   25.60
   1 -10   2  400.46   24.50
  -1  10   2  411.86   23.60
  -1  10  -2  356.26   25.30
  -1  10  -2  435.56   27.90
  -1 -10   2  411.46   25.40
  -1  10  -2  364.16   24.30
   1 -10  -2  408.06   25.60
  -1  10  -2  434.36   25.70
   1 -10  -2  412.06   23.50
   1  10   2  405.36   22.90
  -1 -10   2  403.86   24.60
  -1 -10   2  395.36   25.20
   1  10   2  401.16   23.00
   1 -10  -2  426.16   27.30
   1 -10  -2  417.66   23.70
   1 -10  -2  416.86   25.20
  -1 -10   2  342.77   26.30
   1 -10  -2  443.06   24.50
  -1 -10   2  414.76   26.10
   1  10  -3  387.66   24.00
  -1 -10  -3  359.36   20.50
   1  10  -3  332.07   23.30
   1 -10   3  337.37   22.10
   1  10  -3  336.17   22.70
  -1  10   3  361.56   20.90
   1 -10   3  375.76   22.90
   1 -10   3  371.46   23.90
  -1 -10  -3  345.87   19.50
  -1 -10  -3  334.07   19.60
  -1 -10  -3  376.66   23.80
  -1 -10  -3  311.87   20.90
  -1  10   3  348.07   20.80
   1 -10   3  377.06   25.40
   1 -10  -3  333.17   20.60
  -1 -10   3  362.56   25.40
   1 -10  -3  371.26   24.00
  -1  10  -3  379.96   24.00
   1  10   3  348.57   19.60
   1 -10  -3  357.26   22.10
  -1  10  -3  348.27   23.70
  -1 -10   3  332.27   22.20
  -1 -10   3  343.57   22.90
   1 -10  -3  393.06   21.80
   1 -10  -3  371.56   26.10
   1 -10  -3  354.66   20.70
  -1  10  -3  345.17   22.60
  -1 -10   3  359.36   22.20
  -1  10  -3  303.97   25.30
  -1 -10   3  367.26   24.10
  -1 -10  -4  349.67   22.80
   1  10  -4  418.36   26.90
   1  10  -4  405.06   26.60
   1  10  -4  370.96   25.10
  -1 -10  -4  431.76   27.10
   1 -10   4  400.56   26.30
  -1 -10  -4  390.16   21.90
  -1  10   4  428.26   23.00
   1 -10   4  386.46   24.50
   1 -10   4  357.36   26.40
   1 -10  -4  421.06   29.00
   1 -10  -4  417.26   23.70
   1 -10  -4  396.26   22.50
  -1 -10   4  405.76   25.20
  -1 -10   4  372.66   23.30
   1 -10  -4  363.76   22.50
  -1  10  -4  376.06   25.00
   1 -10  -4  398.86   23.60
  -1  10  -4  318.27   28.90
  -1 -10   4  397.46   26.60
  -1  10  -4  382.06   26.20
  -1  10  -4  447.56   26.90
  -1 -10   4  440.26   27.70
  -1 -10  -5  386.76   21.10
   1 -10   5  374.56   24.00
  -1  10   5  404.16   21.90
   1 -10   5  420.26   26.30
  -1  10   5  376.06   21.60
   1 -10   5  395.86   26.00
   1  10  -5  371.76   25.00
   1  10  -5  423.06   27.30
  -1 -10  -5  362.26   27.80
   1 -10   5  395.46   26.40
  -1 -10  -5  343.97   21.80
   1  10  -5  397.46   26.50
   1 -10  -5  366.16   22.00
  -1  10  -5  434.86   27.30
   1 -10  -5  395.86   23.10
   1 -10  -5  377.16   21.70
  -1 -10   5  405.86   26.40
  -1 -10   5  405.36   24.80
  -1 -10   5  365.76   26.30
  -1 -10   5  381.46   26.50
  -1  10  -5  389.16   24.90
  -1  10  -5  369.96   26.00
   1  10  -6   21.10    9.50
   1  10  -6   21.60    5.10
   1 -10   6   12.30    4.30
   1 -10   6   24.30    7.90
   1  10  -6   11.80    5.00
   1 -10   6   11.70    4.80
   1 -10  -6   23.80    4.00
  -1 -10   6   16.60    4.70
  -1  10  -6   11.30    8.50
  -1 -10   6   18.80    9.00
  -1 -10   6   19.90    4.70
  -1  10  -6   23.40    4.60
  -1  10  -6   17.40    4.90
   1 -10  -6   22.30    2.30
   1 -10  -6   19.50    2.30
   1 -10   7    7.20    5.20
   1 -10   7   11.50    5.60
   1  10  -7   12.90    5.80
   1 -10   7    7.70    6.10
   1  10  -7    1.60    6.60
  -1  10   7    3.50    7.90
  -1 -10   7    8.50    5.80
   1 -10  -7    4.90    4.70
  -1  10  -7    7.00    6.20
  -1 -10   7    9.00    7.50
  -1 -10   7   -5.30    6.20
  -1  10  -7    0.60    5.90
  -1  10   8    6.20   11.20
   1 -10   8   -1.40    8.90
   1  10  -8   24.30    9.50
  -1  10  -8    9.90    7.40
  -1  10  -8   22.50    8.80
  -1 -10   8    7.20    9.00
   2  10   0  165.68   13.90
   2 -10   0  158.58   16.30
   2 -10   0  149.09   11.60
   2 -10   0  165.38   13.20
  -2  10   0  161.18   12.70
  -2 -10   0  145.39   11.10
   2  10   0  161.28   12.10
   2  10   0  153.28   11.30
  -2 -10   0  158.28   12.30
  -2  10   0  144.79   13.20
  -2 -10   0  181.98   15.50
  -2 -10   0  171.08   13.10
   2 -10   0  167.18   13.70
  -2  10   0  161.08   12.20
   2  10   0  161.88   11.40
   2 -10   0  157.08   13.00
  -2  10   0  167.68   11.60
  -2  10   1  264.57   16.60
   2 -10   1  261.47   19.10
  -2  10   1  265.67   16.90
  -2 -10  -1  258.17   15.80
  -2 -10  -1  226.68   18.60
  -2 -10  -1  231.58   20.10
   2 -10   1  244.78   16.80
  -2  10   1  261.97   17.10
   2  10  -1  270.37   17.60
  -2 -10  -1  255.67   16.20
   2  10  -1  240.78   17.20
   2  10  -1  210.28   19.10
   2 -10   1  263.87   17.30
  -2  10   1  260.77   16.20
   2  10  -1  241.38   16.60
   2 -10   1  252.17   18.00
   2  10   1  274.37   16.40
   2 -10  -1  257.17   16.70
   2  10   1  222.58   18.10
   2 -10  -1  271.97   19.10
  -2  10  -1  255.77   16.70
  -2  10  -1  226.38   18.70
   2  10   1  268.07   16.10
  -2  10  -1  265.07   18.10
  -2 -10   1  255.87   18.50
   2 -10  -1  272.17   17.30
   2 -10  -1  272.07   17.70
  -2  10  -1  272.97   18.20
   2 -10  -1  266.67   18.50
  -2 -10   1  236.38   16.60
   2  10   1  252.97   15.10
   2  10  -2  407.36   26.00
  -2  10   2  417.56   24.00
  -2 -10  -2  444.46   24.40
  -2  10   2  421.56   23.60
   2  10  -2  423.16   25.90
  -2  10   2  420.86   24.60
   2 -10   2  405.86   26.20
   2 -10   2  403.16   25.00
  -2 -10  -2  392.06   23.10
  -2  10   2  389.16   23.60
   2  10  -2  385.96   25.00
   2 -10   2  435.46   28.50
  -2 -10  -2  408.56   23.00
   2 -10   2  401.96   25.10
   2 -10  -2  427.76   25.50
  -2 -10   2  397.56   24.90
   2 -10  -2  408.36   26.00
  -2 -10   2  411.46   25.90
  -2  10  -2  375.96   26.30
   2 -10  -2  398.76   24.20
   2  10   2  414.36   23.20
   2  10   2  393.66   23.40
   2 -10  -2  398.56   27.40
  -2 -10   2  368.96   27.00
  -2 -10   2  422.46   26.70
   2 -10  -2  410.86   24.50
   2 -10  -2  392.06   25.90
  -2  10  -2  380.36   27.70
  -2  10  -2  447.66   26.60
  -2 -10  -3   55.19    5.00
   2 -10   3   60.89    6.40
   2  10  -3   34.40   12.10
   2 -10   3   58.49    8.60
  -2  10   3   67.89    5.70
  -2 -10  -3   58.69    6.40
   2  10  -3   53.39    7.70
   2 -10   3   58.89    8.70
   2 -10   3   59.89    8.30
  -2  10   3   64.29    7.70
  -2 -10  -3   51.99    8.50
  -2 -10  -3   57.59    4.40
   2  10  -3   62.89   10.00
   2  10  -3   47.80    6.80
   2  10   3   52.89    5.20
  -2  10  -3   67.39    7.30
   2 -10  -3   51.69    9.10
  -2 -10   3   61.39    9.40
   2 -10  -3   54.79    7.30
  -2  10  -3   64.19    7.90
  -2 -10   3   59.99    8.50
   2 -10  -3   62.09    6.60
   2 -10  -3   65.09   10.40
  -2 -10   3   61.59    9.60
   2 -10  -3   52.79    6.10
  -2 -10   3   54.19    7.30
  -2  10  -3   65.39   10.60
   2 -10  -3   65.49    8.40
  -2  10  -3   53.89   11.70
  -2 -10  -4  137.69   13.90
   2 -10   4  138.49   11.00
  -2  10   4  145.69   11.30
  -2  10   4  130.99   11.10
   2  10  -4  140.29   12.80
   2  10  -4  151.88   15.20
   2 -10   4  145.29   13.40
  -2 -10  -4  144.09    9.50
   2 -10   4  128.09   12.60
   2  10  -4  137.89   12.00
  -2 -10   4  158.58   14.20
  -2 -10   4  135.69   14.20
  -2  10  -4  134.79   17.10
  -2  10  -4  156.68   14.50
   2 -10  -4  144.99   11.00
   2 -10  -4  142.79   11.20
  -2  10  -4  139.09   11.70
   2 -10  -4  122.19   15.50
  -2 -10   4  146.49   12.00
  -2  10  -4  138.19   12.60
   2 -10  -4  132.49   10.40
   2 -10  -4  144.59   11.90
  -2 -10   4  144.09   13.10
   2 -10   5  248.88   18.80
  -2 -10  -5  247.48   14.00
  -2  10   5  237.78   16.20
   2  10  -5  231.38   18.80
   2  10  -5  247.38   22.90
  -2  10   5  254.17   16.40
   2 -10   5  261.47   18.50
  -2 -10  -5  240.28   20.00
   2 -10   5  268.97   18.80
   2  10  -5  262.77   20.10
   2 -10   5  237.08   16.30
  -2  10  -5  258.77   19.80
   2 -10  -5  285.17   16.90
  -2 -10   5  243.08   20.70
  -2 -10   5  236.48   17.10
   2 -10  -5  272.67   18.00
  -2  10  -5  199.88   18.80
  -2 -10   5  229.78   20.10
  -2  10  -5  246.78   18.30
   2 -10  -5  243.08   15.40
   2 -10  -5  230.58   16.00
   2  10  -6   74.19   13.30
   2  10  -6   61.99    6.40
  -2  10   6   64.09    7.60
   2 -10   6   62.79   10.20
   2 -10   6   72.09    6.50
   2 -10   6   54.69    6.20
   2  10  -6   58.49    6.30
  -2  10   6   52.89    7.70
  -2 -10   6   57.99    6.80
  -2  10  -6   67.99    6.10
  -2  10  -6   58.29   11.20
  -2  10  -6   65.19    6.40
   2 -10  -6   66.59    5.40
  -2 -10   6   62.99    6.20
   2 -10   7   59.59    7.10
   2  10  -7   63.19    7.80
   2  10  -7   72.19    7.50
   2 -10   7   54.59    7.80
   2 -10   7   78.19    7.20
  -2  10  -7   55.19    7.50
  -2 -10   7   67.69    8.90
   2 -10  -7   70.09    7.60
  -2 -10   7   52.19    8.00
  -2  10  -7   83.89    7.00
   2 -10  -7   77.19    5.40
   2  10  -8   -7.90    9.60
   2 -10   8   -9.30    8.90
   2  10  -8    8.60    9.50
  -2  10   8   -1.50   12.50
  -2  10  -8    8.30    9.90
  -2  10  -8    2.90    8.20
  -2 -10   8   -1.20    9.10
  -3 -10   0  142.99   12.70
   3 -10   0  134.09   13.20
   3  10   0  150.58   11.10
  -3 -10   0  133.89   11.00
  -3 -10   0  150.38   12.30
   3 -10   0  142.99   12.90
  -3  10   0  162.98   13.30
  -3  10   0  148.99   11.40
  -3  10   0  157.48   13.00
   3 -10   0  160.88   12.60
   3  10   0  154.68   12.00
  -3  10   0  144.79   12.00
   3 -10   0  129.69   11.30
   3  10   0  146.09   10.90
  -3 -10   0  157.48   13.10
  -3 -10  -1  490.95   27.90
  -3 -10  -1  490.15   28.90
  -3  10   1  452.65   28.50
   3 -10   1  502.25   29.00
   3  10  -1  480.65   28.60
   3 -10   1  472.95   28.80
   3  10  -1  469.25   28.70
  -3 -10  -1  522.25   33.70
   3 -10   1  465.65   30.00
  -3 -10  -1  463.65   27.30
  -3  10   1  472.85   28.70
   3 -10   1  496.05   31.30
   3  10  -1  451.55   28.80
  -3  10   1  466.85   28.60
  -3  10   1  478.75   28.10
  -3  10  -1  436.36   29.70
   3  10   1  449.36   26.40
   3  10   1  494.85   27.80
   3  10   1  474.75   27.90
  -3 -10   1  498.75   30.20
   3 -10  -1  449.06   30.40
   3  10   1  488.35   27.60
   3 -10  -1  488.45   29.60
  -3  10  -1  396.96   30.00
   3 -10  -1  475.85   28.50
  -3 -10   1  468.85   30.60
  -3 -10   1  440.86   28.20
   3 -10  -1  430.56   28.30
  -3 -10   1  487.35   29.20
  -3  10  -1  476.45   28.40
  -3  10  -1  512.95   29.90
   3 -10   2  564.44   33.30
   3  10  -2  469.25   29.80
  -3  10   2  479.85   29.50
   3 -10   2  492.95   29.80
   3  10  -2  485.15   29.90
  -3  10   2  522.25   28.90
  -3 -10  -2  514.35   29.20
  -3 -10  -2  479.65   27.50
  -3 -10  -2  436.66   33.10
   3 -10   2  475.75   29.60
   3 -10   2  495.35   31.00
  -3 -10  -2  480.65   28.00
  -3  10   2  484.65   28.70
   3  10  -2  462.95   30.50
  -3 -10   2  435.46   31.30
   3 -10  -2  517.55   30.50
   3  10   2  524.15   27.90
  -3  10  -2  460.85   30.90
  -3  10  -2  548.85   31.50
  -3 -10   2  504.95   29.90
  -3  10  -2  487.85   29.50
  -3  10  -2  423.96   31.90
   3  10   2  460.75   27.90
   3 -10  -2  488.65   31.20
   3 -10  -2  491.55   30.50
   3 -10  -2  513.95   29.30
  -3 -10   2  506.95   31.60
   3 -10  -2  464.25   29.30
  -3 -10   2  501.55   30.30
   3 -10   3  163.48   14.60
  -3  10   3  161.28   10.70
  -3  10   3  169.48   11.50
   3  10  -3  177.98   14.40
   3  10  -3  163.48   13.20
   3 -10   3  184.08   15.00
  -3  10   3  178.78   13.90
   3 -10   3  158.38   12.50
  -3  10   3  171.78   11.90
  -3 -10  -3  186.08   12.50
  -3 -10  -3  155.38   10.00
   3 -10   3  139.59   13.20
   3  10  -3  156.88   13.70
  -3 -10  -3  169.28   14.00
  -3 -10   3  160.48   12.80
  -3  10  -3  151.98   13.70
   3 -10  -3  160.48   12.80
   3 -10  -3  152.88   14.50
   3 -10  -3  178.78   14.90
   3 -10  -3  156.88   13.40
  -3 -10   3  165.18   15.60
  -3 -10   3  162.38   15.20
   3  10   3  160.68   10.60
  -3  10  -3  133.59   15.90
  -3  10  -3  184.38   16.00
   3 -10  -3  159.08   12.40
  -3 -10   3  179.78   14.80
   3  10   3  162.78   10.40
  -3 -10  -4  530.85   31.70
  -3  10   4  500.95   30.20
  -3  10   4  542.95   29.20
  -3 -10  -4  523.65   28.50
   3  10  -4  472.35   32.30
   3 -10   4  474.15   29.80
   3  10  -4  451.45   30.90
   3  10  -4  552.94   33.10
   3 -10   4  524.45   32.10
   3 -10   4  494.85   32.40
   3 -10  -4  498.05   29.80
  -3 -10   4  490.75   30.70
  -3  10  -4  461.45   31.90
  -3  10  -4  500.45   40.90
  -3 -10   4  481.15   33.20
  -3  10  -4  462.05   30.30
  -3 -10   4  413.86   31.60
  -3 -10   4  472.65   32.90
   3 -10  -4  546.95   31.50
   3 -10  -4  530.75   31.40
  -3  10  -4  543.85   32.50
   3 -10  -4  473.45   29.50
   3 -10   5   38.90    5.70
   3  10  -5   34.20    5.40
  -3  10   5   46.60    5.00
  -3 -10  -5   44.40    5.30
   3  10  -5   45.30   11.90
  -3 -10  -5   45.60    9.70
   3 -10   5   46.60    9.00
   3 -10   5   50.89    5.50
   3 -10  -5   44.50    4.80
  -3 -10   5   30.00    5.30
  -3 -10   5   40.90    5.30
  -3  10  -5   45.50    5.00
   3 -10  -5   50.79    5.80
  -3  10  -5   39.90   10.50
  -3  10  -5   38.40    5.80
   3 -10  -5   32.30    8.30
   3 -10  -5   44.00    7.60
   3 -10   6   47.40   12.80
   3 -10   6   50.89    6.10
   3 -10   6   48.90    6.40
   3  10  -6   35.40    6.00
   3  10  -6   52.59    6.30
  -3  10   6   35.90   10.70
   3 -10   6   29.30    8.40
  -3 -10   6   47.60    6.60
  -3 -10   6   45.60    6.20
  -3  10  -6   66.39   16.90
  -3  10  -6   40.90    5.50
  -3  10  -6   46.10    7.00
   3 -10  -6   51.09    5.20
   3 -10  -6   48.80    6.10
   3 -10   7   -3.00    6.50
   3  10  -7   16.30    7.70
  -3  10   7   -1.10   10.00
   3  10  -7    3.50    8.00
   3 -10  -7    2.20    6.80
  -3  10  -7    2.60    6.50
  -3 -10   7   -8.60    9.50
  -3 -10   7   -4.40    7.10
   3 -10  -7    9.80    4.50
  -3 -10   7    5.50    8.00
  -3  10  -7    7.70    7.30
  -4 -10   0  318.77   20.40
   4  10   0  313.77   20.20
  -4 -10   0  309.27   21.80
  -4 -10   0  328.97   22.50
   4 -10   0  298.17   23.00
   4 -10   0  302.77   20.90
  -4  10   0  308.47   22.10
   4  10   0  314.27   20.80
  -4  10   0  316.77   22.30
  -4  10   0  329.67   22.50
   4 -10   0  301.27   22.20
   4  10   0  306.37   20.20
  -4  10   0  303.77   21.70
  -4  10   0  300.17   20.50
   4 -10   0  328.77   21.60
  -4 -10   0  335.97   22.50
  -4  10   1  351.86   23.90
   4 -10   1  346.37   26.00
  -4 -10  -1  372.76   24.10
  -4  10   1  344.37   25.30
  -4 -10  -1  364.16   24.40
   4  10  -1  348.37   23.00
  -4 -10  -1  363.96   22.70
  -4  10   1  351.16   23.60
   4 -10   1  346.87   23.40
   4 -10   1  357.56   23.70
  -4  10   1  360.26   23.80
  -4  10   1  343.77   22.50
   4 -10   1  355.86   24.90
  -4 -10  -1  352.26   21.90
   4  10  -1  371.76   23.90
   4  10  -1  369.56   23.80
   4 -10  -1  379.16   23.80
   4  10   1  364.86   21.20
  -4 -10   1  366.76   24.10
   4 -10  -1  338.87   23.10
   4  10   1  371.46   22.70
  -4 -10   1  367.46   24.90
   4  10   1  349.57   21.90
   4 -10  -1  378.86   24.90
  -4 -10   1  327.57   22.60
  -4 -10   1  360.76   25.10
   4 -10  -1  376.96   23.70
   4 -10  -1  327.87   25.10
  -4  10  -1  348.27   25.30
  -4  10  -1  348.77   23.10
  -4  10  -1  388.56   25.00
  -4  10  -1  356.96   24.60
   4  10   1  331.47   23.20
  -4  10  -1  390.16   24.30
   4 -10   2  220.28   16.60
  -4 -10  -2  240.98   16.10
   4 -10   2  222.28   18.60
   4  10  -2  232.38   17.10
   4  10  -2  212.98   17.30
  -4  10   2  226.98   16.10
   4 -10   2  240.48   17.50
  -4 -10  -2  251.77   17.60
   4  10  -2  238.48   18.20
  -4 -10  -2  232.48   14.90
  -4  10   2  247.38   16.20
   4 -10   2  242.48   18.80
  -4 -10  -2  258.77   17.00
  -4 -10  -2  217.28   21.80
  -4  10   2  223.88   16.90
  -4 -10   2  223.38   18.20
  -4  10  -2  225.88   16.40
  -4  10  -2  257.37   19.60
   4  10   2  227.18   16.20
  -4  10  -2  228.58   18.10
   4 -10  -2  253.87   17.90
   4 -10  -2  239.28   18.60
   4  10   2  235.28   15.70
  -4 -10   2  236.48   16.90
   4 -10  -2  209.78   17.90
   4 -10  -2  236.88   17.30
  -4 -10   2  223.38   18.70
   4 -10  -2  211.58   16.30
  -4  10   3 1492.05   85.09
   4  10  -3 1457.75   79.09
   4  10  -3 1412.46   78.79
  -4 -10  -3 1336.47   74.99
  -4 -10  -3 1399.16   74.59
   4 -10   3 1477.25   80.89
  -4  10   3 1457.55   76.59
  -4 -10  -3 1443.26   77.39
   4  10  -3 1319.97   79.49
  -4 -10  -3 1563.54   77.39
   4 -10   3 1342.07   77.59
   4 -10   3 1456.95   79.39
  -4  10   3 1352.66   76.49
  -4 -10  -3 1592.14   77.69
  -4  10   3 1500.05   77.29
   4 -10  -3 1355.86   77.59
   4 -10  -3 1417.86   78.89
  -4 -10   3 1399.96   78.19
   4  10   3 1353.96   76.39
   4 -10  -3 1239.18   79.19
  -4 -10   3 1432.76   79.19
  -4  10  -3 1294.97   79.49
  -4  10  -3 1499.45   79.49
  -4  10  -3 1316.47   77.39
   4 -10  -3 1463.55   79.29
   4  10   3 1455.05   74.69
   4 -10  -3 1409.26   77.29
  -4 -10  -4   12.90    1.50
   4 -10   4   14.80    8.70
  -4  10   4    4.20    5.20
   4 -10   4   18.40    4.40
  -4 -10  -4   20.70    6.80
   4 -10   4    7.40    3.70
  -4  10   4   12.20    2.60
  -4 -10  -4   14.20    6.10
  -4  10   4   21.10    3.60
   4  10  -4   14.40    5.60
   4  10  -4   18.70    4.20
  -4 -10  -4    8.50    3.20
  -4  10   4   11.40    4.20
  -4 -10  -4   14.80    1.50
   4 -10  -4   17.70    4.80
   4 -10  -4   19.60    5.50
  -4 -10   4   11.50    7.80
   4 -10  -4    8.80    6.10
  -4  10  -4    5.90    6.40
   4 -10  -4   15.70    8.50
  -4 -10   4   10.60    4.40
  -4 -10   4    7.20    3.60
  -4  10  -4   18.20    9.00
   4 -10   5   27.50    5.00
   4 -10   5   32.00    5.90
  -4 -10  -5   22.10    5.70
   4 -10   5   24.80    9.60
  -4  10   5   27.90    5.10
  -4 -10  -5   34.30    9.70
   4  10  -5   32.60    5.70
   4  10  -5   36.00    5.50
   4 -10   5   28.00    5.70
  -4  10  -5   30.60    9.70
  -4 -10   5   17.90    6.60
  -4  10  -5   36.00    5.10
  -4 -10   5   36.60    5.40
   4 -10  -5   26.60    5.10
   4 -10  -5   26.20    5.10
  -4 -10   5   29.20    5.80
   4 -10  -5   24.60    7.00
   4 -10   6   20.50    6.40
   4  10  -6   19.30    6.70
   4 -10   6    6.30    5.20
   4 -10   6   13.80    5.40
  -4 -10   6   18.40    6.10
  -4  10  -6   24.00    6.30
  -4  10  -6   13.50    5.20
  -4 -10   6    9.10    6.20
   4 -10  -6   26.30    7.20
  -4  10   7   -0.30   10.60
   4  10  -7   -4.10    7.90
   4  10  -7    2.40    8.40
   4 -10   7   -4.40    7.30
  -4  10  -7    7.20    7.10
  -4 -10   7   -9.20   10.10
  -4 -10   7    5.20    7.90
   4 -10  -7    8.50    5.80
  -4 -10   7    3.50    9.30
  -4  10  -7   -2.80    8.70
   4 -10  -7   11.90    8.10
  -5  10   0  256.27   18.10
   5  10   0  268.97   18.00
   5 -10   0  243.38   19.50
   5 -10   0  244.18   18.40
   5 -10   0  214.18   20.00
  -5 -10   0  255.07   19.70
  -5  10   0  259.57   20.20
  -5 -10   0  271.77   20.80
   5  10   0  288.77   17.60
  -5  10   0  267.37   20.50
  -5  10   0  272.87   21.50
  -5  10   0  238.98   19.10
   5 -10   0  276.87   18.30
  -5 -10   0  274.77   19.60
  -5 -10   0  265.57   17.90
   5 -10   1  514.35   34.30
   5  10  -1  573.34   34.60
  -5 -10  -1  592.24   33.50
  -5  10   1  569.24   36.20
  -5 -10  -1  617.54   36.70
  -5 -10  -1  626.94   36.70
  -5 -10  -1  566.34   34.50
   5 -10   1  560.34   34.90
   5 -10   1  515.55   36.90
  -5  10   1  577.74   35.60
  -5  10   1  558.24   35.40
  -5  10   1  597.44   37.80
  -5  10   1  578.34   34.40
   5  10  -1  564.44   35.00
   5 -10  -1  557.94   37.60
  -5 -10   1  481.85   35.90
  -5  10  -1  530.75   34.20
   5 -10  -1  569.04   34.60
  -5  10  -1  602.64   36.30
   5  10   1  581.24   32.60
   5 -10  -1  642.94   34.70
   5  10   1  612.84   34.40
   5  10   1  589.04   33.30
  -5  10  -1  597.94   36.80
  -5  10  -1  568.44   36.30
  -5 -10   1  589.64   35.70
  -5 -10   1  555.14   34.30
   5 -10  -1  549.65   34.90
   5 -10  -1  476.05   35.90
  -5 -10   1  547.45   36.80
   5  10  -2  687.63   43.00
  -5  10   2  695.63   42.00
   5 -10   2  668.63   41.70
  -5 -10  -2  697.13   39.70
  -5  10   2  757.92   41.70
   5 -10   2  680.23   44.20
  -5  10   2  712.43   42.00
  -5 -10  -2  713.83   42.90
   5  10  -2  719.33   42.20
  -5  10   2  672.43   45.10
  -5 -10  -2  766.62   42.90
  -5 -10  -2  716.73   40.90
  -5 -10   2  713.93   41.90
  -5  10  -2  684.93   41.50
  -5  10  -2  630.44   43.10
  -5  10  -2  763.12   44.10
   5 -10  -2  680.63   41.90
  -5 -10   2  723.43   43.40
   5 -10  -2  724.93   42.10
   5 -10  -2  613.84   43.50
   5 -10  -2  716.83   42.10
  -5  10  -2  751.22   42.30
   5  10   2  771.22   40.60
   5  10   2  682.63   40.10
  -5 -10  -3   11.30    5.80
  -5  10   3   -0.70    6.00
  -5  10   3    4.70    3.80
  -5 -10  -3    5.70    2.50
   5  10  -3    3.00    4.40
  -5  10   3   12.70    5.20
   5 -10   3   14.90    4.60
  -5 -10  -3   13.90    5.50
  -5  10   3    6.40    3.70
  -5 -10  -3    9.70    4.10
   5 -10   3    2.80    4.00
  -5 -10  -3    7.30    7.20
  -5  10  -3    7.60    3.40
  -5  10  -3    6.10    3.50
   5 -10  -3   -2.50    4.60
  -5  10  -3    8.30    4.30
  -5  10  -3    0.90    8.70
   5 -10  -3   10.30    7.80
  -5 -10   3   14.90    4.10
   5  10   3    8.80    4.90
   5 -10  -3    4.70    7.40
   5 -10  -3    4.90    3.70
  -5 -10   3    7.00    4.80
   5  10   3    2.80    4.60
   5 -10   4   36.10    6.20
  -5 -10  -4   15.80    4.70
   5 -10   4   30.90    5.10
  -5 -10  -4   31.50    7.60
  -5  10   4   35.00    4.30
   5  10  -4   30.90    5.10
  -5 -10  -4   24.20    2.90
   5  10  -4   21.70    5.70
  -5  10   4   24.10    6.80
  -5  10   4   28.30    5.80
  -5 -10  -4   20.00    7.80
   5  10   4   28.20    3.80
  -5 -10   4   29.60    5.30
   5 -10  -4   33.50    5.70
  -5  10  -4   31.80   10.60
   5 -10  -4   28.90    8.00
   5 -10  -4   33.00    7.40
  -5  10  -4   23.10    4.40
   5  10   4   21.20    4.10
  -5 -10   4   19.30    4.90
  -5  10  -4   15.20    4.90
   5  10  -5   37.10    6.40
   5  10  -5   51.19    6.90
   5 -10   5   46.90    7.00
   5 -10   5   33.50    5.40
   5 -10   5   33.80    7.80
  -5  10   5   34.80    7.00
   5 -10  -5   49.60    5.70
  -5 -10   5   48.10    6.60
  -5  10  -5   45.40   22.60
   5 -10  -5   40.40    7.60
  -5 -10   5   32.20    7.20
  -5  10  -5   41.00    7.20
   5 -10   6   22.30    6.40
   5  10  -6   20.90    7.60
   5 -10   6   20.40    7.40
   5  10  -6   12.00    7.90
  -5  10   6    0.90    9.60
  -5 -10   6   25.10    7.30
   5 -10  -6   29.90    7.50
  -5  10  -6   31.70    7.40
  -5  10  -6   14.30    6.00
   5 -10  -6   18.70    7.20
  -5 -10   6   11.50    7.10
  -5  10   7   -9.50   13.00
  -5  10  -7    8.30   10.40
   5 -10  -7   10.80    8.00
   5 -10  -7   20.40   10.00
  -5 -10   7    6.00    9.80
  -5 -10   7  -10.30    9.00
  -5  10  -7   14.30    8.10
   6 -10   0  119.09   11.80
  -6  10   0  133.49   13.20
  -6 -10   0  128.69   10.70
  -6  10   0  128.49   12.80
   6 -10   0  127.09   11.10
   6  10   0  127.19   10.70
   6  10   0  142.09   10.60
  -6  10   0  127.79   10.70
   6 -10   0  126.09   11.90
  -6 -10   0  157.08   14.80
   6 -10   1  304.77   18.30
  -6 -10  -1  256.97   19.10
  -6  10   1  264.77   18.60
  -6 -10  -1  279.37   20.20
  -6  10   1  275.47   21.70
   6 -10   1  271.77   18.60
   6 -10   1  227.08   20.10
  -6  10   1  255.87   19.90
   6  10  -1  267.37   19.00
   6  10  -1  267.27   18.30
  -6  10  -1  298.27   20.50
   6 -10  -1  294.17   19.40
   6  10   1  259.37   17.40
  -6 -10   1  283.37   21.80
   6 -10  -1  251.47   20.50
  -6  10  -1  301.87   21.00
   6 -10  -1  254.57   18.70
  -6  10  -1  285.47   19.50
   6 -10  -1  258.67   22.40
   6  10   1  296.37   18.20
  -6 -10   1  264.37   19.00
  -6  10   2   88.29    7.90
   6  10  -2   94.99    8.80
   6 -10   2   79.79    7.40
  -6  10   2   88.39    7.50
   6  10  -2   84.09    7.70
  -6 -10  -2   82.29    8.70
  -6 -10  -2   77.29   10.50
  -6  10   2   85.69    9.30
  -6 -10  -2   93.19   13.00
   6 -10   2   77.69    7.70
   6  10   2   78.59    6.90
   6 -10  -2   62.29    8.00
   6  10   2   72.59    7.30
  -6 -10   2   72.89    7.30
  -6 -10   2   75.39    7.10
  -6 -10   2   85.79   15.50
  -6  10  -2   85.29    8.80
   6 -10  -2   80.59    7.50
  -6  10  -2   76.69    7.90
   6 -10  -2   75.99   12.70
  -6  10  -2   84.99    7.50
   6 -10  -2   84.49   10.20
  -6 -10  -3   12.80    3.40
   6  10  -3   11.60    5.20
  -6 -10  -3   18.00   10.30
   6 -10   3   21.90    5.90
  -6  10   3    9.40    8.20
  -6 -10  -3    3.50    6.70
  -6 -10  -3   19.80    5.60
  -6  10   3    9.90    4.80
  -6  10   3   19.40    5.30
   6 -10   3   17.20    5.00
  -6  10   3   19.40    6.30
   6 -10  -3    9.80    4.90
   6  10   3   14.10    6.70
  -6 -10   3    7.80    4.80
   6 -10  -3   11.70    6.10
   6 -10  -3   27.50   10.00
  -6  10  -3   19.50    4.60
  -6 -10   3   19.10    5.20
  -6  10  -3   11.00    4.20
  -6  10  -3   19.60   13.50
  -6 -10   3    8.70    6.20
  -6 -10  -4    2.10   12.20
   6 -10   4   30.20    6.20
   6 -10   4   24.50    6.70
  -6 -10  -4    3.40    6.00
   6  10  -4   21.00    6.30
  -6 -10  -4   14.40    2.90
  -6  10   4   18.40    5.20
   6 -10   4   14.10    3.70
   6  10  -4   18.30    6.30
  -6  10   4   15.30    5.90
  -6  10  -4   23.00    6.00
  -6 -10   4   23.40    6.30
  -6  10  -4    1.50   28.20
  -6 -10   4   16.70    5.30
  -6  10  -4   15.70    5.20
   6 -10  -4   30.10    7.90
   6  10   4   23.70   10.80
   6 -10  -4   22.80    6.00
  -6 -10  -5  102.99    8.40
   6 -10   5   88.59    8.30
  -6  10   5   74.69    8.70
   6  10  -5   78.29    9.30
   6  10  -5   83.59    8.70
   6 -10   5   86.09    9.20
   6 -10  -5   81.59    9.20
   6 -10  -5   92.99   10.20
  -6 -10   5   85.59    9.40
  -6  10  -5   67.19    8.60
   6  10  -6    9.50    9.40
  -6  10   6    5.60   12.00
   6  10  -6   16.40    9.60
  -6  10  -6   -2.30    7.10
   6 -10  -6    7.50    7.60
   6 -10  -6    8.00    8.90
  -6  10  -6    6.40    9.70
   7 -10   0    5.10    6.50
  -7 -10   0   -8.30   10.20
   7 -10   0    6.40    5.50
   7  10   0    7.80    4.90
  -7  10   0    9.10    5.50
  -7  10   0   -6.70    6.70
   7  10   0    5.10   16.30
   7 -10   0    6.90    7.20
   7  10   0    5.60    5.40
  -7  10   0    4.00    4.90
  -7 -10  -1   51.39    5.40
  -7  10   1   61.19    7.10
  -7  10   1   55.39    7.40
  -7 -10  -1   30.00   16.60
   7  10  -1   61.39    7.20
   7  10  -1   50.89    5.80
   7 -10   1   58.79    7.40
  -7  10   1   52.39    6.50
   7 -10   1   44.90    6.90
   7  10   1   50.99    6.30
   7 -10  -1   52.09   10.70
  -7  10  -1   62.89    6.90
  -7 -10   1   56.79    5.50
   7  10   1   21.70   16.00
  -7  10  -1   56.19    6.70
   7  10   1   62.99    6.20
  -7 -10   1   58.49   15.70
   7 -10  -1   56.99    5.50
  -7  10  -1   59.09    6.50
   7 -10  -1   56.29    7.70
   7  10  -2   25.00    6.90
  -7  10   2   27.30    7.30
   7  10  -2   18.50    6.80
   7 -10   2   31.50    7.00
   7 -10   2   29.90    6.90
  -7  10   2   38.90    7.10
  -7 -10  -2   36.70    5.10
  -7  10  -2   46.50    7.00
  -7 -10   2   32.70    5.40
   7  10   2   32.40    6.70
  -7 -10   2   48.00    5.90
  -7  10  -2   38.50    6.90
   7 -10  -2   32.30    7.50
   7  10   2   35.10    4.20
   7 -10  -2   38.80    6.60
  -7  10  -2   36.70    5.90
   7 -10  -2   35.50   12.10
   7 -10   3   12.50    6.70
   7 -10   3    8.20    6.60
   7  10  -3   13.50    6.50
  -7  10   3   -3.70    8.10
  -7  10   3   14.90    5.90
  -7  10   3   -3.80    6.20
  -7 -10  -3    5.70    4.20
   7  10  -3   -7.40    7.30
  -7 -10   3   -4.70    7.70
   7 -10  -3   15.90    6.40
   7 -10  -3    5.00    7.30
  -7 -10   3    4.00    7.10
  -7 -10   3   -1.40    6.20
  -7  10  -3   10.90    6.30
  -7  10  -3    5.60    6.80
   7 -10   4   45.90    9.30
  -7 -10  -4   26.30    5.00
  -7  10   4   23.40    9.20
  -7  10   4   28.70    7.30
   7  10  -4   46.30    8.10
   7  10  -4   48.80    9.00
   7 -10   4   48.20    9.40
  -7  10   4   31.70    7.90
  -7  10  -4   29.10    6.90
  -7  10  -4   36.10    8.00
  -7 -10   4   44.50    8.10
   7 -10  -4   46.00    8.10
  -7  10   5   10.00   11.60
   7 -10   5   10.20    9.30
   7  10  -5   12.90    9.90
   7  10  -5   11.60    9.80
   7 -10  -5   15.90    8.40
  -7 -10   5  -13.80   12.50
  -7 -10   5   -6.60    7.90
  -7 -10   5   -6.90    9.00
  -7  10  -5    7.30    6.80
  -7  10  -5    5.60    9.10
   7 -10  -5    6.60    9.70
  -8 -10   0   12.80    5.70
  -8  10   0   -0.70    6.50
   8 -10   0   12.00    7.30
   8  10   0    1.30    6.40
   8  10   0    7.90    8.20
  -8  10   0   13.80    8.30
   8 -10   0   12.60    8.30
  -8  10   0   15.40    7.30
  -8  10   1   12.90    8.70
   8  10  -1   26.40    7.70
   8 -10   1   18.40    7.50
   8  10  -1   12.50    8.00
  -8  10   1   19.20    7.80
  -8 -10  -1   22.00    5.80
   8 -10   1   15.00    8.80
  -8  10  -1    2.70    6.60
   8  10   1    8.60    8.40
  -8  10  -1    9.10    7.20
  -8 -10   1    7.90    4.90
  -8  10  -1   -3.00    8.10
  -8 -10   1   -8.00    8.60
  -8 -10   1    2.80    6.90
   8 -10  -1   14.00    7.30
   8 -10  -1   12.90    8.40
   8  10  -2   45.60    9.40
   8 -10   2   44.20   10.50
  -8  10   2   42.30    8.00
  -8  10   2   32.30    9.80
  -8  10   2   31.90    7.60
   8 -10   2   42.30    9.10
   8  10  -2   45.70    8.90
   8 -10  -2   47.90    8.80
   8 -10  -2   44.30    9.60
  -8 -10   2   41.70    7.30
  -8 -10   2   34.80    7.80
  -8  10  -2   34.90    8.10
  -8  10  -2   32.20    7.70
  -8  10  -2   44.10    8.20
   8 -10   3    8.70    9.40
   8  10  -3   11.50    9.50
  -8  10   3   -4.20   10.20
   8 -10   3    2.80    9.60
  -8  10   3    8.30    8.90
  -8  10   3   11.10    8.60
   8  10  -3   14.00    8.70
  -8 -10  -3   -0.50    8.60
  -8  10  -3   18.30    7.10
  -8 -10   3   -9.10    8.30
  -8 -10   3  -12.30    9.80
  -8  10  -3    5.60    9.40
  -8 -10   3    6.40    6.80
  -8  10  -3   15.20    8.70
   8 -10   4   13.10   10.70
   8  10  -4    2.90   11.10
  -8  10   4   -0.80    9.80
  -8 -10  -4    9.90    9.70
   8  10  -4    1.30   10.60
  -8 -10   4   -6.30    8.80
   8 -10  -4   19.40   11.20
  -8 -10   4   -1.50    9.70
  -8  10  -4   19.60   10.60
   9 -10   0    3.90    9.80
  -9  10   0   15.00   10.10
   9 -10   0    8.00   11.20
  -9 -10   0  -10.30    7.70
   9  10   0    9.80    9.30
  -9 -10  -1   -4.70    7.10
   9  10  -1    7.70    9.70
  -9 -10  -1    5.00   10.10
   9  10  -1    9.40   10.90
   9 -10   1   -2.50   12.00
   9 -10   1    6.30   10.00
  -9  10   1    9.90   10.20
  -9  10  -1   -9.20    8.80
  -9  10  -1    9.40   15.20
   9 -10  -1   14.70    9.60
   9 -10  -1   24.40   15.70
   0  11   0   -2.20    1.90
   0 -11   0   -1.70    4.10
   0  11   0   -2.60    5.20
   0  11   0   -1.00    4.00
   0 -11   0   -1.80    5.30
   0 -11   0   -0.60    2.20
   0 -11   0   -2.80    4.50
   0  11   0   -2.00    1.90
   0  11  -1  174.38   12.90
   0 -11  -1  173.28   12.10
   0 -11   1  184.98   13.50
   0  11  -1  185.08   13.60
   0  11  -1  179.88   16.10
   0 -11  -1  193.98   13.50
   0  11   1  187.78   13.10
   0  11   1  206.28   12.10
   0  11   1  191.88   12.70
   0  11   1  185.38   12.40
   0 -11   1  159.38   14.60
   0 -11   1  187.28   14.50
   0 -11   1  164.18   12.70
   0 -11  -1  188.18   14.20
   0  11  -1  187.28   13.90
   0 -11  -1  180.58   12.60
   0 -11   2   -4.80    4.00
   0 -11  -2   -4.50    6.20
   0 -11  -2   -1.00    4.50
   0 -11   2   -6.30    4.20
   0  11  -2   -3.20    2.50
   0 -11  -2   -0.50    2.40
   0  11  -2   -4.10    2.50
   0  11   2    2.00    3.70
   0  11  -2   -8.30    6.80
   0  11   2    1.20    3.90
   0 -11   2   -4.00    2.80
   0 -11  -2   -2.50    3.50
   0 -11   2   -1.20    4.90
   0 -11   2   -0.90    4.30
   0  11  -2   -3.60    5.50
   0 -11  -3    0.80    3.90
   0  11  -3   -9.50    6.50
   0 -11   3    1.10    3.80
   0  11   3   -2.80    3.10
   0 -11  -3    0.90    3.20
   0  11  -3   -4.30    7.90
   0 -11  -3   -0.90    2.30
   0 -11   3   -5.00    5.70
   0 -11  -3   -2.40    5.40
   0 -11   3   -1.30    5.60
   0 -11  -3    3.70    7.80
   0 -11   4   20.10    4.60
   0 -11   4   17.20    5.70
   0 -11  -4   20.40    4.10
   0 -11  -4   19.10    3.30
   0  11  -4   14.00    9.00
   0  11   4   19.80    3.80
   0  11  -4   13.60    4.90
   0 -11   4   18.60    2.30
   0 -11  -4   21.10    2.40
   0 -11  -4   22.30    7.80
   0 -11  -4   19.50   11.30
   0 -11   4   24.60    8.20
   0  11  -4   22.70    4.80
   0 -11  -4   16.70    4.70
   0  11   4   17.90    4.00
   0 -11   4   16.00    7.90
   0 -11  -5   56.09    5.40
   0 -11   5   72.49    8.30
   0  11  -5   56.29    6.80
   0  11  -5   54.39   11.10
   0 -11   5   57.19    6.70
   0 -11  -5   64.59    6.50
   0  11  -5   49.30    7.30
   0 -11   5   55.79    9.90
   0  11  -6   11.50    4.60
   0 -11   6   14.20    5.10
   0 -11   6    7.90    9.40
   0 -11  -6    9.40    3.90
   0 -11  -6   18.50    3.70
   0 -11   6   15.70    5.20
   0  11   6    4.00    6.50
   0 -11   6   11.50    5.00
   0  11  -6   20.20    5.10
   0  11  -6   25.40    9.60
   0 -11   7    3.00   10.30
   0 -11   7   31.30    7.90
   0  11  -7   15.10    6.10
   0  11  -7   15.90    6.80
   0  11   7    5.50    8.20
   0 -11   7   17.00    6.70
   0 -11   8    0.50    8.90
   0  11  -8    1.20    8.10
   0  11  -8    7.80    9.40
  -1  11   0   15.40    3.50
   1  11   0   24.60    7.10
   1 -11   0   24.50    4.90
  -1  11   0   20.20    5.50
   1 -11   0   19.70    3.80
   1  11   0   14.30    3.30
  -1 -11   0   17.60    3.70
  -1 -11   0   17.20    5.20
   1 -11   0   17.70    6.10
  -1  11   0   16.10    6.50
  -1 -11   0   24.00    6.90
  -1 -11   0   25.00    5.70
   1 -11   0   23.00    6.90
   1  11   0   20.00    5.60
  -1 -11   0   16.90    7.10
   1  11   0   13.50    3.30
   1 -11   0   23.60    6.00
   1 -11   1 1928.31   95.49
   1 -11   1 2018.00   96.29
  -1 -11  -1 1788.92   94.39
  -1 -11  -1 1876.01   95.49
   1  11  -1 1526.15   96.99
  -1 -11  -1 1551.14   96.09
  -1  11   1 1861.21   94.79
  -1  11   1 1855.91   95.19
   1 -11   1 1884.31   98.69
   1  11  -1 1727.23   95.89
  -1 -11  -1 1852.81   94.39
   1 -11   1 1785.32   95.59
  -1  11   1 1859.01   94.79
   1  11  -1 1793.82   95.59
   1  11  -1 1686.53   95.29
   1 -11   1 1832.72   96.59
  -1  11   1 1625.34   94.29
  -1 -11   1 1718.03   95.29
  -1  11  -1 1866.21   95.99
   1 -11  -1 1687.03   94.79
   1 -11  -1 1905.91   95.89
  -1 -11   1 1628.64   96.69
   1 -11  -1 1797.02   94.69
   1  11   1 1728.43   94.39
   1 -11  -1 1656.43   96.69
   1  11   1 1680.53   93.59
   1  11   1 1863.01   94.59
  -1  11  -1 1816.62   95.69
   1 -11  -1 2054.59   98.49
  -1  11  -1 1721.13   96.39
  -1  11  -1 1716.73   97.49
   1  11   1 1815.32   94.29
  -1 -11   1 1957.50   97.09
   1  11  -2  673.43   40.10
   1  11  -2  720.03   39.90
   1 -11   2  753.02   38.40
  -1 -11  -2  676.33   37.20
   1  11  -2  674.63   39.20
   1 -11   2  717.03   39.30
  -1  11   2  693.63   38.10
  -1 -11  -2  664.53   37.10
   1 -11   2  659.33   38.90
   1 -11   2  657.73   40.10
   1 -11   2  728.13   42.40
  -1 -11  -2  723.23   38.30
  -1  11   2  636.54   38.00
  -1  11   2  603.04   36.30
  -1 -11  -2  590.14   38.60
   1  11  -2  602.74   41.90
  -1  11   2  690.83   37.70
  -1  11  -2  649.34   40.60
  -1  11  -2  668.63   39.20
   1 -11  -2  669.23   39.80
  -1 -11   2  643.24   39.00
  -1 -11   2  666.63   39.80
   1 -11  -2  719.53   42.10
  -1 -11   2  715.33   40.70
   1  11   2  645.74   37.30
   1 -11  -2  674.73   39.80
   1 -11  -2  680.13   38.00
  -1  11  -2  770.92   40.50
   1  11   2  712.73   37.40
   1 -11  -2  690.63   37.90
   1 -11  -2  748.53   39.00
  -1  11  -2  633.24   41.80
  -1 -11  -3   15.80    6.80
   1  11  -3   23.20    7.00
   1 -11   3   14.20    6.40
  -1 -11  -3   13.40    3.70
   1  11  -3   10.80    4.10
   1 -11   3   12.50    6.10
  -1 -11  -3   12.10    2.40
  -1 -11  -3   14.30    3.70
   1 -11   3   16.40    7.20
  -1 -11  -3   15.10    4.60
  -1  11   3   17.10    4.80
   1 -11   3   15.20    4.10
   1  11  -3   16.10    5.10
  -1  11   3   12.30    4.80
   1  11  -3   -0.50    8.20
  -1  11  -3   14.70    4.70
  -1 -11   3   14.10    5.00
   1 -11  -3   14.60    3.80
  -1  11  -3   16.50    6.80
  -1 -11   3   19.20    7.70
  -1 -11   3   14.70    5.70
  -1  11  -3   15.00    4.30
   1 -11  -3   17.70    4.80
   1 -11  -3   22.30    5.90
   1 -11  -3   14.40    6.50
  -1  11  -3    7.90    8.70
   1 -11  -3   17.00    8.50
   1  11   3   16.00    3.80
  -1 -11   3   22.20    6.00
   1  11   3   13.10    3.40
   1 -11  -3   21.10    3.10
   1 -11   4  714.43   49.10
  -1  11   4  758.02   40.30
  -1 -11  -4  768.22   44.50
  -1 -11  -4  703.63   38.10
   1 -11   4  715.63   42.50
  -1 -11  -4  784.22   39.90
  -1 -11  -4  702.93   38.60
   1 -11   4  769.62   44.20
   1  11  -4  799.92   44.70
   1  11  -4  746.33   43.30
   1 -11   4  678.23   44.60
   1  11  -4  667.13   44.00
  -1  11  -4  817.02   44.70
   1 -11  -4  739.23   40.20
   1 -11  -4  652.73   41.40
  -1 -11   4  774.72   45.70
  -1 -11   4  755.32   44.40
  -1  11  -4  699.83   42.80
   1 -11  -4  710.13   40.00
  -1  11  -4  697.83   44.30
  -1 -11   4  714.73   42.70
   1 -11  -4  747.43   46.80
   1 -11  -4  776.92   41.50
   1  11  -5  240.78   19.20
   1  11  -5  215.28   15.50
  -1  11   5  217.58   13.40
  -1 -11  -5  225.78   13.10
   1 -11   5  201.98   15.20
   1 -11   5  209.68   18.10
   1 -11   5  210.38   16.80
   1 -11  -5  196.18   13.40
  -1  11  -5  208.28   16.00
  -1 -11   5  190.48   17.90
  -1 -11   5  191.08   16.70
   1 -11  -5  218.88   12.90
   1 -11  -5  231.78   15.20
  -1  11  -5  244.28   19.20
  -1  11  -5  210.08   19.30
  -1 -11   5  225.38   15.50
  -1 -11   5  225.48   17.00
   1 -11  -5  247.08   14.60
  -1  11   6   15.80    6.80
   1 -11   6   10.60    4.60
   1  11  -6   17.60   10.70
   1 -11   6    9.40    9.20
   1  11  -6   20.10    5.30
   1 -11   6   11.30    5.20
   1 -11   6    7.70    5.00
   1  11  -6    4.10    5.50
  -1 -11   6    7.00    4.90
   1 -11  -6   13.70    2.20
   1 -11  -6   14.60    2.10
   1 -11  -6   17.80    4.40
  -1  11  -6   10.70    5.10
   1 -11  -6    6.10    5.10
  -1  11  -6   13.20   11.10
  -1 -11   6    7.30    4.60
  -1  11  -6   13.20    4.50
   1 -11   7   -8.60    6.70
  -1  11   7    3.00    9.20
   1  11  -7   -0.10    6.90
   1  11  -7   11.50    6.90
   1 -11   7    0.50    5.80
   1 -11   7   11.60    6.70
  -1 -11   7   -4.20    6.60
  -1  11  -7    6.00    7.30
  -1 -11   7   16.90    7.00
  -1 -11   7   -9.90    7.70
  -1  11  -7    5.70    6.00
   1  11  -8   13.30   10.40
   1 -11   8   -9.90    9.20
   1  11  -8   22.80    8.50
  -1  11   8    2.90   12.60
  -1  11  -8   -3.70   10.20
  -1  11  -8   21.50    9.00
  -1 -11   8   -8.70    9.50
   2 -11   0 1950.50  111.29
  -2  11   0 2171.48  111.29
  -2 -11   0 2186.68  115.09
  -2 -11   0 2015.10  110.79
   2 -11   0 2127.79  112.69
   2 -11   0 2094.99  112.39
   2 -11   0 2070.89  113.99
  -2 -11   0 2159.18  112.19
   2  11   0 2161.58  111.09
   2 -11   0 2122.59  111.19
   2  11   0 2177.28  111.19
  -2  11   0 1949.90  111.69
  -2 -11   0 2059.29  110.99
  -2  11   0 2140.69  111.79
   2  11   0 2100.79  111.09
   2 -11   1  537.65   32.40
   2 -11   1  577.04   35.40
  -2  11   1  523.75   36.00
   2 -11   1  549.25   32.20
  -2  11   1  559.34   32.10
   2  11  -1  546.05   32.30
   2 -11   1  577.14   33.80
  -2  11   1  572.64   31.80
  -2  11   1  555.84   32.40
  -2 -11  -1  535.15   31.10
   2  11  -1  514.15   32.50
   2  11  -1  524.75   32.30
  -2 -11  -1  552.24   32.50
   2 -11  -1  558.64   32.00
  -2  11  -1  564.24   33.60
   2 -11  -1  576.24   33.20
  -2 -11   1  578.84   34.10
   2  11   1  510.55   30.30
  -2 -11   1  618.04   35.70
  -2 -11   1  568.04   32.90
   2 -11  -1  532.75   34.10
  -2  11  -1  560.94   34.90
   2  11   1  526.25   31.20
   2 -11  -1  558.44   34.50
  -2  11  -1  577.94   33.40
  -2 -11   1  515.95   32.10
   2  11   1  531.35   31.20
  -2  11  -1  526.85   32.00
   2 -11  -1  505.75   32.00
   2  11   1  569.54   31.60
   2  11  -2  330.37   22.30
  -2 -11  -2  320.87   19.40
   2  11  -2  321.87   22.00
   2 -11   2  312.37   24.10
   2  11  -2  355.06   21.60
  -2  11   2  314.97   19.40
  -2  11   2  316.77   20.70
  -2 -11  -2  330.47   19.20
  -2  11   2  335.07   20.10
   2 -11   2  317.67   21.10
   2 -11   2  345.77   21.70
   2 -11   2  333.27   22.60
  -2 -11  -2  355.46   24.50
  -2  11   2  328.77   19.80
   2 -11  -2  341.97   20.90
  -2 -11   2  322.27   21.30
   2  11   2  320.47   19.80
   2 -11  -2  324.07   22.30
  -2 -11   2  327.27   22.20
   2 -11  -2  322.87   20.70
   2  11   2  350.76   19.70
  -2 -11   2  269.37   22.70
  -2 -11   2  337.87   23.20
  -2  11  -2  301.47   24.10
   2 -11  -2  343.77   21.90
   2 -11  -2  323.87   23.40
  -2  11  -2  326.87   22.50
   2 -11  -2  326.17   22.50
  -2  11  -2  363.26   23.00
   2  11  -3 1279.97   70.69
   2 -11   3 1316.67   73.19
  -2 -11  -3 1318.47   70.99
  -2  11   3 1284.47   68.79
  -2 -11  -3 1254.17   66.69
  -2 -11  -3 1176.78   66.59
  -2  11   3 1389.26   68.69
   2  11  -3 1177.28   71.29
   2  11  -3 1368.26   71.19
  -2 -11  -3 1311.87   68.09
   2 -11   3 1280.27   69.99
   2 -11   3 1264.77   69.99
   2 -11   3 1308.37   71.39
  -2 -11   3 1193.48   72.79
   2 -11  -3 1141.59   74.29
   2 -11  -3 1297.67   68.99
  -2  11  -3 1096.39   76.19
  -2 -11   3 1313.67   70.99
   2 -11  -3 1166.88   70.39
  -2  11  -3 1395.46   71.59
  -2  11  -3 1252.07   71.69
   2 -11  -3 1344.67   71.79
   2  11   3 1233.38   66.49
   2  11   3 1249.38   66.69
   2 -11  -3 1390.56   69.89
  -2 -11   3 1212.28   69.99
  -2 -11   3 1364.26   72.39
  -2  11  -3 1210.48   70.09
   2 -11  -3 1300.17   68.49
   2  11  -4  432.16   28.60
  -2  11   4  408.76   25.00
   2  11  -4  418.06   26.90
  -2 -11  -4  432.56   23.80
   2 -11   4  402.56   26.00
   2  11  -4  394.06   27.90
   2 -11   4  424.26   27.80
  -2  11   4  417.36   25.10
  -2 -11  -4  431.26   28.20
   2 -11  -4  404.86   24.60
  -2  11  -4  459.35   28.60
  -2  11  -4  403.66   26.40
  -2 -11   4  440.16   28.80
  -2 -11   4  432.46   28.90
  -2  11  -4  399.86   27.80
  -2 -11   4  400.76   26.30
   2 -11  -4  389.66   24.60
  -2 -11   4  413.86   28.40
   2 -11  -4  376.36   25.90
   2 -11  -4  439.96   26.20
  -2 -11  -5  202.28   12.10
   2  11  -5  188.78   14.40
  -2  11   5  200.58   13.80
  -2  11   5  190.58   14.00
   2 -11   5  205.68   16.90
   2 -11   5  199.18   15.30
   2  11  -5  228.38   18.80
   2  11  -5  186.38   15.50
   2 -11   5  208.08   13.90
  -2 -11   5  194.58   14.10
  -2  11  -5  184.58   16.20
   2 -11  -5  208.58   14.20
   2 -11  -5  191.98   13.60
  -2 -11   5  191.68   15.70
  -2 -11   5  175.38   15.40
  -2  11  -5  229.88   19.40
  -2  11  -5  193.78   14.50
   2 -11  -5  213.48   15.80
   2 -11  -5  204.98   12.90
   2  11  -6   10.70    5.10
  -2 -11  -6    2.90    3.50
  -2  11   6   -4.30    7.00
   2 -11   6   -3.10   10.00
  -2  11   6    5.50    5.90
   2  11  -6   12.00    5.60
   2 -11   6    1.50    5.00
   2 -11   6    7.30    4.60
  -2 -11   6   15.10    5.10
   2 -11  -6    5.00    3.10
  -2 -11   6    1.90    5.90
   2 -11  -6   -3.80    7.20
  -2 -11   6    6.70    4.60
  -2  11  -6   13.10    5.50
  -2  11  -6    1.20    9.90
  -2 -11   6    8.20    2.90
   2 -11  -6    9.40    4.50
  -2  11  -6   11.40    4.70
   2 -11   7   -8.10    6.90
   2 -11   7   10.60    6.80
   2  11  -7    2.40    6.50
   2 -11   7   14.20    6.10
   2  11  -7    6.30    8.00
  -2  11   7   -0.60    9.10
   2 -11  -7   17.20    6.20
  -2 -11   7    0.90   10.20
  -2 -11   7   -8.40    6.90
  -2  11  -7   14.30    6.20
  -2  11  -7    4.90    7.30
  -2 -11   7   -1.60    8.40
   3  11   0  414.26   25.70
  -3 -11   0  398.16   25.60
  -3  11   0  431.66   27.20
   3 -11   0  398.66   26.40
  -3 -11   0  434.36   27.50
   3 -11   0  445.76   26.80
  -3 -11   0  431.26   26.40
  -3  11   0  433.66   27.30
  -3  11   0  441.76   27.70
   3  11   0  440.76   26.30
   3 -11   0  415.46   27.60
   3 -11   0  433.06   29.10
   3  11   0  421.86   25.70
  -3  11   0  438.26   26.20
   3 -11   1 1065.49   56.99
   3  11  -1 1021.70   56.89
  -3 -11  -1  994.90   55.49
   3 -11   1 1003.10   57.09
  -3 -11  -1 1059.39   57.39
   3 -11   1  882.81   59.69
  -3  11   1 1031.60   57.09
  -3 -11  -1 1076.19   62.09
   3  11  -1  988.50   57.29
  -3  11   1 1049.20   56.49
   3  11  -1 1008.10   56.89
  -3  11   1 1069.59   56.99
  -3  11   1 1021.90   57.09
   3 -11   1 1040.60   58.29
  -3 -11  -1 1019.40   55.89
   3 -11  -1 1019.20   56.99
   3  11   1 1085.09   56.09
  -3  11  -1  991.00   56.69
  -3 -11   1 1070.99   58.59
  -3  11  -1  879.41   58.39
  -3 -11   1 1038.70   57.09
  -3  11  -1  984.90   58.09
   3 -11  -1 1059.49   56.59
   3 -11  -1 1042.60   57.99
   3  11   1  961.40   55.49
   3  11   1 1076.79   55.89
   3 -11  -1 1082.49   60.09
   3  11   1  977.50   54.59
  -3 -11   1 1024.00   56.79
  -3 -11   1  926.71   58.79
  -3  11  -1 1061.99   57.79
   3 -11   2  330.77   22.30
   3 -11   2  356.46   24.90
  -3  11   2  359.36   22.70
  -3 -11  -2  353.06   20.30
  -3  11   2  356.56   21.60
   3 -11   2  341.87   23.90
   3  11  -2  337.47   22.60
  -3  11   2  344.87   21.20
  -3 -11  -2  276.47   26.20
  -3 -11  -2  352.76   21.00
   3 -11   2  346.37   22.90
  -3 -11  -2  394.56   22.60
   3  11  -2  356.86   23.50
  -3  11   2  363.36   21.50
   3  11  -2  321.97   22.90
  -3 -11   2  351.76   24.50
   3 -11  -2  366.36   23.90
  -3 -11   2  339.47   23.60
   3 -11  -2  334.87   24.00
   3 -11  -2  298.37   24.80
   3 -11  -2  339.47   23.30
   3  11   2  319.87   20.60
  -3  11  -2  371.26   24.40
  -3 -11   2  339.17   22.30
  -3 -11   2  292.87   23.70
   3  11   2  368.96   20.90
  -3  11  -2  348.37   22.20
   3 -11  -2  330.97   21.90
  -3  11  -2  305.57   23.30
  -3 -11  -3  784.32   41.70
  -3 -11  -3  773.62   45.50
   3 -11   3  786.72   45.30
  -3  11   3  736.43   42.60
   3  11  -3  813.82   46.00
  -3  11   3  794.82   44.50
   3  11  -3  726.93   46.40
   3 -11   3  799.92   46.60
   3 -11   3  760.02   44.90
  -3  11   3  844.02   44.00
  -3 -11  -3  767.82   41.80
   3  11  -3  725.93   45.30
  -3 -11  -3  787.42   45.30
  -3  11   3  721.23   42.20
   3 -11   3  752.42   47.50
  -3 -11   3  790.12   47.90
  -3  11  -3  855.21   47.10
   3  11   3  752.52   41.80
   3 -11  -3  847.02   46.00
   3 -11  -3  771.92   44.20
   3 -11  -3  765.42   44.30
  -3  11  -3  727.53   46.70
   3 -11  -3  814.22   46.70
  -3 -11   3  772.52   45.20
   3  11   3  776.62   41.70
   3 -11  -3  768.82   46.60
  -3 -11   3  793.22   46.40
  -3 -11  -4   79.79    7.90
  -3  11   4   82.29    6.40
   3 -11   4   77.29   10.70
   3 -11   4   62.39    8.50
   3  11  -4   63.29    9.00
   3 -11   4   67.29    7.00
   3  11  -4   89.89   13.60
  -3 -11  -4   86.89   11.20
  -3  11   4   66.49    9.90
   3  11  -4   74.79    7.70
   3 -11  -4   72.99    7.20
   3 -11  -4   73.09    9.30
  -3  11  -4   79.29    7.90
  -3  11  -4   63.19    8.20
  -3 -11   4   74.59    7.40
   3 -11  -4   66.49    8.00
  -3 -11   4   77.69    8.20
   3 -11  -4   80.89   10.40
  -3  11  -4   72.99   11.70
  -3 -11  -5   20.80    3.60
   3 -11   5   23.50    4.60
  -3 -11  -5   30.50   16.40
   3 -11   5   12.40    9.70
   3  11  -5   18.30    5.00
   3  11  -5   16.40    4.80
   3 -11   5   14.20    4.20
  -3 -11  -5   15.30    4.40
  -3  11  -5    9.90    4.10
   3 -11  -5   15.00    4.60
  -3  11  -5   23.60    4.80
  -3 -11   5   12.10    3.50
   3 -11  -5   23.50    8.20
   3 -11  -5   12.40    5.50
   3 -11  -5   17.80    4.80
  -3 -11   5   10.80    4.70
  -3  11  -5   21.60   10.70
   3 -11   6  121.99    8.90
   3  11  -6   96.99    9.00
   3  11  -6   90.09    9.40
   3 -11   6  104.69    8.50
   3 -11   6   77.49   17.60
   3 -11   6  106.89    9.00
   3 -11  -6  132.49   10.00
  -3  11  -6  114.19    8.70
   3 -11  -6  110.79    8.10
  -3  11  -6  107.09    9.80
  -3 -11   6  115.99    9.20
  -3 -11   6  107.49    9.80
  -3  11  -6  132.69   22.80
   3 -11   7   -2.80    7.80
  -3  11   7    8.10   10.80
   3  11  -7   17.30    7.60
   3 -11   7   15.70    7.00
   3  11  -7   11.30    8.60
  -3  11  -7   11.00    7.10
   3 -11  -7    9.70    4.60
  -3  11  -7    8.90    7.90
  -3 -11   7   -2.60    7.70
  -3 -11   7   -1.20    7.50
   4  11   0   -8.00    5.20
   4 -11   0    1.60    6.00
  -4  11   0    2.20    3.40
  -4  11   0   -1.40    2.30
   4 -11   0   -2.70    4.10
  -4 -11   0   -1.50    7.40
   4  11   0   -5.50    7.40
  -4  11   0    0.00    6.00
  -4 -11   0    1.20    6.20
   4  11   0    2.70    2.60
  -4 -11   0    0.20    3.90
  -4  11   0   -2.10    4.30
  -4 -11   0    0.70    3.00
   4 -11   0   -5.40    3.20
   4 -11   0   -6.10    6.40
  -4  11   0    4.20    7.20
   4  11  -1  264.37   18.90
  -4 -11  -1  246.08   18.80
   4 -11   1  269.27   18.60
   4  11  -1  264.87   18.10
  -4  11   1  261.37   19.30
  -4 -11  -1  271.27   17.30
  -4 -11  -1  273.27   18.60
  -4 -11  -1  294.87   20.10
  -4  11   1  276.97   18.10
  -4  11   1  247.68   18.70
   4 -11   1  251.37   19.20
   4 -11   1  238.28   20.30
  -4 -11   1  248.38   18.00
   4 -11  -1  293.57   19.60
   4 -11  -1  261.27   20.50
   4 -11  -1  256.57   18.40
  -4  11  -1  270.87   18.30
   4  11   1  271.47   18.00
   4  11   1  250.87   16.80
  -4  11  -1  273.17   19.90
  -4 -11   1  273.07   20.70
   4 -11  -1  272.27   19.00
  -4 -11   1  264.27   19.60
  -4  11  -1  248.48   19.40
  -4 -11   1  269.97   20.10
  -4  11  -1  267.07   21.00
   4  11   1  266.97   16.30
   4 -11  -1  240.28   20.30
  -4 -11  -2  442.86   26.30
   4 -11   2  442.06   28.30
   4 -11   2  439.06   27.60
   4 -11   2  428.16   29.40
   4  11  -2  433.56   28.90
   4  11  -2  418.96   27.80
  -4  11   2  441.26   26.80
  -4  11   2  407.76   27.10
  -4  11   2  454.95   27.20
   4 -11   2  441.16   30.10
  -4 -11  -2  421.16   27.40
  -4 -11  -2  446.06   25.40
   4  11  -2  406.66   28.20
  -4 -11  -2  471.05   28.10
   4 -11  -2  442.66   29.00
   4  11   2  416.56   26.30
  -4 -11   2  422.36   27.40
   4  11   2  452.15   26.20
   4 -11  -2  405.96   29.30
  -4 -11   2  458.35   29.30
  -4 -11   2  427.56   29.40
  -4  11  -2  412.76   27.10
  -4  11  -2  454.85   30.00
  -4  11  -2  425.76   29.20
   4 -11  -2  432.16   27.50
   4 -11  -2  462.15   28.70
   4 -11  -2  402.76   27.30
  -4 -11  -3  117.89   12.00
   4  11  -3  121.29   10.90
   4  11  -3  106.59   10.70
  -4 -11  -3  109.69    9.90
  -4 -11  -3  121.99    8.30
  -4 -11  -3  123.09   11.40
   4 -11   3  110.49   13.30
  -4  11   3  122.19   10.90
  -4  11   3  116.89    8.80
  -4 -11  -3  131.99   10.20
   4 -11   3  109.59    9.70
   4 -11   3  130.09   12.10
  -4  11   3  125.29    9.20
  -4 -11   3  112.19   11.10
   4 -11  -3  122.19   11.90
  -4  11  -3  107.19   10.60
  -4 -11   3  112.29   10.50
   4  11   3  132.49    9.50
  -4  11  -3  142.39   14.80
   4 -11  -3  118.19   13.40
  -4 -11   3  128.09   15.60
   4 -11  -3  110.89   11.40
  -4  11  -3  117.49    9.90
   4 -11  -3  127.19   13.70
   4 -11  -3  108.79    9.70
   4  11  -4   62.49    7.10
   4 -11   4   73.49    6.90
  -4 -11  -4   59.09    3.90
  -4 -11  -4   73.79    8.40
   4  11  -4   64.89    6.80
  -4  11   4   62.59    5.30
  -4 -11  -4   66.29    4.00
   4 -11   4   65.89    6.20
  -4  11   4   60.59    6.10
  -4  11   4   58.99    4.80
   4 -11  -4   68.69   12.00
  -4 -11   4   49.70    6.10
  -4 -11   4   56.69    7.00
   4 -11  -4   54.69    7.10
  -4  11  -4   50.79   11.80
   4 -11  -4   73.29    6.70
  -4 -11   4   66.59    7.00
  -4  11  -4   69.69    7.00
   4 -11  -4   66.89    9.60
   4 -11   5   46.10    5.90
   4  11  -5   40.40    6.10
  -4  11   5   36.70    5.70
   4 -11   5   49.00    5.60
   4 -11   5   45.70    7.80
  -4 -11  -5   27.90   10.70
   4  11  -5   44.30    6.50
  -4 -11   5   49.90    6.10
   4 -11  -5   62.09    6.10
  -4  11  -5   58.59    5.80
   4 -11  -5   59.39    5.70
  -4  11  -5   40.10    5.80
  -4 -11   5   50.69    6.10
  -4  11  -5   74.39   15.80
   4 -11   6   52.19    7.80
   4  11  -6   62.69    7.80
   4  11  -6   58.79    8.10
   4 -11   6   75.29    8.00
  -4  11  -6   70.39    7.60
   4 -11  -6   68.89    7.20
   4 -11  -6   78.49   12.10
  -4  11  -6   60.19    6.80
  -4 -11   6   45.70    7.90
  -4  11   7    9.00   12.30
   4  11  -7   22.70    9.80
   4 -11   7   -3.20    8.00
   4  11  -7    1.70    8.50
   4 -11  -7    4.60    6.30
   4 -11  -7   17.50    8.80
  -4 -11   7    0.40    8.80
  -4  11  -7    4.90    9.40
  -4  11  -7   -2.60    7.10
   5 -11   0   83.99    8.60
  -5 -11   0   85.89   13.20
  -5  11   0   98.69   14.90
  -5  11   0   98.09    8.90
  -5  11   0   76.79    8.60
   5 -11   0   87.49    9.90
  -5  11   0   96.29   10.60
   5 -11   0   86.29   12.10
  -5 -11   0   87.49    8.00
   5  11   0   85.69    8.10
   5  11   0   88.59    7.50
   5 -11   0   84.49    9.90
  -5 -11   0   79.89    9.60
  -5  11   0   81.89   11.80
  -5 -11   0   83.39   11.20
  -5 -11  -1   70.99   10.80
  -5 -11  -1   65.49   10.20
  -5 -11  -1   57.99    6.20
  -5  11   1   60.09    8.40
   5  11  -1   61.79    6.40
  -5  11   1   55.79    6.90
  -5  11   1   62.39    6.30
  -5  11   1   58.09   10.10
   5 -11   1   72.59   11.70
   5 -11   1   60.19    7.40
  -5 -11  -1   67.89    8.30
   5  11  -1   64.49    7.10
   5  11   1   68.09   11.40
   5 -11  -1   49.90    6.30
   5  11   1   74.09   14.60
  -5 -11   1   77.29    8.50
   5  11   1   60.29    5.50
  -5 -11   1   64.49    6.60
   5 -11  -1   56.39   10.60
  -5  11  -1   63.59    7.40
  -5  11  -1   62.09   13.70
  -5  11  -1   68.39    8.40
   5 -11  -1   53.09    7.30
  -5  11  -1   62.49    7.70
   5 -11  -1   67.89    9.50
  -5 -11   1   77.79   11.50
   5  11   1   69.39    5.80
   5 -11   2   27.80    6.00
  -5 -11  -2   36.20    8.20
  -5 -11  -2   31.90    5.30
  -5  11   2   28.50    8.30
   5 -11   2   33.70    5.10
  -5  11   2   33.70    4.70
  -5 -11  -2   40.20    4.60
  -5 -11  -2   33.80    8.30
  -5  11   2   27.70    5.10
   5  11  -2   40.30    5.50
  -5  11   2   25.40    5.40
   5  11   2   38.10    4.50
  -5  11  -2   48.10   12.30
   5  11   2   39.50    7.90
   5 -11  -2   38.30    5.50
  -5 -11   2   42.50   10.90
   5 -11  -2   25.40    5.20
   5 -11  -2   35.20    9.10
   5 -11  -2   40.50    7.60
  -5  11  -2   39.20    5.40
  -5  11  -2   32.80    5.10
   5 -11   3   72.69    6.90
  -5 -11  -3   72.39    7.80
  -5 -11  -3   77.69    9.70
  -5  11   3   71.19    9.30
   5  11  -3   88.29    7.90
  -5 -11  -3   74.69    6.10
   5 -11   3   85.99    8.50
   5  11  -3   67.39    7.30
  -5  11   3   75.99    7.10
  -5 -11  -3   83.29   10.80
  -5  11   3   70.09    6.60
  -5 -11  -3   77.69    8.60
  -5  11  -3   83.89   13.70
   5 -11  -3   65.49   10.60
   5  11   3   55.09    7.80
  -5  11  -3   69.59    7.00
   5  11   3   91.89    8.70
   5 -11  -3   77.59    6.70
   5 -11  -3   73.79    8.80
  -5 -11   3   61.09    6.70
  -5  11  -3   62.09    7.00
  -5 -11  -4   25.30    8.00
  -5  11   4   25.10    7.90
   5  11  -4   23.00    5.50
  -5 -11  -4   23.00    2.80
  -5  11   4   15.20    6.60
  -5  11   4   27.50    5.10
   5  11  -4   36.50    6.10
   5 -11   4   19.00    5.40
  -5 -11  -4   34.70    9.00
   5 -11   4   30.70    6.50
  -5  11   4   24.20    4.50
  -5  11  -4   33.50    4.80
   5  11   4   27.20    4.10
   5 -11  -4   27.10    5.10
  -5  11  -4   24.20   13.30
  -5 -11   4   22.10    5.10
   5 -11  -4   27.30    9.00
   5  11   4   22.00    5.10
  -5  11  -4   32.00    5.40
  -5 -11   4   26.50    5.50
   5 -11  -4   28.90    7.00
   5 -11   5   69.89    7.20
   5 -11   5   68.69    6.90
   5 -11   5   70.29    8.30
  -5  11   5   70.79    7.10
   5  11  -5   67.59    7.90
   5  11  -5   66.19    8.00
   5 -11  -5   63.49    7.40
   5 -11  -5   72.09    7.80
  -5  11  -5   73.19    7.30
  -5 -11   5   76.59    7.40
  -5 -11   5   78.19    7.60
  -5  11  -5   76.19    7.50
   5  11  -6   -2.30    8.30
   5 -11   6   -9.50   10.10
   5 -11   6    6.00    7.90
  -5  11   6  -12.70   10.10
   5  11  -6   10.90    8.50
  -5 -11   6    7.50    7.80
   5 -11  -6    5.40    8.60
   5 -11  -6    2.60    6.70
  -5 -11   6    0.40    7.40
  -5  11  -6    3.10    6.60
  -5 -11   6  -12.70   11.10
  -5  11  -6    6.50    7.70
   6 -11   0  129.09   11.50
   6  11   0  126.79    9.80
   6 -11   0  117.89   10.20
  -6 -11   0  116.79   13.90
  -6  11   0  130.59   10.90
  -6  11   0  129.89   13.70
   6 -11   0  110.19   11.80
  -6 -11   0  117.79   10.40
  -6  11   0  133.39   13.00
   6  11   0  141.89   10.30
  -6  11   1   47.30    6.00
  -6 -11  -1   44.10    9.30
   6 -11   1   56.39    7.10
  -6  11   1   45.60    5.80
  -6 -11  -1   39.50    4.60
   6  11  -1   46.20    6.10
   6 -11   1   55.59    7.50
   6  11  -1   56.59    5.90
  -6  11   1   47.90    8.30
   6 -11  -1   55.79    5.80
  -6  11  -1   54.69    6.80
  -6 -11   1   42.70    5.70
  -6  11  -1   42.60    5.90
   6  11   1   59.49    5.50
  -6 -11   1   45.30   11.40
   6  11   1   50.39    5.00
   6 -11  -1   48.40    8.10
   6 -11  -1   46.20    7.40
  -6  11  -1   61.79    5.80
   6  11   1   31.50    9.30
   6 -11   2   78.19    9.10
   6 -11   2   85.69    8.00
  -6 -11  -2   89.39   10.90
  -6  11   2   93.99    8.10
  -6  11   2   89.39    8.10
  -6 -11  -2   91.19    9.60
   6  11  -2   84.09    7.00
  -6  11   2   79.59    9.00
  -6 -11  -2   84.49    6.90
   6  11  -2   88.39    7.90
   6  11   2   73.99    7.10
  -6  11  -2   81.59    7.80
  -6  11  -2   93.99    8.30
  -6  11  -2   78.99    7.90
   6 -11  -2   85.39    9.20
   6 -11  -2   88.89    8.00
  -6 -11   2   73.79    7.00
   6 -11  -2   94.59   10.80
   6 -11  -2   78.29   14.40
  -6 -11  -3   -2.20    5.50
  -6 -11  -3   10.00   21.90
  -6  11   3   16.20    6.70
   6 -11   3   11.10    6.40
   6  11  -3    5.10    5.70
  -6  11   3    4.40   10.10
  -6 -11  -3    1.90    3.40
   6  11  -3    1.30    5.50
  -6 -11  -3   -3.30    9.80
   6 -11   3   -4.20    5.30
  -6  11   3    0.10    5.30
  -6  11   3    4.60    5.20
  -6  11  -3    8.30    4.60
   6 -11  -3    5.70    6.60
   6 -11  -3    5.90    5.00
   6 -11  -3    1.30    9.80
  -6  11  -3   11.00    5.10
  -6 -11   3    7.90    6.00
  -6  11  -3    5.90    5.50
   6  11   3    4.50    7.30
  -6 -11   3    3.10    4.90
   6 -11   4   22.40    4.90
   6  11  -4   23.50    6.50
  -6 -11  -4   -0.60    6.30
  -6  11   4   13.20    7.80
   6 -11   4   15.60    6.00
   6 -11   4    7.70    6.60
  -6  11   4   15.30    5.30
  -6 -11  -4   19.30    3.50
  -6  11   4    7.20    6.00
   6  11  -4   15.90    5.40
  -6 -11   4   11.20    5.70
  -6 -11   4    4.20    6.90
   6 -11  -4   15.20    5.60
  -6  11  -4   10.60    4.90
  -6  11  -4   10.80    5.00
  -6 -11   4   11.20    6.10
   6 -11   5   19.30    8.10
   6  11  -5   12.30    8.40
   6 -11   5   19.10    7.30
   6  11  -5   11.10    8.30
   6 -11  -5   16.20    6.70
  -6 -11   5   22.70    7.50
   6 -11  -5   15.20    8.70
  -6  11  -5   18.00    7.90
  -6 -11   5   -3.90   10.50
  -6 -11   5   17.40    6.90
   6  11  -6    5.20   12.40
  -6  11   6   -3.50   15.20
  -6  11  -6    6.10   10.90
  -6 -11   6    1.10    9.30
  -6 -11   6  -17.70   10.70
   6 -11  -6   16.60   10.20
   6 -11  -6   15.00    8.90
  -6  11  -6   12.30    9.80
  -7 -11   0    3.10    7.10
   7 -11   0    6.70    6.60
  -7  11   0    8.20    6.80
  -7  11   0    3.90    6.20
  -7 -11   0   -2.40    5.10
   7 -11   0    4.40    5.90
   7  11   0   13.20   22.00
  -7 -11   0  -10.20   13.50
   7  11   0    6.50    5.10
   7  11   0    9.10    5.80
  -7  11   1   71.29    7.10
   7 -11   1   66.69    9.10
  -7  11   1   75.39    7.90
   7  11  -1   64.29    7.10
  -7  11   1   52.49    7.90
   7  11  -1   53.79    7.80
  -7 -11  -1   57.59    5.80
   7 -11   1   78.29    7.50
   7  11   1   60.09    6.80
  -7  11  -1   55.09    9.80
   7 -11  -1   49.10    9.00
   7 -11  -1   58.29    7.30
  -7 -11   1   65.99    6.20
   7  11   1   73.09    6.80
  -7  11  -1   65.29    7.10
  -7  11  -1   55.69    7.20
  -7 -11   1   72.89    6.70
  -7  11   2   46.20    7.90
  -7  11   2   35.80    7.00
   7 -11   2   47.30    7.90
  -7 -11  -2   41.60    5.60
   7  11  -2   41.30    7.90
   7  11  -2   35.10    6.50
  -7  11   2   29.50    6.50
   7 -11   2   42.30    7.30
   7 -11  -2   54.09    8.00
  -7 -11   2   48.10    6.60
  -7  11  -2   45.30    6.50
  -7  11  -2   43.50    7.70
  -7 -11   2   42.40    6.00
   7 -11  -2   59.89    8.10
   7  11   2   45.90    7.60
  -7  11  -2   46.60    6.80
   7 -11   3   10.20    8.00
  -7  11   3    2.00    8.80
  -7 -11  -3    6.30    4.30
   7  11  -3   17.00    7.80
   7  11  -3    7.00    7.00
  -7  11   3    0.80    6.80
  -7 -11  -3   -5.70    8.00
  -7  11  -3    3.20    5.90
  -7  11  -3    5.30    6.90
   7 -11  -3   19.10    7.70
   7 -11  -3   12.10    6.60
  -7 -11   3    4.70    6.70
  -7 -11   3    3.20    6.00
  -7 -11   3   -9.20    8.00
  -7  11  -3    9.10    7.30
  -7  11   4   49.60    9.20
   7 -11   4   64.29    9.20
   7  11  -4   62.19    8.80
  -7  11   4   50.09    8.60
   7 -11   4   65.29    9.00
  -7 -11  -4   49.30    6.00
   7  11  -4   55.89   10.00
  -7 -11   4   60.39    8.80
  -7  11  -4   56.19    7.80
   7 -11  -4   62.39    8.50
   7 -11  -4   65.59   10.20
  -7  11  -4   60.89    8.80
  -7 -11   4   53.49    8.90
   7 -11   5    3.20   10.10
   7  11  -5   -0.10   10.60
   7  11  -5   22.00   16.10
  -7 -11   5   -2.40    8.90
  -7  11  -5   10.10   10.40
  -7 -11   5  -18.00   12.80
  -7 -11   5   -5.50    9.40
   7 -11  -5   14.50   11.40
   8  11   0   26.30    7.50
  -8  11   0   24.80    8.00
   8 -11   0   26.50    7.90
  -8  11   0   34.60   10.30
   8  11   0   40.40   10.10
  -8 -11   0   18.30    6.20
  -8  11   0   13.40    7.30
   8 -11   0   43.10    9.40
  -8  11   1   17.60   10.10
   8  11  -1    9.40    8.50
  -8  11   1   13.70    7.30
   8  11  -1    9.30    7.80
  -8  11   1   28.50    7.90
   8 -11   1   20.50    7.90
   8 -11   1   28.10    8.70
  -8 -11  -1   21.10    6.10
   8 -11  -1    8.80    9.30
  -8 -11   1   29.80    8.10
  -8  11  -1    5.60    9.30
  -8  11  -1    2.70    6.80
  -8  11  -1   14.80    7.90
   8 -11  -1   17.30    7.70
  -8 -11   1    4.30    7.30
  -8  11   2  -12.10   10.20
   8  11  -2    4.20    7.90
   8 -11   2    5.40    9.10
   8 -11   2   14.70    8.70
   8  11  -2    4.10    9.00
  -8 -11  -2    4.70    5.80
  -8  11   2    7.60    9.00
  -8  11  -2    4.70    8.30
   8 -11  -2    6.90    9.40
   8 -11  -2   10.80    8.10
  -8 -11   2    7.70    6.20
  -8  11  -2    0.50    9.20
  -8 -11   2   -9.20    9.70
  -8 -11   2   -3.20    7.60
   8  11  -3   16.30    8.90
   8 -11   3   14.40    9.20
   8  11  -3   17.20   10.00
  -8  11   3   -7.10    9.20
  -8  11   3   -3.70    8.60
  -8  11   3    4.20   11.20
   8 -11   3    5.30   10.60
  -8 -11   3   30.00    8.40
  -8  11  -3   11.80    7.70
   8 -11  -3   20.80    9.80
  -8 -11   3  -10.90   10.50
   8 -11  -3   10.90   10.50
  -8  11  -3   11.90    9.10
  -8 -11   3    7.30    8.60
   0 -12   0   77.69    7.40
   0 -12   0   70.49    8.80
   0  12   0   69.59    6.80
   0  12   0   77.69    8.50
   0  12   0   81.89    7.50
   0 -12   0   86.59    8.70
   0 -12   0   88.59    9.40
   0  12   0   75.29    9.70
   0  12  -1 1165.18   66.39
   0 -12   1 1195.68   68.79
   0  12   1 1160.88   64.79
   0  12   1 1159.48   64.79
   0  12   1 1191.58   64.39
   0 -12   1 1227.18   65.69
   0 -12   1 1133.79   65.69
   0  12  -1 1181.18   65.79
   0 -12  -1 1138.29   64.79
   0  12  -1 1236.48   66.29
   0 -12  -1 1245.98   67.79
   0 -12  -1 1213.48   65.99
   0 -12   1 1283.57   67.39
   0  12   1 1212.38   65.09
   0 -12  -1 1256.57   64.99
   0  12  -1 1278.27   68.69
   0 -12  -2   22.60    3.40
   0 -12   2   13.30    4.50
   0 -12  -2   25.90    5.90
   0 -12   2   25.70    7.10
   0  12  -2   18.30    7.40
   0  12   2   20.80    5.60
   0  12  -2   23.00    9.30
   0 -12   2   17.50    6.80
   0  12  -2   20.30    4.20
   0 -12   2   31.00    7.30
   0 -12  -2   29.50    8.90
   0  12  -2   26.30    5.00
   0  12   2   20.20    5.60
   0 -12  -2   26.80    4.50
   0 -12  -2   28.30    5.40
   0  12  -3   72.49    8.40
   0 -12  -3   50.49   12.70
   0  12   3   72.09    7.10
   0 -12   3   59.39    7.60
   0 -12  -3   78.39    7.00
   0  12   3   79.19    7.00
   0 -12   3   65.59    7.50
   0 -12  -3   75.89    5.90
   0 -12   3   85.99   10.50
   0  12  -3   76.59   11.20
   0  12  -3   74.09    8.00
   0 -12   3   79.59   11.10
   0  12  -3   51.89   11.70
   0 -12  -3   75.59   10.30
   0 -12  -3   72.09    7.00
   0 -12   3   58.69    9.10
   0 -12  -4  767.02   47.30
   0 -12   4  898.31   51.29
   0  12  -4  851.41   49.70
   0 -12  -4  902.41   55.29
   0 -12  -4  935.31   47.20
   0 -12  -4  816.72   45.40
   0  12   4  765.12   45.20
   0 -12   4  844.22   49.60
   0 -12   4  901.81   45.00
   0 -12   4  804.52   51.49
   0  12  -4  963.20   51.29
   0 -12  -4  773.42   50.49
   0  12   4  888.01   45.60
   0 -12  -4  901.01   46.30
   0  12  -4  815.82   50.69
   0 -12   4  849.61   49.10
   0  12  -5   75.59   13.40
   0 -12  -5   51.79    5.20
   0  12  -5   55.59    6.10
   0 -12  -5   60.99    3.60
   0 -12   5   60.39    6.40
   0 -12  -5   59.29    3.60
   0 -12  -5   64.69    6.50
   0  12  -5   57.79    6.00
   0 -12   5   74.79    8.10
   0 -12   6    1.90    5.20
   0 -12   6   10.40    5.10
   0  12  -6    5.80    5.40
   0  12   6    2.60    7.30
   0  12  -6   17.10    5.10
   0  12  -6   19.20   12.00
   0 -12   6    2.10    5.80
   0 -12  -6    2.90    6.40
   0 -12  -6    8.80    3.50
   0  12  -7    5.70    6.40
   0 -12   7    3.30    6.70
   0 -12   7   -0.20    6.30
   0 -12   7   11.80    7.00
   0  12  -7    7.00    7.30
   1 -12   0  311.27   20.40
  -1  12   0  334.37   20.80
  -1 -12   0  280.97   21.90
   1 -12   0  300.07   22.50
  -1  12   0  339.97   20.50
  -1 -12   0  340.57   20.50
   1 -12   0  328.37   21.80
  -1 -12   0  298.27   20.00
   1 -12   0  325.87   21.60
   1  12   0  328.47   20.70
  -1 -12   0  358.96   22.40
  -1  12   0  323.87   20.90
   1  12   0  329.47   20.30
   1  12   0  292.47   21.40
   1  12   0  329.67   20.20
  -1  12   0  298.97   21.50
   1 -12   1 1136.69   68.99
  -1 -12  -1 1210.78   64.99
   1 -12   1 1232.28   66.09
   1  12  -1 1121.49   68.29
  -1 -12  -1 1087.49   67.09
   1 -12   1 1260.97   67.59
   1 -12   1 1151.78   66.09
  -1 -12  -1 1309.47   66.49
   1  12  -1 1226.08   66.79
  -1 -12  -1 1253.67   65.09
   1  12  -1 1279.77   66.59
   1  12  -1 1224.28   66.19
  -1  12   1 1218.58   65.29
  -1  12   1 1225.28   65.79
  -1  12   1 1129.89   64.89
   1 -12  -1 1199.88   65.19
   1 -12  -1 1137.69   65.49
  -1 -12   1 1208.78   66.09
   1  12   1 1176.18   64.99
   1 -12  -1 1395.56   69.39
   1  12   1 1225.28   64.29
  -1 -12   1 1265.27   67.69
   1  12   1 1202.08   65.19
   1 -12  -1 1261.37   66.69
  -1  12  -1 1177.18   66.99
  -1  12  -1 1208.78   66.29
   1  12   1 1152.88   64.69
  -1  12  -1 1303.07   66.99
   1 -12  -1 1189.18   67.99
  -1  12  -1 1042.40   67.89
  -1 -12   1 1242.68   66.09
   1 -12   2  139.29   10.60
  -1  12   2  132.49    8.60
  -1 -12  -2  143.29   11.00
  -1  12   2  129.59   10.20
   1 -12   2  131.09   10.80
   1  12  -2  118.19   10.30
  -1 -12  -2  125.79    8.90
  -1  12   2  118.99    9.00
   1 -12   2  121.69   11.70
   1  12  -2   98.39   13.80
   1 -12   2  100.19   12.10
  -1 -12  -2  136.99    9.80
  -1 -12  -2   99.09    9.90
  -1  12   2  115.59    7.90
   1  12  -2  129.39   11.50
   1 -12   2  134.99   12.60
   1  12  -2  115.39   11.00
   1 -12  -2  132.99   10.50
  -1  12  -2  119.99   11.30
   1 -12  -2  134.99   11.40
  -1 -12   2  118.59   12.10
   1  12   2  119.19    9.70
   1  12   2  130.99    9.70
  -1 -12   2  119.99   12.40
  -1  12  -2  145.59   12.30
   1 -12  -2  100.69   10.60
  -1  12  -2  116.19   14.10
   1 -12  -2  130.49   13.80
  -1 -12   2  121.29   10.60
  -1  12  -2  126.79   10.80
   1 -12  -2  123.09    9.80
  -1  12   3  179.08   12.40
   1  12  -3  173.88   15.60
   1 -12   3  174.58   14.50
  -1  12   3  159.78   12.20
   1  12  -3  144.89   13.60
   1 -12   3  164.88   15.30
  -1 -12  -3  159.58   10.90
  -1 -12  -3  179.28   12.30
  -1 -12  -3  162.78   14.90
  -1 -12  -3  164.78   10.40
   1 -12   3  157.48   12.80
   1 -12   3  149.39   14.70
   1  12  -3  157.08   13.20
   1 -12  -3  173.38   13.00
  -1  12  -3  193.48   16.40
   1 -12  -3  169.58   12.20
  -1 -12   3  172.88   15.60
   1 -12  -3  160.48   13.00
  -1  12  -3  159.68   13.10
   1 -12  -3  168.38   11.50
   1  12   3  159.08   10.90
  -1 -12   3  153.78   12.90
  -1  12  -3  161.28   14.10
   1  12  -4   53.09    6.50
  -1 -12  -4   50.79    3.40
   1  12  -4   62.09   11.80
  -1 -12  -4   40.70   18.90
   1 -12   4   40.30    7.80
   1 -12   4   34.70    9.30
  -1  12   4   50.59    6.30
   1  12  -4   37.30    5.80
  -1 -12  -4   48.30    5.90
  -1 -12  -4   55.99   10.70
   1 -12  -4   47.20    7.20
  -1 -12   4   47.90   11.70
  -1  12  -4   50.59    7.00
  -1 -12   4   50.79   10.20
   1 -12  -4   42.20    5.10
  -1  12  -4   44.40    5.80
   1 -12  -4   48.00    6.20
  -1 -12   4   48.70    7.40
   1 -12  -4   41.60    4.90
  -1  12  -4   37.70   10.70
  -1 -12   4   35.40    4.90
   1  12   4   49.99    3.20
  -1  12   5   30.60    4.50
   1 -12   5   34.40    6.10
  -1  12   5   31.70    5.10
   1  12  -5   26.60    4.90
  -1 -12  -5   39.10    4.90
   1  12  -5   34.70    4.90
   1  12  -5   39.90   10.80
   1 -12   5   32.10    4.80
  -1 -12   5   34.00    4.90
  -1 -12   5   35.10    5.10
  -1  12  -5   44.60    5.40
   1 -12  -5   36.00    4.80
   1 -12  -5   35.10    5.20
   1 -12  -5   35.10    6.70
  -1  12  -5   31.30    4.90
   1 -12  -5   37.60    3.60
  -1  12  -5   37.10   10.30
   1 -12   6   59.99    8.30
   1 -12   6   49.10    6.20
   1 -12   6   53.19    6.80
   1  12  -6   69.89    6.50
   1  12  -6   57.89    6.50
  -1  12  -6   63.79    7.10
   1 -12  -6   53.19    3.90
  -1 -12   6   51.39    6.90
   1 -12  -6   46.20    6.10
   1 -12  -6   64.09   11.60
  -1 -12   6   59.79    6.70
  -1  12  -6   67.59    6.70
  -1  12  -6   91.69   15.30
  -1 -12   6   53.59    5.70
   1 -12  -6   57.99    3.80
   1  12  -7    8.80    6.80
  -1  12   7   -0.50    9.10
   1 -12   7   -6.00    7.20
   1 -12   7    5.50    6.60
   1 -12   7   -1.10    6.40
  -1  12  -7    6.80    6.30
  -1 -12   7    0.40    8.10
  -1  12  -7    3.90    7.50
  -1 -12   7   -8.80    7.00
  -1 -12   7   -6.10   10.50
   2 -12   0  558.34   33.90
  -2 -12   0  538.15   37.00
  -2  12   0  536.75   34.90
   2 -12   0  619.34   35.60
   2  12   0  609.14   33.40
   2  12   0  489.95   34.70
  -2 -12   0  590.94   33.80
  -2  12   0  583.04   33.50
  -2 -12   0  534.65   33.10
   2 -12   0  585.94   35.10
  -2  12   0  572.24   34.40
   2 -12   0  603.64   34.10
   2  12   0  569.54   33.60
  -2 -12   0  613.54   35.10
   2 -12   0  555.54   36.50
   2  12   0  577.94   33.30
  -2  12   0  625.84   34.80
   2  12  -1  425.66   26.00
  -2  12   1  407.76   26.10
  -2 -12  -1  409.06   25.00
   2 -12   1  398.86   26.10
   2 -12   1  439.06   26.70
   2  12  -1  428.36   26.50
   2 -12   1  412.06   26.00
  -2  12   1  433.76   25.80
  -2 -12  -1  433.56   26.70
  -2  12   1  412.76   25.30
   2 -12   1  413.46   28.90
   2  12  -1  424.06   26.50
   2  12  -1  400.86   29.20
   2 -12   1  441.16   27.70
  -2  12   1  439.06   26.00
  -2 -12   1  439.16   26.90
  -2 -12   1  493.85   29.80
  -2  12  -1  432.76   26.10
   2 -12  -1  389.56   25.80
  -2  12  -1  442.66   27.40
   2 -12  -1  389.76   29.00
   2  12   1  397.26   24.90
   2 -12  -1  444.46   27.30
  -2 -12   1  443.76   27.90
   2  12   1  434.86   25.60
  -2 -12   1  426.66   26.20
   2 -12  -1  447.96   28.70
   2  12   1  426.86   24.90
   2 -12  -1  396.16   27.80
   2  12   1  405.76   24.00
  -2  12  -1  346.67   28.00
  -2  12  -1  452.85   27.60
   2 -12   2  267.27   20.70
  -2  12   2  289.07   17.30
  -2  12   2  292.17   19.10
   2  12  -2  286.07   20.40
  -2  12   2  272.07   17.70
   2 -12   2  305.97   20.20
   2 -12   2  292.97   21.80
   2  12  -2  281.97   20.10
  -2 -12  -2  292.17   17.70
  -2  12   2  310.97   18.30
  -2 -12  -2  298.67   19.00
   2  12  -2  282.37   19.50
  -2 -12  -2  276.37   17.20
   2 -12   2  275.97   19.40
  -2 -12   2  274.87   21.30
  -2  12  -2  294.47   21.10
  -2  12  -2  258.47   22.40
  -2 -12   2  273.47   19.00
  -2  12  -2  295.37   20.60
   2 -12  -2  290.27   20.60
   2 -12  -2  271.77   20.40
   2 -12  -2  299.07   22.50
   2  12   2  277.37   17.90
  -2  12  -2  279.07   19.40
   2 -12  -2  290.07   20.30
   2 -12  -2  276.67   18.70
   2  12   2  294.17   17.80
  -2 -12   2  293.67   20.80
   2 -12  -2  278.57   18.90
   2 -12   3   33.40    8.80
   2 -12   3   27.30    5.60
   2 -12   3   29.40    6.20
  -2  12   3   35.60    4.10
   2  12  -3   35.70    9.80
  -2 -12  -3   27.90    3.40
  -2 -12  -3   27.90    8.10
  -2 -12  -3   26.60    4.90
  -2 -12  -3   34.10    7.10
   2  12  -3   31.60    5.60
  -2  12   3   28.60    6.80
   2  12  -3   24.20    5.30
   2  12  -3   12.70   11.90
   2 -12   3   32.30    8.40
  -2 -12   3   30.90    7.00
  -2 -12   3   31.10    5.30
   2 -12  -3   31.50    7.10
  -2 -12   3   34.70    9.80
   2 -12  -3   30.00    4.50
   2  12   3   35.20    4.80
  -2  12  -3   36.90    5.90
   2 -12  -3   31.40    8.80
   2  12   3   26.10    4.80
  -2  12  -3   30.30    5.40
  -2 -12   3   31.50    8.60
   2 -12  -3   37.60    5.40
  -2  12  -3   29.40    8.30
   2 -12  -3   37.10    7.90
   2 -12   4    1.60    8.10
  -2 -12  -4    4.00    3.50
  -2  12   4    2.80    4.60
   2 -12   4   -3.60    4.20
   2 -12   4   -0.40    3.60
   2  12  -4    4.70    9.40
  -2 -12  -4    3.40    4.10
  -2 -12  -4   -3.50    7.80
  -2  12   4   -2.10    5.00
   2  12  -4    1.00    3.40
  -2  12   4   11.40    5.60
   2 -12  -4    4.60    3.70
  -2 -12   4    9.30    6.20
  -2 -12   4    4.60    3.90
   2 -12  -4    8.30    6.30
  -2  12  -4    3.40    3.60
   2 -12  -4    5.60    5.20
  -2  12  -4   10.80    9.10
  -2  12  -4    2.30    3.80
  -2  12   5   57.39    8.80
   2  12  -5   67.79    7.40
   2 -12   5   80.69    6.50
   2  12  -5   55.79    6.60
   2 -12   5   84.59    8.40
  -2 -12  -5   71.99    6.40
  -2  12   5   68.49    8.40
   2 -12  -5   71.79    7.90
  -2 -12   5   59.69    8.30
  -2 -12   5   80.39    7.30
  -2 -12   5   69.09    8.10
  -2  12  -5   82.39   12.40
   2 -12  -5   76.39    6.10
   2 -12  -5   81.39    9.80
  -2  12  -5   83.79    6.90
  -2  12  -5   63.09    6.60
   2 -12  -5   67.09    7.20
  -2 -12   5   67.79    7.10
  -2  12   6   -1.40    7.30
   2 -12   6    3.30    5.10
   2  12  -6   -0.50    6.30
   2 -12   6   -1.50    5.80
   2  12  -6   11.10    5.70
  -2  12   6    7.10    7.70
   2 -12   6    4.40    6.90
  -2  12  -6    2.80    5.70
  -2 -12   6   -1.40    5.90
  -2 -12   6    1.80    9.00
   2 -12  -6   -5.50   13.60
   2 -12  -6   -0.70    4.90
  -2 -12   6   -3.10    4.10
  -2  12  -6   19.60   17.30
  -2  12  -6    1.90    6.00
   2  12  -7   14.50    8.50
  -2  12   7   -4.30   10.00
   2 -12   7   25.20    7.60
   2  12  -7   14.00    7.40
   2 -12   7   18.60    6.90
  -2  12  -7   12.00    6.70
  -2 -12   7   15.30    7.50
  -2  12  -7    7.70    7.90
  -2 -12   7    1.00    9.60
  -2 -12   7    0.70    7.40
   3 -12   0  469.45   30.20
  -3 -12   0  463.45   28.60
   3  12   0  473.35   28.00
  -3  12   0  470.15   29.40
   3 -12   0  416.26   30.80
   3  12   0  387.56   29.70
   3 -12   0  471.65   29.00
  -3 -12   0  487.75   30.20
  -3 -12   0  543.55   34.30
  -3  12   0  445.76   29.10
  -3  12   0  484.05   28.40
   3  12   0  468.95   28.50
   3  12   0  460.75   27.90
  -3 -12   0  454.85   27.90
  -3  12   0  498.25   30.10
   3 -12   0  453.05   28.70
  -3  12   1  142.89   11.30
   3  12  -1  112.39   15.10
   3 -12   1  148.09   13.40
  -3  12   1  142.39   11.00
   3  12  -1  125.59   11.00
  -3 -12  -1  139.59   10.60
   3  12  -1  149.99   13.30
  -3 -12  -1  140.89   11.60
  -3 -12  -1  152.98   13.60
   3 -12   1  155.18   14.50
  -3  12   1  148.69   12.60
   3 -12   1  142.09   13.80
   3 -12   1  140.19   11.80
  -3  12   1  166.58   13.60
   3  12  -1  139.09   12.10
  -3 -12  -1  130.59   16.70
   3 -12  -1  138.49   11.50
  -3  12  -1  149.19   11.50
   3 -12  -1  119.99   12.90
  -3 -12   1  142.59   13.10
  -3  12  -1  124.89   14.30
  -3  12  -1  166.38   14.60
   3 -12  -1  146.39   14.40
  -3 -12   1  124.99   13.00
   3  12   1  135.79   11.60
  -3  12  -1  141.49   12.50
   3  12   1  145.39   11.90
   3  12   1  135.89   10.30
  -3 -12   1  130.99   11.30
   3  12   1  129.39    9.30
   3 -12  -1  154.28   12.70
  -3 -12   1  159.38   14.40
   3 -12   2  687.73   42.90
  -3  12   2  766.42   40.50
   3 -12   2  690.73   44.50
  -3 -12  -2  695.33   39.20
  -3  12   2  683.43   41.10
   3  12  -2  647.14   42.10
   3 -12   2  682.13   41.30
   3  12  -2  703.93   41.80
  -3  12   2  741.93   40.70
   3  12  -2  743.13   42.60
   3 -12   2  677.03   41.40
  -3 -12  -2  765.82   41.40
  -3  12   2  685.43   40.30
  -3 -12   2  675.83   43.90
   3 -12  -2  741.23   42.80
  -3 -12   2  718.53   42.50
  -3 -12   2  679.33   41.30
   3 -12  -2  706.93   40.70
   3 -12  -2  679.13   41.00
  -3  12  -2  700.33   43.10
   3 -12  -2  669.83   43.40
   3  12   2  753.82   39.70
  -3  12  -2  714.83   41.40
   3 -12  -2  752.52   42.80
  -3  12  -2  763.32   43.00
   3  12   2  695.53   39.70
  -3 -12  -3  252.47   18.80
  -3  12   3  262.87   15.90
  -3  12   3  262.27   16.00
   3  12  -3  240.78   17.70
  -3 -12  -3  248.18   15.30
  -3 -12  -3  258.17   14.80
  -3 -12  -3  256.67   17.30
   3  12  -3  243.68   19.30
  -3  12   3  240.98   14.90
   3  12  -3  235.98   18.60
   3 -12   3  246.68   19.80
   3 -12   3  239.58   17.40
   3 -12   3  260.57   20.60
   3 -12   3  250.57   19.90
  -3  12   3  228.58   17.60
  -3  12  -3  250.47   20.30
   3 -12  -3  226.88   18.70
  -3 -12   3  266.27   20.60
  -3 -12   3  243.08   20.40
   3 -12  -3  254.57   19.30
   3 -12  -3  240.08   17.00
  -3  12  -3  226.38   18.80
   3  12   3  241.98   15.00
   3  12   3  236.88   15.20
   3 -12  -3  226.28   19.40
  -3 -12   3  266.47   18.10
   3 -12  -3  241.08   17.60
  -3 -12  -4   74.29   11.50
  -3  12   4   87.29    6.90
   3 -12   4   76.59    7.10
   3  12  -4   81.19    9.80
   3 -12   4   71.69    8.40
  -3 -12  -4   73.49   10.90
   3  12  -4   63.09    7.50
   3 -12  -4   79.19    8.70
   3 -12  -4   79.99    6.70
  -3  12  -4   69.49    7.40
  -3  12  -4   78.59    8.10
   3 -12  -4   70.69    8.90
  -3 -12   4   62.59    7.20
   3 -12  -4   90.19   11.20
  -3  12  -4   74.09   12.00
  -3 -12   4   80.39    8.60
   3  12  -5    6.50    5.10
  -3 -12  -5   12.70    4.40
  -3  12   5   12.60    4.30
   3 -12   5   13.80    4.60
  -3  12   5   10.20    6.70
   3  12  -5   23.60    5.20
  -3 -12  -5   17.20    3.80
   3 -12  -5    8.80    5.50
  -3  12  -5   22.30    5.10
  -3 -12   5   10.50    5.20
  -3  12  -5   31.90   11.30
  -3 -12   5   13.90    4.30
   3 -12  -5   19.50    4.80
  -3 -12   5   11.80    7.70
   3 -12  -5   13.60    3.80
  -3  12  -5   21.60    4.80
   3 -12  -5    7.00    8.40
   3 -12   6   18.60    6.70
   3  12  -6   30.90    6.90
   3  12  -6   24.20    6.60
   3 -12   6   38.90    6.20
  -3 -12   6   12.90    6.10
  -3  12  -6   19.60    6.60
  -3 -12   6   22.00    6.00
   3 -12  -6   30.10    5.10
  -3  12  -6   26.90    7.10
  -3 -12   6    6.80    7.80
  -3  12   7    2.80   11.00
   3  12  -7   11.30    8.30
   3  12  -7    8.40    9.20
   3 -12   7   -7.80    7.60
   3 -12   7   -2.40    7.90
  -3 -12   7  -12.10    8.40
   3 -12  -7    2.40    5.00
  -3  12  -7    4.80    8.60
  -3  12  -7    1.10    7.90
  -3 -12   7  -14.30   10.60
   3 -12  -7   10.70    8.40
  -3 -12   7   -2.60    7.80
   4 -12   0  300.57   23.90
   4  12   0  321.07   20.40
  -4 -12   0  300.77   22.40
  -4 -12   0  335.47   21.90
  -4  12   0  312.47   21.10
   4 -12   0  337.27   22.40
   4 -12   0  289.77   23.40
  -4  12   0  308.67   21.90
  -4 -12   0  331.87   23.50
   4  12   0  314.27   20.20
  -4 -12   0  311.77   20.50
  -4  12   0  318.57   23.10
   4  12   0  330.57   21.70
  -4  12   0  333.47   23.30
   4 -12   0  303.27   21.40
   4  12   0  276.27   23.50
  -4  12   1  377.96   24.70
  -4 -12  -1  386.76   24.20
   4  12  -1  371.26   24.40
  -4  12   1  393.16   24.00
  -4 -12  -1  344.07   24.90
   4  12  -1  363.46   23.80
   4 -12   1  356.16   24.20
   4 -12   1  342.57   27.10
   4 -12   1  381.66   25.10
  -4 -12  -1  361.76   22.60
  -4 -12  -1  399.26   25.70
  -4  12   1  362.46   24.40
  -4  12  -1  389.06   25.70
  -4 -12   1  372.66   25.20
  -4  12  -1  367.56   23.90
   4  12   1  348.57   23.50
  -4  12  -1  365.96   26.80
  -4  12  -1  402.86   26.50
  -4 -12   1  339.37   23.50
   4 -12  -1  380.36   25.00
   4 -12  -1  373.36   26.20
   4  12   1  373.76   22.80
  -4 -12   1  363.86   26.00
   4  12   1  369.86   21.60
   4 -12  -1  376.36   24.60
  -4 -12   1  350.56   26.20
   4 -12  -1  348.87   26.40
   4  12   1  378.16   23.50
   4 -12  -1  328.77   23.80
   4 -12   2  455.45   31.20
   4  12  -2  438.56   28.40
  -4 -12  -2  480.15   29.00
   4 -12   2  423.86   29.30
  -4  12   2  452.35   27.90
  -4 -12  -2  444.86   27.20
   4  12  -2  444.46   29.30
  -4  12   2  446.56   28.10
  -4 -12  -2  421.46   28.30
  -4 -12  -2  453.45   26.20
   4 -12   2  442.46   28.50
  -4  12   2  482.35   27.70
  -4  12  -2  493.85   31.30
   4 -12  -2  395.16   30.10
   4  12   2  434.76   27.30
   4  12   2  480.05   26.90
   4 -12  -2  461.15   29.60
  -4 -12   2  430.26   28.20
  -4 -12   2  446.86   30.50
  -4  12  -2  436.46   28.20
   4 -12  -2  448.86   30.40
  -4  12  -2  413.56   29.40
  -4 -12   2  470.95   30.20
   4 -12  -2  457.75   28.60
   4 -12  -2  430.16   28.00
  -4  12   3  163.78   12.10
   4  12  -3  188.18   14.30
   4 -12   3  184.88   13.50
  -4 -12  -3  195.78   15.30
  -4  12   3  191.88   13.20
  -4  12   3  170.78   13.40
   4 -12   3  199.88   15.50
  -4 -12  -3  184.38   15.60
  -4 -12  -3  168.38   13.20
  -4 -12  -3  184.78   11.40
  -4 -12   3  180.18   15.20
   4  12   3  186.48   12.40
  -4  12  -3  149.49   15.10
   4 -12  -3  164.08   14.50
  -4  12  -3  198.08   17.90
  -4 -12   3  173.68   15.10
  -4 -12   3  167.78   18.90
   4 -12  -3  168.58   14.70
  -4  12  -3  179.28   14.60
   4 -12  -3  176.68   17.30
  -4 -12  -4   58.19    8.50
  -4  12   4   44.00    5.00
   4 -12   4   57.29    7.40
  -4  12   4   49.20    5.60
   4  12  -4   52.49    6.20
  -4 -12  -4   55.39    3.50
  -4  12   4   44.70    4.00
   4 -12   4   51.79    5.70
  -4 -12  -4   49.40    3.40
   4  12  -4   62.99    6.30
  -4 -12  -4   66.19    9.80
   4 -12  -4   44.90    6.70
  -4  12  -4   48.40    5.80
   4 -12  -4   60.79    9.40
  -4 -12   4   43.50    6.10
  -4  12  -4   66.89   13.10
   4 -12  -4   51.79    5.80
  -4 -12   4   56.09    6.00
   4 -12   5    8.20    5.70
  -4 -12  -5    6.70    4.10
   4 -12   5   17.40    5.10
   4 -12   5    1.10    5.00
   4  12  -5   17.90    5.80
  -4  12   5   14.10    4.80
   4  12  -5   13.90    5.80
  -4 -12   5   -2.50    7.30
  -4 -12   5    1.80    4.90
   4 -12  -5   11.10    6.00
  -4 -12   5   19.00    5.70
  -4  12  -5    9.90    5.60
  -4  12  -5    8.40   15.00
   4 -12  -5    7.40    4.80
   4 -12   6   10.60    6.40
  -4  12   6    4.70    9.70
   4  12  -6   17.60    7.50
   4  12  -6   12.30    7.50
   4 -12   6   15.70    7.70
  -4 -12   6   23.50    7.20
   4 -12  -6   22.40    7.10
  -4 -12   6   16.20    6.60
   4 -12  -6   26.80    6.00
  -4  12  -6   17.20    7.70
   4  12  -7    2.90   15.90
  -4  12   7   -2.10   12.60
   4 -12  -7    8.70    6.50
   4 -12  -7    5.30    9.40
  -4  12  -7   14.10    9.60
  -4 -12   7   -7.80   10.50
  -4  12  -7   -1.60    8.80
  -4 -12   7    9.80    9.70
   5  12   0   27.30    5.00
   5  12   0   26.00   10.40
  -5  12   0   20.40    5.00
  -5 -12   0   29.30    5.20
   5  12   0   31.30    4.30
  -5  12   0   22.00    4.80
  -5 -12   0   23.60    9.30
  -5  12   0   18.10    5.10
   5 -12   0   22.40    4.80
   5 -12   0   29.40    7.60
  -5 -12   0   26.30    4.80
   5 -12   0   16.70    9.40
   5 -12   1  158.78   13.00
  -5  12   1  159.88   13.30
   5  12  -1  179.18   13.70
  -5 -12  -1  174.28   15.20
  -5  12   1  166.98   12.90
  -5 -12  -1  187.98   16.80
  -5 -12  -1  189.68   14.60
  -5 -12  -1  179.68   12.10
   5  12  -1  165.48   13.00
  -5  12   1  152.68   15.10
   5 -12   1  162.38   15.90
  -5 -12   1  155.48   13.30
  -5 -12   1  145.69   13.80
  -5  12  -1  171.18   13.20
   5 -12  -1  136.49   16.80
   5 -12  -1  133.19   14.40
   5  12   1  165.18   16.00
   5 -12  -1  191.88   15.30
   5  12   1  171.08   11.90
   5 -12  -1  157.98   14.80
  -5 -12   1  192.88   16.40
   5  12   1  180.28   11.40
   5 -12   2  242.58   16.00
  -5  12   2  229.58   15.80
  -5  12   2  244.88   16.40
   5  12  -2  233.18   16.70
   5 -12   2  220.58   18.20
  -5 -12  -2  231.18   16.80
  -5 -12  -2  240.38   18.90
  -5 -12  -2  260.87   17.50
   5  12  -2  216.78   16.20
  -5  12   2  218.18   17.10
  -5 -12  -2  239.18   14.70
  -5  12  -2  208.28   16.90
  -5 -12   2  188.78   16.30
   5  12   2  218.18   14.80
   5 -12  -2  220.28   18.10
  -5  12  -2  224.28   16.10
   5 -12  -2  206.58   17.70
  -5 -12   2  200.68   19.10
   5 -12  -2  196.88   15.20
   5 -12  -2  167.38   21.80
  -5 -12   2  221.68   15.70
  -5 -12  -3   40.20    7.30
   5  12  -3   45.60    5.30
  -5  12   3   45.80    5.10
  -5 -12  -3   36.70    8.40
   5 -12   3   46.40    5.50
   5  12  -3   32.00    8.40
  -5 -12  -3   36.50    5.80
  -5 -12  -3   35.00    4.30
  -5 -12  -3   35.90    9.90
  -5  12   3   46.10    6.20
   5 -12   3   43.80    6.50
  -5  12   3   36.50    7.30
   5 -12  -3   30.30    6.30
   5  12   3   30.60    7.50
   5 -12  -3   33.70    8.90
   5 -12  -3   40.10    5.90
  -5 -12   3   29.50    5.30
  -5  12  -3   36.70    5.20
  -5  12  -3   42.70    5.40
   5  12   3   20.10   10.00
  -5 -12  -4   20.90    6.30
  -5 -12  -4   36.10    9.70
   5  12  -4   37.70    6.60
  -5  12   4   25.40    5.60
  -5  12   4   27.00    4.40
  -5 -12  -4   32.30    9.20
   5 -12   4   25.60    6.40
   5 -12   4   23.00    5.90
   5  12  -4   31.30    6.00
  -5 -12  -4   23.30    3.00
  -5 -12   4   24.70    5.40
  -5 -12   4   26.10    6.00
   5 -12  -4   25.90    6.60
   5 -12  -4   29.80    6.20
   5 -12   5   52.59    8.70
   5  12  -5   75.39    8.20
   5 -12   5   63.59    7.20
   5  12  -5   47.30    7.70
   5 -12   5   57.19    7.00
  -5  12   5   69.09    8.30
  -5  12  -5   56.09    7.60
   5 -12  -5   70.19    7.60
   5 -12  -5   49.40    8.20
  -5  12  -5   62.89    7.30
  -5 -12   5   61.69    7.60
  -5 -12   5   47.50    7.30
  -5  12   6   -3.10   10.70
   5  12  -6   -3.80    8.90
   5  12  -6    4.20    8.60
   5 -12   6    8.00    8.90
  -5 -12   6   -7.30    7.90
   5 -12  -6   -1.00    8.80
  -5 -12   6    9.40    8.60
  -5  12  -6   18.70    8.50
  -5 -12   6   -6.90   12.10
  -5  12  -6    1.50    8.10
   5 -12  -6    6.80    6.80
   6  12   0  127.69    9.70
  -6 -12   0  120.39   13.80
   6  12   0  115.59    9.30
  -6  12   0  123.19   10.80
   6 -12   0  103.09    9.60
   6 -12   0  123.09   11.30
  -6  12   0  101.79    9.70
  -6  12   0  141.09   11.00
  -6 -12   0  121.79    9.80
   6 -12   0  118.09   11.30
   6 -12   1   79.99    8.50
  -6  12   1   94.99   10.30
   6 -12   1  100.89    8.20
  -6 -12  -1   92.59    7.80
  -6  12   1   88.49    8.70
   6  12  -1   95.89    8.00
  -6  12   1   88.99    7.80
   6 -12   1  103.79   10.20
   6  12  -1   93.59    8.00
  -6 -12  -1   94.89   11.40
   6  12   1   81.69    6.70
  -6  12  -1   87.19    8.00
  -6  12  -1   83.89    8.90
   6 -12  -1   70.79    9.20
  -6  12  -1   83.19    8.00
  -6 -12   1  104.19   15.60
   6 -12  -1   80.29    7.60
   6 -12  -1   94.59   10.80
   6  12   1   94.39    7.00
  -6 -12   1   89.59    8.00
   6 -12   2    9.00    5.40
  -6 -12  -2    8.80    3.70
   6  12  -2   -2.10    5.60
   6  12  -2    2.50    5.00
  -6  12   2    2.50    6.70
  -6 -12  -2   -3.90    6.60
   6 -12   2   -1.10    6.30
  -6  12   2    3.20    6.20
  -6 -12  -2    8.90    6.00
  -6  12  -2   -4.50    4.80
   6 -12  -2   -1.80    5.10
  -6  12  -2   -0.80    5.40
   6  12   2   -6.00    4.80
  -6  12  -2   -7.20    5.60
  -6 -12   2    4.90    6.00
   6 -12  -2   -1.70    6.30
  -6 -12   2   13.50    4.80
  -6  12   3   73.49    7.40
  -6  12   3   80.79    7.80
  -6 -12  -3   72.09    6.20
   6  12  -3   77.79    8.20
  -6  12   3   73.09   15.60
   6  12  -3   76.29    8.00
   6 -12   3   68.69    7.60
   6 -12   3   58.29    8.10
  -6 -12   3   72.99    7.60
  -6  12  -3   70.39    7.60
  -6  12  -3   76.69    7.20
   6 -12  -3   70.09   23.60
  -6 -12   3   66.59    7.60
   6 -12  -3   88.29    8.40
   6 -12  -3   72.29    8.80
   6  12  -4   44.50    8.10
  -6  12   4   41.50    6.20
  -6 -12  -4   32.20    6.60
   6  12  -4   32.20    8.40
   6 -12   4   35.60    7.30
  -6  12   4   23.60    7.40
   6 -12   4   40.90    9.00
  -6  12  -4   35.30    6.50
  -6 -12   4   34.00    7.40
   6 -12  -4   50.29    6.70
  -6  12  -4   47.50    7.40
   6 -12  -4   37.40    8.60
  -6 -12   4   37.90    7.70
   6  12  -5    3.30    8.50
   6 -12   5    6.00    7.80
   6 -12   5    9.80    9.20
  -6  12   5    5.30   10.20
   6  12  -5    5.90    8.70
   6 -12  -5    8.50    9.00
  -6 -12   5   -4.00    7.90
  -6  12  -5   12.10    8.10
  -6 -12   5   -8.80   11.20
   6 -12  -5    0.50    7.90
  -6 -12   5   -0.30    7.40
   7  12   0    2.10    5.50
  -7 -12   0   -5.70    5.40
   7 -12   0   12.60    7.30
   7  12   0    9.30    6.30
  -7 -12   0    1.50    7.20
  -7  12   0   -0.80    5.90
   7 -12   0    9.50    6.30
  -7  12   0    6.50    7.80
  -7  12   0   -1.50    6.40
  -7 -12  -1    0.80    5.00
  -7  12   1    5.40    7.70
   7  12  -1   14.20    6.80
  -7  12   1   12.50    6.30
  -7  12   1   -4.90    5.90
   7  12  -1    9.60    6.20
   7 -12   1    7.90    6.40
   7 -12   1   10.90    7.20
  -7 -12  -1   -6.40    7.10
  -7 -12   1    5.00    5.40
  -7  12  -1    9.40    6.70
  -7  12  -1   -1.60    7.60
  -7 -12   1    9.80    7.50
   7  12   1   16.10    5.90
   7 -12  -1    3.30    7.50
  -7  12  -1    1.70    5.70
   7  12   1    6.10    5.00
   7 -12  -1   12.30    6.10
   7  12  -2   89.79    8.30
   7  12  -2   77.69    9.40
   7 -12   2   89.89    9.00
  -7  12   2  108.69   10.40
   7 -12   2  103.09    9.90
  -7  12   2   89.99    9.00
  -7  12   2   86.29    8.80
  -7 -12  -2  107.29    8.10
  -7  12  -2   89.39    8.60
   7 -12  -2   95.69    8.90
  -7 -12   2   95.89    9.10
  -7  12  -2  103.39   10.10
  -7  12  -2   89.99    9.00
   7  12  -3   28.80    8.40
  -7  12   3   44.70    8.30
   7  12  -3   39.00    8.70
  -7  12   3   39.70    7.90
   7 -12   3   35.70    8.20
   7 -12   3   28.40    8.90
  -7 -12  -3   26.50    5.20
   7 -12  -3   33.50    8.40
   7 -12  -3   49.90    7.80
  -7  12  -3   35.00    9.00
  -7  12  -3   25.60    8.30
  -7 -12   3   39.40    7.70
  -7 -12   3   26.60    6.50
  -7  12  -3   43.20    7.20
   7 -12   4    7.00    8.50
  -7  12   4    6.50    8.50
   7 -12   4   10.50    9.70
   7  12  -4   12.10    9.40
   7  12  -4    4.50    9.60
  -7  12   4    9.10    7.50
  -7  12   4    5.30   10.90
   7 -12  -4    7.50    9.90
  -7 -12   4    4.50    8.70
  -7  12  -4   -0.10    9.20
  -7 -12   4   -5.10    8.40
  -7 -12   4   -8.70    7.70
  -8  12   0   -5.40    8.30
   8 -12   0    3.30    9.10
   8  12   0    2.50    8.50
   8  12   0   -1.60    7.40
   8 -12   0   -0.10    8.10
  -8 -12   0   -3.20    6.50
   8 -12   1    2.10    9.70
  -8  12   1  -10.00   10.80
   8  12  -1    5.90    7.90
   8  12  -1   18.80    9.00
   8 -12   1   14.90    8.50
  -8  12   1   -1.80    8.90
  -8 -12  -1   -3.60    6.50
  -8 -12  -1  -10.60    9.30
  -8 -12   1    9.00    6.90
  -8 -12   1   -9.50    9.20
  -8  12  -1    9.80    8.60
   8 -12  -1   -2.30    8.10
   8 -12  -1   16.30    9.70
  -8  12  -1  -11.40    7.60
  -8  12  -1   -3.80    9.70
  -8 -12  -2   -4.70    6.10
   8  12  -2    3.20   10.90
   8 -12   2    0.20    9.90
  -8  12   2   -6.30   10.90
   8  12  -2    6.70    8.90
  -8  12   2   -6.50    8.70
   8 -12   2    3.20   10.00
  -8 -12   2   16.00    7.90
   8 -12  -2   24.80    9.70
  -8 -12   2  -10.70   10.40
  -8  12  -2   17.90    7.90
  -8  12  -2   -8.10    9.10
   8 -12  -2    5.20    8.50
  -8 -12   2    3.70    7.00
  -8  12  -2    2.00   10.10
  -8  12   3    7.70   12.50
   8  12  -3   -1.20   10.40
   8 -12   3    2.30   10.10
   8 -12   3   -1.50   11.20
   8  12  -3    7.90   10.60
  -8  12   3   -3.20   10.00
  -8 -12   3    3.10    9.60
   8 -12  -3   -1.40   11.60
   0 -13   0   -2.10    6.10
   0  13   0    1.20    2.40
   0 -13   0    3.10    3.80
   0  13   0    3.40    2.40
   0 -13   0   -3.30    2.70
   0  13   0   -3.70    5.10
   0 -13   0    1.30    6.70
   0 -13   0    3.80    7.10
   0  13   0   -5.10    5.50
   0 -13  -1  552.24   30.50
   0  13  -1  534.05   31.80
   0 -13  -1  516.75   32.90
   0  13   1  516.65   30.00
   0  13  -1  521.15   31.70
   0  13   1  528.65   30.70
   0 -13   1  528.85   32.70
   0 -13  -1  495.15   30.10
   0 -13   1  548.95   31.10
   0  13   1  472.15   29.90
   0  13  -1  526.55   31.10
   0 -13  -1  573.74   32.10
   0  13   1  555.64   29.70
   0  13  -1  447.46   33.00
   0 -13   1  517.95   31.10
   0 -13  -1  450.65   33.40
   0  13   2    8.50    3.80
   0 -13   2   19.90    7.40
   0 -13  -2    9.60    7.10
   0 -13  -2   10.30    3.00
   0  13  -2    5.20    8.60
   0 -13   2    5.60    7.10
   0  13   2   15.10    4.60
   0 -13   2   14.50    7.30
   0  13  -2    9.60    4.10
   0 -13  -2   17.60    4.90
   0  13  -2    8.70    4.30
   0 -13   2    2.90    3.60
   0 -13   2   16.30    6.30
   0  13  -2   14.30    7.70
   0 -13  -2   10.70    4.20
   0 -13  -2   15.00    5.60
   0  13   3   82.19    8.00
   0 -13  -3   91.59    8.20
   0 -13  -3   69.19   10.90
   0 -13   3  102.49   12.40
   0 -13   3   92.39    9.00
   0  13  -3   82.69    9.10
   0  13  -3  111.69   10.70
   0 -13   3   78.59    8.90
   0 -13  -3   95.79    7.30
   0 -13  -3  108.09    9.60
   0 -13   3   96.59   11.50
   0  13   3   84.89    8.30
   0  13  -3   96.49   12.90
   0  13  -4   19.70    3.60
   0  13   4   33.70    4.90
   0  13   4   23.10    4.40
   0 -13   4   32.80    5.70
   0 -13  -4   25.70    4.80
   0 -13  -4   31.20    6.20
   0 -13   4   31.30    4.80
   0  13  -4   20.70    4.20
   0  13  -4   30.60    9.80
   0 -13  -4   25.40    4.20
   0 -13   4   29.10    3.90
   0 -13  -4   27.40    3.10
   0 -13  -5   26.40    4.60
   0 -13  -5   29.40    2.30
   0 -13   5   28.40    5.50
   0  13  -5   25.50    5.10
   0  13  -5   29.40   11.70
   0  13  -5   20.90    5.00
   0 -13  -5   30.10    2.30
   0 -13   5   28.20    5.10
   0 -13  -5   32.20    5.70
   0 -13   6   12.40    5.60
   0 -13   6   19.40    5.60
   0 -13  -6   18.40    5.50
   0  13  -6   24.00    6.40
   0 -13   6    8.40    6.40
   0  13  -6   22.30    6.20
   0 -13   7    2.70    7.10
   0 -13   7   12.60    6.90
   0  13  -7    0.30    8.50
   0  13  -7    8.70    8.00
   0 -13   7   -7.40    7.50
   1 -13   0  439.26   26.50
  -1  13   0  437.86   26.90
  -1  13   0  430.66   26.50
   1  13   0  415.36   25.80
   1 -13   0  365.46   28.30
   1  13   0  439.56   26.60
  -1  13   0  436.36   26.20
   1  13   0  432.56   27.80
  -1 -13   0  465.65   26.70
   1 -13   0  417.16   26.40
   1 -13   0  474.25   28.80
  -1 -13   0  410.26   25.90
   1  13   0  430.86   26.00
  -1  13   0  382.66   27.30
  -1 -13   0  451.45   27.80
   1 -13   0  431.16   27.70
   1  13  -1  548.65   33.00
  -1  13   1  563.24   33.10
   1  13  -1  587.34   33.90
  -1  13   1  575.54   32.40
   1 -13   1  471.25   35.40
   1 -13   1  575.84   34.70
   1  13  -1  530.15   35.70
  -1 -13  -1  562.94   32.10
   1 -13   1  553.44   33.20
   1  13  -1  548.05   33.50
   1 -13   1  585.04   33.50
  -1 -13  -1  540.25   32.00
   1 -13   1  606.84   34.20
  -1 -13  -1  596.54   33.70
  -1  13   1  567.64   32.00
   1 -13  -1  510.45   34.60
  -1 -13   1  539.45   33.00
   1  13   1  564.94   31.20
   1 -13  -1  605.04   36.10
  -1  13  -1  547.75   33.90
  -1  13  -1  546.75   33.10
  -1 -13   1  579.14   34.80
  -1  13  -1  578.24   34.00
   1  13   1  533.05   31.80
  -1  13  -1  460.25   35.00
   1  13   1  586.04   32.50
   1 -13  -1  556.54   32.70
   1 -13  -1  572.04   32.70
   1  13   1  492.65   31.60
  -1 -13   1  570.64   33.30
   1 -13  -1  590.24   34.20
  -1  13   2  825.32   46.00
  -1  13   2  816.02   45.90
  -1 -13  -2  903.21   47.30
  -1 -13  -2  801.72   46.90
  -1  13   2  859.41   47.90
   1 -13   2  835.72   50.89
   1 -13   2  903.11   49.40
   1 -13   2  832.92   52.09
   1 -13   2  835.62   49.00
   1 -13   2  960.60   48.80
   1  13  -2  871.81   50.29
  -1 -13  -2  879.71   48.50
   1  13  -2  934.81   50.29
   1  13  -2  882.31   49.60
  -1 -13   2  809.82   49.10
   1  13   2  865.91   47.50
   1  13   2  867.61   47.30
  -1  13  -2  900.81   49.60
   1 -13  -2  916.71   52.59
   1 -13  -2  855.41   47.90
   1 -13  -2  738.83   49.50
  -1  13  -2  734.93   51.59
  -1  13  -2  807.72   50.09
   1 -13  -2  936.81   49.20
  -1  13  -2  889.61   50.29
  -1 -13   2  895.11   50.99
  -1 -13   2  879.41   49.30
   1 -13  -2  885.21   47.70
   1 -13   3  584.24   36.80
   1 -13   3  622.64   35.90
  -1 -13  -3  608.94   33.60
   1 -13   3  564.94   37.90
   1  13  -3  572.24   35.40
  -1 -13  -3  547.65   36.00
   1 -13   3  551.14   34.70
   1  13  -3  610.94   36.20
  -1 -13  -3  574.14   32.00
  -1  13   3  578.84   33.20
  -1 -13  -3  484.45   33.70
  -1 -13  -3  576.64   32.10
   1  13  -3  577.14   36.40
   1 -13  -3  663.73   34.80
  -1 -13   3  486.05   36.90
  -1 -13   3  589.34   35.10
   1 -13  -3  575.44   33.00
  -1  13  -3  679.63   37.70
  -1  13  -3  580.84   35.20
   1  13   3  574.04   32.00
  -1 -13   3  599.44   35.30
   1 -13  -3  608.74   33.20
  -1  13  -3  577.64   36.60
   1 -13  -3  527.95   34.80
  -1 -13  -4   32.40    2.60
   1  13  -4   24.60    4.70
   1  13  -4   25.60    6.60
   1 -13   4   18.20    5.30
  -1 -13  -4   35.70    6.80
   1 -13   4   29.20    4.60
  -1 -13  -4   26.60    4.00
   1  13  -4   25.00   10.90
  -1  13   4   30.40    5.80
  -1 -13  -4   19.40    4.30
  -1 -13   4   28.60    5.80
   1 -13  -4   23.30    4.80
   1  13   4   26.70    3.30
   1 -13  -4   27.60    3.60
  -1 -13   4   19.80    4.60
   1  13   4   26.60    3.30
   1 -13  -4   27.10    6.80
  -1  13  -4   23.30    4.50
  -1  13  -4   36.60   10.20
  -1  13  -4   22.10    5.40
   1 -13  -4   32.30    5.60
   1  13  -5   15.00    4.80
  -1  13   5   13.80    4.10
  -1 -13  -5   10.90    4.20
  -1 -13  -5    7.30    3.90
   1  13  -5    7.40    4.50
  -1  13   5   18.40    4.70
  -1  13   5    0.80    6.10
   1 -13   5    6.70    5.60
   1 -13   5   15.00    4.50
   1 -13  -5   11.60    4.20
   1 -13  -5   12.40    6.00
   1 -13  -5   10.90    4.00
  -1  13  -5   10.90    4.60
   1 -13  -5   12.40    2.80
  -1  13  -5   22.30    4.90
  -1 -13   5    9.30    5.10
  -1  13  -5   18.90   11.20
  -1 -13   5   20.40    5.00
  -1 -13   5   11.10    3.60
   1 -13   6   19.90    5.80
   1  13  -6   28.10    7.40
   1 -13   6   27.00    6.10
   1 -13   6   29.70    6.00
   1  13  -6   32.60    6.30
  -1 -13  -6   11.40   10.80
   1 -13  -6   21.10    2.90
  -1  13  -6   30.60    6.00
   1 -13  -6   28.90    2.60
  -1 -13   6   31.40    6.80
   1 -13  -6   35.60    6.20
  -1  13  -6   41.80    6.10
   1  13  -7   14.70    8.30
   1 -13   7   -4.60    7.70
   1  13  -7    8.30    8.40
   1 -13   7    6.60    7.20
   1 -13   7   25.00   11.50
  -1  13   7   -4.30   10.20
  -1  13  -7   10.00    8.20
  -1 -13   7   11.30    8.40
  -1  13  -7    1.90    7.90
  -1 -13   7   -0.80    7.30
  -1 -13   7    3.00    8.30
  -2 -13   0  717.83   40.70
   2 -13   0  612.84   41.70
   2  13   0  687.63   38.70
   2 -13   0  710.23   39.50
  -2  13   0  691.63   39.00
   2 -13   0  675.83   40.60
   2  13   0  688.53   39.20
   2  13   0  692.03   40.80
   2 -13   0  711.63   41.00
  -2  13   0  623.94   39.50
  -2  13   0  664.73   39.80
   2 -13   0  628.94   39.20
   2  13   0  706.13   38.80
  -2 -13   0  632.54   38.50
   2  13  -1    5.20    3.90
  -2  13   1    7.60    2.80
  -2 -13  -1    7.60    5.20
  -2 -13  -1   -1.80    7.40
  -2 -13  -1    7.50    3.20
  -2  13   1   -2.50    3.90
   2 -13   1    8.90    4.90
  -2  13   1    6.80    5.30
  -2  13   1    2.70    5.80
   2  13  -1   10.10    3.20
   2  13  -1   -8.60    8.20
   2 -13   1    3.20    3.30
  -2 -13  -1    5.30    3.50
   2 -13   1    7.20    6.10
  -2  13   1    4.60    2.70
   2 -13   1    7.20    6.70
   2  13  -1   -1.20    5.80
   2 -13   1    5.80    5.90
  -2 -13  -1    7.50    6.60
   2  13   1    5.90    5.10
  -2  13  -1    4.80    3.50
   2 -13  -1    2.30    3.00
   2 -13  -1    8.20    7.20
  -2 -13   1    2.00    6.20
   2 -13  -1    3.70    5.60
  -2  13  -1    0.70    3.50
  -2  13  -1   -4.80    6.50
  -2 -13   1   10.40    7.40
  -2 -13   1    6.00    7.60
   2 -13  -1    6.20    6.30
  -2 -13   1    2.60    3.30
   2  13   1    6.90    4.80
   2  13   1   10.10    2.80
  -2 -13   1    1.30    4.50
   2 -13  -1    2.80    4.30
  -2  13  -1    3.60    7.50
   2  13   1    4.20    1.80
  -2 -13  -2  413.76   24.50
   2 -13   2  398.56   26.10
   2  13  -2  383.86   26.80
  -2  13   2  427.06   24.60
  -2 -13  -2  436.26   26.20
  -2  13   2  449.06   25.00
  -2  13   2  421.36   24.10
  -2 -13  -2  413.86   24.20
   2 -13   2  415.76   26.70
  -2  13   2  415.86   25.80
   2  13  -2  425.86   26.50
   2 -13   2  433.06   29.60
   2  13  -2  411.66   27.30
  -2 -13   2  427.76   27.60
  -2 -13   2  436.96   28.90
  -2  13  -2  446.46   27.70
  -2  13  -2  399.46   27.40
  -2 -13   2  387.66   26.00
   2 -13  -2  423.26   27.70
   2 -13  -2  409.96   25.50
  -2 -13   2  340.37   28.10
   2  13   2  388.76   24.80
  -2  13  -2  409.16   26.40
   2 -13  -2  428.26   25.50
   2 -13  -2  345.37   27.10
  -2  13  -2  389.76   29.60
   2  13   2  407.06   24.50
   2 -13  -2  454.85   29.90
   2 -13  -2  455.55   27.20
  -2  13   3  343.07   20.00
  -2  13   3  329.97   21.00
   2 -13   3  333.77   23.00
  -2 -13  -3  306.67   18.90
   2 -13   3  293.17   23.60
   2 -13   3  274.57   23.10
  -2 -13  -3  316.27   18.60
   2  13  -3  309.97   21.80
  -2 -13  -3  326.07   23.20
   2  13  -3  333.17   24.10
   2 -13   3  306.27   21.40
   2  13  -3  304.07   22.90
  -2 -13  -3  338.57   20.80
   2  13   3  298.67   19.80
   2 -13  -3  358.76   22.20
   2  13   3  309.17   18.90
   2 -13  -3  330.67   20.50
   2 -13  -3  302.87   22.20
  -2 -13   3  318.17   21.70
  -2  13  -3  335.47   21.90
  -2 -13   3  333.67   24.00
  -2 -13   3  334.77   23.30
  -2  13  -3  318.17   23.20
  -2  13  -3  351.46   24.60
   2 -13  -3  323.27   20.80
  -2 -13  -4    7.10    1.30
  -2 -13  -4    7.70    4.00
  -2  13   4   10.90    6.10
   2  13  -4    4.40    5.00
  -2  13   4    2.50    6.00
   2 -13   4   -1.40    4.70
  -2  13   4   -5.00    5.20
  -2 -13  -4    4.70    1.20
   2 -13   4    8.70    3.70
   2  13  -4    1.70    4.10
   2 -13  -4    8.30    4.10
  -2  13  -4    4.20    3.90
  -2 -13   4    8.20    4.00
   2 -13  -4   14.70    5.20
  -2 -13   4    5.40    5.80
  -2  13  -4    4.50    4.20
   2 -13  -4    7.80    3.00
  -2  13  -4   -1.80    8.30
  -2 -13   4    7.50    6.20
   2 -13  -4    2.70    6.30
   2 -13   5   49.00    6.40
   2 -13   5   64.39    6.00
   2  13  -5   44.30    6.10
  -2 -13  -5   44.10    5.70
  -2  13   5   59.99    8.70
   2  13  -5   51.49    6.30
  -2  13  -5   51.19    6.10
  -2 -13   5   56.59    6.90
   2 -13  -5   52.69    6.80
  -2 -13   5   55.39    8.90
  -2 -13   5   37.00   10.00
  -2  13  -5   64.29   14.40
   2 -13  -5   44.80    6.40
   2 -13  -5   54.49    5.00
   2 -13  -5   65.99    9.20
  -2  13  -5   64.19    6.10
   2  13  -6   14.50    6.20
  -2  13   6   -2.70    8.50
   2 -13   6   12.90    6.90
   2  13  -6    9.70    6.30
   2 -13   6    9.10    5.80
   2 -13   6   -7.60    6.20
   2 -13  -6    2.60    5.80
  -2 -13   6   -1.40    6.00
  -2  13  -6    9.50    6.50
  -2  13  -6    4.80    5.60
  -2 -13   6   11.30    5.30
  -2 -13   6   -5.80    6.00
   2 -13   7   -5.80    7.80
   2 -13   7   10.00    7.70
   2  13  -7   10.50    8.70
  -2  13   7   -1.90   10.90
   2  13  -7   11.50    8.80
  -2 -13   7    1.60   10.30
  -2  13  -7   19.90    7.40
  -2 -13   7   -3.20    9.00
  -2 -13   7    3.70    7.80
  -2  13  -7    9.70    8.50
  -3 -13   0   98.79   14.30
  -3  13   0  111.79   11.70
  -3 -13   0  100.79    8.90
  -3  13   0  108.29    9.50
  -3  13   0  109.49   11.70
  -3 -13   0   92.49   10.50
  -3 -13   0  106.29   12.20
   3  13   0  100.29    8.20
  -3  13   0   91.79    9.90
   3  13   0   99.19   10.50
   3  13   0  102.49    8.70
   3 -13   0   91.89    9.40
   3 -13   0  107.79   11.60
   3 -13   0  101.69   11.80
   3 -13   0   86.79   11.00
  -3 -13  -1  604.24   45.30
  -3  13   1  719.03   41.20
  -3  13   1  700.13   41.00
  -3 -13  -1  693.33   39.60
  -3 -13  -1  750.72   42.10
  -3 -13  -1  714.03   40.60
  -3  13   1  727.73   40.60
   3  13  -1  700.93   41.50
   3 -13   1  656.43   43.90
   3 -13   1  717.43   41.60
   3 -13   1  680.13   41.20
   3  13  -1  703.33   40.90
  -3 -13   1  724.73   41.70
   3  13   1  706.33   38.50
   3 -13  -1  647.74   40.70
   3 -13  -1  650.43   43.40
   3  13   1  601.94   39.40
   3  13   1  749.13   40.40
  -3 -13   1  785.12   46.00
  -3 -13   1  714.03   43.00
   3  13   1  720.23   39.80
  -3  13  -1  687.53   42.30
   3 -13  -1  713.93   40.90
  -3  13  -1  703.03   40.90
   3 -13  -1  719.23   42.50
  -3  13  -1  746.53   42.70
  -3 -13   1  673.33   40.70
  -3 -13  -2  979.20   51.89
  -3  13   2  980.70   50.89
  -3  13   2  951.60   50.79
   3  13  -2  876.31   52.69
   3 -13   2  871.91   51.99
   3  13  -2  924.91   52.49
  -3  13   2  933.61   50.99
   3 -13   2  894.61   52.19
  -3 -13  -2  920.11   49.70
  -3  13   2  880.71   52.09
   3  13  -2  898.71   53.09
   3 -13   2  825.22   54.89
   3 -13  -2  919.61   51.69
   3  13   2  948.51   50.09
  -3 -13   2  958.30   52.99
   3  13   2  885.41   50.09
  -3 -13   2  834.82   54.49
  -3  13  -2  959.40   53.49
   3 -13  -2  922.61   53.19
   3 -13  -2  795.82   53.49
  -3 -13   2  886.11   51.89
  -3  13  -2  856.81   53.39
   3 -13  -2  919.41   51.29
   3 -13  -2  945.41   53.39
  -3 -13  -3   42.10    4.30
  -3 -13  -3   28.80    5.10
  -3 -13  -3   47.30    7.80
  -3  13   3   43.30    4.30
  -3  13   3   36.20    5.30
  -3  13   3   46.90    3.70
   3  13  -3   29.30    4.80
   3 -13   3   47.60    5.90
  -3 -13  -3   32.90    9.30
   3  13  -3   31.90    5.70
   3 -13   3   42.90    6.40
  -3 -13  -3   44.50    6.00
  -3 -13   3   50.29   12.10
   3 -13  -3   40.50   12.10
  -3 -13   3   38.90    7.00
  -3 -13   3   36.60    4.60
   3 -13  -3   42.30    9.40
  -3  13  -3   60.29   11.60
   3 -13  -3   35.20    5.50
   3  13   3   40.90    5.80
   3  13   3   34.50    5.20
  -3  13  -3   38.10    6.40
  -3  13  -3   43.50    5.30
   3 -13   4    2.50    5.10
   3  13  -4    7.70    4.60
   3  13  -4    6.40    4.50
  -3 -13  -4    4.40    4.20
  -3 -13  -4    5.30    1.20
  -3 -13  -4   15.90   14.20
  -3  13   4    1.20    3.80
  -3 -13  -4    3.10    1.20
  -3 -13  -4    5.00    5.00
  -3  13   4   -0.60    4.70
   3 -13   4   14.00    3.90
   3 -13  -4   11.70    5.00
  -3 -13   4    2.60    7.10
   3 -13  -4    1.10    5.10
  -3  13  -4   13.40   11.00
  -3  13  -4   11.10    4.30
   3 -13  -4    7.80    8.00
  -3 -13   4   11.10    4.70
   3 -13  -4    7.40    5.60
  -3 -13  -5    7.70    4.20
   3  13  -5   13.50    5.80
  -3  13   5    0.50    7.00
   3 -13   5   20.40    5.30
   3  13  -5   11.70    5.60
   3 -13   5    9.60    5.80
  -3  13  -5   11.30    4.80
  -3 -13   5    5.20    4.50
  -3  13  -5   17.00    5.50
  -3 -13   5    0.50    5.50
   3 -13  -5   23.40    6.70
  -3 -13   5    9.00    5.30
   3 -13  -5    7.40    4.10
   3 -13  -5   18.30   11.20
  -3  13  -5   35.40   26.20
   3  13  -6    2.80    6.90
   3 -13   6   15.70    7.50
   3 -13   6    1.60    6.70
  -3  13   6   -3.80    8.70
   3  13  -6    4.80    7.10
   3 -13   6   20.80    6.10
   3 -13  -6   19.30    6.90
  -3  13  -6   14.40    6.20
  -3 -13   6   -2.20    8.20
  -3 -13   6    1.60    6.20
   3 -13  -6   10.00    4.60
  -3 -13   6    5.50    6.80
   3 -13   7    0.70    8.90
   3  13  -7    9.70    8.60
   3  13  -7    6.00    9.20
   3 -13   7   -9.70    8.40
  -3  13   7   -1.50   12.10
  -3 -13   7   -1.50    8.70
  -3 -13   7   -0.40    8.20
  -3  13  -7   -5.10    8.80
  -3  13  -7   -8.50    9.40
  -3 -13   7  -14.20   11.70
   3 -13  -7    9.00    5.10
  -4  13   0  331.97   22.90
  -4 -13   0  332.87   21.30
  -4 -13   0  313.97   23.40
   4 -13   0  324.17   22.20
  -4  13   0  332.97   24.00
   4  13   0  340.77   20.90
   4 -13   0  283.27   23.90
  -4 -13   0  345.17   24.50
  -4 -13   0  341.07   23.10
   4  13   0  284.07   24.40
   4 -13   0  323.87   22.80
   4  13   0  336.77   21.10
  -4  13   0  323.57   21.50
   4 -13   1  166.98   15.50
   4 -13   1  147.09   12.20
   4  13  -1  147.99   11.60
  -4  13   1  146.19   11.60
  -4  13   1  128.19   12.70
  -4  13   1  148.19   12.30
  -4 -13  -1  139.69   10.70
  -4 -13  -1  145.39   13.40
  -4 -13  -1  165.08   14.70
   4  13  -1  140.99   11.50
  -4 -13  -1  119.09   12.50
  -4  13  -1  155.58   13.40
  -4 -13   1  146.99   13.30
  -4  13  -1  137.79   14.60
   4  13   1  137.49   10.60
  -4 -13   1  148.99   14.30
  -4  13  -1  143.09   11.80
   4 -13  -1  113.99   11.50
   4  13   1  152.38    9.80
   4 -13  -1  145.59   13.70
   4  13   1  126.09   12.30
   4 -13  -1  144.09   14.20
   4 -13  -1  151.98   13.50
   4  13   1  127.69   12.20
  -4 -13   1  141.79   11.40
  -4 -13  -2  123.09   11.80
  -4  13   2  122.89   12.30
   4 -13   2  109.69   16.10
  -4  13   2  128.79   10.70
  -4 -13  -2  138.09   10.00
  -4 -13  -2  143.09   13.60
   4  13  -2  146.09   11.20
   4 -13   2  125.59   10.90
  -4 -13  -2  133.29   12.10
  -4  13   2  139.59   10.80
   4  13  -2  135.99   11.70
  -4  13  -2  124.29   16.10
   4  13   2  121.49   14.00
   4 -13  -2  141.09   14.10
   4 -13  -2  128.89   13.30
   4  13   2  152.68   11.90
  -4  13  -2  145.79   11.00
  -4 -13   2  133.39   15.50
  -4 -13   2  140.69   14.70
  -4  13  -2  157.28   17.60
   4 -13  -2  131.89   13.00
   4 -13   3    5.80    5.10
  -4 -13  -3   13.60    3.20
  -4 -13  -3   24.60    7.80
  -4  13   3   12.50    5.70
  -4 -13  -3   17.70    4.50
   4 -13   3   19.90    4.80
  -4  13   3   19.50    4.10
  -4  13   3   14.10    3.60
   4  13  -3   23.50    5.20
  -4  13   3   18.70    5.50
  -4 -13  -3   25.10    7.70
   4  13  -3    6.00    4.50
  -4  13  -3   15.30    4.50
   4 -13  -3   17.80    4.10
   4 -13  -3   12.40    6.70
   4  13   3   16.70    4.80
   4 -13  -3    8.30    5.00
  -4 -13   3   11.70    4.60
  -4  13  -3   25.20   13.70
  -4 -13   3   10.60    4.30
   4 -13   4   87.79    8.10
  -4 -13  -4   95.29    8.10
  -4 -13  -4  100.79   10.40
   4 -13   4   79.69    7.40
   4  13  -4   76.29    8.00
  -4 -13  -4   83.79    5.30
   4  13  -4   88.79    7.90
  -4 -13  -4  102.39   14.70
  -4  13   4   71.69    6.50
  -4  13   4   87.19    8.00
  -4 -13  -4   86.59    5.30
  -4 -13   4   80.29    7.60
  -4  13  -4   84.89    7.40
   4 -13  -4   77.39    7.50
   4 -13  -4   97.19    9.60
  -4  13  -4   89.79    8.20
   4 -13  -4   86.39    9.80
  -4 -13  -5    5.60    4.60
  -4  13   5    9.30    8.00
   4  13  -5    6.00    6.50
   4  13  -5   12.60    6.40
   4 -13   5    4.20    5.50
  -4  13   5   -8.40    8.10
   4 -13   5    8.00    6.60
   4 -13  -5    5.80    4.90
  -4  13  -5   11.00    5.50
   4 -13  -5    2.70    8.20
  -4 -13   5    3.80    7.80
  -4  13  -5    2.10    6.20
  -4 -13   5   -5.70    6.00
   4 -13   6   12.10   10.60
   4  13  -6    3.50    8.90
   4 -13   6   -2.80    7.20
   4 -13   6   -0.30    8.20
   4  13  -6   -0.90    8.00
  -4  13   6    3.80    9.90
  -4  13  -6    8.70    6.70
   4 -13  -6    8.50    8.50
  -4 -13   6    5.40    7.90
  -4 -13   6   -6.20    9.70
   4 -13  -6    3.60    5.50
  -4  13  -6   -4.70    8.00
  -5 -13   0  576.64   34.80
  -5 -13   0  510.45   32.50
   5 -13   0  479.15   36.20
  -5 -13   0  619.04   36.20
   5 -13   0  572.04   40.30
   5  13   0  556.84   32.80
  -5  13   0  543.05   36.60
  -5  13   0  543.55   33.70
   5 -13   0  541.05   33.80
   5  13   0  516.25   32.70
   5 -13   0  557.04   33.90
   5  13  -1    1.70    5.10
   5  13  -1   -0.50    4.20
   5  13  -1    2.80   12.10
  -5  13   1    0.50    5.50
  -5  13   1   -0.20    8.10
  -5 -13  -1   -3.70    4.10
   5 -13   1    1.70    5.50
  -5 -13  -1    1.30    4.50
  -5 -13  -1    0.50   12.90
  -5  13   1   -1.10    4.30
   5 -13   1   -6.50    4.60
  -5  13   1   -3.00    4.10
   5 -13  -1    2.80    7.00
   5 -13  -1    0.40    5.30
  -5 -13   1   -4.70    8.60
  -5  13  -1   -0.50    5.10
  -5  13  -1    5.70    4.60
  -5 -13   1    3.90    4.60
   5  13   1    4.80    2.90
   5  13   1    3.60    5.80
   5 -13  -1    8.80    8.40
  -5 -13   1    1.40    3.70
  -5  13  -1   -0.30    4.90
  -5  13   2   68.59    6.40
  -5  13   2   56.29    6.30
  -5 -13  -2   79.39    7.30
  -5 -13  -2   65.59    7.10
   5  13  -2   69.99    7.10
   5  13  -2   57.89    6.10
  -5  13   2   57.39    9.40
  -5 -13  -2   67.39    9.90
  -5 -13  -2   81.69   12.50
   5 -13  -2   80.99    8.10
   5  13   2   62.09    6.50
   5 -13  -2   59.79    6.20
  -5  13  -2   56.69    7.50
  -5 -13   2   62.19    6.60
  -5 -13   2   67.49    7.20
   5 -13  -2   56.09   10.60
  -5  13  -2   61.09    6.30
  -5 -13   2   68.49   13.30
  -5  13   3   45.30    6.00
   5  13  -3   31.80    5.80
   5 -13   3   55.19    6.90
  -5 -13  -3   42.10    4.70
   5  13  -3   35.30    6.50
  -5 -13  -3   39.90   10.50
  -5  13   3   29.10    8.40
  -5 -13  -3   42.80    9.70
  -5 -13  -3   41.60   11.20
  -5  13   3   41.90    5.10
   5 -13  -3   57.69   10.50
  -5 -13   3   50.59    5.90
   5 -13  -3   44.80    7.80
   5 -13  -3   46.60    5.50
  -5  13  -3   42.00    5.50
  -5  13   4    0.20    6.00
   5 -13   4    6.40    6.40
  -5  13   4    1.00    7.60
   5 -13   4    1.30    6.90
   5  13  -4    6.60    6.30
  -5 -13  -4    3.20    5.30
   5  13  -4    7.70    6.20
  -5 -13  -4    0.70    2.30
  -5 -13   4   -4.00    5.20
   5 -13  -4   -3.60    5.00
  -5  13  -4    4.30    6.10
   5 -13  -4    5.60    7.00
  -5  13  -4    0.30    7.30
  -5 -13   4   -2.90    8.10
  -5 -13   4   15.20    5.80
  -5  13   5   -3.80    9.20
   5 -13   5    5.10    8.00
   5  13  -5   13.90    7.70
   5  13  -5   -0.30    7.50
   5 -13   5   -6.10    7.00
   5 -13   5    2.70    6.70
  -5 -13   5    1.40    7.10
  -5  13  -5    4.50    6.30
  -5 -13   5   -9.10    6.40
  -5 -13   5   -4.40    9.60
   5 -13  -5    6.80    5.60
  -5  13  -5    5.90    7.60
   5 -13  -5   10.50    8.50
   5  13  -6   -6.90    9.50
   5  13  -6    3.20    9.40
   5 -13   6   -1.50    9.30
  -5  13   6   19.20   13.40
   5 -13   6    3.60    8.00
   5 -13  -6   11.20    9.50
  -5 -13   6   -7.30    8.40
  -5 -13   6  -17.00   13.20
   5 -13  -6    6.70    7.10
  -5 -13   6    1.80    9.20
  -5  13  -6    0.10    7.90
  -5  13  -6   -2.20    9.20
   6  13   0   61.39    6.90
  -6 -13   0   67.79   11.60
   6 -13   0   69.99    6.60
  -6  13   0   57.69    6.60
  -6  13   0   50.09    6.30
  -6 -13   0   50.39    6.50
   6  13   0   62.99    6.00
   6 -13   0   58.29    8.00
   6 -13   0   63.89   10.00
   6  13   0   41.20   14.70
   6 -13   1   28.60    6.80
  -6 -13  -1   35.00    7.50
   6  13  -1   40.80    7.40
   6 -13   1   46.90    6.30
   6 -13   1   48.70    9.70
  -6 -13  -1   39.80    5.20
   6  13  -1   44.30    6.60
   6  13   1   41.10    4.80
   6 -13  -1   40.20    7.30
  -6  13  -1   41.60    5.90
  -6 -13   1   32.40    5.40
  -6  13  -1   34.30    5.80
   6 -13  -1   25.60    9.00
   6 -13  -1   40.30    6.20
  -6 -13   1   34.60   12.20
   6  13   1   39.80    5.70
  -6 -13  -2   36.30    5.10
  -6  13   2   23.20    7.40
  -6  13   2   41.40    6.20
  -6  13   2   25.70    6.40
  -6 -13  -2   21.50    8.00
   6  13  -2   50.59    6.80
  -6  13  -2   21.10    6.70
  -6  13  -2   35.80    5.80
   6  13   2   34.80    6.20
   6 -13  -2   34.90    6.10
   6 -13  -2   46.70    7.60
  -6 -13  -3   20.70    4.50
  -6 -13  -3    9.70    6.40
   6  13  -3   12.30    7.10
   6 -13   3   22.40    7.20
  -6  13   3    9.70    8.30
   6 -13   3   25.80    7.00
   6  13  -3   17.80    6.90
  -6  13   3   18.20    5.70
  -6  13   3   15.50    6.70
  -6 -13   3   12.30    5.60
   6 -13  -3   24.70    6.30
  -6 -13   3   21.30    6.10
  -6  13  -3   19.30    5.70
  -6 -13   3   12.60    6.70
   6 -13  -3   21.80    7.30
  -6  13  -3   14.90    5.90
  -6  13  -3   19.00    6.40
  -6 -13  -4   33.30    9.10
  -6  13   4   32.20    7.30
   6  13  -4   24.40    8.20
   6 -13   4   18.30    7.90
   6  13  -4   27.50    7.70
  -6  13   4   23.70    7.20
   6 -13   4   34.00    9.40
  -6  13  -4   12.50    6.40
  -6 -13   4   22.50    6.70
   6 -13  -4   32.40    7.20
  -6  13  -4   27.20    7.50
  -6 -13   4   16.70    7.30
   6 -13  -4   38.30    9.10
   6 -13   5    5.60    9.50
   6  13  -5   18.50    9.40
  -6  13   5    2.20   12.00
   6 -13   5   14.30    8.40
   6  13  -5    8.40    9.40
   6 -13  -5   13.50   10.40
   6 -13  -5   11.10    7.40
  -6  13  -5   15.70    8.80
  -6 -13   5    1.30    8.90
  -7  13   0    2.30    8.00
   7  13   0    7.60    5.90
   7 -13   0    4.60    6.60
   7  13   0    9.70    7.70
  -7  13   0   -0.80    6.80
   7 -13   0   10.80    7.60
  -7 -13   0   -4.80    7.70
  -7  13   1    3.60    8.20
  -7 -13  -1   14.20    7.90
   7 -13   1   33.60    7.70
   7 -13   1   17.80    8.10
  -7  13   1   16.70    7.40
   7  13  -1   18.60    6.50
   7  13  -1   29.90    8.30
  -7 -13   1    8.60    5.60
   7 -13  -1   24.70    6.70
  -7  13  -1   21.70    6.30
   7  13   1    4.80    6.50
   7  13   1   20.90    6.00
  -7  13  -1   20.50    7.00
   7 -13  -1   16.20    8.00
  -7  13   2   19.50    7.60
   7 -13   2   24.00    8.50
   7 -13   2   23.90    7.10
  -7  13   2    2.30    9.00
   7  13  -2    8.70    7.30
   7  13  -2   10.70    7.90
  -7  13   2    1.90    7.20
  -7 -13  -2   -6.90    8.40
  -7 -13  -2   11.60    5.10
  -7  13  -2   22.30    7.40
  -7  13  -2   10.50    6.50
  -7 -13   2   12.10    5.70
   7 -13  -2   14.20    7.60
  -7  13  -2   -0.90    8.30
   7 -13  -2   14.90    8.90
  -7 -13   2   15.50    6.50
   7 -13   3   37.10    9.20
  -7  13   3    6.60    8.20
  -7  13   3   35.50    8.30
  -7  13   3    4.30   10.30
   7  13  -3   35.30    9.50
   7  13  -3   29.90    8.80
   7 -13   3   40.20   11.20
  -7  13  -3   21.90    8.00
  -7  13  -3   21.50    7.10
   7 -13  -3   44.60   11.80
  -7 -13   3   32.10    8.20
  -7 -13   3   23.10    6.70
   7 -13  -3   43.40    8.20
  -7  13  -3   21.50   16.20
  -7  13   4   46.40   17.60
  -7 -13  -4  -11.10   20.40
   7  13  -4   33.30    9.60
   7 -13   4   27.00   10.80
   7  13  -4   15.50   10.20
  -7 -13   4   28.00    8.80
  -7  13  -4   23.60    9.50
  -7  13  -4   44.20   10.90
   7 -13  -4   52.39   11.20
   7 -13  -4   25.30   10.90
   8 -13   0    2.20   10.30
  -8  13   0   12.20    9.60
   8 -13   0   15.10    8.90
   8  13   0   15.00    7.90
  -8 -13   0    6.00    6.90
  -8  13   0  -14.70   10.40
  -8  13   1   -6.10    9.70
   8  13  -1   18.30   11.10
  -8  13   1   -9.00   11.80
  -8 -13  -1  -12.10    7.10
   8  13  -1   -5.10    8.30
   8 -13   1   18.50   10.40
   8 -13   1   -3.40    9.30
  -8 -13  -1   -4.20   10.00
  -8  13  -1   -4.30   11.00
  -8  13  -1    8.30    9.40
   8 -13  -1   10.30    8.90
   8 -13  -1    6.00   10.80
  -8 -13   1    2.80    7.60
  -8 -13   1    1.30   10.10
   8 -13   2    5.70    9.90
   8 -13   2    6.60   11.00
  -8 -13  -2   -0.50    6.80
  -8  13   2    1.90   10.30
  -8  13   2   -6.50   12.70
   8  13  -2   16.00    9.70
   8  13  -2   13.00   10.70
  -8  13  -2   27.30    9.90
  -8 -13   2   25.40   12.50
   8 -13  -2   33.10   10.50
  -8  13  -2   22.70    8.40
  -8 -13   2  -10.80   11.20
  -8  13  -2    4.80   11.20
   0 -14   0 1840.22   91.49
   0  14   0 1827.92   91.99
   0 -14   0 1595.34   90.99
   0 -14   0 1440.86   93.69
   0  14   0 1730.53   91.49
   0  14   0 1579.74   92.39
   0 -14   0 1789.82   92.89
   0  14   0 1763.82   91.39
   0 -14  -1  367.66   21.90
   0 -14   1  344.97   22.20
   0 -14  -1  375.76   23.90
   0 -14   1  387.46   23.30
   0  14  -1  376.66   23.50
   0 -14  -1  287.87   24.60
   0 -14  -1  307.07   23.40
   0  14  -1  338.97   22.10
   0 -14  -1  326.27   21.40
   0  14   1  345.87   22.10
   0  14   1  328.27   21.40
   0  14  -1  328.47   25.00
   0  14  -1  328.07   22.70
   0 -14   1  355.26   24.30
   0  14   1  346.37   21.10
   0  14   1  350.16   20.70
   0 -14  -2  806.52   53.89
   0 -14   2  890.11   53.39
   0  14   2  992.30   52.29
   0  14  -2  788.32   56.19
   0 -14   2  966.60   54.19
   0  14  -2  950.20   53.99
   0 -14  -2 1043.30   53.59
   0 -14  -2  958.30   51.99
   0  14  -2 1044.10   55.09
   0 -14  -2  991.40   52.09
   0  14  -2  893.91   54.49
   0 -14   2  999.20   54.09
   0  14   2  946.91   51.79
   0  14  -3  425.46   28.40
   0 -14  -3  378.56   22.90
   0 -14   3  375.36   25.40
   0 -14  -3  413.16   36.10
   0  14  -3  399.86   25.80
   0  14   3  387.66   23.40
   0 -14   3  413.76   27.00
   0  14   3  360.16   23.40
   0 -14  -3  419.86   25.10
   0 -14  -3  387.46   23.30
   0  14  -3  389.16   27.00
   0 -14  -4   76.99    5.70
   0 -14  -4   75.79    8.70
   0  14   4   70.99    7.00
   0 -14  -4   66.69    7.30
   0 -14   4   83.79    8.00
   0  14   4   70.19    6.70
   0 -14   4   86.09   11.20
   0  14  -4   77.09    7.90
   0  14  -4   75.09    9.00
   0 -14  -4   70.89    6.90
   0  14  -4  108.09   16.60
   0 -14   4   79.89    6.40
   0 -14  -5   11.90    2.10
   0 -14  -5    6.10    4.10
   0  14   5    3.20    6.80
   0 -14  -5   16.20    5.30
   0 -14   5   22.40    5.20
   0  14  -5    5.50    5.00
   0  14  -5    7.40    4.90
   0 -14  -5   10.10    2.20
   0 -14   5   19.80    6.10
   0  14  -6   15.70    6.20
   0 -14   6   29.90    6.60
   0  14   6    3.40    7.90
   0 -14   6   18.00    5.90
   0  14  -6   30.50    6.70
   0 -14   6   20.20    6.50
   0 -14  -6   14.90    8.10
   0 -14   7    6.40    7.50
   0 -14   7   26.80    8.90
   0  14  -7   13.90    7.80
   0  14  -7    8.90    8.90
   1 -14   0  525.95   33.70
  -1 -14   0  610.34   34.10
   1 -14   0  593.14   35.80
  -1  14   0  588.54   34.30
   1 -14   0  527.65   36.70
  -1 -14   0  612.64   35.80
   1  14   0  591.14   34.50
  -1  14   0  601.94   35.80
  -1  14   0  557.74   33.80
   1  14   0  569.04   33.60
   1  14   0  499.45   35.00
  -1 -14   0  537.15   33.50
   1  14   0  553.44   33.50
   1 -14   0  606.44   34.30
   1 -14   0  647.64   37.10
  -1  14   1  409.66   24.50
   1  14  -1  392.26   26.00
  -1 -14  -1  457.35   27.00
  -1 -14  -1  437.76   25.20
   1 -14   1  382.46   25.50
  -1  14   1  410.36   24.80
  -1 -14  -1  398.76   24.60
  -1  14   1  409.16   26.00
   1 -14   1  466.75   27.50
   1  14  -1  418.36   32.30
   1 -14   1  414.76   26.40
   1  14  -1  376.86   28.30
   1 -14   1  351.76   28.00
   1 -14   1  415.26   27.60
   1  14  -1  424.76   25.80
  -1  14  -1  420.76   26.80
   1 -14  -1  390.16   27.70
   1  14   1  420.36   23.80
   1 -14  -1  411.76   25.30
  -1 -14   1  368.36   25.30
   1 -14  -1  434.16   27.10
   1  14   1  422.16   24.70
   1 -14  -1  433.06   28.90
  -1 -14   1  419.96   27.80
   1  14   1  414.46   25.50
  -1 -14   1  413.16   26.00
  -1  14  -1  392.06   25.60
  -1  14  -1  399.56   26.50
   1 -14  -1  338.67   27.00
   1  14  -2  249.38   18.80
   1 -14   2  281.97   22.20
   1  14  -2  254.67   18.10
   1 -14   2  247.88   17.80
   1 -14   2  225.78   20.70
  -1  14   2  254.87   15.20
  -1 -14  -2  273.77   16.90
  -1  14   2  247.38   17.30
  -1 -14  -2  261.57   18.20
  -1  14   2  240.78   14.70
   1  14  -2  256.17   18.70
  -1 -14  -2  251.27   15.90
   1 -14   2  273.97   19.40
  -1  14   2  253.97   16.30
  -1  14  -2  262.77   20.10
  -1 -14   2  272.87   19.40
   1 -14  -2  243.68   16.40
   1  14   2  239.58   16.60
   1 -14  -2  205.28   17.80
   1 -14  -2  266.07   18.80
  -1  14  -2  244.78   18.70
   1  14   2  234.98   19.10
   1 -14  -2  252.07   20.60
  -1  14  -2  247.28   17.70
   1 -14  -2  246.28   17.10
  -1 -14   2  239.08   17.70
  -1 -14  -3  219.78   13.80
   1 -14   3  231.78   14.80
   1  14  -3  203.68   17.00
  -1 -14  -3  195.38   18.90
  -1 -14  -3  231.78   15.80
   1 -14   3  220.88   18.10
   1 -14   3  210.08   15.80
   1  14  -3  239.68   19.60
  -1  14   3  217.18   15.30
  -1  14   3  220.88   18.90
  -1 -14  -3  218.48   14.30
   1  14  -3  226.98   16.70
  -1  14  -3  232.88   20.10
   1 -14  -3  220.98   14.60
   1 -14  -3  209.98   15.30
   1  14   3  210.28   14.10
   1 -14  -3  251.87   17.20
   1 -14  -3  180.68   15.70
  -1 -14   3  237.38   18.70
  -1  14  -3  203.08   17.00
  -1 -14   3  213.18   16.10
  -1  14  -3  215.68   16.20
  -1 -14  -4   41.80    4.80
  -1 -14  -4   42.60    3.60
   1  14  -4   31.80    5.80
  -1  14   4   38.60    6.70
   1 -14   4   35.40    6.00
  -1  14   4   49.50    6.80
  -1 -14  -4   34.50    5.20
  -1 -14  -4   45.30    6.80
   1  14  -4   44.80    6.60
   1 -14   4   41.20    5.10
   1  14   4   44.70    4.50
  -1  14  -4   45.30    5.40
   1 -14  -4   44.70    8.20
   1 -14  -4   43.40    5.40
  -1 -14   4   39.10    6.00
  -1 -14   4   36.30    5.40
  -1  14  -4   53.19   13.50
   1 -14  -4   43.40    4.50
   1  14   4   44.80    4.40
  -1  14  -4   41.10    5.40
   1 -14  -4   39.30    6.00
  -1 -14  -5   30.50    6.60
   1  14  -5   26.90    5.50
   1 -14   5   24.10    5.50
  -1 -14  -5   22.70    5.40
   1 -14   5   28.60    7.00
   1  14  -5   32.30    5.70
  -1  14   5   37.00    6.10
  -1  14   5   26.00    6.50
  -1  14  -5   28.60    5.50
   1 -14  -5   21.80    5.00
   1 -14  -5   38.70    6.00
   1 -14  -5   33.80    3.60
  -1 -14   5   39.90    5.90
   1 -14  -5   28.80    7.40
  -1  14  -5   30.00    5.60
  -1 -14   5   40.20    8.50
   1 -14   6    0.50    7.30
   1  14  -6    1.10    6.30
   1  14  -6    1.30    6.80
   1 -14   6   10.60    6.20
  -1  14   6   -2.70    8.80
   1 -14   6   -1.90    6.00
  -1 -14   6   11.60    6.40
  -1  14  -6   14.80    6.10
  -1  14  -6   13.40    6.90
   1 -14  -6    1.60    5.50
  -1 -14   6   -2.30    6.80
  -1 -14   6    3.10    5.70
  -1  14   7    6.80   11.40
   1 -14   7   23.00    7.80
   1 -14   7   -1.80    8.10
   1  14  -7    8.10    8.10
   1  14  -7   18.00    9.40
   1 -14   7   18.00    8.00
  -1 -14   7    3.20    7.30
  -1  14  -7    4.30    8.70
  -1  14  -7   21.60    8.60
  -1 -14   7    1.10    8.30
  -1 -14   7   11.00    7.50
   2  14   0 1413.86   77.19
  -2  14   0 1424.76   78.49
   2 -14   0 1426.86   78.09
  -2 -14   0 1461.05   77.29
   2 -14   0 1447.06   79.29
  -2 -14   0 1414.46   77.19
   2 -14   0 1520.55   77.99
   2  14   0 1459.75   77.69
   2  14   0 1404.26   77.19
   2  14   0 1217.28   78.29
  -2 -14   0 1504.65   79.39
   2 -14   0 1501.15   79.89
   2 -14   0 1283.27   80.59
  -2 -14  -1  408.16   26.00
   2 -14   1  373.36   26.30
   2 -14   1  385.86   25.50
   2 -14   1  324.57   26.90
   2 -14   1  412.56   25.90
  -2 -14  -1  372.56   23.30
   2  14  -1  386.16   25.00
  -2  14   1  381.86   23.70
   2  14  -1  361.76   24.10
  -2  14   1  375.46   23.80
  -2  14   1  401.86   24.70
   2 -14   1  367.56   24.60
  -2 -14  -1  422.16   24.40
   2 -14  -1  402.26   24.70
   2 -14  -1  343.67   26.30
   2  14   1  331.47   23.10
  -2 -14   1  362.06   24.30
   2 -14  -1  381.36   24.40
   2  14   1  406.06   22.40
   2 -14  -1  411.76   27.70
   2 -14  -1  404.56   26.40
   2  14   1  400.96   23.50
  -2  14  -1  377.66   25.60
  -2 -14   1  410.76   27.20
  -2  14  -1  380.56   26.20
  -2  14  -1  341.07   27.00
   2  14   1  419.36   24.60
  -2 -14  -2   41.00    7.80
  -2 -14  -2   35.70    4.30
   2 -14   2   34.10    9.30
   2  14  -2   34.70    5.50
   2 -14   2   20.10    5.10
  -2  14   2   28.80    3.60
   2  14  -2   31.20    5.90
  -2  14   2   36.70    6.00
  -2 -14  -2   35.80    7.10
   2 -14   2   22.70    6.30
   2  14  -2   36.20    8.40
  -2  14   2   43.30    9.00
  -2  14   2   34.70    4.60
   2 -14  -2   18.00   10.70
  -2 -14   2   22.60    5.70
  -2 -14   2   22.50    6.90
   2 -14  -2   51.19    9.70
  -2 -14   2   34.10    9.10
   2 -14  -2   33.00    9.70
  -2  14  -2   31.80   12.10
   2 -14  -2   25.50    6.10
   2 -14  -2   31.80    8.50
   2 -14  -2   22.60    4.60
  -2  14  -2   31.00   10.10
   2  14   2   29.40    6.90
   2  14   2   26.60    7.20
  -2  14  -2   28.10    5.60
  -2 -14  -3    4.00    2.40
   2 -14   3    4.50    2.90
   2  14  -3    7.60    3.40
  -2  14   3    7.90    7.80
  -2 -14  -3    7.50    3.90
  -2  14   3   10.70    3.00
  -2 -14  -3   -0.80    4.70
  -2 -14  -3   10.20    5.80
  -2 -14  -3    8.10    8.80
   2  14  -3    6.20    4.00
  -2  14  -3    5.80    3.80
  -2  14  -3   13.90   10.90
  -2 -14   3   -3.30    5.20
   2 -14  -3    5.10    3.20
   2  14   3    9.70    4.10
  -2  14  -3    1.40    3.90
  -2 -14   3   -1.00    7.00
   2 -14  -3    7.00    7.10
   2 -14  -3    5.70    5.90
  -2 -14  -4   21.30    2.20
   2 -14   4   25.30    6.30
  -2 -14  -4   20.00    5.60
   2  14  -4   16.30    4.70
   2  14  -4   13.00    4.70
   2 -14   4   27.00    4.70
   2 -14  -4   17.80    4.10
  -2  14  -4   18.00    4.70
   2 -14  -4   16.90    4.60
   2  14   4   16.40    2.70
   2 -14  -4   28.10    6.00
  -2 -14   4   18.60    5.30
  -2  14  -4   32.00   18.00
   2 -14  -4   32.40    8.20
  -2 -14   4   17.70    6.60
  -2  14  -4   17.80    4.30
   2 -14   5   31.40    5.70
   2 -14   5   30.80    6.40
   2  14  -5   31.80    5.70
   2  14  -5   25.10    6.20
   2 -14  -5   30.90    6.90
  -2  14  -5   26.50    5.70
  -2 -14   5   23.10    5.80
   2 -14  -5   33.10    9.30
  -2  14  -5   39.90    6.00
   2 -14  -5   28.50   11.00
  -2 -14   5   35.40    5.90
   2 -14   6   46.80    7.40
   2  14  -6   58.29    9.20
   2 -14   6   54.99    8.50
   2  14  -6   51.19    7.60
  -2 -14   6   38.80    7.40
  -2  14  -6   43.10    7.60
  -2  14  -6   57.39    7.40
   2 -14  -6   58.29    5.00
  -2 -14   6   35.80    8.20
   2  14  -7   -5.90    8.80
   2 -14   7    7.90    8.60
   2  14  -7   11.70    9.50
  -2  14   7    6.10   11.90
   2 -14   7  -11.30    8.50
  -2 -14   7   -6.40    8.90
  -2  14  -7   18.50    9.20
  -2 -14   7  -13.40   10.90
   3 -14   0    7.70    4.90
  -3 -14   0    4.80   10.10
  -3 -14   0    5.50    3.90
  -3  14   0    4.50    7.30
   3 -14   0   10.70    8.90
  -3  14   0    4.50    3.40
  -3 -14   0    8.60    7.60
  -3  14   0   -2.80    4.90
   3 -14   0    9.70    4.00
   3  14   0   10.60    3.00
   3  14   0    8.50    8.30
   3 -14   0    0.10    7.20
   3  14   0   11.60    8.00
  -3 -14   0    1.60    8.40
  -3 -14  -1   81.69   11.30
   3 -14   1   76.09   11.20
   3  14  -1   76.19    7.20
  -3 -14  -1   72.09    7.30
  -3  14   1   77.19    9.90
   3 -14   1   59.39    9.30
  -3  14   1   69.29    7.60
   3  14  -1   45.80   13.30
   3 -14   1   73.49    7.90
   3  14  -1   65.19    7.70
  -3 -14  -1   54.39   23.00
  -3  14   1   77.89    6.90
  -3 -14   1   80.39   12.90
   3  14   1   70.09    8.70
   3  14   1   83.69   10.30
  -3 -14   1   87.29   11.10
  -3 -14   1   71.39   12.00
  -3  14  -1   74.39    8.70
   3  14   1   79.39    6.20
  -3 -14   1   72.49    7.40
   3  14   1   75.89    5.60
  -3  14  -1   63.09   12.50
   3 -14  -1   68.39    7.80
   3 -14  -1   69.09    9.40
   3 -14  -1   71.29   10.10
  -3  14  -1   81.99   13.00
  -3  14  -1   83.59    7.70
   3 -14  -1   66.29   11.20
  -3  14   2   30.70    6.80
   3  14  -2   10.80   12.00
  -3 -14  -2   25.50    7.10
   3  14  -2   21.00    5.50
   3 -14   2   24.60    5.00
   3 -14   2   38.30   10.40
  -3 -14  -2   28.80    4.10
  -3 -14  -2   37.60    7.90
  -3  14   2   27.50    3.70
   3 -14   2   20.10    5.60
   3  14  -2   25.00    3.80
  -3  14   2   32.00    4.60
   3 -14  -2   24.30    4.20
   3 -14  -2   36.40    9.90
  -3  14  -2   31.00    4.80
   3 -14  -2   14.30    5.50
   3  14   2   24.80    7.30
   3 -14  -2   31.70    7.80
  -3 -14   2   28.60    5.70
  -3 -14   2   41.30   11.40
  -3 -14   2   22.10    4.50
  -3 -14   2   38.80   10.10
   3  14   2   27.30    6.80
  -3  14  -2   29.10    9.90
  -3 -14  -3    3.70    4.40
  -3  14   3    5.80    3.50
  -3 -14  -3   11.30    4.00
  -3  14   3    8.00    3.80
  -3 -14  -3   13.90    6.70
   3  14  -3    3.90    4.10
   3 -14   3    6.40    4.90
  -3 -14  -3   11.70    8.10
  -3  14   3   10.00    2.50
   3 -14   3   11.90    3.10
  -3 -14   3   16.00    4.70
   3 -14  -3   13.60    8.80
  -3  14  -3   11.10    4.10
   3 -14  -3   11.10    6.70
   3 -14  -3    8.90    4.80
   3  14   3   12.40    4.40
  -3 -14   3   16.20    9.30
   3 -14  -3    5.60    5.20
  -3 -14   3    5.60    4.60
   3  14  -4    9.30    5.00
   3 -14   4   22.00    5.00
  -3  14   4    3.50    6.40
   3 -14   4   10.60    5.60
   3  14  -4   10.10    5.10
  -3 -14  -4   10.70    1.90
  -3  14   4   20.40    4.70
  -3 -14  -4   14.70    6.20
  -3 -14  -4   10.60    1.80
   3 -14  -4   22.00    6.40
   3 -14  -4   12.90    3.90
   3 -14  -4    7.20    9.50
  -3 -14   4   11.80    5.30
  -3  14  -4   19.40    5.00
  -3  14  -4    2.20    4.90
  -3 -14   4    8.10    8.00
  -3 -14   4    8.70    4.60
   3 -14  -4   12.10    6.20
  -3 -14  -5   16.20    5.30
   3  14  -5   17.70    6.10
   3 -14   5   23.40    6.60
   3  14  -5   11.00    6.20
   3 -14   5   16.30    8.70
  -3 -14   5   21.20    5.80
  -3 -14   5   12.50    6.00
  -3  14  -5   23.30    5.90
   3 -14  -5   13.00    6.30
  -3  14  -5   22.70    6.10
  -3 -14   5   13.80    5.10
   3 -14   6  -10.40    7.10
   3  14  -6    2.30    7.60
   3 -14   6    6.10    8.40
   3 -14   6   13.00    6.70
  -3  14   6    0.30    9.80
   3  14  -6   -0.90    7.80
   3 -14  -6    7.10    7.40
  -3  14  -6    6.10    8.00
  -3  14  -6   12.80    7.50
  -3 -14   6   -7.80    6.60
   3 -14  -6    4.10    4.80
  -3 -14   6   -1.80    8.70
  -3 -14   6    8.90    7.10
   4  14   0   37.40    5.20
  -4  14   0   28.80    4.80
   4 -14   0   30.50    8.90
   4 -14   0   22.60    5.80
   4  14   0   28.30    4.30
  -4 -14   0   19.60    5.40
  -4  14   0   27.30    9.70
   4  14   0   39.60   11.10
  -4  14   0   32.60    5.30
  -4 -14   0   26.30    5.80
  -4 -14   0   34.50   15.70
  -4 -14   0   21.80    8.30
   4 -14   0   25.20    6.60
   4  14  -1  283.77   19.00
  -4 -14  -1  223.78   19.10
  -4  14   1  276.47   19.00
   4 -14   1  282.27   22.50
  -4 -14  -1  298.17   19.70
  -4  14   1  276.87   20.30
  -4 -14  -1  279.47   21.60
   4 -14   1  255.27   21.60
  -4 -14  -1  259.07   17.30
   4 -14   1  247.08   18.80
  -4  14   1  283.67   19.10
   4  14  -1  278.47   18.30
  -4  14  -1  287.07   19.20
   4  14   1  292.07   16.50
   4  14   1  275.17   17.70
   4 -14  -1  228.68   20.00
   4 -14  -1  288.17   20.60
  -4 -14   1  248.18   18.80
   4 -14  -1  266.87   18.70
  -4 -14   1  271.37   20.80
   4 -14  -1  262.77   20.90
  -4 -14   1  266.37   20.30
   4  14   1  267.87   18.50
  -4  14  -1  276.37   19.80
  -4 -14  -2   10.60    3.20
   4 -14   2   21.50    5.50
  -4  14   2   11.20    3.70
  -4  14   2   26.00    6.70
   4 -14   2   12.20    4.30
  -4  14   2    0.40    6.60
  -4 -14  -2   12.50    5.00
  -4  14   2   17.00    4.60
  -4 -14  -2   14.50    6.50
   4  14  -2   14.40    4.30
  -4 -14  -2    8.10    7.50
   4  14  -2   16.50    4.50
  -4  14  -2   16.80    4.40
   4 -14  -2   18.00    8.80
   4 -14  -2   16.60    4.30
   4 -14  -2   11.60    5.20
  -4 -14   2    9.80    4.90
  -4 -14   2    2.60    8.90
  -4 -14   2   12.90    4.00
  -4  14  -2    9.20    5.10
   4 -14   3   54.09    7.40
  -4 -14  -3   62.59    6.90
  -4 -14  -3   58.59    5.10
  -4 -14  -3   60.19    9.90
   4 -14   3   59.49    7.60
  -4  14   3   46.70    7.70
   4  14  -3   57.69    6.40
  -4  14   3   53.09    5.80
  -4  14   3   49.99    5.00
  -4 -14  -3   74.09   11.00
  -4 -14  -3   52.09    6.20
  -4  14  -3   52.59    6.10
  -4 -14   3   42.70    6.40
  -4 -14   3   58.89    6.50
   4 -14  -3   59.39    7.80
   4  14   3   48.40    7.40
   4 -14  -3   63.09    6.50
   4 -14  -3   66.49    9.40
   4  14  -4   92.19    8.10
   4  14  -4   71.79    7.90
   4 -14   4   96.79    9.50
   4 -14   4   92.89    9.60
  -4  14   4   80.99    7.90
  -4 -14  -4   89.89    7.70
  -4 -14  -4   86.29    5.50
  -4 -14  -4   84.19    5.40
   4 -14  -4   86.89    6.80
   4 -14  -4   61.59   12.90
  -4  14  -4   92.29    7.60
  -4 -14   4   67.39    7.70
  -4 -14   4   89.39    7.60
  -4  14  -4   78.79    8.20
  -4  14   5    3.60    8.60
   4 -14   5   14.40    6.30
  -4 -14  -5    2.60    9.30
   4  14  -5    1.50    7.00
   4  14  -5   11.60    6.90
   4 -14   5   17.10    7.60
   4 -14  -5    5.00    7.30
   4 -14  -5   12.20    5.20
  -4 -14   5   -7.40    7.10
  -4 -14   5   -1.60    6.60
  -4  14  -5   14.40    6.20
  -4 -14   5    6.70    5.80
  -4  14  -5   18.40    6.90
   4 -14   6   -3.10    8.20
  -4  14   6    4.30   11.20
   4 -14   6   12.80    9.10
   4  14  -6   13.10    8.90
   4  14  -6   11.60    9.00
  -4  14  -6   13.70    8.30
   4 -14  -6   12.20    9.70
   4 -14  -6   29.50    7.40
  -4  14  -6    1.10    9.10
  -4 -14   6    0.80    7.60
  -4 -14   6   10.00    9.30
  -4 -14   6   -3.50   10.60
   5  14   0    0.10    4.50
  -5 -14   0    1.30    3.70
  -5 -14   0    7.30    8.10
  -5  14   0    3.00    5.80
   5 -14   0   16.30    5.60
   5  14   0    1.40    3.90
   5  14   0    9.00    8.60
  -5 -14   0    9.40    8.80
  -5  14   0    2.80    4.40
  -5  14   0    9.40    4.80
   5 -14   0   11.50    7.50
  -5 -14  -1   62.59    9.60
  -5  14   1   80.19    7.50
   5 -14   1   79.49    7.50
   5  14  -1   48.20   15.00
  -5 -14  -1   77.19    7.60
   5 -14   1   63.79    8.20
  -5 -14  -1   81.79    6.70
   5  14  -1   69.89    6.70
  -5  14   1   71.89    6.90
   5  14  -1   72.59    6.90
   5 -14  -1   85.79    8.70
  -5  14  -1   77.09    7.20
   5  14   1   73.79    6.00
  -5 -14   1   77.99    7.60
  -5 -14   1   81.89   12.30
   5 -14  -1   77.99   12.80
   5 -14  -1   65.79    7.50
  -5  14  -1   61.79    7.10
  -5 -14   1   69.69    7.20
   5  14   1   77.19    6.70
   5  14   1   69.19   10.30
  -5 -14  -2   -0.70    8.30
  -5 -14  -2   14.10    3.90
  -5  14   2    2.30    7.90
   5  14  -2   14.50    5.50
  -5 -14  -2    9.80    5.00
  -5  14   2   17.90    4.90
   5 -14   2   10.00    5.20
   5  14  -2   12.20    5.00
  -5  14   2   16.20    4.80
   5 -14   2   12.10    6.10
  -5 -14   2   11.40    5.10
   5 -14  -2    7.20    6.20
  -5 -14   2    6.00    5.20
  -5  14  -2   12.30    4.90
   5  14   2   13.10    4.40
  -5  14  -2    7.20    4.70
   5 -14  -2   14.90    8.90
   5 -14  -2    6.50    4.50
   5  14  -3    8.90    5.70
  -5 -14  -3    9.60    5.60
  -5 -14  -3   -4.60   12.10
  -5 -14  -3    9.00   11.50
   5 -14   3    7.20    6.90
   5  14  -3    7.50    6.00
  -5 -14  -3    1.40    4.90
  -5  14   3    9.30    4.50
  -5  14   3    1.90    7.40
   5 -14   3    2.70    5.50
   5 -14  -3   12.40    6.40
  -5  14  -3    3.60    4.80
  -5  14  -3    2.70    5.70
   5 -14  -3   13.00    4.80
  -5 -14   3    8.20    5.10
  -5  14  -3   11.30    5.00
   5 -14  -3    5.40    9.00
  -5 -14   3   13.90    5.90
   5  14  -4    1.60    6.80
   5  14  -4   11.20    7.20
  -5  14   4   -3.60    8.00
   5 -14   4    8.50    6.10
   5 -14   4    4.60    7.50
  -5 -14  -4   -7.00    5.80
  -5  14  -4    3.20    6.50
   5 -14  -4    0.00    7.40
  -5 -14   4    2.00    7.80
  -5 -14   4    2.50    5.70
   5 -14  -4    3.90    5.90
  -5 -14   4   -1.20    6.50
   5  14  -5   23.10    8.40
  -5  14   5    3.30   10.50
   5 -14   5   26.80    8.80
   5  14  -5   19.30    8.50
   5 -14   5   22.40    7.40
  -5 -14   5   -0.60   10.20
  -5  14  -5   24.30    8.20
  -5  14  -5   10.00    7.00
   5 -14  -5   35.30    7.80
  -5 -14   5   15.60    6.90
   5 -14  -5   17.20    8.70
  -5 -14   5    2.60    8.00
  -6 -14   0   37.60    7.00
   6 -14   0   49.10   13.70
   6 -14   0   49.90    8.90
  -6 -14   0   46.10    6.50
   6  14   0   47.90    6.20
  -6  14   0   43.40    6.20
   6  14   0   49.70   20.20
  -6  14   0   45.80    6.50
   6  14   0   51.89    7.90
   6  14  -1   85.09    7.20
  -6 -14  -1   93.89    7.90
   6 -14   1  100.99   15.20
  -6  14   1   71.79    8.00
  -6 -14  -1   86.89   10.60
   6 -14   1  106.79    9.70
   6 -14   1   95.49    8.30
   6  14  -1   87.59    8.30
  -6  14   1   88.99    8.80
  -6  14  -1   87.99    8.00
   6  14   1  102.89    7.40
  -6 -14   1   69.79    9.70
  -6 -14   1   77.49    7.70
   6 -14  -1   91.59    7.90
  -6  14  -1   90.29    9.30
  -6 -14   1   90.59   20.60
   6 -14  -1   75.89   10.20
   6  14   1   85.19    6.80
   6  14  -2    3.00    6.40
  -6 -14  -2    2.80    8.40
   6 -14   2   16.10    6.30
  -6 -14  -2    4.50    4.40
   6  14  -2   10.80    6.90
  -6  14   2   -2.00    8.00
   6 -14   2    0.40    7.20
  -6  14   2   -6.90    7.60
  -6  14   2    2.10    5.50
  -6  14  -2   -3.70    5.80
   6 -14  -2   -0.70    7.50
  -6  14  -2   11.50    6.40
   6 -14  -2    3.20    5.70
  -6 -14   2    7.10    5.50
  -6 -14   2    0.00    7.80
   6 -14   3   27.50    7.50
  -6 -14  -3   17.90    4.30
  -6  14   3   22.70    6.20
  -6 -14  -3   21.60    9.70
   6  14  -3   20.00    7.50
   6  14  -3   17.80    7.30
   6 -14   3   21.30    8.20
   6 -14  -3   24.70    8.10
  -6  14  -3    9.80    6.30
  -6 -14   3   35.20    7.20
  -6  14  -3   20.60    6.90
  -6  14  -3   11.40    6.00
   6 -14   4   36.10    9.30
   6  14  -4   29.70    8.50
   6  14  -4   39.50    9.60
   6 -14   4   43.50    8.80
  -6  14   4   53.19   10.40
  -6 -14   4   29.00    7.50
   6 -14  -4   53.59   11.80
  -6  14  -4   35.50    8.40
  -6 -14   4   25.90    7.80
   6 -14  -4   49.10    9.00
   6 -14   5    5.80   10.20
   6  14  -5   -3.70   16.10
   6 -14   5   -0.90    9.10
   6  14  -5   18.40   10.60
   6 -14  -5    2.40    8.70
  -6 -14   5    7.10    9.40
   6 -14  -5   13.30   11.70
  -6  14  -5    5.40   12.60
  -6 -14   5   -3.70   11.20
  -7  14   0   21.80   10.00
  -7 -14   0   31.80    7.20
   7  14   0   14.10    6.40
  -7  14   0   21.60    7.90
  -7  14   0   12.90    6.70
   7 -14   0   38.90    9.20
   7 -14   0   24.30    7.30
  -7 -14   0    2.20    8.40
  -7  14   1    4.90    7.30
  -7 -14  -1    0.30    8.20
   7  14  -1    9.50    6.90
   7 -14   1    3.00    7.70
  -7 -14  -1   -5.20    5.70
   7 -14   1    0.40    9.00
  -7  14   1    7.90   10.00
   7  14  -1    2.20   10.00
  -7  14  -1  -10.30    8.40
  -7 -14   1    6.20    6.80
   7 -14  -1    5.90    7.30
  -7  14  -1    4.00    7.80
  -7  14  -1  -11.90    7.00
   7 -14  -1    6.00    9.00
  -7 -14   1    0.10    8.60
   7  14  -2    7.50    8.00
   7 -14   2   25.10    9.20
  -7  14   2   -3.00   10.00
   7 -14   2   22.30    8.20
  -7 -14  -2   -5.10    9.00
  -7  14   2   15.40    7.30
   7  14  -2   24.00    8.80
  -7 -14  -2   13.60    5.50
  -7 -14   2   18.50    6.80
  -7  14  -2   12.30    8.10
  -7  14  -2    2.80    7.20
  -7  14  -2    6.20   10.10
  -7 -14   2   14.70    6.20
   7 -14  -2   29.20    8.20
  -7 -14   2   16.80    9.90
   7 -14  -2   17.20    9.50
  -7  14   3    8.80    8.90
   7  14  -3   23.90   10.00
   7 -14   3   18.40   10.60
   7  14  -3   13.50    9.30
  -7  14   3   11.30   11.80
   7 -14   3   42.50    9.80
  -7  14   3   23.80    8.10
  -7 -14  -3   24.50    6.30
  -7  14  -3   28.60    8.00
   7 -14  -3   32.90   10.80
  -7  14  -3   31.70    9.00
  -7 -14   3   27.10    8.30
  -7 -14   3   21.60    7.50
   8 -14   0    8.80    9.90
  -8 -14   0   -6.10   11.30
  -8 -14   0  -13.00    8.30
   8 -14   0    2.70   13.00
  -8  14   0   -2.80   10.30
  -8  14   0    3.40   12.70
   8  14  -1   16.40    9.00
   8 -14   1   13.30    9.80
  -8  14   1   -2.60   12.40
  -8  14   1    2.40    9.90
  -8 -14  -1   24.50    7.60
   8 -14   1   10.30   12.50
  -8  14  -1    3.30   11.70
  -8  14  -1   -0.90    9.00
  -8 -14   1    5.80   11.40
  -8 -14   1   23.60   12.30
  -8  14  -1   37.10   10.20
   0 -15   0    1.90    6.70
   0 -15   0    8.20    4.60
   0  15   0    6.90    7.80
   0  15   0   16.30    3.90
   0 -15   0    9.90    3.80
   0  15   0   11.50    3.20
   0 -15   0    4.20    7.40
   0 -15   0    0.90    7.60
   0 -15  -1 2372.36  118.39
   0  15  -1 1817.22  118.99
   0 -15  -1 2129.79  116.29
   0 -15   1 2148.29  117.29
   0  15   1 2349.86  116.19
   0  15  -1 2092.89  117.89
   0  15   1 2259.27  116.79
   0  15  -1 2268.17  117.69
   0 -15   1 2290.97  119.29
   0  15   1 2193.48  115.49
   0 -15  -1 1855.41  118.99
   0  15   1 2275.87  116.49
   0 -15   1 2333.37  117.39
   0 -15  -1 2321.17  116.49
   0 -15   1 2140.09  118.99
   0  15   2  134.39    9.60
   0 -15  -2  134.89   11.50
   0 -15  -2  108.19   11.40
   0  15  -2  127.79   10.80
   0  15   2  136.79   11.60
   0 -15   2  125.29   13.00
   0 -15  -2  129.89    9.90
   0 -15  -2  135.89   12.70
   0  15  -2  129.59   15.00
   0 -15   2  122.79   11.10
   0 -15   2  127.19   13.80
   0  15  -2  113.89   16.40
   0  15  -2  119.19   11.40
   0 -15  -3  106.29    9.10
   0  15  -3   87.69   10.80
   0  15  -3   96.09    9.40
   0 -15   3  135.89   23.00
   0 -15  -3   99.49    7.60
   0 -15  -3   82.29    8.60
   0  15   3   87.19    9.00
   0 -15   3  110.89    9.10
   0  15   3  100.89    8.90
   0 -15  -3  111.49   11.00
   0 -15  -4   49.50    7.80
   0 -15  -4   40.00    6.00
   0 -15  -4   32.00    5.40
   0 -15  -4   39.90    4.00
   0  15   4   37.20    5.80
   0  15   4   46.00    5.90
   0 -15   4   48.20    5.50
   0  15  -4   49.90    5.60
   0 -15   4   28.50    7.40
   0 -15   4   39.90    7.00
   0  15  -4   31.60    5.40
   0  15  -5    4.80    5.40
   0 -15  -5   13.40    5.90
   0 -15  -5    5.00    2.20
   0  15  -5    6.20    5.60
   0  15   5   10.00    7.50
   0 -15   5    2.50    5.10
   0 -15   5    1.90    6.40
   0 -15  -5    4.10    8.70
   0 -15  -5   10.00    2.40
   0  15  -6   26.60    7.40
   0 -15   6   18.50    6.80
   0 -15   6    3.60    7.70
   0  15  -6   21.30    6.90
   0 -15   6   11.40    5.90
   0 -15   7   16.60    8.20
   0 -15   7   24.40    8.70
   0  15  -7   10.50    8.80
   0 -15   7    5.30    7.90
   0  15  -7   19.30    9.50
   1 -15   0 1177.98   64.19
   1 -15   0 1206.28   66.19
  -1  15   0 1210.98   64.79
  -1 -15   0 1194.98   65.99
   1  15   0 1147.29   63.89
   1 -15   0 1070.69   63.99
   1  15   0 1116.29   63.89
   1 -15   0 1073.29   67.39
  -1 -15   0 1192.68   64.19
  -1 -15   0 1137.39   63.99
  -1  15   0 1211.78   64.49
   1 -15   1  131.69   14.70
   1 -15   1  131.89   13.90
  -1 -15  -1  169.18   14.20
   1 -15   1  141.79   12.50
  -1  15   1  140.49   11.80
  -1 -15  -1  142.49   10.90
   1  15  -1  138.79   11.70
  -1  15   1  131.49   12.80
  -1 -15  -1  107.29   12.30
   1 -15   1  140.29   11.70
   1  15  -1  104.39   15.50
   1  15  -1  142.79   11.10
   1 -15   1  149.39   13.80
  -1 -15  -1  130.99   12.60
  -1  15   1  145.49   10.40
  -1  15   1  144.49   10.40
  -1  15  -1  133.79   11.80
   1  15   1  136.99   12.80
   1  15   1  129.99    9.60
   1 -15  -1  143.59   12.40
  -1 -15   1  125.39   15.30
   1 -15  -1  146.09   15.00
   1  15   1  138.99   11.60
  -1 -15   1  131.59   11.50
  -1 -15   1  146.39   13.60
  -1  15  -1  127.79   13.90
   1  15   1  146.19    9.60
  -1  15  -1  137.79   11.50
   1 -15  -1  134.09   11.00
  -1  15  -1  110.09   14.50
   1 -15  -1  149.49   15.40
   1 -15  -1  116.39   12.70
   1  15  -2 1065.09   73.39
  -1  15   2 1280.07   66.79
   1 -15   2 1280.57   70.29
  -1 -15  -2 1248.08   68.19
  -1 -15  -2 1352.56   68.59
  -1  15   2 1276.17   68.79
   1  15  -2 1315.37   70.89
  -1 -15  -2 1313.27   70.09
   1  15  -2 1269.37   71.69
   1 -15   2 1291.47   70.59
  -1  15   2 1202.78   68.89
  -1  15   2 1253.67   66.59
   1 -15   2 1388.86   70.29
   1 -15  -2 1291.27   68.99
  -1 -15   2 1282.17   70.39
   1 -15  -2 1234.08   68.89
   1  15   2 1227.18   68.09
  -1  15  -2 1323.37   70.89
   1 -15  -2 1111.99   71.39
  -1  15  -2 1070.99   73.19
  -1 -15   2 1256.37   70.39
  -1  15  -2 1290.27   72.09
   1 -15  -2 1350.36   70.79
   1 -15  -2 1257.07   79.09
  -1  15  -2 1302.57   71.89
   1  15   2 1290.57   68.49
  -1 -15  -3   29.30    6.90
  -1 -15  -3   11.60    5.00
   1  15  -3   20.50    4.70
  -1  15   3   16.60    6.30
  -1 -15  -3   23.10    5.40
   1 -15   3   18.70    4.40
  -1  15   3   18.60    4.40
   1 -15   3   15.20    6.60
   1  15  -3   23.60    6.80
   1 -15   3   22.10    5.40
  -1 -15  -3   21.90    3.20
  -1 -15   3   13.80    5.70
  -1  15  -3   19.60    7.50
   1 -15  -3   24.00    5.40
   1 -15  -3   15.50    5.70
  -1 -15   3   15.40    4.30
   1  15   3   20.80    5.40
  -1  15  -3   22.60    4.50
   1 -15  -3   18.80    7.30
  -1 -15   3   28.60   13.50
   1  15   3   16.00    5.40
  -1 -15   3    9.70    6.90
   1 -15  -3   21.30    3.70
   1  15  -4   41.40    5.90
  -1  15   4   44.60    8.40
  -1  15   4   44.70    7.70
  -1 -15  -4   47.10    7.40
  -1 -15  -4   45.10    3.90
   1  15  -4   57.99    6.20
   1 -15   4   57.89    5.70
   1  15   4   46.00    5.20
   1 -15  -4   44.30    6.70
   1 -15  -4   48.30    8.50
  -1 -15   4   49.70    6.20
  -1 -15   4   59.39    7.00
   1 -15  -4   52.69    6.80
   1 -15  -4   51.89    4.90
  -1  15  -4   53.89    6.10
   1  15   4   47.40    5.50
   1  15  -5   20.90    5.70
  -1  15   5   19.20    7.10
   1 -15   5   25.40    5.80
   1 -15   5   19.90    7.20
   1  15  -5   22.40    5.70
  -1 -15  -5   19.90    5.90
  -1  15  -5   25.90    6.00
   1 -15  -5   17.90   10.50
   1 -15  -5   27.10    6.60
   1 -15   6   17.80    7.50
   1  15  -6   28.00    7.50
   1  15  -6   32.20    7.70
  -1 -15   6   13.20    7.00
  -1  15  -6   32.30    8.50
   1 -15  -6   24.20    9.80
  -1 -15   6   16.10    6.40
  -1 -15   6   26.80    7.00
  -1  15  -6   18.60    7.00
   1  15  -7   27.20   10.00
   1 -15   7   14.20    8.40
  -1  15   7    9.90   12.80
   1 -15   7   20.00    8.80
   1  15  -7   12.60   13.50
  -1 -15   7    4.30    9.30
  -1 -15   7    7.00    9.10
  -1  15  -7   15.50   10.20
  -1 -15   7   -2.20    8.50
  -2 -15   0   47.40    8.50
   2  15   0   51.49    5.20
   2  15   0   34.80    8.60
  -2 -15   0   54.29    6.00
   2  15   0   56.69    4.80
   2 -15   0   43.20    9.10
   2  15   0   36.90   10.10
  -2  15   0   38.20    9.50
   2 -15   0   39.20    5.80
  -2 -15   0   45.30   10.10
   2 -15   0   45.30   10.10
  -2  15   0   43.60    5.50
   2 -15   0   46.10   10.50
   2 -15   0   32.30    7.30
  -2  15   1  537.15   30.70
   2 -15   1  432.16   33.40
  -2 -15  -1  452.95   29.00
   2  15  -1  511.15   31.10
  -2 -15  -1  521.25   32.10
   2 -15   1  507.85   37.80
  -2  15   1  523.05   30.00
   2 -15   1  468.85   30.70
  -2 -15  -1  488.45   29.80
   2  15  -1  482.15   30.20
   2 -15   1  538.35   32.20
   2  15  -1  480.45   34.10
   2 -15   1  514.25   31.40
   2  15   1  533.45   28.20
  -2 -15   1  477.95   30.30
   2 -15  -1  502.95   31.00
  -2 -15   1  483.45   33.20
  -2 -15   1  515.75   31.30
  -2  15  -1  493.55   34.10
   2 -15  -1  399.76   32.00
  -2  15  -1  476.35   31.70
   2  15   1  512.15   30.60
   2 -15  -1  459.65   30.10
   2  15   1  515.15   29.30
   2 -15  -1  511.35   33.80
  -2  15  -1  482.85   30.70
   2 -15  -1  526.25   32.60
   2  15  -2  137.39   12.70
  -2  15   2  144.59   11.10
  -2  15   2  153.08    9.90
  -2 -15  -2  155.18   13.60
   2 -15   2  145.09   15.20
   2  15  -2  142.69   11.90
  -2 -15  -2  148.79   12.00
   2 -15   2  134.99   11.70
  -2  15   2  154.78   10.90
  -2 -15  -2  139.99   10.20
  -2  15  -2  142.09   11.80
   2 -15  -2  151.88   12.60
   2 -15  -2  143.09   14.40
   2  15   2  144.79   12.00
  -2  15  -2  146.29   12.80
  -2 -15   2  133.89   11.30
   2 -15  -2  124.39   13.10
   2 -15  -2  141.89   11.40
  -2 -15   2  108.79   14.20
  -2 -15  -3  211.28   13.00
  -2 -15  -3  237.28   16.40
  -2 -15  -3  204.48   13.80
   2  15  -3  208.88   16.70
  -2  15   3  234.58   14.20
   2  15  -3  201.88   15.70
   2 -15   3  211.78   15.50
   2 -15   3  198.48   17.20
   2  15   3  212.48   13.90
  -2 -15   3  169.48   16.50
  -2 -15   3  193.18   17.90
  -2  15  -3  200.88   16.20
   2 -15  -3  217.68   15.50
   2 -15  -3  230.18   17.10
  -2 -15   3  205.18   17.70
   2 -15  -3  176.08   16.30
   2 -15  -3  211.48   14.30
  -2 -15  -4    8.20    5.70
  -2 -15  -4   17.70    2.60
  -2 -15  -4   21.80    6.20
   2  15  -4   13.50    5.10
  -2  15   4    8.50    6.50
   2 -15   4   16.50    5.70
   2  15  -4   29.50    5.60
   2 -15  -4   16.50    8.40
   2 -15  -4   10.50    4.80
  -2  15  -4   26.20    5.00
  -2 -15   4    8.70    7.70
   2  15   4   19.40    3.20
  -2  15  -4   24.50    5.30
  -2 -15   4   20.10    5.20
   2 -15  -4   13.50    5.20
  -2 -15   4   20.50    5.80
   2  15   4   13.30    3.30
   2 -15   5   37.40    6.40
   2  15  -5   52.89    6.80
   2  15  -5   45.70    7.10
   2 -15   5   30.50    7.10
   2 -15  -5   48.50    7.80
   2 -15  -5   51.99    5.30
  -2 -15   5   42.30    6.70
  -2 -15   5   31.20    6.50
  -2  15  -5   48.40    6.50
   2  15  -6   37.30    8.40
   2 -15   6   43.00    7.60
   2 -15   6   42.70    9.10
  -2  15   6   14.60   10.10
   2  15  -6   28.00    8.20
   2 -15  -6   20.60    7.60
  -2 -15   6   16.50    6.60
  -2  15  -6   42.40    9.10
  -2 -15   6   12.10    7.60
  -2  15  -6   12.50    7.10
   2 -15  -6   32.60    4.90
  -2 -15   6   24.10    7.60
  -3  15   0  854.81   49.99
   3 -15   0  806.72   49.10
   3 -15   0  759.52   51.29
   3 -15   0  865.01   48.90
  -3  15   0  903.61   49.80
   3  15   0  852.51   47.60
   3  15   0  756.02   49.60
  -3 -15   0  810.42   47.60
   3  15   0  863.31   47.90
  -3 -15   0  856.71   50.99
  -3  15   0  875.21   48.50
  -3  15   1  338.27   21.00
  -3 -15  -1  338.37   23.20
   3 -15   1  323.97   23.20
   3 -15   1  305.37   21.50
   3  15  -1  334.37   21.70
  -3 -15  -1  326.57   20.20
   3  15  -1  321.77   21.80
   3  15  -1  283.07   25.10
   3 -15   1  294.07   28.70
  -3  15   1  340.97   21.60
  -3  15   1  337.27   22.40
   3 -15  -1  289.77   26.10
   3  15   1  306.17   18.70
  -3 -15   1  324.67   23.20
   3 -15  -1  319.97   22.30
   3  15   1  331.57   20.20
  -3  15  -1  319.87   21.60
  -3 -15   1  298.27   26.00
  -3  15  -1  338.77   23.20
   3 -15  -1  283.17   23.50
   3  15  -2   -2.40    4.20
  -3 -15  -2    7.50    4.90
  -3 -15  -2   -1.00    7.20
  -3  15   2   -3.60    3.50
  -3 -15  -2   -3.10    2.70
  -3  15   2    4.90    3.20
  -3  15   2    0.60    6.00
   3  15  -2    1.10    3.90
   3 -15   2    4.20    5.00
  -3 -15  -2    1.80    4.90
  -3  15   2   -4.30    4.90
   3 -15   2   -2.60    4.00
   3 -15  -2    0.70    3.80
   3  15   2    5.70    5.90
  -3 -15   2    1.10    5.30
  -3 -15   2   13.60    8.50
  -3  15  -2    0.80    4.10
   3 -15  -2    1.00    6.40
  -3  15  -2    2.10    4.10
   3 -15  -2    1.00    5.20
  -3 -15   2    3.70    8.30
  -3 -15   2   -4.10    3.80
  -3 -15  -3   92.69    8.70
   3  15  -3  101.29    8.40
   3  15  -3   89.29    8.80
  -3  15   3   87.09    7.70
   3 -15   3  103.19    9.90
  -3  15   3   89.69    6.50
  -3  15   3  102.49    7.30
  -3 -15  -3   94.09    7.30
  -3 -15  -3  101.89   11.40
  -3 -15   3  100.29    9.70
  -3  15  -3  102.39    8.10
   3 -15  -3  100.49   11.00
   3  15   3   98.29    8.90
  -3 -15   3  108.69   13.50
  -3  15  -3   93.09    9.70
   3 -15  -3  102.19   11.10
   3 -15  -3  110.49    8.70
  -3 -15   3   92.79    8.30
  -3 -15  -4   37.50    3.40
  -3 -15  -4   39.90    3.40
   3 -15   4   48.30    7.90
   3  15  -4   46.20    6.50
   3 -15   4   34.40    6.00
  -3  15   4   45.50    5.60
   3  15  -4   42.70    6.80
  -3 -15  -4   37.50    9.60
  -3 -15   4   29.90   11.70
   3 -15  -4   47.20    7.50
  -3 -15   4   39.60    6.20
  -3  15  -4   39.40    6.10
  -3 -15   4   51.79    6.60
   3 -15  -4   21.10    8.40
  -3  15   5   10.90    8.70
   3  15  -5    9.60    6.60
   3 -15   5    5.90    7.00
  -3 -15  -5    1.70    6.30
   3  15  -5    8.20    6.80
   3 -15   5    6.30    6.20
  -3  15  -5   12.20    6.40
   3 -15  -5    4.10    6.80
  -3 -15   5   -1.90    6.50
   3 -15  -5   21.10    5.80
  -3  15  -5   10.60    6.20
  -3  15   6    6.70   11.00
   3  15  -6   -7.50    8.40
   3  15  -6    8.60    9.20
   3 -15   6  -11.30    7.10
   3 -15   6   -1.20    7.60
   3 -15   6    1.90    9.00
  -3  15  -6    3.60    7.60
  -3 -15   6    8.10    8.20
   3 -15  -6    6.60    9.90
  -3 -15   6   -2.20    6.50
  -3  15  -6    5.00    8.50
  -3 -15   6    0.90    8.90
   3 -15  -6   10.20    5.20
  -4 -15   0   -2.60    8.50
  -4 -15   0   -2.30    5.30
  -4 -15   0    9.10    3.40
   4 -15   0   10.90    4.90
   4 -15   0    1.40    4.10
  -4  15   0    6.70    4.40
   4  15   0    9.70    8.30
  -4  15   0   -6.90    5.60
   4  15   0    3.20    4.10
   4  15   0    1.70    3.50
  -4  15   0    1.00    4.00
   4 -15   0    4.80    8.30
   4  15  -1  329.07   21.00
   4 -15   1  307.27   20.40
  -4 -15  -1  298.37   19.90
   4 -15   1  270.87   22.40
  -4 -15  -1  273.17   21.70
  -4  15   1  315.47   20.50
  -4  15   1  298.47   20.40
  -4  15   1  299.17   21.90
   4  15  -1  315.27   20.80
  -4 -15  -1  323.97   25.30
   4 -15  -1  325.27   22.50
   4 -15  -1  304.07   20.40
   4 -15  -1  270.47   22.10
   4  15   1  308.17   18.10
   4  15   1  312.97   19.20
  -4  15  -1  325.67   20.70
  -4  15  -1  309.87   22.00
  -4 -15   1  316.07   20.40
  -4 -15   1  256.97   22.00
  -4 -15   1  327.87   23.40
  -4  15   2   99.29    8.50
  -4  15   2   98.59   10.40
  -4 -15  -2   84.29    9.80
  -4  15   2   98.29    8.10
  -4 -15  -2  112.79   13.30
   4  15  -2  110.69    8.30
  -4 -15  -2   84.99    9.40
   4 -15   2   88.59    9.20
   4 -15   2  106.29    8.00
   4  15  -2  106.79    8.90
   4 -15  -2   92.09    9.80
  -4 -15   2   90.89    8.60
  -4  15  -2   94.79    8.20
  -4  15  -2   92.59    9.30
  -4 -15   2   95.99   14.50
   4  15   2   92.79    8.20
   4 -15  -2  101.19    8.40
  -4 -15   2  106.19    9.90
   4 -15  -2   96.59   11.50
   4 -15   3   23.70    6.60
  -4  15   3   26.70   10.60
  -4  15   3   22.80    4.20
   4  15  -3   23.70    5.80
   4  15  -3   13.20    5.70
  -4 -15  -3   28.30    9.60
   4 -15   3   30.70    5.70
  -4 -15  -3   37.50    6.20
  -4  15   3   22.00    5.30
  -4 -15  -3   25.10    3.90
   4 -15  -3   20.70    7.70
  -4  15  -3   21.10    5.30
   4 -15  -3   33.80    4.90
   4 -15  -3   38.60    6.90
  -4 -15   3   30.40    5.50
  -4 -15   3   21.40    5.50
  -4  15   4    9.60    7.50
  -4  15   4    2.00    5.10
   4  15  -4   15.90    6.60
   4 -15   4    4.60    6.90
   4  15  -4   -1.70    6.30
   4 -15   4    2.80    5.90
  -4 -15  -4    5.10    5.50
  -4 -15  -4   13.90    5.80
  -4 -15   4    8.20    6.50
  -4  15  -4    1.60    6.10
   4 -15  -4   12.70    5.20
  -4  15  -4    0.00    5.80
  -4 -15   4    6.80    6.00
   4 -15  -4   10.20    6.60
   4  15  -5   22.60    7.90
  -4  15   5   -6.80    9.60
   4  15  -5   10.60    7.60
   4 -15   5   10.30    8.40
  -4 -15   5    6.90    7.00
   4 -15  -5    9.20    7.70
  -4  15  -5    5.60    7.00
  -4 -15   5    6.20    8.00
  -4 -15   5    5.10    6.40
  -4  15  -5   17.10    7.30
   4 -15   6   -5.20    8.70
   4  15  -6   16.10    9.70
   4  15  -6   30.50   10.70
   4 -15   6   10.30    9.90
  -4  15   6   13.00   12.40
  -4 -15   6    0.40    9.30
  -4  15  -6   13.50    9.10
  -4 -15   6    7.30    8.00
   4 -15  -6   22.20    6.70
   4 -15  -6   26.40   10.80
  -4  15  -6    9.70    9.40
  -4 -15   6    1.10   11.60
   5  15   0   12.40   10.10
  -5 -15   0   -4.80    8.50
  -5  15   0   13.50    6.00
   5  15   0   -1.60    4.90
  -5  15   0    1.80    5.10
  -5 -15   0   17.30    5.90
  -5 -15   0    0.80    3.90
  -5  15   0   -1.30    7.50
   5 -15   0   11.10    4.90
   5  15   0    6.80    4.20
   5 -15   0    1.50    6.40
   5  15  -1   80.79   20.80
   5  15  -1  107.69    8.30
   5  15  -1  103.79    8.50
   5 -15   1  108.49    8.80
   5 -15   1   98.29   10.60
  -5 -15  -1   79.99   15.90
  -5 -15  -1   86.59    7.20
  -5  15   1   84.69    8.00
  -5  15   1   92.19    8.10
  -5 -15   1   89.69    8.20
   5  15   1  108.59    8.50
  -5 -15   1  108.69   14.00
   5 -15  -1   90.19   10.20
  -5  15  -1   86.39    8.40
   5  15   1   90.39    7.00
   5 -15  -1   96.99    9.20
  -5  15  -1   78.29    8.00
   5  15   1   98.59   20.10
  -5 -15   1  109.49    9.40
   5  15  -2   37.80    6.70
   5  15  -2   33.40    5.40
   5 -15   2   39.40    4.80
  -5  15   2   26.50   11.80
  -5  15   2   29.00    6.00
  -5 -15  -2   21.60    4.60
  -5  15   2   26.80    7.10
   5 -15   2   27.50    7.30
   5 -15  -2   30.70    5.90
   5  15   2   36.10    5.70
  -5  15  -2   39.50    5.90
  -5 -15   2   23.00    5.90
   5 -15  -2   39.80   12.20
   5 -15  -2   22.80    6.80
  -5 -15   2   38.70    5.70
  -5  15  -2   28.20    4.50
  -5 -15  -3   10.90    3.70
  -5 -15  -3   26.70    7.20
  -5  15   3   -2.40    8.10
  -5  15   3   12.90    4.90
   5 -15   3   13.50    7.70
   5  15  -3    5.30    6.30
  -5  15   3   -0.60    6.40
   5 -15   3    9.30    6.20
   5  15  -3   11.00    6.80
  -5 -15   3    3.40    5.90
  -5  15  -3    7.90    5.50
   5 -15  -3    4.60    5.90
  -5  15  -3   12.50    6.30
  -5 -15   3   20.50    5.90
   5 -15  -3    8.40    7.30
  -5 -15  -4   17.60    6.50
  -5  15   4   -3.40    9.40
   5  15  -4   12.70    7.70
   5 -15   4   17.60    8.00
  -5  15   4   17.90    7.80
   5  15  -4   21.60    7.50
  -5 -15  -4    9.60    2.90
   5 -15   4   16.10    6.80
  -5 -15   4   10.20    6.90
   5 -15  -4   24.40    8.80
  -5 -15   4    1.90    7.50
  -5  15  -4   15.40    6.90
   5 -15  -4    9.80    5.90
  -5  15  -4   24.30    7.00
  -5  15   5  -12.20   11.10
   5 -15   5   18.50    8.10
   5 -15   5    6.50    9.10
   5  15  -5   -2.90    9.10
   5  15  -5    4.30    9.10
  -5 -15   5   -6.70   11.80
   5 -15  -5    8.80    7.30
  -5 -15   5   -4.40    8.40
  -5 -15   5   -5.60    7.70
   5 -15  -5    9.50   10.40
  -5  15  -5   11.20    8.70
   6  15   0   61.19    7.80
  -6 -15   0   58.39    7.90
   6 -15   0   69.69    7.60
  -6 -15   0   67.79    6.40
   6  15   0   65.79    7.20
  -6  15   0   73.09    8.30
   6 -15   0   47.30    8.80
  -6 -15  -1   14.60    4.80
   6  15  -1   -0.60    5.90
   6 -15   1    9.40    7.70
  -6  15   1   -0.30    7.70
  -6 -15  -1    8.70    7.10
   6 -15   1    1.30    6.30
  -6  15   1    1.40    6.30
   6  15  -1   10.80    6.70
  -6  15  -1    4.80    6.30
  -6  15  -1    2.00    6.00
  -6 -15   1   13.50    5.40
   6 -15  -1    6.90    6.30
   6 -15  -1   16.70    7.80
  -6 -15   1    5.70    6.50
   6  15   1   18.70    6.70
  -6  15   2    5.20    6.40
   6 -15   2    7.30    6.80
  -6  15   2   -1.10    8.70
  -6 -15  -2    6.10    9.10
   6 -15   2   13.50    8.10
   6  15  -2    4.90    8.30
   6  15  -2    8.90    7.10
  -6 -15  -2   -3.20    4.70
  -6 -15   2   10.60    6.10
  -6 -15   2    7.30    6.90
  -6  15  -2    3.50    7.10
  -6  15  -2    6.30    6.10
   6 -15  -2   15.60    6.20
   6 -15  -2   21.10    8.10
  -6  15  -2    4.70    7.20
  -6  15   3   -5.10   12.00
  -6 -15  -3  -14.50    9.70
   6 -15   3   12.30    8.90
   6 -15   3   17.60    7.70
   6  15  -3   -0.90    8.50
   6  15  -3    5.60    8.00
  -6  15   3    3.00    9.80
  -6  15  -3    6.60    7.40
   6 -15  -3   17.00    8.90
  -6 -15   3   -5.80    9.80
  -6 -15   3    8.20    7.00
  -6  15  -3   -1.10    6.80
   6 -15  -3    5.00    6.80
   6 -15   4   10.00    8.50
   6  15  -4   20.00    9.80
   6  15  -4    3.80    8.80
   6 -15   4    4.90   10.40
  -6  15   4   -6.70   11.30
  -6 -15   4   17.20    8.60
  -6 -15   4   12.50    9.90
  -6  15  -4    9.00    9.10
   6 -15  -4   17.20   10.60
  -6 -15   4   12.50    7.80
   7  15   0   -4.20    9.40
  -7  15   0  -15.00   10.20
  -7  15   0    1.00    8.00
   7 -15   0    6.10    9.00
  -7 -15   0    9.90    9.50
   7 -15   0   18.90    8.00
  -7 -15   0   -5.20    6.10
   7  15   0   13.90    6.90
   7  15  -1   11.40    8.60
  -7  15   1   -9.20   10.30
   7 -15   1   12.10    8.00
   7 -15   1    8.50    9.40
   7  15  -1    6.70    7.50
  -7 -15  -1  -16.20   11.20
  -7  15   1    6.70    8.40
  -7 -15   1  -11.40    8.50
  -7  15  -1   -2.80    8.40
   7 -15  -1   19.40    9.70
  -7  15  -1   18.10   10.20
   7 -15  -1   -4.00    8.10
  -7 -15   1    3.60    6.70
   7 -15   2   22.30   10.90
  -7 -15  -2   -8.30    5.80
   7  15  -2    6.80    9.60
  -7  15   2    0.00   10.90
  -7 -15  -2    1.50    9.90
   7 -15   2   14.80    8.60
  -7  15   2    9.50    8.40
   7  15  -2    1.20    8.50
  -7  15  -2  -11.70    7.80
  -7  15  -2   -0.70    9.70
   7 -15  -2   12.90   10.40
  -7 -15   2   -2.30    7.60
  -7  15  -2    9.00    8.80
  -7 -15   2   -6.00   10.00
   7 -15  -2   15.90    9.10
  -7  15   3   -2.00   11.90
  -7 -15  -3   15.30   10.90
  -7  15   3    6.30    8.80
   7 -15   3   23.40    9.60
   7  15  -3    3.30   10.10
   7  15  -3   -2.80   11.80
  -7 -15   3    8.40    9.50
   7 -15  -3   24.60   14.20
  -7 -15   3    1.30   14.40
  -7  15  -3   -1.20   10.90
   7 -15  -3   28.90   11.90
  -7 -15   3    4.40    7.60
  -7  15  -3    1.10   12.40
   0 -16   0  845.42   46.50
   0  16   0  858.61   46.10
   0 -16   0  775.02   45.70
   0 -16   0  816.62   48.20
   0  16   0  762.12   47.50
   0  16   0  839.42   46.20
   0 -16   0  680.33   48.50
   0 -16  -1   40.90    5.30
   0  16  -1   53.59   11.50
   0 -16   1   53.89   11.00
   0 -16  -1   51.19   10.60
   0 -16   1   50.89    9.70
   0 -16  -1   28.70   11.80
   0  16  -1   37.70    5.40
   0 -16   1   53.79    6.20
   0 -16   1   49.30    8.40
   0  16  -1   46.00    5.70
   0 -16  -1   48.60    9.20
   0 -16  -1   34.50    6.70
   0  16   1   53.89    4.90
   0  16   1   50.19    4.40
   0 -16   2  798.22   46.50
   0 -16   2  775.62   45.70
   0  16  -2  792.42   47.20
   0 -16  -2  826.92   46.30
   0  16   2  721.43   43.60
   0 -16  -2  794.32   44.50
   0 -16  -2  788.32   44.10
   0 -16   2  741.83   46.50
   0  16  -2  809.12   46.20
   0  16   3   19.30    6.70
   0  16  -3   18.20    4.60
   0  16   3   31.10    7.10
   0 -16  -3   27.20    5.90
   0 -16  -3   27.90    6.10
   0 -16  -3   32.50    8.30
   0  16  -3   18.90    5.00
   0 -16   3   19.50    5.70
   0 -16   3   33.30    5.30
   0 -16   3   27.80    6.50
   0 -16  -3   24.70    3.90
   0 -16  -4   -1.60    6.80
   0 -16   4   14.30    5.10
   0 -16  -4   13.00    3.30
   0 -16   4   -0.80    5.30
   0  16  -4    3.20    4.00
   0  16   4    7.70    6.40
   0  16   4    0.30    6.70
   0 -16   4    5.00    6.60
   0  16  -4   12.70    5.10
   0 -16  -4    9.50    6.00
   0  16   4    8.60    5.30
   0  16  -5   72.19    8.10
   0 -16  -5   49.00    8.10
   0 -16   5   65.09    7.30
   0 -16  -5   66.99    4.60
   0  16  -5   76.09    7.50
   0 -16   5   55.49    7.70
   0 -16   6   46.50    8.20
   0  16  -6   58.29    8.40
   0 -16   6   40.20    7.90
   0  16  -6   49.30    8.60
   0 -16   6   64.69    8.60
  -1 -16   0  443.46   29.50
   1 -16   0  407.36   29.10
  -1 -16   0  421.86   27.10
  -1  16   0  424.26   26.50
  -1 -16   0  398.46   26.10
   1 -16   0  364.16   26.00
  -1  16   0  418.56   26.70
   1  16   0  434.56   26.20
   1  16   0  420.16   26.20
   1 -16   0  445.36   27.50
   1 -16   0  471.85   30.60
  -1  16   1 1457.85   77.99
   1 -16   1 1429.26   78.79
  -1  16   1 1366.26   76.99
  -1 -16  -1 1361.46   77.39
  -1  16   1 1530.25   77.89
   1  16  -1 1386.06   78.99
   1 -16   1 1290.67   78.39
   1  16  -1 1445.86   78.89
  -1 -16  -1 1479.45   78.19
  -1 -16  -1 1471.65   79.59
   1 -16   1 1604.94   80.79
   1 -16  -1 1482.95   78.09
  -1  16  -1 1444.56   78.99
  -1 -16   1 1446.96   78.59
   1  16   1 1393.56   76.09
  -1 -16   1 1375.26   78.49
  -1  16  -1 1406.46   79.59
   1  16   1 1427.96   77.39
   1 -16  -1 1504.25   82.39
   1 -16  -1 1378.36   77.89
   1 -16  -1 1454.45   79.99
  -1  16  -1 1258.27   80.79
  -1 -16  -2    6.70    7.20
  -1 -16  -2   12.70    5.80
  -1  16   2   12.80    3.70
  -1  16   2   10.20    2.20
   1  16  -2    2.30    4.00
  -1  16   2   18.60    4.10
  -1  16   2    9.70    5.50
   1 -16   2    7.70    7.60
   1 -16   2   15.90    8.40
  -1 -16  -2   17.20    3.40
   1 -16   2   16.50    6.60
   1  16  -2    9.70    4.30
   1 -16  -2   14.40    6.00
   1  16   2   13.50    6.70
  -1  16  -2    4.30    4.10
   1 -16  -2    6.20    3.30
  -1  16  -2    5.10    4.20
  -1 -16   2   23.10    8.40
   1 -16  -2   13.40    7.20
   1 -16  -2    5.50    5.00
  -1 -16   2   11.60    8.30
  -1 -16  -3  117.79    8.30
  -1 -16  -3  105.89    9.60
   1  16  -3  113.09   10.20
  -1 -16  -3  119.39   11.80
   1 -16   3  125.09   10.20
   1 -16   3  126.39   10.50
   1  16  -3  130.99   10.20
  -1  16   3  116.59    8.80
  -1 -16   3  114.89    9.40
   1 -16  -3  108.39   10.20
   1 -16  -3  127.19   12.60
   1  16   3  103.89   10.00
   1 -16  -3   94.89   10.10
  -1  16  -3   83.29   11.50
   1  16   3   97.49   10.00
  -1  16  -3  111.49   10.20
   1 -16  -3  108.39    8.70
   1 -16   4    4.00    6.60
  -1 -16  -4   13.40    6.00
  -1 -16  -4    8.70    6.60
   1  16  -4   13.00    5.40
  -1  16   4   18.30    7.20
  -1 -16  -4   11.80    3.00
   1  16  -4    8.10    5.30
   1 -16   4   13.60    4.80
   1  16   4   20.50    6.00
   1  16   4   10.20    4.30
   1 -16  -4   14.80    7.80
  -1 -16   4   -3.50   10.40
  -1  16  -4   16.10    5.30
   1 -16  -4    3.80    5.20
  -1 -16   4   15.20    6.00
  -1 -16   4   15.80    3.90
  -1  16  -4   12.30    5.20
   1 -16  -4   16.70    4.20
   1 -16   5   47.90    9.00
   1  16  -5   45.30    7.10
   1  16  -5   49.10    7.40
   1 -16   5   50.89    7.10
  -1 -16  -5   40.70    7.50
  -1 -16   5   63.59    7.40
  -1 -16   5   60.59    7.10
  -1  16  -5   63.29    7.30
  -1  16  -5   49.60    6.90
   1 -16  -5   57.99    8.10
  -1  16   6   -3.30   10.70
   1  16  -6    1.90    8.10
   1  16  -6    3.60    7.90
   1 -16   6   -9.90    6.80
   1 -16   6    3.30    8.50
   1 -16   6   16.50    7.50
  -1  16  -6   14.30    7.50
  -1 -16   6   17.30    7.70
  -1  16  -6   13.80    8.40
  -1 -16   6   -6.50    6.30
  -1 -16   6    4.40    8.40
   2  16   0 1073.69   60.89
   2 -16   0  922.11   63.99
  -2 -16   0 1110.79   61.49
  -2  16   0 1192.08   62.69
   2 -16   0 1082.19   61.69
  -2 -16   0 1041.50   60.79
  -2  16   0 1142.29   61.99
  -2 -16   0 1089.39   63.69
   2  16   0 1092.49   60.89
   2 -16   0  985.00   64.59
   2 -16   0 1189.28   64.39
  -2  16   0 1216.38   63.79
  -2 -16  -1    6.10    2.80
   2  16  -1    9.00    3.40
   2 -16   1   -5.70    5.70
   2 -16   1    4.80    7.40
   2  16  -1   11.00    9.10
  -2 -16  -1    0.40    7.30
   2 -16   1    5.30    5.40
  -2  16   1   -3.10    5.10
  -2  16   1    6.80    3.30
  -2 -16  -1    8.30    6.10
  -2  16   1    5.00    6.10
   2 -16   1    4.90    7.40
   2 -16  -1   12.10    9.60
  -2 -16   1    1.70    7.70
   2 -16  -1    8.30    6.50
  -2 -16   1   11.10    8.70
  -2  16  -1   10.90    4.10
   2 -16  -1   -6.60   11.00
   2  16   1   16.60    4.20
  -2 -16   1   11.10    5.90
  -2  16  -1   10.70   10.60
   2 -16  -1   10.20    5.90
  -2  16  -1    2.40    4.10
   2  16   1   12.00    2.70
  -2  16  -1    0.00    4.50
   2  16   1   -0.40    4.70
   2 -16   2  237.38   20.90
  -2 -16  -2  293.07   19.00
   2  16  -2  293.97   19.80
   2 -16   2  257.67   23.40
  -2  16   2  276.97   17.20
   2  16  -2  297.17   20.20
  -2 -16  -2  287.67   17.80
  -2  16   2  298.87   18.20
  -2 -16  -2  306.57   21.40
  -2  16  -2  298.17   20.00
   2 -16  -2  296.77   22.60
   2 -16  -2  296.27   19.90
  -2 -16   2  286.07   19.50
   2  16   2  282.27   18.00
   2 -16  -2  272.37   19.90
  -2  16  -2  255.67   22.90
  -2 -16   2  309.47   21.70
   2 -16  -2  242.98   20.80
   2 -16   3   35.70    5.50
  -2 -16  -3   55.79    7.00
   2  16  -3   47.60    5.40
  -2 -16  -3   45.80    4.70
   2 -16   3   36.90    6.60
  -2 -16  -3   48.80    9.10
   2  16  -3   34.50    9.40
   2  16   3   50.29    7.50
   2 -16  -3   43.80   10.40
   2 -16  -3   38.80    7.10
   2 -16  -3   47.20    4.30
  -2  16  -3   50.99    6.40
  -2 -16   3   27.00    8.70
   2 -16  -3   46.40    8.00
  -2  16  -3   33.00    5.70
   2  16  -4   83.79    7.30
   2 -16   4   68.29    6.90
   2  16  -4   68.29    7.70
  -2 -16  -4   72.89   10.80
  -2 -16  -4   64.69    5.00
  -2  16  -4   83.69    7.10
  -2 -16   4   77.79    7.20
  -2  16  -4   77.19    7.30
   2 -16  -4   63.99   13.40
   2  16   4   68.09    6.50
   2 -16  -4   57.19    6.10
  -2 -16   4   75.49    7.70
   2 -16  -4   54.49    7.90
  -2 -16   4   34.20   17.80
   2 -16   5   12.50    7.50
  -2  16   5   10.30    8.90
   2 -16   5   11.20    6.40
  -2 -16  -5   -3.90    6.10
   2  16  -5    6.60    6.60
   2  16  -5    8.80    6.90
  -2  16  -5   -1.30    6.30
  -2 -16   5   -0.90    6.90
   2 -16  -5    5.20    4.10
  -2  16  -5   -3.80    6.60
  -2 -16   5   -4.70    6.30
   2 -16  -5    4.50    6.70
  -2  16   6    4.10   10.70
   2 -16   6   12.40    9.30
   2  16  -6   10.80    8.50
   2  16  -6   -0.80    8.60
   2 -16   6    8.50    7.90
  -2  16  -6   10.60    8.20
   2 -16  -6   12.90    4.20
  -2  16  -6    5.90    7.90
  -2 -16   6    6.30    7.80
  -2 -16   6   -0.40    8.10
  -3 -16   0  115.79    9.40
   3  16   0  118.39    9.40
  -3  16   0  114.59    9.70
   3 -16   0  121.69   12.90
   3  16   0  130.49    9.00
  -3  16   0  125.99   11.00
   3 -16   0  105.69   11.90
   3  16   0   90.59   13.30
  -3  16   0  133.49   13.80
   3 -16   0  115.69    9.70
   3  16  -1  498.45   30.20
  -3 -16  -1  490.55   32.50
   3 -16   1  479.35   30.30
  -3  16   1  483.85   29.70
   3 -16   1  524.15   33.10
  -3 -16  -1  544.05   31.00
   3 -16   1  428.26   32.40
  -3  16   1  522.05   29.70
   3  16  -1  396.06   33.30
  -3  16   1  539.45   31.20
   3  16  -1  505.25   30.40
   3  16   1  487.45   28.60
   3  16   1  488.65   27.20
  -3 -16   1  475.05   29.80
   3 -16  -1  500.65   30.90
  -3  16  -1  492.75   33.70
   3  16   1  408.46   28.10
   3 -16  -1  399.66   34.70
   3 -16  -1  463.65   29.90
   3 -16   2   42.50    5.60
  -3  16   2   53.59    7.30
  -3 -16  -2   46.30    4.90
   3 -16   2   53.49    7.20
  -3 -16  -2   67.19    8.20
  -3 -16  -2   68.29   10.70
   3  16  -2   48.80    6.10
  -3 -16  -2   32.50    6.80
  -3  16  -2   47.80    8.60
   3 -16  -2   64.09   10.30
   3 -16  -2   48.00    5.10
  -3 -16   2   51.39    5.50
   3  16   2   42.80    5.60
  -3 -16   2   41.00    6.60
   3 -16  -2   46.50    7.00
  -3 -16   2   38.20   12.10
  -3  16  -2   53.49    6.80
  -3  16   3   33.50    5.50
   3 -16   3   43.30    5.80
  -3 -16  -3   34.10    9.40
  -3 -16  -3   41.20    6.50
  -3  16   3   54.59    6.00
   3 -16   3   49.10    7.20
  -3 -16  -3   39.50    4.40
   3  16  -3   45.20    5.60
   3  16  -3   43.90    6.30
  -3  16  -3   46.70    5.70
  -3 -16   3   50.29    5.80
  -3 -16   3   38.50   11.70
   3 -16  -3   41.00    4.80
   3  16   3   41.80   11.60
  -3  16  -3   45.30    6.10
   3 -16  -3   33.30    8.50
  -3 -16   3   51.39    6.70
  -3  16   4   26.10    6.10
   3  16  -4   23.30    6.20
   3 -16   4   24.90    7.00
   3  16  -4   23.60    6.60
   3 -16   4   33.10    6.50
  -3 -16  -4   35.00    3.30
  -3 -16  -4   25.70    6.40
   3 -16  -4   38.30    5.40
  -3  16  -4   31.60    6.20
  -3  16  -4   38.10    6.60
  -3 -16   4   45.00    7.60
   3 -16  -4   37.50    8.60
  -3 -16   4   22.20    6.10
   3 -16   5   27.70    8.80
   3  16  -5   41.10    8.30
   3 -16   5   38.80    7.50
   3  16  -5   38.80    8.80
   3 -16  -5   49.70    6.50
   3 -16  -5   34.60    9.30
  -3 -16   5   46.50    7.80
  -3  16  -5   25.50    7.80
  -3  16  -5   40.80    7.70
   3  16  -6    7.90    9.50
   3 -16   6   10.10    8.30
   3 -16   6    0.00   10.00
  -3  16   6    4.90   12.10
   3  16  -6   -1.50    9.10
  -3  16  -6   14.10    9.50
   3 -16  -6   12.90    9.80
  -3 -16   6    0.50    7.70
  -3 -16   6    8.40    9.00
  -3 -16   6    3.40    8.50
  -3  16  -6   25.10    8.20
  -4  16   0  304.07   20.50
   4  16   0  343.77   20.10
   4 -16   0  250.47   21.50
   4 -16   0  317.47   20.50
  -4 -16   0  328.97   23.40
   4  16   0  334.77   20.50
  -4 -16   0  321.07   20.40
   4  16   0  245.58   22.20
  -4  16   0  277.67   23.10
  -4  16   1    8.00    8.00
  -4 -16  -1   10.80    3.70
   4  16  -1   12.90    4.80
   4  16  -1   18.00   11.30
  -4  16   1   22.30    5.00
  -4  16   1    2.40    6.20
   4  16  -1    5.30    4.90
  -4  16   1   22.40    5.00
   4 -16   1    6.90    5.60
   4 -16   1   13.20    3.70
  -4 -16   1   12.90    6.10
   4 -16  -1   11.70    9.10
  -4 -16   1   18.50   10.40
  -4 -16   1   22.60    5.10
   4  16   1   14.20    6.70
  -4  16  -1   16.40    5.20
   4  16   1   14.10    3.30
   4 -16  -1   23.50    4.80
   4 -16  -1   14.40    5.90
  -4  16  -1   12.40    5.40
  -4  16  -1   20.80    5.50
   4  16   1   12.50    4.80
   4  16  -2   11.90    5.30
  -4 -16  -2   15.30    6.10
   4 -16   2   13.60    6.40
  -4  16   2    4.60    6.80
   4  16  -2   12.80    5.50
  -4 -16  -2    4.90    3.50
  -4  16   2    7.10    4.80
   4 -16   2   21.20    5.60
  -4  16   2   10.40    7.40
  -4  16   2    5.40    4.40
   4 -16  -2   21.90   10.00
  -4 -16   2   -0.30    6.10
  -4 -16   2    9.60    4.50
   4 -16  -2   13.60    6.50
   4  16   2    4.40    4.30
   4 -16  -2   19.10    4.80
  -4  16  -2   13.40    5.20
  -4 -16  -3   58.09    7.60
  -4  16   3   61.89    5.70
  -4 -16  -3   59.09    6.00
   4 -16   3   51.69    7.00
  -4 -16  -3   55.09   14.80
   4  16  -3   61.69    7.70
   4  16  -3   61.79    6.90
  -4  16   3   74.89    8.00
   4 -16   3   63.99    8.20
  -4  16  -3   66.99    7.20
  -4  16  -3   71.69    7.10
   4 -16  -3   73.89    9.20
   4 -16  -3   68.99    7.20
  -4 -16   3   62.09    7.20
  -4 -16   3   70.59    7.10
   4  16  -4   13.30    7.20
   4 -16   4   19.70    6.60
   4  16  -4   29.10    7.00
   4 -16   4   20.80    8.10
  -4 -16  -4   23.80    3.40
  -4 -16  -4   35.80    7.40
  -4 -16   4   15.40    6.50
  -4 -16   4   13.10    6.90
  -4  16  -4   22.10    6.60
   4 -16  -4   31.80    5.60
  -4  16  -4   18.20    7.10
   4 -16  -4   15.20    7.90
   4  16  -5   -1.20    8.80
  -4  16   5   -4.80   10.40
   4 -16   5    4.00    8.70
   4 -16   5   -4.80    7.90
   4  16  -5   -0.20    8.70
  -4 -16   5   -2.90    8.40
   4 -16  -5    8.80    6.20
  -4 -16   5   -7.00    6.50
   4 -16  -5    4.60    9.30
  -4 -16   5  -10.70    8.10
  -4  16  -5    0.50    8.40
  -4  16  -5   -8.80    7.80
  -5 -16   0  128.79   11.20
   5 -16   0   91.69   11.20
  -5 -16   0  114.29    9.70
  -5  16   0  107.39    9.10
   5 -16   0  118.09   10.00
   5  16   0  135.19    9.60
  -5  16   0  129.59   11.00
   5  16   0  122.39    9.80
   5  16  -1   15.70    9.10
  -5  16   1   19.30    5.70
   5 -16   1   28.00    6.50
  -5 -16  -1   24.80    5.10
  -5  16   1    6.40    6.20
  -5 -16  -1   20.60    6.10
   5  16  -1   19.00    6.20
   5 -16  -1    7.50    6.70
  -5  16  -1   10.60    5.50
   5 -16  -1   18.70    6.00
   5  16   1   26.10    6.50
  -5 -16   1   19.60    4.80
  -5 -16   1   15.80   14.30
  -5  16  -1   20.60    5.80
   5  16   1   18.60    3.70
  -5  16   2    7.80    8.10
   5 -16   2    8.10    6.20
   5 -16   2    9.90    7.70
   5  16  -2    0.70    5.80
   5  16  -2   12.90    6.80
  -5  16   2    3.20    5.70
  -5 -16  -2    8.40   11.00
  -5 -16  -2    2.50    4.10
  -5  16   2    5.50    5.40
  -5 -16   2   12.30    6.40
   5 -16  -2   -0.30    5.40
  -5  16  -2   10.90    5.90
   5 -16  -2    4.00    7.40
  -5  16  -2   -1.10    6.40
  -5 -16   2   -0.30    5.30
  -5  16  -2   -2.90    6.10
  -5  16   3   30.30    7.20
   5 -16   3   34.30    8.50
   5  16  -3   18.00    7.60
   5 -16   3   20.30    6.90
  -5 -16  -3   27.80    5.00
   5  16  -3   15.60    6.80
  -5 -16   3   19.70    7.10
  -5  16  -3   24.20    7.20
  -5 -16   3   24.80    6.40
   5 -16   4   12.60    7.60
   5  16  -4    9.90    8.80
  -5  16   4   -1.40   10.40
  -5 -16  -4   -6.00    7.30
   5  16  -4    9.00    8.60
   5 -16   4   -5.40    9.30
  -5  16  -4    3.20    7.80
  -5 -16   4    7.10    7.60
   5 -16  -4   13.70    7.30
   5 -16  -4    3.40    8.90
  -5 -16   4   -3.30    8.20
  -5  16  -4    0.30    7.90
   5 -16   5   30.30   10.10
   5  16  -5    9.40   14.00
   5 -16   5   22.90   11.10
  -5  16   5    8.70   19.90
   5  16  -5    2.60   10.50
  -5 -16   5   15.40    8.20
  -5  16  -5   16.60   15.30
   5 -16  -5   12.90   10.60
  -5 -16   5    0.80    9.30
   5 -16  -5   11.60    7.80
  -5 -16   5    5.20   12.20
  -6 -16   0    1.60    5.80
  -6  16   0    5.40    8.20
   6  16   0   -0.20    7.60
  -6 -16   0    5.60    7.70
  -6  16   0   -0.30    6.80
   6  16   0    8.70    5.80
   6 -16   0    5.00    6.90
   6 -16   0   -2.10    7.70
   6 -16   1    3.50    7.00
  -6 -16  -1    4.50    7.30
  -6  16   1    4.80    7.00
  -6  16   1   -6.80    9.40
   6  16  -1   -0.40    6.30
   6 -16   1    2.90    8.10
   6  16  -1   -0.10    7.40
  -6 -16   1    2.10    6.50
   6 -16  -1    6.50    6.70
  -6  16  -1    3.60    7.10
   6 -16  -1    7.60    8.50
  -6 -16   1    5.10    7.50
  -6  16  -1    2.60    8.00
   6 -16   2   17.00    9.10
   6  16  -2   13.70    7.60
  -6 -16  -2    5.40    7.40
  -6  16   2   -1.80    7.50
  -6  16   2   19.50    7.10
   6  16  -2   10.20    8.40
  -6  16   2    7.60    9.70
  -6 -16  -2   17.70    5.10
  -6  16  -2   -1.40    7.10
  -6 -16   2   11.10    6.40
  -6 -16   2   20.60    9.90
   6 -16  -2   19.70    8.70
   6 -16  -2   15.90    6.80
  -6  16  -2   10.00    8.00
   6  16  -3    5.30    9.00
  -6 -16  -3   -1.10    5.00
  -6  16   3  -10.10    8.20
   6 -16   3   16.60    8.30
   6 -16   3    6.50    9.80
  -6  16   3   -1.40   10.50
  -6 -16  -3    6.60   10.40
   6  16  -3    6.00    9.00
  -6 -16   3    3.70    7.40
  -6 -16   3   -1.20   11.20
  -6  16  -3    7.40    8.10
  -6  16  -3    5.30    7.70
   6 -16  -3   12.60    7.30
   6 -16  -3    6.60   10.00
   6  16  -4   43.30   11.80
   6  16  -4   22.80   10.70
   6 -16   4   42.60   10.70
  -6  16   4   13.40   19.80
   6 -16   4   38.50   11.40
   6 -16  -4   51.19   12.50
   6 -16  -4   49.60   10.90
  -6 -16   4   51.19   10.10
   7 -16   0   12.70    8.60
  -7  16   0   -7.40   10.40
  -7 -16   0  -14.60   11.90
  -7  16   0    1.20    8.70
  -7 -16   0    3.00    7.40
   7 -16   0    1.70   10.70
  -7 -16  -1  -21.30   13.00
   7 -16   1    9.50    9.00
  -7 -16  -1   -3.10    7.10
  -7  16   1    3.80   11.20
  -7  16   1   -2.20    9.10
   7  16  -1    1.10    8.40
   7  16  -1   15.70    9.70
   7 -16   1   19.00   10.70
  -7  16  -1    9.10    9.00
  -7 -16   1   -1.50   12.40
  -7 -16   1   -2.70    8.20
  -7  16  -1    8.90   10.50
   7 -16  -1   17.40    8.70
   7 -16  -1    4.60   10.30
  -7  16   2    4.20   11.80
   7  16  -2   -1.50   10.60
  -7 -16  -2    1.30   11.10
   7 -16   2   12.40    9.70
  -7  16   2    5.20    9.10
  -7 -16  -2   -2.50    6.70
   7 -16   2    5.10   11.70
   7  16  -2    0.90    9.20
   7 -16  -2    1.40    9.60
  -7  16  -2   17.50    9.80
  -7  16  -2  -12.70    8.90
  -7 -16   2   11.10    9.80
   7 -16  -2    6.40   10.90
  -7 -16   2  -12.90    9.90
   0 -17   0    0.70    5.20
   0 -17   0    1.00    7.40
   0  17   0   -0.80    3.40
   0  17   0    3.20    4.20
   0  17   0    2.90    7.80
   0 -17   0   -5.20    4.80
   0 -17   0    7.90   10.00
   0 -17   1  219.38   17.80
   0 -17   1  203.58   19.20
   0  17   1  217.28   14.90
   0 -17   1  195.08   15.10
   0 -17  -1  208.78   18.60
   0  17   1  238.38   14.70
   0  17   1  246.08   17.50
   0 -17  -1  227.98   17.40
   0  17  -1  210.18   15.70
   0  17  -1  222.28   16.70
   0 -17   2   91.79   11.60
   0  17   2   99.79    7.20
   0 -17   2   97.99   13.50
   0 -17  -2  111.19   12.80
   0 -17   2  100.19    8.60
   0 -17  -2  106.29   10.50
   0  17  -2   87.79   12.30
   0  17  -2   99.19    8.60
   0  17   3   67.99   12.80
   0  17  -3   84.19    7.70
   0  17  -3   81.09    7.40
   0 -17  -3   66.99   10.80
   0 -17   3   81.09    7.10
   0 -17   3   78.99    9.90
   0 -17  -3   61.89    8.10
   0 -17  -3   69.19    8.00
   0  17  -4    5.90    5.90
   0 -17  -4   12.00    7.10
   0 -17  -4   -2.80    7.50
   0 -17  -4    8.00    3.40
   0  17  -4   14.20    5.80
   0 -17   4   14.10    7.30
   0 -17   4    4.80    5.40
   0 -17   5   12.00    6.70
   0  17  -5   18.10    7.30
   0 -17  -5   21.00    8.10
   0  17  -5    8.70    6.80
   0 -17  -5   18.60    3.40
   0 -17   5   20.10    8.10
   0  17  -6   14.40    8.40
   0 -17   6   -2.10    9.20
   0  17  -6   11.60    8.60
   0 -17   6    3.60    8.50
   1 -17   0  190.08   14.30
  -1 -17   0  189.08   15.20
   1 -17   0  212.08   16.50
   1  17   0  171.58   17.10
  -1 -17   0  223.08   16.60
   1 -17   0  219.68   18.70
  -1  17   0  194.58   14.50
   1  17   0  192.58   14.40
   1  17   0  199.18   13.40
  -1  17   0  192.38   14.70
  -1  17   1   13.10    5.80
   1  17  -1    5.20    3.70
   1 -17   1   15.10    4.10
  -1 -17  -1   14.10    6.30
  -1  17   1   11.00    3.20
   1  17  -1    8.70    9.60
   1 -17   1   13.40    8.30
   1 -17   1   11.80    5.70
  -1 -17  -1    6.20    8.90
   1 -17   1   13.80    7.50
  -1  17   1   16.70    4.10
   1 -17  -1   17.50    7.10
   1 -17  -1   14.40    5.40
  -1 -17   1    9.60    7.70
   1  17   1    6.60    4.90
  -1  17  -1    7.60    9.80
  -1 -17   1    3.20    8.40
  -1 -17   1   18.60    8.30
  -1 -17   1   19.40    3.80
  -1  17  -1   14.20    3.90
  -1  17  -1    3.60    4.20
   1  17   1   13.70    4.00
   1  17   1   12.50    2.90
   1 -17   2   75.09    9.20
  -1 -17  -2   94.09   10.90
   1  17  -2   94.39    8.30
   1 -17   2   87.69    7.60
   1  17  -2   88.69   10.90
  -1 -17  -2  100.89   10.00
   1 -17   2   99.49   11.20
  -1  17   2   87.69    6.90
  -1  17   2   86.99    6.10
  -1 -17  -2   86.59    7.40
  -1  17   2   86.59    7.00
   1 -17  -2   98.59   13.10
  -1 -17   2   88.79    7.40
  -1  17  -2  101.19    7.90
  -1  17  -2   85.29    8.30
   1 -17  -2   80.09    9.80
   1 -17  -2   94.69   10.30
  -1 -17   2   97.69   12.90
   1 -17  -2   91.49    7.80
   1  17   2   93.89    7.00
   1  17  -3    8.10    5.00
   1 -17   3   14.50    6.40
  -1  17   3   16.90    4.80
  -1 -17  -3    9.90    6.80
   1 -17   3    2.40    5.90
  -1  17   3    6.80    7.30
  -1 -17  -3   19.20    3.50
  -1 -17  -3   10.30    7.30
   1  17  -3   12.10    4.90
   1 -17   3   20.70    5.10
  -1 -17  -3    6.00    4.90
   1  17   3    6.20    6.00
  -1 -17   3   15.30    8.00
   1 -17  -3    4.60    5.60
   1 -17  -3    8.90    9.20
   1 -17  -3   11.70    5.60
  -1 -17   3   12.00    4.60
  -1 -17   3   13.60    6.20
  -1  17  -3   20.70    5.60
   1 -17  -3   13.50    3.80
  -1  17  -3   15.50    4.80
   1  17  -4    2.80    5.90
  -1  17   4    6.40    7.80
   1  17  -4   11.70    4.70
  -1 -17  -4    7.00    7.00
   1 -17   4   10.10    6.90
   1 -17   4   12.10    5.60
  -1 -17  -4    9.50    2.80
  -1 -17   4    5.40    5.50
   1  17   4    9.80    6.90
  -1  17  -4   12.80    5.90
   1 -17  -4    8.10    3.70
  -1 -17   4   15.00    6.50
   1 -17  -4   15.50    5.90
  -1  17  -4    4.70    5.70
   1 -17  -4    6.60   10.00
   1 -17   5   31.50    7.80
   1  17  -5   42.90    8.10
   1 -17   5   36.00    9.80
   1  17  -5   45.20    7.60
  -1 -17  -5   30.50    8.30
  -1 -17   5   55.49    8.00
  -1  17  -5   45.10    7.90
  -1 -17   5   57.89    7.70
   1 -17  -5   55.89    5.10
   1 -17  -5   49.40    9.30
  -1  17  -5   46.60    7.60
   1 -17   6   37.40    9.30
   1  17  -6   39.30    9.70
   1 -17   6   20.80   10.10
   1  17  -6   27.60    9.20
  -1 -17   6   13.30    8.80
  -1 -17   6   38.60    9.30
  -1  17  -6   27.80    8.60
  -1  17  -6   46.40   10.50
  -2 -17   0   26.70    4.70
  -2  17   0   30.20    8.60
   2  17   0   35.50    5.20
  -2  17   0   20.80    4.80
   2 -17   0   13.20    7.00
  -2 -17   0   18.70    5.80
  -2 -17   0   32.30    8.60
   2  17   0   25.50    8.70
   2 -17   0   26.00    4.30
   2 -17   0   27.70    9.70
   2  17   0   23.60    4.00
   2 -17   0   46.50    9.60
  -2  17   1  249.88   17.50
   2  17  -1  203.28   21.30
   2 -17   1  225.68   16.10
  -2 -17  -1  244.88   18.20
   2 -17   1  234.98   18.80
   2  17  -1  234.88   16.30
  -2  17   1  224.18   15.80
   2  17  -1  235.48   16.60
  -2 -17  -1  214.28   15.50
   2 -17   1  234.68   19.10
  -2 -17  -1  248.08   21.70
  -2  17   1  237.78   16.10
  -2  17  -1  226.38   16.70
  -2 -17   1  237.48   18.30
   2 -17  -1  216.78   16.40
   2 -17  -1  243.78   18.30
   2  17   1  224.68   15.20
   2  17   1  234.08   14.40
  -2  17  -1  239.08   17.60
  -2 -17   1  211.08   16.30
   2 -17   2   87.19    7.70
  -2  17   2   81.19    7.00
  -2 -17  -2   89.09   12.30
  -2  17   2   76.49    8.20
  -2 -17  -2   79.09    9.40
   2  17  -2   75.39    8.00
  -2  17   2   73.89    6.20
   2  17  -2   73.99    8.70
  -2 -17   2   80.59    7.80
  -2  17  -2   83.29    7.90
   2  17   2   80.89    6.90
   2 -17  -2   88.59    9.90
   2 -17  -2   86.39    7.60
  -2  17  -2   79.69    7.70
  -2 -17   2   98.89   13.60
  -2 -17  -3    7.40    8.30
  -2 -17  -3    8.60    3.00
  -2 -17  -3    9.30    6.90
   2 -17   3    7.30    5.00
   2 -17   3   13.80    6.20
  -2  17   3    8.00    4.70
   2  17  -3    9.10    5.40
   2  17  -3    5.00    5.20
  -2  17  -3    7.30    5.40
  -2  17  -3   10.60    5.30
  -2 -17   3    6.90    4.80
   2 -17  -3    3.80    5.30
  -2 -17   3    0.90    6.20
   2  17   3    3.40    7.00
  -2 -17   3   -7.10    8.20
   2 -17  -3    5.70    4.00
   2 -17   4   18.90    5.80
   2  17  -4   16.00    6.30
   2 -17   4   19.60    7.70
   2  17  -4   24.80    6.50
  -2 -17  -4   22.20    3.30
  -2  17   4    6.10    8.30
  -2  17  -4   20.60    6.20
   2 -17  -4   30.10    4.80
  -2 -17   4   30.10    6.20
   2 -17  -4   13.80    6.50
  -2  17  -4   16.00    6.10
  -2 -17   4   26.60    7.30
   2 -17   5    1.70    6.90
   2  17  -5   -9.80    7.60
   2 -17   5    7.50    9.10
   2  17  -5    0.70    7.70
  -2  17   5    6.00    9.80
  -2  17  -5    1.60    7.50
  -2 -17   5    6.90    7.00
  -2 -17   5    1.10    8.00
  -2  17  -5    1.70    7.30
   2 -17  -5    5.30    7.30
  -2  17   6   -7.30   13.30
   2 -17   6   11.60   10.40
   2  17  -6   20.60    9.50
   2 -17   6    2.90    9.00
   2  17  -6    3.80   10.40
   2 -17  -6    9.50    4.70
  -2  17  -6   16.60    9.30
  -2 -17   6    6.70    9.20
  -2 -17   6    3.40    7.70
  -2  17  -6   10.80    8.90
  -2 -17   6   -6.70    9.00
  -3  17   0   11.50    4.60
   3 -17   0   10.70    5.80
   3 -17   0   14.20    4.30
   3  17   0    8.50    8.30
  -3  17   0   20.30   10.10
   3  17   0   18.80    4.90
   3 -17   0   27.20    9.80
  -3 -17   0   29.30    7.80
   3  17   0   14.80    4.00
   3  17  -1   -4.70    4.70
   3  17  -1    1.60    4.80
   3  17  -1   -6.00   11.10
  -3  17   1    0.60    4.10
   3 -17   1    4.60    4.50
  -3  17   1    9.90    4.40
  -3  17   1   10.10    7.20
  -3 -17  -1    5.90    3.70
  -3 -17  -1    7.10    5.90
   3 -17   1   -0.40    5.90
  -3 -17  -1   12.90    6.50
   3 -17  -1    8.70    6.10
   3 -17  -1    3.30    4.10
   3  17   1    3.00    5.50
   3  17   1    4.10    2.70
  -3 -17   1   -6.40    4.40
   3 -17  -1   12.80    8.40
   3  17   1   12.60    4.00
  -3 -17   1   -4.20    6.30
  -3  17  -1    2.80    5.40
  -3  17   2   16.50    4.70
  -3  17   2   11.10    7.00
  -3  17   2   13.30    7.00
  -3 -17  -2   12.90    6.10
  -3 -17  -2   15.40    3.80
   3 -17   2   21.50    6.30
   3  17  -2   13.80    4.80
  -3  17   2   16.60    4.20
   3  17  -2   11.30    5.40
   3 -17   2   21.70    5.40
   3  17   2   10.80    4.20
  -3 -17   2    7.10    4.60
  -3  17  -2   16.80    5.20
  -3  17  -2   12.70    5.60
   3 -17  -2    7.30    7.40
   3 -17  -2   13.90    5.80
   3 -17  -2   20.50    4.60
  -3 -17   2   11.90    5.70
  -3 -17  -3   26.20    4.30
   3  17  -3   16.10    6.10
   3  17  -3   34.30    6.70
  -3 -17  -3   15.60    6.50
   3 -17   3   23.30    6.50
  -3  17   3   26.20    6.30
  -3 -17  -3   25.10   10.70
   3 -17   3   38.30    6.20
  -3 -17   3   22.30    5.50
  -3 -17   3   29.80   18.50
  -3 -17   3   37.40    6.90
   3 -17  -3   27.90    5.60
  -3  17  -3   24.40    6.10
  -3  17  -3   29.60    6.30
   3 -17  -3   13.20    6.70
   3  17  -4   28.40    7.80
   3 -17   4   30.40    7.30
   3 -17   4   35.20    8.10
  -3 -17  -4   26.90    3.70
  -3 -17  -4   20.40    7.50
   3  17  -4   37.70    6.90
   3 -17  -4   15.10    7.30
   3 -17  -4   30.40    6.00
  -3 -17   4   23.70    7.40
  -3  17  -4   25.40    6.90
  -3 -17   4   22.10    6.60
   3 -17   5   45.70   10.80
   3  17  -5   46.60    8.70
   3  17  -5   48.90    9.40
   3 -17   5   65.19   10.20
   3 -17  -5   48.90   10.30
   3 -17  -5   61.59    6.60
  -3 -17   5   55.89    8.70
  -3 -17   5   33.60    9.90
  -3  17  -5   58.19    9.70
  -3  17  -5   39.80    8.90
  -4  17   0   34.90    6.20
  -4 -17   0   45.80    7.70
  -4  17   0   39.20    6.00
   4  17   0   42.40    5.30
   4  17   0   47.70    7.10
   4 -17   0   37.00    7.50
   4  17   0   27.70   12.50
  -4 -17   0   37.40    5.80
   4 -17   0   42.70    6.00
   4  17  -1   26.90    6.10
   4 -17   1   27.30    6.80
   4  17  -1   27.80    5.50
  -4 -17  -1   20.40    4.90
  -4  17   1   17.90    5.80
   4  17  -1   25.60   19.20
  -4 -17  -1   15.10    6.70
  -4  17   1   18.00    5.40
   4 -17   1   24.20    5.90
  -4  17   1   29.50   12.50
   4 -17  -1   26.30   12.10
   4  17   1   24.90    3.50
  -4  17  -1   22.10    6.40
   4 -17  -1   25.40    7.30
  -4 -17   1   30.20    6.70
   4  17   1   19.60    5.30
  -4  17  -1   22.50    6.90
  -4  17  -1   21.50    5.80
  -4 -17   1   26.30    5.00
  -4 -17   1   26.20   13.30
  -4  17   2   52.69    7.50
   4 -17   2   58.89    6.90
  -4  17   2   50.89    5.60
   4  17  -2   45.00    6.70
   4 -17   2   45.90    8.80
  -4 -17  -2   50.29    5.40
   4  17  -2   59.39   11.70
   4 -17  -2   45.40    9.00
  -4 -17   2   51.49    7.30
  -4  17  -2   40.20    6.40
   4  17   2   30.80    7.40
  -4 -17   2   41.30    5.90
   4 -17  -2   47.00    6.90
   4  17  -3   -0.10    6.60
  -4 -17  -3   16.30    7.20
  -4  17   3   12.00    5.80
  -4  17   3    1.80    6.00
   4 -17   3    6.00    7.50
   4 -17   3   10.70    6.30
  -4  17   3   -3.90    8.70
   4  17  -3   11.00    7.00
  -4 -17  -3    6.20    3.70
  -4  17  -3    7.10    6.40
   4 -17  -3   21.60    8.00
   4 -17  -3    7.10    5.80
  -4 -17   3    5.50    6.70
  -4  17  -3   10.20    6.90
   4 -17   4    0.40    8.50
   4  17  -4    2.10    8.10
   4 -17   4    6.10    7.30
  -4 -17  -4   -5.00    7.70
   4  17  -4    5.20    7.60
  -4  17   4    2.00   10.00
  -4 -17  -4    1.50    3.10
  -4  17  -4    2.00    7.20
  -4  17  -4    5.60    7.50
  -4 -17   4   -0.20    7.60
   4 -17  -4    7.70    6.30
  -4 -17   4   10.50    6.70
   4 -17  -4   -0.30    8.50
   4  17  -5   -0.20    9.50
  -4  17   5    7.10   11.90
   4 -17   5   -2.10   10.70
   4  17  -5    9.00    9.40
   4 -17   5   15.80    8.60
   4 -17  -5    8.80   10.50
  -4  17  -5   -0.20    8.70
   4 -17  -5   11.80    7.00
  -4 -17   5   -2.90    8.90
  -4 -17   5   -1.10    9.60
  -4  17  -5   -8.20    9.70
  -4 -17   5   -9.20    7.70
   5  17   0   45.60    6.30
   5 -17   0   46.10    7.00
   5 -17   0   42.20    8.70
   5  17   0   38.60    8.40
  -5 -17   0   64.49    8.60
  -5 -17   0   51.19    6.50
  -5  17   0   47.30    6.50
  -5  17   1   56.99    7.40
   5 -17   1   55.99    9.10
   5 -17   1   77.69    7.70
   5  17  -1   64.49    7.10
   5  17  -1   73.79    8.10
  -5 -17  -1   58.79    6.40
  -5  17   1   54.19    7.60
   5 -17  -1   70.39    7.40
  -5  17  -1   48.90    7.60
  -5  17  -1   56.59    8.20
   5 -17  -1   67.89   10.30
  -5 -17   1   73.79    6.70
   5  17   1   83.89    8.30
  -5  17   2   13.40    9.00
  -5  17   2   -1.70    6.50
  -5 -17  -2    4.50    4.60
  -5 -17  -2   12.80    6.90
   5 -17   2    4.30    7.70
   5 -17   2   17.00    6.60
   5  17  -2    6.10    7.00
   5  17  -2   16.70    7.40
  -5  17   2    2.70    7.40
   5 -17  -2   20.90    8.20
  -5 -17   2    4.20    5.80
  -5 -17   2   13.70    6.90
  -5  17  -2    3.40    7.30
  -5  17  -2    3.20    6.90
  -5  17  -2   -5.40    6.30
  -5 -17  -3   13.40    4.50
  -5  17   3   11.10    7.30
   5  17  -3    6.70    8.10
  -5  17   3    0.10    9.70
   5 -17   3   19.30    7.40
   5  17  -3    7.70    8.20
  -5 -17  -3   17.10    8.20
   5 -17   3    8.10    8.90
  -5 -17   3    7.20    7.90
  -5 -17   3   18.30    6.80
  -5  17  -3   20.40    7.60
   5 -17  -3   26.30    7.10
   5 -17  -3   24.10    9.50
  -5  17   4    8.70   11.20
  -5 -17  -4   21.60    6.30
   5  17  -4   16.90    9.90
   5  17  -4   21.70    9.50
   5 -17   4   24.10    8.60
   5 -17   4   20.80   10.70
   5 -17  -4   24.10   10.00
  -5  17  -4   18.20    9.10
  -5 -17   4   18.90    8.80
  -5 -17   4   36.10    8.60
  -5  17  -4   25.80    8.90
   6 -17   0   -5.60    9.20
  -6 -17   0    1.80    5.80
  -6  17   0    1.00    9.00
   6  17   0   -0.10    8.60
   6 -17   0    1.10    7.30
  -6 -17   0    3.20    8.10
   6  17   0    3.40    6.80
  -6  17   0    4.60    7.40
   6 -17   1    7.40    7.80
   6  17  -1    9.70    7.40
  -6  17   1    4.70    7.60
   6  17  -1   18.20    9.30
   6 -17   1   15.60    9.30
  -6  17   1    1.30   10.50
  -6 -17  -1   -5.70    5.90
  -6 -17  -1   -0.50    8.40
  -6 -17   1   -9.90    6.40
  -6  17  -1    0.30    9.30
  -6 -17   1   -3.10    8.70
  -6  17  -1    0.10    7.90
   6 -17  -1    6.10    7.20
   6 -17  -1   -0.90    8.90
  -6  17   2   -7.30   11.30
   6 -17   2   18.50    8.10
  -6 -17  -2   -1.70    5.70
   6 -17   2    9.10   10.50
   6  17  -2    6.10    7.90
   6  17  -2   -0.10    9.00
  -6 -17  -2   -4.10    8.60
  -6  17   2    3.10    7.50
  -6  17  -2   13.40    8.80
  -6  17  -2   -2.10    9.10
   6 -17  -2   -2.00    9.30
  -6 -17   2   -8.60    9.00
  -6 -17   2    2.30    7.00
   6  17  -3   10.70   10.20
   6  17  -3    9.70    9.70
   6 -17   3   32.70   11.20
   6 -17   3   35.10    9.20
  -6 -17  -3   26.00   11.60
  -6  17  -3   24.80   10.00
   6 -17  -3   17.00   11.10
  -6 -17   3    6.60   12.20
   6 -17  -3   38.50   10.60
  -6 -17   3   46.60    9.20
  -7 -17   0  -17.40   13.20
  -7  17   0   15.80   12.60
  -7  17   0    8.60   10.30
  -7 -17   0   26.00    7.50
  -7  17   1   40.80   11.00
  -7 -17  -1   49.80    7.60
   7 -17   1   55.79   11.20
   7  17  -1   59.19   11.40
  -7  17  -1   40.20   11.90
   0 -18   0   68.79   11.80
   0 -18   0   68.09    6.60
   0  18   0   63.29    7.70
   0  18   0   77.79    6.90
   0  18   1   53.79    8.50
   0 -18  -1   46.20    8.10
   0  18  -1   45.60   12.60
   0  18   1   47.30    4.40
   0 -18  -1   39.50    4.90
   0 -18   1   37.80   10.90
   0 -18   1   48.10    5.60
   0  18   1   43.40    5.70
   0  18  -1   48.80    5.50
   0 -18   1   32.70    6.70
   0 -18   1   47.10    9.90
   0  18  -1   43.90    5.70
   0 -18   2   23.80    5.00
   0 -18  -2   39.60    6.40
   0 -18  -2   27.10    4.40
   0  18   2   27.90    5.10
   0 -18  -2   18.20    7.00
   0  18  -2   33.60    4.80
   0  18  -2   15.90    5.10
   0 -18   2   19.40    7.90
   0 -18   3  186.88   13.60
   0 -18  -3  181.98   11.80
   0 -18   3  202.28   26.00
   0  18   3  152.58   13.40
   0 -18  -3  200.48   19.20
   0 -18   3  135.69   14.30
   0  18  -3  183.88   13.30
   0  18  -3  182.38   13.20
   0 -18   4  144.89   11.20
   0  18  -4  150.68   11.60
   0 -18  -4  144.19    9.40
   0  18  -4  142.09   10.30
   0 -18   5   12.20    9.00
   0  18  -5   19.20    8.00
   0  18  -5    0.60    8.20
   0 -18   5   20.30    7.20
   0 -18   6   49.99   11.80
   0 -18   6   36.60   10.30
  -1 -18   0   94.89    8.40
   1 -18   0  115.59   13.80
   1  18   0  104.39    8.90
   1 -18   0  106.09   16.00
  -1  18   0  107.39    9.00
  -1  18   0   88.99   12.10
   1 -18   0   93.69    8.80
  -1  18   0  101.19    8.50
  -1 -18   0  107.09   13.00
   1  18   0   96.09    8.60
  -1 -18  -1  103.09   10.40
  -1  18   1   87.09    9.60
   1 -18   1   90.39    7.80
   1 -18   1  101.09   11.60
   1 -18   1   84.29   12.30
  -1 -18  -1   79.99    7.60
   1  18  -1   78.79    7.60
   1  18  -1  103.29    8.20
  -1  18   1   86.59    7.90
  -1  18   1   94.29    7.60
   1  18  -1   67.19   14.10
  -1 -18   1   89.89    8.00
   1  18   1   83.89    9.00
   1  18   1   91.29    7.00
  -1  18  -1   94.79    8.10
   1  18   1   83.29    6.50
  -1 -18   1   72.79   11.50
  -1  18  -1   87.09    7.80
   1 -18  -1   77.59    7.50
   1 -18  -1   85.59   10.50
   1  18  -2   55.89    6.50
  -1 -18  -2   43.50    8.00
   1 -18   2   62.39    6.00
  -1 -18  -2   52.39    5.20
  -1  18   2   58.99    6.40
  -1  18   2   46.30    4.10
   1 -18   2   61.49    9.80
   1  18  -2   60.39    6.70
  -1  18   2   50.89    5.70
   1 -18  -2   66.39    8.10
   1  18   2   56.39    5.90
  -1  18  -2   54.49    6.60
  -1 -18   2   48.60    5.90
   1 -18  -2   54.69    5.20
  -1  18  -2   45.40    8.40
   1 -18  -2   52.99    9.30
   1  18  -3  105.49    8.80
   1  18  -3  103.49    9.60
  -1 -18  -3  117.89   14.50
   1 -18   3   86.29   10.10
  -1 -18  -3  127.69    8.10
  -1  18   3  107.79    8.60
   1 -18   3  128.99    9.20
   1  18   3   95.49   13.00
  -1  18  -3  112.29    9.00
   1 -18  -3  118.59    8.90
  -1  18  -3  105.49    8.70
   1 -18  -3   97.69   10.80
  -1 -18   3   84.09   16.10
  -1 -18   3  104.39    8.70
   1  18  -4   16.50    6.60
   1 -18   4   19.90    6.30
  -1  18   4    6.40    8.40
   1  18  -4    9.10    6.80
  -1 -18  -4   25.80    6.20
  -1 -18  -4   21.30    8.40
   1 -18   4    7.80    8.00
  -1  18  -4   27.10    7.10
  -1 -18   4   18.60    7.50
  -1 -18   4   14.90    6.40
   1 -18  -4   27.50    4.80
   1 -18  -4   23.30    8.70
  -1  18  -4   14.30    6.60
   1 -18   5   10.30    9.70
   1  18  -5   16.20    8.20
   1 -18   5   24.10    7.50
   1  18  -5   18.70    8.10
  -1  18  -5   15.30    8.00
   1 -18  -5   21.20    9.90
  -1 -18   5   19.70    9.30
   1 -18  -5   30.90    5.10
  -1  18  -5   16.40    8.00
  -1 -18   5   21.70    7.50
   1  18  -6   29.00   15.00
   1 -18   6   40.70   10.30
   1 -18   6   23.70   11.30
  -1 -18   6   30.60    9.90
  -1 -18   6   15.90    9.90
  -2 -18   0  236.48   16.80
  -2  18   0  254.47   17.30
   2  18   0  271.17   17.30
  -2 -18   0  278.97   19.40
   2  18   0  261.27   16.70
   2 -18   0  235.18   17.80
  -2  18   0  262.07   17.80
   2 -18   0  250.07   20.10
  -2  18   0  238.38   20.50
  -2 -18  -1   40.70    5.40
  -2  18   1   44.70    5.80
   2  18  -1   55.19    5.80
   2  18  -1   48.00   14.00
   2 -18   1   45.80   10.80
  -2  18   1   47.40    5.40
  -2  18   1   47.10    8.70
   2 -18   1   53.69    5.90
   2 -18   1   44.90    7.10
   2 -18  -1   54.49    9.40
  -2 -18   1   31.70    7.20
   2  18   1   48.30    4.30
  -2  18  -1   51.09    6.20
  -2 -18   1   67.09   10.60
   2 -18  -1   46.00    5.30
   2 -18  -1   37.70    8.10
   2  18   1   43.50    5.90
   2  18   1   38.50    7.90
  -2 -18   1   40.90    5.20
  -2  18  -1   51.69    6.10
  -2  18   2    6.60   10.20
   2  18  -2   10.20    5.40
  -2  18   2    7.80    6.60
  -2 -18  -2    4.90    6.30
  -2  18   2    2.70    5.20
   2 -18   2   -4.10    6.20
   2  18  -2   16.50    5.50
  -2 -18  -2  -10.60    9.70
   2 -18  -2   -1.30    6.50
   2 -18  -2   -0.80    7.10
   2 -18  -2    4.80    4.50
   2  18   2   10.00    4.30
  -2 -18   2    8.60    4.60
  -2  18  -2    5.10    5.30
  -2 -18   2    4.40   11.70
   2  18  -3   33.50    7.00
   2 -18   3   39.20    6.20
  -2 -18  -3   31.60    4.60
   2 -18   3   35.40    8.70
  -2 -18  -3   31.90   14.80
   2  18  -3   34.50    6.00
  -2  18   3   26.40    5.60
  -2 -18  -3   20.60    8.40
   2 -18  -3   32.40    5.40
  -2  18  -3   34.70    6.70
  -2  18  -3   48.20    7.40
  -2 -18   3   27.70    6.00
  -2 -18   3   44.90    7.30
   2  18  -4   36.00    7.90
   2 -18   4   33.70    7.50
   2 -18   4   53.79    8.70
   2  18  -4   41.20    7.20
  -2 -18  -4   45.50    5.30
  -2 -18   4   35.30    7.20
  -2  18  -4   28.80    7.60
  -2 -18   4   25.80    8.00
  -2  18  -4   33.40    7.20
   2 -18   5    7.10    9.30
   2  18  -5    3.00    8.20
  -2  18   5   -3.10   10.40
   2  18  -5    9.60    8.70
   2 -18   5    3.40    7.90
  -2 -18   5   16.60    8.00
  -2  18  -5   10.70    8.20
  -2  18  -5    7.50    7.90
  -2 -18   5   -0.90    8.70
   2 -18  -5   24.10    9.30
   3 -18   0   13.20    4.50
   3 -18   0    9.60    6.30
  -3 -18   0    2.80    7.20
  -3  18   0   -5.10    6.30
  -3 -18   0   19.10    8.80
   3  18   0    5.30    5.00
   3  18   0   -0.30   10.10
  -3 -18   0    2.70    4.10
  -3 -18  -1   53.09    5.70
  -3  18   1   48.90   11.00
   3  18  -1   35.80    6.30
   3 -18   1   49.00    5.90
   3  18  -1   40.00    5.70
  -3 -18  -1   25.80    9.20
   3 -18   1   42.90    7.40
   3  18  -1   47.20   15.80
  -3  18   1   43.50    5.80
   3  18   1   41.80    4.20
  -3  18  -1   45.60    6.70
  -3  18  -1   50.79    7.50
  -3 -18   1   58.49   12.10
  -3 -18   1   30.20    7.40
  -3 -18   1   33.80    5.30
   3 -18  -1   33.20    7.40
   3  18   1   45.80    6.30
   3 -18  -1   56.49   11.50
   3 -18  -1   44.70    5.50
   3  18  -2   16.90    8.80
  -3  18   2   26.40    4.80
   3 -18   2   29.60    6.30
  -3 -18  -2   35.90    4.70
   3  18  -2   38.30    6.60
   3 -18   2   18.60    7.00
  -3  18  -2   33.60    6.10
   3 -18  -2   40.40    5.50
   3  18   2   27.70    5.90
   3 -18  -2   31.70   13.60
  -3 -18   2   47.50    8.60
  -3  18  -2   36.10    6.70
  -3 -18   2   36.40    5.60
  -3 -18  -3    8.90    3.70
  -3  18   3    1.80    8.50
   3  18  -3   12.10    6.30
   3  18  -3    3.10    6.90
  -3 -18  -3    3.60    7.30
   3 -18   3   14.70    7.70
   3 -18   3   22.60    6.20
  -3  18  -3   13.70    7.00
  -3 -18   3    3.70    5.90
  -3  18  -3    9.40    6.20
   3 -18  -3   15.30    5.40
   3 -18  -3    1.00    7.00
  -3 -18   3    1.10    7.50
   3 -18   4   35.10    7.90
   3 -18   4   22.70    8.60
  -3 -18  -4   26.80    8.20
   3  18  -4   11.30    7.70
   3  18  -4   16.00    8.00
  -3 -18   4   27.20    8.20
  -3  18  -4   25.20    8.10
  -3 -18   4   19.40    7.30
   3 -18  -4   22.10    8.50
   3  18  -5    8.30    9.80
   3 -18   5    2.80   10.10
   3  18  -5    4.10    9.30
   3 -18   5    9.00    8.70
  -3  18   5   18.40   11.90
  -3 -18   5    6.10    8.90
  -3  18  -5    3.50    9.60
  -3 -18   5   11.00    8.50
   3 -18  -5   -5.50    9.80
   3 -18  -5    3.50    6.30
  -3  18  -5   14.60    9.20
   4  18   0   35.50    7.40
  -4 -18   0   24.20    4.90
  -4 -18   0   21.50    8.00
   4  18   0   14.20    5.00
  -4  18   0   19.40    6.30
  -4  18   0   18.20    5.90
   4 -18   0   28.70    6.10
   4 -18   0   33.20    9.10
  -4  18   1   23.80    6.60
   4 -18   1   39.40    8.20
  -4 -18  -1   23.30    5.30
   4  18  -1   26.00    7.00
   4 -18   1   30.40    6.50
  -4 -18  -1   17.20    7.00
   4 -18  -1   27.60    8.20
  -4 -18   1   23.60    5.40
   4  18   1   20.60    6.10
   4 -18  -1   37.10    6.00
  -4  18  -1   26.80    6.20
  -4 -18   1   18.40    7.20
  -4  18   2   34.70    8.20
   4  18  -2   52.59    7.80
  -4 -18  -2   44.70    5.70
   4 -18   2   43.20    8.60
  -4  18   2   59.89    6.50
   4 -18   2   67.39    7.50
  -4 -18  -2   31.30    8.30
   4  18  -2   52.79    7.40
  -4  18  -2   46.50    7.90
  -4  18  -2   42.30    7.20
   4 -18  -2   67.39    7.70
  -4 -18   2   50.29    6.70
   4 -18  -2   50.89    8.60
  -4 -18   2   53.69    9.10
   4 -18   3   16.00    8.50
  -4 -18  -3   -1.60    9.10
   4  18  -3    3.00    7.70
   4 -18   3   14.20    7.10
   4  18  -3   11.60    7.80
  -4 -18  -3    7.20    4.20
   4 -18  -3   -2.80    8.10
  -4  18  -3   10.60    7.50
  -4  18  -3   -0.10    7.10
  -4 -18   3    4.60    7.30
   4 -18  -3    7.40    5.70
   4  18  -4    8.60    8.70
   4 -18   4    5.80    8.30
   4  18  -4   -3.50    8.80
  -4  18   4   -2.00   10.80
  -4 -18  -4    1.30    5.30
   4 -18   4   -1.90    9.60
  -4 -18   4    4.50    8.40
  -4  18  -4   -0.20    8.00
   4 -18  -4   13.40    9.90
  -4 -18   4    8.40    7.60
   4 -18  -4   15.80    6.70
  -4  18  -4    2.50    8.50
   5  18   0    4.60    6.90
  -5 -18   0    2.40    5.40
  -5  18   0    1.70    6.60
   5 -18   0    8.70    8.20
   5  18   0    3.20    5.60
   5 -18   0   18.70    6.70
  -5 -18   0   12.90    7.90
  -5  18   0    4.90    8.30
  -5  18   1   12.40    6.90
   5  18  -1    0.20    6.50
  -5 -18  -1   -4.10    7.70
  -5 -18  -1    7.60    5.50
   5 -18   1    7.40    8.10
   5 -18   1   14.40    6.90
  -5  18   1  -12.20    7.00
   5  18  -1   -1.40    8.50
  -5  18   1    2.30    9.20
  -5 -18   1    1.80    7.90
  -5  18  -1    5.10    8.10
   5 -18  -1    8.10    8.70
  -5 -18   1    0.80    5.70
  -5  18  -1   -0.40    7.50
   5 -18  -1   -0.90    6.40
  -5  18  -1   -0.10    6.60
  -5  18   2   25.10    8.80
   5  18  -2   30.40    8.20
   5  18  -2   22.50    8.30
  -5  18   2   18.50    7.80
   5 -18   2   42.60    9.90
   5 -18   2   33.90    8.30
  -5 -18  -2   36.50    5.80
  -5 -18  -2   40.50    9.20
   5 -18  -2   42.60    7.60
  -5 -18   2   29.60    8.50
   5 -18  -2   32.00    9.20
  -5  18  -2   26.10    7.80
  -5 -18   2   24.80    7.10
  -5 -18  -3   30.40    5.80
  -5 -18  -3   49.40   10.40
   5  18  -3   28.20    8.50
   5 -18   3   33.40    9.10
   5  18  -3   53.99   12.20
   5 -18  -3   45.00   12.80
  -5  18  -3   23.80    8.80
  -5 -18   3   40.50    8.50
  -5 -18   3   27.70    8.70
   5  18  -4    9.20   10.20
   5 -18   4   20.50    9.70
   5  18  -4   11.20   11.00
   5 -18  -4   18.70    7.90
  -5 -18   4    9.50   13.80
  -6  18   0   34.60    9.20
   6 -18   0   33.50    9.90
  -6 -18   0   48.30    8.30
  -6  18   0   20.70    8.50
   6 -18   0   33.40    9.20
  -6 -18   0   33.60    9.90
  -6  18   1    4.80    8.50
  -6  18   1   -6.70   11.50
  -6 -18  -1   -3.20    8.90
  -6 -18  -1   -1.20    6.60
   6 -18   1   11.80    8.30
   6 -18   1   15.10   10.70
   6  18  -1    1.90    8.00
   6 -18  -1   -2.00   11.00
   6 -18  -1    1.30    8.90
  -6  18  -1    8.10    8.80
  -6 -18   1   12.40    7.00
  -6 -18   1   -2.00    9.30
  -6  18  -1  -11.50   10.10
  -6  18   2   18.10   12.00
  -6  18   2   -0.90    9.30
  -6 -18  -2    0.40    6.10
   6  18  -2    6.90    9.00
  -6 -18  -2    0.60    9.80
   6  18  -2   -3.10   11.40
   6 -18   2   18.70   11.50
   6 -18   2    4.30    9.50
  -6  18   2    8.70    8.40
  -6 -18   2    6.40    8.20
   6 -18  -2    7.20   11.70
  -6 -18   2    8.40    9.90
  -6  18  -2    8.60   10.00
  -6  18  -2  -10.00    9.00
   6 -18  -2   12.30    8.40
   0  19   0    8.90    4.30
   0 -19   0    0.80    4.10
   0  19   0    0.50    8.70
   0 -19   0   -0.30    8.50
   0  19   0   -0.10    5.50
   0 -19   0    4.20    6.20
   0  19   1   -0.80    5.30
   0  19   1    7.90    3.80
   0 -19   1    6.90    9.90
   0 -19  -1   15.70    7.30
   0 -19   1    0.40    4.40
   0  19   1    8.40    7.10
   0  19  -1    4.90    5.30
   0  19  -1   10.00    5.20
   0 -19  -1    0.50    4.30
   0 -19   1   17.80   11.00
   0 -19  -1   -2.70    6.00
   0 -19   1   22.10    6.60
   0 -19   2   84.29    7.10
   0 -19   2   71.69   13.80
   0 -19  -2   69.89    9.80
   0  19  -2   67.49    7.40
   0  19  -2   59.19    6.60
   0 -19  -2   74.79    6.60
   0  19   2   59.79    7.20
   0 -19   3   42.40    8.60
   0  19  -3   65.29    7.20
   0 -19  -3   53.59    9.20
   0  19  -3   64.19    7.60
   0 -19   3   60.89    7.10
   0  19  -4   32.70    7.60
   0 -19   4   20.90    9.10
   0 -19  -4   24.70    9.70
   0 -19   4   15.40    6.80
   0  19  -4   19.20    7.60
   0 -19  -4   25.50    5.10
   0 -19   5    7.10    8.30
   0  19  -5    0.70    8.70
   0  19  -5    8.00    9.40
   0 -19  -5    4.40    3.70
   0 -19   5    9.80   10.20
  -1  19   0  100.59   14.10
  -1 -19   0  121.79   10.50
   1  19   0  135.99   10.20
   1  19   0  129.29    9.80
   1 -19   0  129.79   13.60
  -1  19   0  134.49   10.10
   1 -19   0  119.39   10.60
  -1 -19   0  119.79   13.40
  -1 -19  -1   37.60    9.20
  -1 -19  -1   38.00    5.50
   1 -19   1   53.89   12.00
  -1  19   1   39.90    9.90
  -1  19   1   50.79    5.60
   1 -19   1   41.50    5.60
   1  19  -1   34.70    5.80
  -1  19   1   45.10    5.80
   1 -19   1   34.70    7.50
   1  19  -1   49.99    7.40
   1 -19  -1   34.50    7.30
  -1 -19   1   47.80    5.30
  -1  19  -1   36.30    6.10
  -1 -19   1   51.99   13.10
   1  19   1   27.50   11.90
   1 -19  -1   41.50    9.40
   1  19   1   41.80    4.60
   1  19   1   42.40    5.60
   1 -19   2   84.19    7.20
  -1  19   2   72.79    6.60
   1 -19   2   76.89   14.30
  -1 -19  -2   85.19    6.90
   1  19  -2   68.09    7.90
   1  19  -2   60.89    9.20
   1 -19  -2   59.39    9.20
   1  19   2   69.69    7.30
  -1 -19   2   51.49   16.40
  -1 -19   2   84.09    7.20
  -1  19  -2   74.69    7.70
   1 -19  -2   76.49    7.20
  -1 -19  -3   54.89    5.30
   1 -19   3   42.20    7.00
   1  19  -3   48.00    7.30
   1 -19   3   35.20    9.50
  -1 -19  -3   28.10    9.30
   1  19  -3   37.40    6.80
  -1  19  -3   48.80    7.80
   1 -19  -3   54.79    5.50
  -1 -19   3   32.10    8.30
  -1 -19   3   48.30    6.60
  -1  19  -3   61.39    7.50
   1  19  -4   18.10    7.40
  -1 -19  -4   32.50    4.50
   1 -19   4   36.50    7.70
   1  19  -4   24.00    7.70
   1 -19   4   28.60    9.40
  -1 -19  -4   17.30    9.80
  -1  19  -4   23.70    7.30
  -1 -19   4   26.80    8.60
  -1  19  -4   34.60    8.40
  -1 -19   4   28.60    7.40
   1 -19   5   39.10    9.30
   1 -19   5   12.20   10.50
   1  19  -5   24.40    9.20
  -1  19   5   24.70   11.80
   1  19  -5   29.50    9.10
  -1 -19   5   26.50    8.50
  -1  19  -5   38.70    9.80
  -1 -19   5   43.70   11.40
  -1  19  -5   20.30    9.60
   1 -19  -5   36.20    5.90
   2  19   0   11.20   11.00
   2  19   0   19.40    5.80
  -2 -19   0   19.60    4.60
   2 -19   0   17.20    6.90
  -2 -19   0   28.20    9.50
  -2 -19   0   11.40    7.10
   2  19   0   19.50    5.10
  -2  19   0   13.30    5.00
  -2  19   0   19.00   11.80
   2 -19   0    4.20   10.30
  -2  19   0   13.10    5.40
   2  19  -1  130.79    9.10
  -2 -19  -1  104.99    8.10
  -2 -19  -1  101.49   16.70
  -2  19   1  114.49    8.90
   2  19  -1  102.89    9.40
   2 -19   1  115.09    9.50
  -2  19   1  125.99    9.50
   2 -19   1   94.09   16.80
  -2  19   1  119.89   15.20
   2  19   1  123.79    9.50
   2 -19  -1  115.39    8.90
   2 -19  -1  100.59   14.30
   2  19   1   96.79    7.50
  -2 -19   1  125.79    9.50
  -2 -19   1  122.79   15.60
  -2  19  -1  111.49   11.70
  -2  19  -1  106.59    9.00
   2 -19   2    6.80    7.20
  -2  19   2    6.10    6.20
  -2 -19  -2   14.80    7.20
  -2  19   2    8.00    8.00
   2  19  -2   19.60    6.00
   2 -19  -2   11.10    4.50
   2  19   2   15.70    5.20
  -2  19  -2   11.40    5.90
  -2 -19   2   20.90    8.00
  -2 -19   2   11.60    5.30
  -2  19  -2   14.50    6.20
   2 -19  -2   26.20    6.80
   2  19  -3   17.20    6.90
  -2 -19  -3   10.30    3.90
   2  19  -3   20.00    7.20
   2 -19   3   16.90    7.90
   2 -19   3   11.50    6.20
  -2  19   3    9.40    8.90
  -2 -19  -3    6.80    7.60
   2 -19  -3   17.00    7.80
  -2  19  -3   27.30    7.40
  -2 -19   3   25.40    6.60
  -2  19  -3   13.80    6.80
  -2 -19   3    5.60    8.20
   2 -19   4   99.59    9.40
   2  19  -4   91.29    9.90
   2  19  -4  103.29   10.50
  -2 -19  -4   97.99    6.80
   2 -19   4   68.49   12.20
  -2  19  -4  106.29    9.70
  -2  19  -4   77.49    9.10
  -2 -19   4   94.39    9.20
  -2 -19   4   91.69   10.10
   2 -19  -4   78.99   11.40
   2  19  -5    7.40    9.70
  -2  19   5   31.80   11.80
   2 -19   5   18.70   11.00
   2 -19   5    9.10    9.20
   2  19  -5   26.90   10.20
  -2 -19   5   18.10    8.90
   2 -19  -5   35.80   12.40
  -2 -19   5   25.20    9.90
  -2  19  -5   21.90    9.20
  -2  19  -5   35.50    9.20
  -3  19   0    9.50    5.50
  -3  19   0    9.60    7.00
  -3  19   0    7.90    6.00
  -3 -19   0    6.80    7.10
   3 -19   0   -7.20    7.60
   3  19   0   15.10    6.50
  -3 -19   0    8.50    5.00
   3  19   0   15.80    4.90
   3 -19   1   92.69   10.50
  -3 -19  -1  113.99    8.50
   3 -19   1  109.99    8.80
   3  19  -1  105.59   10.30
  -3  19   1  119.59    9.20
  -3 -19   1  110.49    8.50
   3 -19  -1   81.89   10.20
   3 -19  -1  106.39    9.00
  -3  19  -1  111.19    9.80
   3  19   1  109.99    9.30
  -3  19   2  102.19    8.10
   3  19  -2   75.99    7.70
   3 -19   2   94.59    8.50
  -3 -19  -2   97.89    7.60
   3  19  -2   84.29   10.10
   3 -19   2   72.09    9.80
  -3 -19   2   76.59   11.00
  -3  19  -2   94.19    9.00
  -3 -19   2   81.79    8.00
   3 -19  -2  101.09    8.00
  -3  19  -2   99.39    8.30
   3  19  -3    3.60    7.00
   3 -19   3   15.50    8.40
   3  19  -3   15.70    7.80
   3 -19   3   19.10    7.10
  -3 -19  -3   -6.70    8.50
  -3 -19  -3    0.00    4.10
  -3  19   3    7.60    9.70
  -3  19  -3   12.80    7.40
   3 -19  -3   12.10    8.40
   3 -19  -3   13.80    6.10
  -3 -19   3    4.20    6.60
  -3  19  -3    5.40    7.20
  -3 -19   3    0.00    8.40
   3 -19   4   11.50    8.10
   3 -19   4   14.90    9.40
  -3 -19  -4    7.70   12.80
   3  19  -4    3.00    9.20
   3  19  -4   -2.10    8.90
  -3  19   4   -1.10   11.00
  -3 -19  -4   -2.70    3.80
   3 -19  -4    4.00    6.30
  -3  19  -4   -4.10    8.20
  -3  19  -4    2.40    8.70
  -3 -19   4   -5.40    8.10
  -3 -19   4    6.20    8.90
   3 -19  -4   10.20    9.00
  -4  19   0  180.08   14.40
  -4 -19   0  162.48   15.30
  -4 -19   0  193.58   13.30
   4 -19   0  164.38   15.50
   4  19   0  175.08   13.10
   4  19   0  218.98   14.40
   4 -19   0  213.48   13.80
   4  19  -1   16.80    7.10
  -4  19   1   15.00    8.80
  -4  19   1   18.00    6.30
   4 -19   1   26.90    7.90
  -4  19   1   -4.50    9.70
  -4 -19  -1    7.30    8.60
   4  19  -1   12.20    6.40
  -4 -19  -1   10.80    5.10
  -4 -19   1   18.70    7.90
  -4 -19   1   11.00    5.50
   4 -19  -1   17.40    7.80
   4 -19  -1   30.30    7.90
  -4  19  -1    8.20    6.70
   4  19  -2   28.60    7.80
   4  19  -2   26.90    7.30
  -4  19   2   35.60    6.90
   4 -19   2   44.90    7.70
  -4  19   2   30.10    9.90
  -4 -19  -2   30.50    5.60
   4 -19   2   21.60    8.50
  -4 -19  -2   17.20    9.10
   4 -19  -2   35.90    8.00
  -4  19  -2   20.60    8.20
  -4  19  -2   13.90    7.50
  -4 -19   2   20.50    6.40
  -4  19  -2   28.30    7.60
   4 -19  -2   23.80    9.00
  -4 -19   2   29.90    8.70
  -4 -19  -3   19.60    9.50
   4  19  -3    9.80    8.10
  -4 -19  -3   16.80    4.80
  -4  19   3   -0.50   10.70
   4  19  -3   22.40    8.80
   4 -19   3   18.20    7.90
   4 -19   3   13.30    9.60
   4 -19  -3   19.00    9.20
   4 -19  -3   26.90    6.90
  -4 -19   3   12.90    8.10
  -4  19  -3   12.90    8.30
  -4  19  -3   12.70    8.60
  -4 -19   3   23.50    9.10
   4 -19   4    0.70    9.40
   4  19  -4    8.60    9.80
  -4  19   4    2.20   12.80
   4 -19   4    7.40   10.50
   4  19  -4    1.20   10.40
  -4 -19   4   14.80    8.60
  -4  19  -4   14.30   10.20
  -4  19  -4    9.90    9.20
   4 -19  -4   10.50   10.40
  -4 -19   4    9.20   10.00
   5 -19   0    4.80    7.20
  -5 -19   0    1.40    5.90
   5 -19   0   11.50    9.60
  -5  19   0    1.60    8.30
  -5 -19   0    4.70    8.80
  -5  19   0    6.80    9.40
   5 -19   1   20.20    9.80
  -5  19   1   -1.30    7.90
   5  19  -1   16.50    7.40
   5  19  -1   33.20   10.50
  -5 -19  -1   12.30    5.90
  -5  19   1    7.70   10.40
  -5 -19  -1   22.80    8.60
  -5  19   1    8.70    7.40
  -5 -19   1    8.10    7.20
  -5  19  -1   13.00    9.60
   5 -19  -1   24.60    9.90
  -5  19  -1   19.10    8.50
   5 -19  -1   15.40    7.20
   5 -19   2    3.10   10.30
  -5  19   2   -7.30   11.90
   5 -19   2   15.90    8.50
  -5  19   2   20.70    7.60
   5  19  -2    9.60    8.60
  -5 -19  -2   -0.90    9.50
  -5 -19  -2    8.60    5.80
   5  19  -2    8.50   10.30
   5 -19  -2   20.20    7.40
  -5  19  -2    3.50    8.60
   5 -19  -2   14.70   10.20
  -5 -19   2   -9.50    9.10
  -5  19  -2    8.00   15.50
  -5 -19   2    5.30    7.40
   5 -19   3    7.20   11.20
   5  19  -3    4.90   10.40
  -5  19   3   -5.40   12.80
  -5 -19  -3    4.30    5.50
   5  19  -3   13.50   10.10
  -5 -19  -3   21.90   10.20
   5 -19   3    9.60    9.50
  -5  19  -3   17.50   10.70
  -5 -19   3   29.20   10.70
  -5  19  -3   12.00    9.70
   5 -19  -3   15.00   11.60
  -5 -19   3   19.70   11.10
  -6  19   0    2.40   12.50
  -6  19   0   16.60    9.70
  -6  19   0   16.30    9.30
   6 -19   0   43.30   15.80
  -6 -19   0   26.50    8.00
  -6 -19   0   40.50   10.70
  -6 -19  -1   10.00   11.00
  -6  19   1   16.70    9.30
   6 -19   1   20.90    9.90
  -6  19   1   -8.90    9.90
  -6  19   1   -2.20   12.90
  -6 -19  -1    8.80    6.90
  -6  19  -1   16.00   12.40
   6 -19  -1   19.30   15.50
  -6  19  -1    7.70   10.30
  -6 -19   1    3.50   10.20
   0 -20   0  310.77   24.70
   0 -20   0  304.17   20.60
   0  20   0  334.27   20.80
   0  20   0  297.67   20.90
   0 -20  -1    3.80    5.00
   0  20  -1   -1.60    5.70
   0  20   1    0.90    6.00
   0 -20  -1    4.00    9.40
   0 -20   1    8.10    7.50
   0  20   1    5.20    4.20
   0  20  -1   -2.10    6.10
   0 -20   1    4.10    4.90
   0 -20  -2   16.50    4.60
   0 -20   2   11.00    8.00
   0  20  -2    2.30    6.70
   0 -20  -2   23.10    9.30
   0 -20   2   20.20    5.80
   0  20  -2   22.40    6.60
   0  20   2   11.40    6.10
   0 -20  -3   30.70   10.10
   0  20  -3   12.60    7.40
   0 -20   3    7.30    6.60
   0 -20   3   15.70    8.40
   0 -20  -3   18.70    5.10
   0  20  -3   12.40    7.50
   0 -20  -4    0.90   15.90
   0 -20   4   13.60   10.00
   0 -20   4    3.80    7.70
   0  20  -4   -0.50    8.30
   0  20  -4    5.00    8.30
   0 -20   5   16.60   11.40
   0  20  -5   -0.20   10.20
   0 -20   5    2.80    9.30
   1 -20   0   33.40   12.20
  -1 -20   0   29.10    5.20
  -1  20   0   36.10    6.10
  -1  20   0   43.90    7.90
   1 -20   0   34.20    7.80
   1  20   0   33.20    5.90
  -1  20   0   30.00   14.90
   1 -20   0   30.40    5.50
  -1  20   1   49.50    6.80
  -1 -20  -1   51.99    6.00
   1  20  -1   34.00    7.00
  -1  20   1   43.80    5.80
   1 -20   1   44.30    6.10
   1  20  -1   31.20    6.50
  -1 -20   1   30.70    5.90
   1  20   1   41.40    7.30
   1 -20  -1   54.29    5.60
   1  20   1   41.60    4.90
   1  20  -2    5.40    5.90
  -1  20   2    7.10    6.50
   1 -20   2   12.60    8.10
  -1 -20  -2   12.20    9.00
   1 -20   2    8.90    5.80
  -1 -20  -2   12.30    4.50
   1  20  -2    5.30    6.70
  -1 -20   2    5.70    8.50
  -1  20  -2   11.80    6.70
  -1  20  -2    4.80    6.70
   1 -20  -2   -1.00    9.00
  -1 -20   2   -1.10    5.50
   1  20  -3  129.99   11.20
   1  20  -3  120.79   10.50
   1 -20   3  115.79    9.90
  -1 -20  -3  121.39    8.60
   1 -20  -3  126.59    9.30
  -1  20  -3  102.49   10.20
  -1  20  -3   91.59   10.00
  -1 -20   3  121.79    9.60
   1 -20   4   42.60    8.90
   1  20  -4   18.80    8.40
   1 -20   4   27.90   10.40
   1  20  -4   15.50    8.70
  -1 -20  -4   37.70    5.20
  -1 -20  -4   34.80   13.10
  -1  20  -4   14.40    8.80
  -1 -20   4   27.80   10.10
   1 -20  -4   20.30   11.60
   1 -20  -4   27.90    6.30
  -1 -20   4   29.10    8.00
  -1  20  -4   39.00    8.80
   2  20   0  109.19    9.00
   2  20   0  108.09    8.80
  -2  20   0  125.19    9.50
   2 -20   0  130.79    9.90
  -2 -20   0   88.79    8.40
  -2  20   0  127.99   11.30
   2 -20   1   63.29    9.20
  -2  20   1   90.39    9.00
   2 -20   1   58.79    7.30
   2  20  -1   72.59    7.70
  -2  20   1   73.49    7.30
  -2 -20  -1   75.39    7.10
  -2 -20   1   56.79   10.40
  -2 -20   1   71.89    7.10
  -2  20  -1   55.59    7.00
  -2  20  -1   86.19    8.30
   2  20   1   70.59    7.20
  -2 -20  -2   48.40    5.70
   2 -20   2   33.30    7.10
  -2  20   2   46.70    8.60
   2  20  -2   33.30    7.50
   2  20  -2   45.80    7.90
   2 -20   2   25.40    8.30
  -2  20  -2   27.90    7.00
   2 -20  -2   50.39    5.90
  -2 -20   2   45.30    6.60
  -2  20  -2   32.70    8.10
  -2 -20   2   56.09    8.90
   2 -20   3   83.29    8.50
   2 -20   3   52.49   10.20
   2  20  -3   75.59    9.30
   2  20  -3   69.69    9.50
  -2 -20  -3   82.99    6.60
  -2  20  -3   64.69    9.20
  -2  20  -3   69.19    9.80
  -2 -20   3   80.19    8.20
  -2 -20   3   49.50    9.80
   2 -20  -3   69.69   11.50
   2 -20  -3   68.19    7.50
   2  20  -4   38.80   10.40
   2 -20   4   45.70   11.20
  -2 -20  -4   56.49    5.50
   2 -20   4   57.69    9.50
   2  20  -4   35.60   10.80
  -2 -20   4   70.19    9.30
  -2  20  -4   34.80    9.90
  -2  20  -4   44.30    9.40
   2 -20  -4   31.80   12.10
  -2 -20   4   42.90   10.20
   2 -20  -4   56.79    7.00
  -3  20   0  105.09    9.70
   3  20   0  115.19   10.60
   3 -20   0  126.19    9.60
   3  20   0  116.59    9.00
  -3 -20   0  118.09    9.90
  -3  20   0  118.39   10.20
  -3  20   1   43.10    6.40
   3 -20   1   36.30    9.40
   3  20  -1   45.60    8.00
   3  20  -1   36.60    7.00
   3 -20   1   47.70    7.10
  -3 -20  -1   35.30    5.40
  -3  20   1   38.00    7.90
  -3 -20  -1   25.30    8.60
   3 -20  -1   34.40    8.00
  -3 -20   1   39.20   10.40
  -3  20  -1   38.20    8.00
   3 -20  -1   39.60    7.70
  -3 -20   1   42.10    6.40
  -3  20  -1   41.60    8.10
   3  20  -2   13.20    7.80
  -3 -20  -2   25.50    5.40
  -3 -20  -2   19.70    9.10
   3 -20   2   17.70    6.70
  -3  20   2   -0.60    9.90
   3 -20   2   15.70    8.50
  -3  20   2   10.70    7.30
  -3  20  -2    7.40    7.40
   3 -20  -2   16.80    8.30
  -3 -20   2   16.50    6.20
   3 -20  -2    8.70    6.50
  -3  20  -2   16.20    7.40
  -3 -20   2    8.60    8.50
   3 -20   3    5.40    9.60
  -3 -20  -3    5.40    4.70
  -3  20   3   -2.10   11.10
  -3 -20  -3   11.50    9.90
   3 -20   3   14.30    8.00
   3  20  -3   10.70    8.60
   3  20  -3   15.00    8.70
  -3  20  -3    4.90    8.50
  -3  20  -3    0.60    8.40
   3 -20  -3   18.20    6.80
  -3 -20   3   -0.90    9.60
   3 -20  -3   12.60    9.90
  -3 -20   3   18.80    7.60
   3 -20   4   15.40    9.10
   3  20  -4   11.50   10.20
   3  20  -4   10.90   10.20
  -3  20   4   -3.00   13.00
  -3 -20  -4   25.70    6.30
  -3 -20   4   12.80    9.00
   3 -20  -4   19.70    7.00
   3 -20  -4   45.50   13.30
  -3 -20   4   30.40   10.50
  -3  20  -4   33.50   10.30
   4 -20   0   11.60    9.60
  -4  20   0    7.80    7.00
  -4 -20   0    0.80    9.80
   4  20   0    7.40   11.90
   4 -20   0   18.10    6.80
  -4 -20   0   13.60    6.30
  -4  20   0   16.00    9.00
   4  20  -1   63.09   13.70
  -4  20   1   40.60    7.90
  -4 -20  -1   37.70    9.50
   4 -20   1   47.70   10.60
   4 -20   1   66.19    8.20
   4  20  -1   53.69    7.90
  -4 -20   1   43.40    9.60
  -4 -20   1   47.80    8.40
   4 -20  -1   59.79    7.80
   4 -20  -1   42.30   12.10
  -4  20  -1   49.20    8.20
  -4  20  -1   42.00    9.30
   4  20  -2   26.60    9.00
  -4 -20  -2   32.90    6.20
  -4 -20  -2   12.40    9.30
   4  20  -2   14.30    8.60
   4 -20   2   27.30    9.80
   4 -20   2   26.20    7.90
  -4  20   2   14.90   11.20
  -4 -20   2   29.00    7.50
  -4  20  -2   15.60    9.20
   4 -20  -2   22.20   10.30
  -4  20  -2   11.50    8.60
  -4 -20   2   18.90    9.80
   4 -20  -2   40.60    8.80
   4  20  -3    2.00   10.10
  -4  20   3   10.30   12.60
   4 -20   3  -12.60   10.90
  -4 -20  -3    0.90    5.20
   4  20  -3    5.90    8.90
   4 -20   3   19.10    8.80
  -4 -20  -3    4.00   10.60
  -4  20  -3    4.10    9.70
   4 -20  -3   12.20   10.50
  -4  20  -3    8.50    9.50
  -4 -20   3   -4.60    8.20
   4 -20  -3    6.00    7.20
  -4 -20   3    5.90    9.90
  -5  20   0    7.80    9.10
  -5 -20   0   34.80   10.00
   5 -20   0   14.40    8.10
   5 -20   0    4.70   10.70
  -5  20   0    1.50   11.10
  -5 -20   0   12.30    6.60
   5 -20   1   45.60    9.60
  -5 -20  -1   24.90   10.90
  -5  20   1    3.10   11.80
  -5  20   1   19.20    8.80
   5 -20   1   22.70   10.80
  -5  20   1    3.50   10.00
   5  20  -1   33.10    8.60
  -5 -20  -1   24.00    6.60
  -5  20  -1    2.00   11.10
  -5 -20   1   44.80   10.10
   5 -20  -1   38.80    8.90
  -5  20  -1   12.60    9.60
  -5 -20   1   44.20    9.40
   5 -20  -1   29.60   10.70
  -5 -20  -2   53.09    8.30
   5  20  -2   64.89   14.00
   5 -20   2   77.49   10.70
  -5 -20  -2   68.89   11.80
   5  20  -2   51.79   10.40
  -5  20  -2   58.39   12.00
   5 -20  -2   69.29   13.10
  -5 -20   2   78.19   11.30
  -5  20  -2   54.79   11.50
   0 -21   0    4.30    5.30
   0  21   0    4.50    6.50
   0  21   0    2.50    5.60
   0 -21   0   12.40    8.00
   0  21  -1    8.70    8.00
   0 -21  -1   23.40    6.40
   0  21  -1   11.60    6.10
   0  21   1   18.90    5.60
   0 -21   1    7.40    8.60
   0 -21  -1   -6.40    9.80
   0  21   1   22.80    6.50
   0 -21  -2  124.29    9.50
   0  21  -2  117.89   10.40
   0  21  -2  106.79    9.80
   0 -21   2  125.69    9.90
   0  21  -3    8.20    8.10
   0 -21  -3   -5.90   11.30
   0 -21   3   18.70   10.10
   0  21  -3   11.20    7.80
   0 -21   4   -1.70    8.30
   0 -21  -4   15.10    5.30
   0  21  -4   11.20   10.10
   0  21  -4   -1.70    9.70
   0 -21   4   19.20   11.10
   0 -21  -4   14.30   13.10
  -1  21   0   21.60    6.90
   1 -21   0   22.10    8.00
  -1 -21   0   33.60    5.80
   1  21   0   31.30    7.50
   1 -21   0   26.80    6.20
  -1 -21   0   13.40    8.90
  -1  21   0   30.00    8.10
   1 -21   1    3.70    8.30
  -1 -21  -1    5.40    5.30
  -1  21   1   17.00    7.50
   1 -21   1   14.50    6.00
   1  21  -1    9.10    6.30
  -1 -21  -1   -2.70   10.30
  -1  21  -1   15.30    6.60
  -1  21  -1    6.60    6.90
  -1 -21   1    7.50    9.00
   1 -21  -1    5.40    6.00
  -1 -21   1    4.60    5.50
   1 -21  -1    3.20   10.00
   1  21   1    0.70    7.10
   1  21  -2   30.20    8.50
  -1 -21  -2   44.40    6.20
  -1 -21  -2   17.90   11.30
   1  21  -2   24.10    7.20
   1 -21   2   29.70    7.40
  -1 -21   2   45.40    7.10
  -1  21  -2   33.40    8.60
   1 -21  -2   38.70   10.10
  -1 -21   2   25.40    9.80
   1 -21  -2   33.30    6.90
  -1  21  -2   32.80    7.30
   1 -21   3   20.70    9.60
   1  21  -3   32.10    8.60
   1  21  -3   36.20    8.70
  -1 -21  -3   21.30   12.00
   1 -21   3   40.70    8.40
  -1  21  -3   24.00    8.50
  -1  21  -3   19.90    8.30
   1 -21  -3   13.70   11.10
  -1 -21   3   25.10   10.40
  -1 -21  -4   39.50    6.40
   1 -21   4   50.19   10.10
  -1 -21  -4   10.70   21.40
   1  21  -4   27.40   10.10
   1 -21   4   49.80   12.30
   1  21  -4   44.90    9.90
   1 -21  -4   51.39    7.10
  -1  21  -4   37.80   10.00
  -1 -21   4   29.90   11.60
   1 -21  -4   39.00   13.90
  -1  21  -4   46.40   10.00
  -1 -21   4   55.79    9.90
  -2 -21   0  151.28   11.20
   2  21   0  150.68   12.30
   2  21   0  152.18   11.00
   2 -21   0  130.19   10.50
  -2  21   0  124.49   11.00
  -2 -21  -1   31.60    6.50
   2 -21   1   26.10    8.90
   2  21  -1   27.40    7.30
   2 -21   1   36.30    7.10
  -2  21   1   23.20    6.60
  -2  21   1   45.60    8.20
   2 -21  -1   34.40    6.60
  -2 -21   1   39.70    9.70
   2 -21  -1   27.50    9.10
  -2  21  -1   31.90    8.40
  -2  21  -1   22.40    7.20
  -2 -21   1   29.90    6.50
  -2 -21  -2    8.80    5.00
  -2  21   2    7.60   10.00
   2  21  -2    5.00    7.70
  -2 -21  -2    4.20    9.90
   2 -21   2    5.60    9.20
   2  21  -2    7.20    8.00
   2 -21   2    7.60    7.10
  -2 -21   2    5.50   10.00
   2 -21  -2   11.60    6.50
  -2  21  -2   19.80    8.10
  -2 -21   2   11.10    6.70
  -2  21  -2    9.70    8.10
   2 -21  -2    5.00    8.40
   2 -21   3   14.70    8.20
  -2  21   3    7.70   10.80
  -2 -21  -3   10.60    9.80
   2  21  -3    6.50    9.10
  -2 -21  -3   25.70    5.90
   2 -21   3   19.30    9.90
   2  21  -3   18.60    9.20
  -2  21  -3   13.20    9.10
  -2 -21   3   30.40    8.50
   2 -21  -3   23.10    6.30
  -2  21  -3   16.80    8.70
   2 -21  -3   11.30    9.90
  -2 -21  -4   60.39    6.20
   2  21  -4   35.00   10.80
   2 -21  -4   30.80   14.20
  -2  21  -4   52.59   14.70
   2 -21  -4   47.40    7.90
  -2  21  -4   56.09   11.40
  -2 -21   4   63.59   10.40
   3 -21   0   23.20    9.90
   3 -21   0   32.60    7.30
   3  21   0   37.20    8.70
  -3 -21   0   15.20   10.20
  -3  21   0   48.60    8.00
  -3  21   0   42.70    9.00
  -3 -21   0   38.50    6.50
  -3 -21  -1   51.59    7.20
   3  21  -1   51.79    9.50
   3  21  -1   56.49    7.90
   3 -21   1   59.79    8.10
  -3 -21  -1   42.00   11.50
  -3  21   1   39.80   12.30
   3 -21  -1   59.19   12.10
  -3 -21   1   56.29    8.50
  -3  21  -1   54.19    9.60
  -3 -21   1   36.90   10.40
   3 -21  -1   55.29    7.60
  -3  21  -1   33.20    9.20
   3  21  -2   17.30    9.00
   3 -21   2   13.20    9.70
  -3 -21  -2   22.50    5.60
   3  21  -2   11.70    8.20
  -3  21   2   10.10   11.60
   3 -21   2   15.10    8.00
  -3 -21  -2    1.20   10.60
  -3  21  -2    0.00    8.70
   3 -21  -2    6.80    9.20
  -3  21  -2   13.80    8.80
  -3 -21   2    5.70    7.10
  -3 -21   2    5.30   10.20
   3 -21  -2   23.30    7.50
   3  21  -3    9.40    9.80
   3 -21   3   25.80    8.90
   3 -21   3   13.10   10.90
  -3 -21  -3    0.50    5.40
   3  21  -3   -1.10   10.00
  -3 -21  -3   22.50   10.60
  -3  21   3    7.50   12.20
  -3  21  -3    2.70    9.70
  -3 -21   3    1.30   10.90
  -3 -21   3   11.50    8.20
   3 -21  -3   -2.50    7.60
  -3  21  -3   11.40   10.10
   3 -21  -3    2.10   11.10
  -4  21   0   40.60    9.30
   4 -21   0   42.60   12.00
  -4 -21   0   38.70   11.30
  -4  21   0   29.10    9.40
   4 -21   1   87.29    9.70
   4  21  -1   64.99    9.50
  -4  21   1   72.59    9.80
   4  21  -1   77.89   13.80
  -4  21   1   70.99   11.00
  -4 -21  -1   59.89    8.40
   4 -21  -1   71.39    9.00
  -4 -21   1   53.99   11.00
  -4 -21   1   79.29    9.60
   4  21  -2   44.10   10.20
   4  21  -2   64.89   11.50
   4 -21   2   65.59   14.70
  -4  21   2   22.20   13.50
  -4 -21  -2   48.70    7.30
  -4 -21  -2   23.00   11.20
   4 -21  -2   53.59   14.60
  -4  21  -2   37.90   10.50
  -4  21  -2   39.00   10.40
  -4 -21   2   70.59    9.50
  -4 -21   2   54.59   11.10
   0 -22   0   27.30    6.90
   0  22   0   27.20    7.80
   0 -22   0   32.30   11.50
   0  22  -1    0.20    8.30
   0 -22  -1    5.50   11.70
   0  22  -1    5.70    7.40
   0 -22   1    9.30    7.30
   0 -22   1   -3.00    9.70
   0 -22  -1   19.50    6.30
   0 -22  -2   22.00    6.40
   0  22  -2    9.90    8.30
   0 -22   2   22.00    7.30
   0 -22   2   12.80    9.90
   0 -22  -2   20.30   11.80
   0  22  -2   25.70    8.90
   0 -22   3    4.90   11.20
   0 -22   3   -3.10    8.40
   0 -22  -3    5.10   13.60
   0  22  -3   -0.70    9.70
   0  22  -3   -4.00    9.20
   0 -22  -3    4.60    6.30
  -1 -22   0    9.10    9.60
   1 -22   0   10.40    6.40
  -1 -22   0    8.70    6.00
   1  22   0   20.40    7.70
   1  22   0   13.10    6.60
  -1  22   0    7.20    6.70
   1 -22   0   10.40    9.30
   1 -22   1   63.89    8.10
  -1 -22  -1   64.19    7.70
   1  22  -1   49.20    8.20
   1 -22   1   36.50   10.90
  -1  22   1   67.89   11.10
   1  22  -1   55.09    9.40
  -1 -22   1   62.89    7.60
  -1  22  -1   66.99    9.50
   1 -22  -1   36.50   12.60
  -1  22  -1   54.89    8.70
   1 -22  -1   48.70    7.10
   1  22  -2    9.90    8.90
  -1 -22  -2    8.20    6.00
   1 -22   2    7.80   10.30
   1 -22   2   19.80    7.50
   1  22  -2    4.10    8.30
  -1 -22  -2    5.20   12.90
  -1 -22   2    9.50   10.00
  -1  22  -2   -0.60    8.60
   1 -22  -2    3.30   13.30
  -1  22  -2   19.20    9.10
  -1 -22   2   12.30    7.40
   1 -22  -2   14.50    6.00
   1  22  -3   -1.10    9.70
  -1 -22  -3    8.90    5.90
   1  22  -3    2.40    9.70
   1 -22   3   14.80    8.60
  -1 -22  -3    0.70   13.00
   1 -22   3   15.60   11.60
  -1  22  -3   -9.30    9.60
  -1  22  -3   -5.30    9.60
  -1 -22   3   18.70   12.20
   1 -22  -3   31.20   13.70
  -1 -22   3    1.90    8.50
   1 -22  -3    5.90    6.80
  -2  22   0   29.70    8.70
  -2 -22   0   35.50    9.90
   2  22   0   53.59   13.30
  -2  22   0   25.80    7.40
   2 -22   0   47.40    7.60
   2 -22   0   22.60    9.00
  -2 -22   0   41.20    7.00
  -2  22   1   34.30   11.90
   2 -22   1    9.50    9.40
   2 -22   1   33.80    9.30
  -2 -22  -1   17.30   10.90
   2  22  -1   10.30    7.80
   2  22  -1   16.50    8.60
  -2 -22  -1   23.00    6.30
  -2  22  -1   15.10    8.80
  -2 -22   1   26.50    7.30
  -2  22  -1   15.00    8.20
   2 -22  -1   32.80    8.70
  -2 -22   1   13.90   11.30
   2 -22  -1   11.70   12.40
  -2 -22  -2    9.70    5.80
   2  22  -2    7.60    9.50
  -2  22   2   -7.40   10.50
   2 -22   2   19.50    8.20
  -2 -22  -2    7.00   11.40
   2  22  -2   -3.30    9.00
   2 -22   2   20.30   10.60
   2 -22  -2   12.00   10.40
  -2 -22   2   15.70   10.80
  -2 -22   2    3.50    7.40
   2 -22  -2   20.00    7.30
  -2  22  -2    7.70    9.30
  -2  22  -2    1.00    9.00
   2  22  -3    1.60   10.30
   2  22  -3   12.50   10.50
  -2 -22  -3    5.70    5.80
  -2  22   3    2.00   12.80
  -2 -22  -3   28.10   11.40
   2 -22  -3    6.70   14.60
  -2  22  -3   18.80   10.40
  -2  22  -3    5.10    9.80
   2 -22  -3   30.30    8.30
  -2 -22   3   29.30   13.60
   3 -22   0   18.10   10.40
  -3  22   0   32.10    9.10
  -3  22   0   37.10    9.40
  -3 -22   0   13.30   10.90
  -3 -22   0   31.20    7.50
   3 -22   0   49.60    8.20
   3  22  -1   45.10    9.40
   3 -22   1   53.89    9.10
   3  22  -1   39.50   10.60
  -3 -22  -1   26.80   12.00
   3 -22   1   19.30   10.90
  -3 -22  -1   39.90    7.80
  -3 -22   1   54.69    8.10
  -3  22  -1   46.90   12.60
  -3 -22   1   35.30   12.00
  -3  22  -1   27.60    9.50
  -3  22   2   -0.70   12.00
  -3 -22  -2    0.20   12.30
  -3 -22  -2   10.70    6.30
   3  22  -2    0.30    9.50
   3  22  -2   20.90   11.40
   3 -22   2   12.50    9.10
  -3  22  -2    6.90   10.20
   3 -22  -2    5.40    8.30
  -3  22  -2    8.40   10.50
   3 -22  -2   13.60   11.80
  -3 -22   2   22.60   12.10
   0 -23   0    3.20   11.30
   0  23   0   -6.00   12.60
   0 -23   0   -1.40    7.10
   0 -23   1   73.59   10.30
   0  23  -1   51.09   10.80
   0 -23  -1   54.99    7.80
   0 -23   2   15.00   12.60
   0  23  -2    6.50   10.30
   0 -23   2   18.50    9.90
   0 -23  -2   28.70    8.10
   0 -23  -2    0.50   15.30
   0  23  -2    6.00    9.60
   1 -23   0   17.30   11.40
   1 -23   0    5.60    8.20
  -1 -23   0   -2.70   10.60
  -1 -23   0   17.80    7.50
  -1  23   0   18.10    8.30
  -1  23   0   17.20   10.30
   1  23  -1   20.10    8.70
   1 -23   1   21.70    8.80
  -1 -23  -1   20.90   11.20
   1 -23   1   13.30   11.30
   1  23  -1   33.20   10.60
  -1  23  -1   22.10    8.50
   1 -23  -1   30.40    7.50
  -1  23  -1    5.60    9.90
  -1 -23   1   16.70    7.60
   1 -23  -1   12.80   13.70
  -1 -23   1   23.00   11.60
   1  23  -2    6.40   10.50
   1 -23   2  -10.20   14.80
  -1 -23  -2    8.80    7.00
  -1 -23  -2   13.40   14.20
   1 -23   2   14.10   13.30
   1  23  -2   10.30    9.70
  -1 -23   2   16.80   12.70
  -1  23  -2   -0.30   10.60
  -1  23  -2   -2.10    9.50
   1 -23  -2   20.30    7.90
   1 -23  -2    8.20   14.00
  -2  23   0   48.60   13.00
  -2 -23   0   34.30    9.00
  -2 -23   0   20.50   13.00
   2 -23   0   40.20   10.30
   2 -23   1   11.60   11.50
   2  23  -1   20.70   18.30
   2  23  -1   10.60    8.60
  -2 -23  -1   -4.10   12.00
  -2 -23  -1   23.40    7.40
  -2 -23   1   19.70   12.80
  -2 -23   1   32.20   12.90
  -2  23  -1   18.40   10.30
  -2  23  -1    3.30    9.60
   2 -23  -1   40.40   15.30
_computing_structure_solution     'SHELXT 2018/2 (Sheldrick, 2018)'
;
_shelx_hkl_checksum              64015
_shelx_res_file
;
TITL MBAT_a.res in P2(1)2(1)2 Z=2 C8 H12 B O6, 4(H2 O)
    shelx.res
    created by SHELXL-2018/3 at 16:34:28 on 26-Jun-2019
CELL  0.71073   7.0809  16.7912   6.5001   90.000   90.000   90.000
ZERR     2.00   0.0001   0.0003   0.0001    0.000    0.000    0.000
LATT  -1
SYMM  - X, - Y,   Z
SYMM  1/2 - X, 1/2 + Y, - Z
SYMM  1/2 + X, 1/2 - Y, - Z
SFAC  C    H    O    B
UNIT  16   40   20   2
MERG   2
OMIT    -3.00  54.00
OMIT     0   0   1
OMIT     2   0   0
OMIT     0   2   2
HTAB O4 O3
EQIV $1 -x+1, -y+1, z-1
HTAB O5 O2_$1
EQIV $2 -x+1/2, y-1/2, -z+1
HTAB O5 O2_$2
HTAB O4 O5
DFIX 0.9 0.02 O4 H1 O4 H2 O5 H3 O5 H4
DFIX 1.48 0.02 H1 H2 H3 H4
FMAP   2
PLAN   20
SIZE     0.10   0.15   0.15
ACTA
BOND   $H
CONF
L.S.  10
TEMP    23.00
WGHT    0.044400    0.107100
EXTI    0.264978
FVAR       2.58176
B1    4    0.500000    0.500000    0.621599    10.50000    0.05107    0.03155 =
         0.05106    0.00000    0.00000    0.00681
C1    1    0.460374    0.629077    0.733473    11.00000    0.04581    0.03077 =
         0.05837    0.00086    0.00078    0.00523
C2    1    0.303940    0.613350    0.580201    11.00000    0.04654    0.02984 =
         0.05891    0.00005   -0.00175    0.00855
C3    1    0.114825    0.610577    0.690790    11.00000    0.04978    0.06637 =
         0.09936   -0.00733    0.01005    0.00002
AFIX  33
H3A   2    0.085017    0.662541    0.743128    11.00000   -1.50000
H3B   2    0.018307    0.594026    0.596294    11.00000   -1.50000
H3C   2    0.121754    0.573415    0.802770    11.00000   -1.50000
AFIX   0
C4    1    0.305245    0.673959    0.406586    11.00000    0.08583    0.05341 =
         0.07215    0.01649   -0.00644    0.01459
AFIX  33
H4A   2    0.273454    0.725527    0.460141    11.00000   -1.50000
H4B   2    0.428708    0.675832    0.345758    11.00000   -1.50000
H4C   2    0.214397    0.658807    0.304184    11.00000   -1.50000
AFIX   0
O1    3    0.568717    0.566353    0.755803    11.00000    0.05512    0.03532 =
         0.06831   -0.00360   -0.01471    0.01248
O2    3    0.486132    0.691071    0.828678    11.00000    0.06513    0.03604 =
         0.08699   -0.01315   -0.01238    0.00825
O3    3    0.351615    0.535884    0.500252    11.00000    0.06403    0.03699 =
         0.06400   -0.00907   -0.01579    0.01601
O4    3    0.163785    0.479425    0.180235    11.00000    0.06866    0.06309 =
         0.06732   -0.01560   -0.00775    0.00981
O5    3    0.229928    0.329199    0.125046    11.00000    0.08203    0.04208 =
         0.10980   -0.00424    0.03353   -0.01004
H1    2    0.222780    0.490666    0.298818    11.00000    0.12382
H2    2    0.179691    0.425949    0.152719    11.00000    0.13162
H3    2    0.319229    0.322008    0.031737    11.00000    0.10334
H4    2    0.160084    0.287072    0.146231    11.00000    0.10948
HKLF 4
REM  MBAT_a.res in P2(1)2(1)2 Z=2 C8 H12 B O6, 4(H2 O)
REM wR2 = 0.0942, GooF = S = 1.081, Restrained GooF = 1.080 for all data
REM R1 = 0.0360 for 1585 Fo > 4sig(Fo) and 0.0383 for all 1680 data
REM 104 parameters refined using 6 restraints
END
WGHT      0.0444      0.1071
REM Highest difference peak  0.208,  deepest hole -0.118,  1-sigma level  0.028
Q1    1   0.0000  0.5000  0.1862  10.50000  0.05    0.21
Q2    1   0.1212  0.4536  0.2894  11.00000  0.05    0.15
Q3    1   0.1687  0.3275  0.0130  11.00000  0.05    0.12
Q4    1   0.3330  0.6411  0.4985  11.00000  0.05    0.11
Q5    1   0.5514  0.5877  0.7508  11.00000  0.05    0.09
Q6    1   0.2179  0.6189  0.6177  11.00000  0.05    0.08
Q7    1   0.5941  0.5647  0.6144  11.00000  0.05    0.08
Q8    1   0.3672  0.7292  0.4743  11.00000  0.05    0.08
Q9    1   0.4912  0.6888  0.7095  11.00000  0.05    0.08
Q10   1   0.5222  0.5408  0.6836  11.00000  0.05    0.08
Q11   1   0.5048  0.5776  0.8354  11.00000  0.05    0.08
Q12   1   0.3760  0.5275  0.6140  11.00000  0.05    0.08
Q13   1   0.2200  0.4897 -0.0115  11.00000  0.05    0.07
Q14   1   0.1565  0.7150  0.5713  11.00000  0.05    0.07
Q15   1   0.0729  0.7140  0.6637  11.00000  0.05    0.07
Q16   1   0.5692  0.5482  0.6424  11.00000  0.05    0.07
Q17   1   0.4071  0.6332  0.6214  11.00000  0.05    0.07
Q18   1   0.1213  0.7607  0.5863  11.00000  0.05    0.07
Q19   1   0.3001  0.4823  0.0122  11.00000  0.05    0.07
Q20   1   0.0286  0.6190  0.5567  11.00000  0.05    0.07
;
_shelx_res_checksum              56904
loop_
_space_group_symop_operation_xyz
'x, y, z'
'-x, -y, z'
'-x+1/2, y+1/2, -z'
'x+1/2, -y+1/2, -z'
loop_
_atom_site_type_symbol
_atom_site_label
_atom_site_fract_x
_atom_site_fract_y
_atom_site_fract_z
_atom_site_U_iso_or_equiv
_atom_site_adp_type
_atom_site_calc_flag
_atom_site_occupancy
B B1 0.500000 0.500000 0.6216(5) 0.0446(7) Uani d 1
C C1 0.4604(3) 0.62908(10) 0.7335(3) 0.0450(5) Uani d 1
C C2 0.3039(3) 0.61335(11) 0.5802(3) 0.0451(5) Uani d 1
C C3 0.1148(3) 0.61058(17) 0.6908(5) 0.0718(7) Uani d 1
H H3A 0.085017 0.662541 0.743128 0.108 Uiso calc 1
H H3B 0.018307 0.594026 0.596294 0.108 Uiso calc 1
H H3C 0.121754 0.573415 0.802770 0.108 Uiso calc 1
C C4 0.3052(5) 0.67396(15) 0.4066(4) 0.0705(7) Uani d 1
H H4A 0.273454 0.725527 0.460141 0.106 Uiso calc 1
H H4B 0.428708 0.675832 0.345758 0.106 Uiso calc 1
H H4C 0.214397 0.658807 0.304184 0.106 Uiso calc 1
O O1 0.5687(2) 0.56635(8) 0.7558(3) 0.0529(4) Uani d 1
O O2 0.4861(3) 0.69107(8) 0.8287(3) 0.0627(5) Uani d 1
O O3 0.3516(2) 0.53588(8) 0.5003(3) 0.0550(4) Uani d 1
O O4 0.1638(3) 0.47942(11) 0.1802(3) 0.0664(5) Uani d 1
O O5 0.2299(3) 0.32920(10) 0.1250(4) 0.0780(6) Uani d 1
H H1 0.223(6) 0.491(2) 0.299(5) 0.124(14) Uiso d 1
H H2 0.180(6) 0.4259(15) 0.153(7) 0.132(16) Uiso d 1
H H3 0.319(4) 0.322(2) 0.032(5) 0.103(12) Uiso d 1
H H4 0.160(5) 0.2871(18) 0.146(6) 0.109(12) Uiso d 1
loop_
_atom_site_aniso_label
_atom_site_aniso_U_11
_atom_site_aniso_U_22
_atom_site_aniso_U_33
_atom_site_aniso_U_12
_atom_site_aniso_U_13
_atom_site_aniso_U_23
B1 0.0511(17) 0.0316(13) 0.0511(16) 0.0068(12) 0.000 0.000
C1 0.0458(10) 0.0308(8) 0.0584(10) 0.0052(7) 0.0008(8) 0.0009(7)
C2 0.0465(10) 0.0298(8) 0.0589(11) 0.0086(7) -0.0018(9) 0.0000(8)
C3 0.0498(13) 0.0664(15) 0.0994(19) 0.0000(11) 0.0100(13) -0.0073(14)
C4 0.0858(18) 0.0534(13) 0.0721(15) 0.0146(12) -0.0064(14) 0.0165(11)
O1 0.0551(8) 0.0353(7) 0.0683(9) 0.0125(6) -0.0147(7) -0.0036(6)
O2 0.0651(10) 0.0360(7) 0.0870(11) 0.0082(7) -0.0124(9) -0.0131(7)
O3 0.0640(9) 0.0370(7) 0.0640(9) 0.0160(6) -0.0158(7) -0.0091(7)
O4 0.0687(11) 0.0631(11) 0.0673(10) 0.0098(8) -0.0077(8) -0.0156(8)
O5 0.0820(13) 0.0421(9) 0.1098(16) -0.0100(8) 0.0335(12) -0.0042(9)
loop_
_atom_type_symbol
_atom_type_description
_atom_type_scat_dispersion_real
_atom_type_scat_dispersion_imag
_atom_type_scat_source
C C 0.0033 0.0016 'International Tables Vol C Tables 4.2.6.8 and 6.1.1.4'
H H 0.0000 0.0000 'International Tables Vol C Tables 4.2.6.8 and 6.1.1.4'
O O 0.0106 0.0060 'International Tables Vol C Tables 4.2.6.8 and 6.1.1.4'
B B 0.0013 0.0007 'International Tables Vol C Tables 4.2.6.8 and 6.1.1.4'
loop_
_geom_angle_atom_site_label_1
_geom_angle_atom_site_label_2
_geom_angle_atom_site_label_3
_geom_angle_site_symmetry_1
_geom_angle_site_symmetry_3
_geom_angle
O3 B1 O3 2_665 . 113.9(2)
O3 B1 O1 2_665 . 113.09(9)
O3 B1 O1 . . 104.13(7)
O3 B1 O1 2_665 2_665 104.13(7)
O3 B1 O1 . 2_665 113.09(9)
O1 B1 O1 . 2_665 108.7(2)
O2 C1 O1 . . 122.67(19)
O2 C1 C2 . . 126.17(17)
O1 C1 C2 . . 111.17(16)
O3 C2 C1 . . 102.92(15)
O3 C2 C4 . . 109.59(18)
C1 C2 C4 . . 111.57(19)
O3 C2 C3 . . 110.44(18)
C1 C2 C3 . . 109.80(18)
C4 C2 C3 . . 112.1(2)
C2 C3 H3A . . 109.5
C2 C3 H3B . . 109.5
H3A C3 H3B . . 109.5
C2 C3 H3C . . 109.5
H3A C3 H3C . . 109.5
H3B C3 H3C . . 109.5
C2 C4 H4A . . 109.5
C2 C4 H4B . . 109.5
H4A C4 H4B . . 109.5
C2 C4 H4C . . 109.5
H4A C4 H4C . . 109.5
H4B C4 H4C . . 109.5
C1 O1 B1 . . 110.08(14)
C2 O3 B1 . . 110.48(14)
H1 O4 H2 . . 108(3)
H3 O5 H4 . . 114(3)
loop_
_geom_bond_atom_site_label_1
_geom_bond_atom_site_label_2
_geom_bond_site_symmetry_2
_geom_bond_distance
B1 O3 2_665 1.445(2)
B1 O3 . 1.445(2)
B1 O1 . 1.496(2)
B1 O1 2_665 1.496(2)
C1 O2 . 1.225(2)
C1 O1 . 1.311(2)
C1 C2 . 1.513(3)
C2 O3 . 1.441(2)
C2 C4 . 1.520(3)
C2 C3 . 1.521(3)
C3 H3A . 0.9600
C3 H3B . 0.9600
C3 H3C . 0.9600
C4 H4A . 0.9600
C4 H4B . 0.9600
C4 H4C . 0.9600
O4 H1 . 0.90(2)
O4 H2 . 0.92(2)
O5 H3 . 0.88(2)
O5 H4 . 0.87(2)
loop_
_geom_hbond_atom_site_label_D
_geom_hbond_atom_site_label_H
_geom_hbond_atom_site_label_A
_geom_hbond_site_symmetry_A
_geom_hbond_distance_DH
_geom_hbond_distance_HA
_geom_hbond_distance_DA
_geom_hbond_angle_DHA
_geom_hbond_publ_flag
O4 H1 O3 . 0.90(2) 1.77(2) 2.645(2) 165(4) yes
O5 H3 O2 2_664 0.88(2) 1.92(2) 2.805(3) 179(3) yes
O5 H4 O2 3_546 0.87(2) 1.92(2) 2.795(2) 175(4) yes
O4 H2 O5 . 0.92(2) 1.67(2) 2.591(2) 173(4) yes
loop_
_geom_torsion_atom_site_label_1
_geom_torsion_atom_site_label_2
_geom_torsion_atom_site_label_3
_geom_torsion_atom_site_label_4
_geom_torsion_site_symmetry_1
_geom_torsion
O2 C1 C2 O3 . 174.2(2)
O1 C1 C2 O3 . -6.5(2)
O2 C1 C2 C4 . 56.7(3)
O1 C1 C2 C4 . -123.9(2)
O2 C1 C2 C3 . -68.2(3)
O1 C1 C2 C3 . 111.1(2)
O2 C1 O1 B1 . 179.2(2)
C2 C1 O1 B1 . -0.2(2)
O3 B1 O1 C1 2_665 130.86(18)
O3 B1 O1 C1 . 6.8(2)
O1 B1 O1 C1 2_665 -114.04(16)
C1 C2 O3 B1 . 10.8(2)
C4 C2 O3 B1 . 129.6(2)
C3 C2 O3 B1 . -106.4(2)
O3 B1 O3 C2 2_665 -134.64(16)
O1 B1 O3 C2 . -11.0(2)
O1 B1 O3 C2 2_665 106.76(18)

_cod_database_fobs_code 1552105
