#------------------------------------------------------------------------------
#$Date: 2019-11-04 17:28:20 +0200 (Mon, 04 Nov 2019) $
#$Revision: 223159 $
#$URL: file:///home/coder/svn-repositories/cod/cif/1/55/27/1552726.cif $
#------------------------------------------------------------------------------
#
# This file is available in the Crystallography Open Database (COD),
# http://www.crystallography.net/
#
# All data on this site have been placed in the public domain by the
# contributors.
#
data_1552726
loop_
_publ_author_name
'Borley, William'
'Watson, Brandon'
'Nizhnik, Yakov P.'
'Zeller, Matthias'
'Rosokha, Sergiy V.'
_publ_section_title
;
 Complexes of Diiodine with Heteroaromatic <i>N</i>-Oxides: Effects of
 Halogen-Bond Acceptors in Halogen Bonding.
;
_journal_issue                   32
_journal_name_full               'The journal of physical chemistry. A'
_journal_page_first              7113
_journal_page_last               7123
_journal_paper_doi               10.1021/acs.jpca.9b05549
_journal_volume                  123
_journal_year                    2019
_chemical_formula_moiety         'C6 H7 N O, I2'
_chemical_formula_sum            'C6 H7 I2 N O'
_chemical_formula_weight         362.93
_space_group_crystal_system      triclinic
_space_group_IT_number           2
_space_group_name_Hall           '-P 1'
_space_group_name_H-M_alt        'P -1'
_atom_sites_solution_hydrogens   geom
_atom_sites_solution_primary     direct
_atom_sites_solution_secondary   difmap
_audit_creation_method           SHELXL-2018/3
_cell_angle_alpha                105.230(3)
_cell_angle_beta                 115.097(3)
_cell_angle_gamma                98.513(3)
_cell_formula_units_Z            2
_cell_length_a                   8.1349(10)
_cell_length_b                   8.1507(9)
_cell_length_c                   8.5804(11)
_cell_measurement_reflns_used    6213
_cell_measurement_temperature    150(2)
_cell_measurement_theta_max      33.1818
_cell_measurement_theta_min      2.7133
_cell_volume                     474.70(10)
_computing_cell_refinement       'SAINT V8.38A (Bruker, 2016)'
_computing_data_collection       'Apex3 v2017.3-0 (Bruker, 2016)'
_computing_data_reduction        'SAINT V8.38A (Bruker, 2016)'
_computing_structure_refinement
;  
SHELXL-2018/3 (Sheldrick, 2015, 2018), 
SHELXLE Rev924 (H\"ubschle et al., 2011)
;
_computing_structure_solution    'SHELXS-97 (Sheldrick, 2008)'
_diffrn_ambient_temperature      150(2)
_diffrn_measured_fraction_theta_full 0.990
_diffrn_measured_fraction_theta_max 0.900
_diffrn_measurement_device_type  'Bruker AXS D8 Quest CMOS diffractometer'
_diffrn_measurement_method       'omega and phi scans'
_diffrn_radiation_monochromator  'Triumph curved graphite crystal'
_diffrn_radiation_type           MoK\a
_diffrn_radiation_wavelength     0.71073
_diffrn_reflns_av_R_equivalents  0.0557
_diffrn_reflns_av_unetI/netI     0.0579
_diffrn_reflns_Laue_measured_fraction_full 0.990
_diffrn_reflns_Laue_measured_fraction_max 0.900
_diffrn_reflns_limit_h_max       10
_diffrn_reflns_limit_h_min       -12
_diffrn_reflns_limit_k_max       12
_diffrn_reflns_limit_k_min       -12
_diffrn_reflns_limit_l_max       13
_diffrn_reflns_limit_l_min       0
_diffrn_reflns_number            11707
_diffrn_reflns_point_group_measured_fraction_full 0.990
_diffrn_reflns_point_group_measured_fraction_max 0.900
_diffrn_reflns_theta_full        25.242
_diffrn_reflns_theta_max         33.178
_diffrn_reflns_theta_min         2.712
_diffrn_source                   'sealed tube X-ray source'
_exptl_absorpt_coefficient_mu    6.567
_exptl_absorpt_correction_T_max  0.746547
_exptl_absorpt_correction_T_min  0.418788
_exptl_absorpt_correction_type   multi-scan
_exptl_absorpt_process_details
;
TWINABS 2012/1: Krause, L., Herbst-Irmer, R., Sheldrick G.M. & Stalke D.
(2015). J. Appl. Cryst. 48 3-10.
;
_exptl_crystal_colour            red
_exptl_crystal_density_diffrn    2.539
_exptl_crystal_description       plate
_exptl_crystal_F_000             328
_exptl_crystal_size_max          0.310
_exptl_crystal_size_mid          0.160
_exptl_crystal_size_min          0.030
_refine_diff_density_max         2.116
_refine_diff_density_min         -1.335
_refine_diff_density_rms         0.235
_refine_ls_extinction_coef       0.0116(13)
_refine_ls_extinction_expression Fc^*^=kFc[1+0.001xFc^2^\l^3^/sin(2\q)]^-1/4^
_refine_ls_extinction_method     'SHELXL-2018/3 (Sheldrick 2018)'
_refine_ls_goodness_of_fit_ref   1.039
_refine_ls_hydrogen_treatment    constr
_refine_ls_matrix_type           full
_refine_ls_number_parameters     94
_refine_ls_number_reflns         5016
_refine_ls_number_restraints     0
_refine_ls_restrained_S_all      1.039
_refine_ls_R_factor_all          0.0426
_refine_ls_R_factor_gt           0.0357
_refine_ls_shift/su_max          0.001
_refine_ls_shift/su_mean         0.000
_refine_ls_structure_factor_coef Fsqd
_refine_ls_weighting_details
'w=1/[\s^2^(Fo^2^)+(0.0240P)^2^+1.3590P] where P=(Fo^2^+2Fc^2^)/3'
_refine_ls_weighting_scheme      calc
_refine_ls_wR_factor_gt          0.0884
_refine_ls_wR_factor_ref         0.0930
_reflns_Friedel_coverage         0.000
_reflns_number_gt                4449
_reflns_number_total             5016
_reflns_threshold_expression     'I > 2\s(I)'
_cod_data_source_file            jp9b05549_si_006.cif
_cod_data_source_block           RS76_0m
_cod_original_cell_volume        474.69(10)
_cod_database_code               1552726
_shelx_shelxl_version_number     2018/3
_shelx_space_group_comment
;
The symmetry employed for this shelxl refinement is uniquely defined
by the following loop, which should always be used as a source of
symmetry information in preference to the above space-group names.
They are only intended as comments.
;
_shelx_estimated_absorpt_t_min   0.235
_shelx_estimated_absorpt_t_max   0.827
_shelx_res_file
;
TITL RS76_0m in P-1
    RS76_0m.res
    created by SHELXL-2018/3 at 12:21:41 on 08-Aug-2018
CELL 0.71073   8.13490   8.15070   8.58040 105.2304 115.0971  98.5132
ZERR    2.00   0.00100   0.00090   0.00110   0.0029   0.0027   0.0032
LATT  1
SFAC C H N O I
UNIT 12 14 2 2 4
LIST 6 ! automatically inserted. Change 6 to 4 for CHECKCIF!!
TEMP -123.160
SIZE 0.03 0.16 0.31
L.S. 24
BOND $H
ACTA
CONF
FMAP 2
PLAN 20
WGHT    0.024000    1.359000
EXTI    0.011635
BASF   0.45058
FVAR       0.56607
C1    1    0.152493    0.699351    0.751499    11.00000    0.03076    0.02186 =
         0.02018    0.00864    0.01186    0.01145
AFIX  43
H1    2    0.130434    0.578200    0.683788    11.00000   -1.20000
AFIX   0
C2    1    0.255964    0.765248    0.940870    11.00000    0.03143    0.03109 =
         0.02105    0.01192    0.00564    0.01137
AFIX  43
H2    2    0.305563    0.690009    1.004852    11.00000   -1.20000
AFIX   0
C3    1    0.287648    0.942961    1.038368    11.00000    0.03338    0.03342 =
         0.01811    0.00421    0.00611    0.00470
AFIX  43
H3    2    0.358683    0.989723    1.169455    11.00000   -1.20000
AFIX   0
C4    1    0.214994    1.051666    0.943241    11.00000    0.02458    0.02049 =
         0.01867    0.00187    0.00724    0.00052
C5    1    0.111325    0.980690    0.752552    11.00000    0.02357    0.01990 =
         0.02032    0.00667    0.01189    0.00858
AFIX  43
H5    2    0.060690    1.053343    0.685398    11.00000   -1.20000
AFIX   0
C6    1    0.242261    1.245713    1.040914    11.00000    0.04526    0.02500 =
         0.03057   -0.00328    0.01504   -0.00131
AFIX 137
H6A   2    0.245620    1.312812    0.962264    11.00000   -1.50000
H6B   2    0.362212    1.294168    1.157656    11.00000   -1.50000
H6C   2    0.136590    1.255685    1.066006    11.00000   -1.50000
AFIX   0
N1    3    0.082425    0.806691    0.662053    11.00000    0.01679    0.02208 =
         0.01761    0.00881    0.00787    0.00646
O1    4   -0.017091    0.739408    0.474111    11.00000    0.02330    0.02179 =
         0.02442    0.00720    0.00813    0.00728
I1    5    0.284960    0.716245    0.396359    11.00000    0.02128    0.02259 =
         0.02359    0.00912    0.01196    0.00861
I3    5    0.623253    0.715673    0.406447    11.00000    0.01889    0.01953 =
         0.01986    0.00585    0.00853    0.00653
HKLF 5




REM  RS76_0m in P-1
REM wR2 = 0.0930, GooF = S = 1.039, Restrained GooF = 1.039 for all data
REM R1 = 0.0357 for 4449 Fo > 4sig(Fo) and 0.0426 for all 5016 data
REM 94 parameters refined using 0 restraints

END

WGHT      0.0240      1.3590

REM Highest difference peak  2.116,  deepest hole -1.335,  1-sigma level  0.235
Q1    1  -0.0554  0.7119  0.3840  11.00000  0.05    2.12
Q2    1   0.1967  1.1516  1.2027  11.00000  0.05    1.23
Q3    1   0.5421  1.1470  1.2107  11.00000  0.05    1.22
Q4    1   0.7304  0.5865  0.6038  11.00000  0.05    1.20
Q5    1   0.5876  0.6514  0.3201  11.00000  0.05    1.13
Q6    1   0.3737  0.5837  0.5893  11.00000  0.05    1.12
Q7    1   0.7238  0.9732  0.5951  11.00000  0.05    1.09
Q8    1  -0.1622  0.7072  0.3861  11.00000  0.05    1.02
Q9    1   0.2413  0.6557  0.3176  11.00000  0.05    1.02
Q10   1   0.6176  1.0060  1.3984  11.00000  0.05    1.00
Q11   1   0.3597  0.6689  0.2385  11.00000  0.05    0.90
Q12   1   0.1701  1.3887  0.8444  11.00000  0.05    0.83
Q13   1   0.1953  0.6565  0.1960  11.00000  0.05    0.82
Q14   1  -0.0048  0.6404  0.2279  11.00000  0.05    0.80
Q15   1   0.3327  0.8602  0.4829  11.00000  0.05    0.79
Q16   1   0.5507  0.8081  0.5612  11.00000  0.05    0.78
Q17   1   0.2616  1.4259  1.1820  11.00000  0.05    0.76
Q18   1   0.7351  0.7044  0.3972  11.00000  0.05    0.75
Q19   1   0.4909  0.7055  0.4186  11.00000  0.05    0.73
Q20   1   0.3897  0.6945  0.3981  11.00000  0.05    0.71
;
_shelx_res_checksum              7386
_shelx_hkl_file
;
  -1   0   1 787.186 30.0926  -2
   1   0   0 787.186 30.0926   1
  -2   0   2 2397.50 85.4656  -2
   2   0   0 2397.50 85.4656   1
  -3   0   3 2660.70 94.6809  -2
   3   0   0 2660.70 94.6809   1
  -4   0   4 64.9283 3.22707  -2
   4   0   0 64.9283 3.22707   1
  -5   0   5 20.0752 1.48663  -2
   5   0   0 20.0752 1.48663   1
  -6   0   6 284.062 15.7189  -2
   6   0   0 284.062 15.7189   1
  -7   0   7 159.852 7.61470  -2
   7   0   0 159.852 7.61470   1
  -8   0   8 204.982 16.0439  -2
   8   0   0 204.982 16.0439   1
  -9   0   9 484.387 36.0224  -2
   9   0   0 484.387 36.0224   1
 -11   1   0 -5.7220 5.43998   1
 -10   1   0 2.22200 4.15581   1
  -9   1   8 405.630 30.7904  -2
  -9   1   0 405.630 30.7904   1
  -8   1   0 161.153 8.67611   2
  -8   1   0 199.821 15.4815   1
  -7   1   0 142.030 6.93775   2
  -7   1   0 154.750 10.0170   1
  -6   1   0 1423.92 59.1927   2
  -6   1   0 1656.34 121.458   1
  -5   1   0 698.996 36.1669   1
  -5   1   0 595.139 25.0488   2
  -4   1   0 372.466 15.8186   2
  -4   1   0 446.698 23.2076   1
  -3   1   0 1161.68 48.0029   2
  -3   1   0 1343.72 55.5975   1
  -2   1   0 517.531 23.4693   1
  -2   1   0 428.042 12.2423   2
  -1   1   0 14.9189 0.57277   1
  -1   1   0 12.0092 0.49395   2
   0   1   0 18.8254 0.60914   1
   0   1   0 14.6014 0.83587   2
   1   1   0 553.482 15.7659   2
   1   1   0 662.848 20.1033   1
   2   1   0 624.958 20.0006   1
   2   1   0 508.380 15.8283   2
   3   1   0 2484.57 102.323   1
   3   1   0 2133.81 73.6840   2
   4   1   0 569.563 23.9142   1
   4   1   0 491.773 15.5113   2
   5   1   0 373.904 11.9667   2
   5   1   0 435.239 18.6472   1
   6   1   0 1179.41 41.1604   2
   6   1   0 1361.25 61.7960   1
   7   1   0 49.8614 3.80883   1
   7   1   0 48.2606 3.16738   2
   8   1   0 23.1219 5.01118   2
   8   1   0 34.7076 6.41862   1
   9   1   0 25.9389 4.20503   2
   9   1   0 37.7193 6.25997   1
  10   1   0 0.45566 3.52309   2
 -11   2   0 75.3381 10.1048   1
 -10   2   0 12.6256 4.18557   1
 -10   2   0 9.68741 3.21274   2
  -9   2   0 169.630 9.29237   2
  -9   2   0 205.634 16.2118   1
  -8   2   0 30.9640 2.58353   2
  -8   2   0 43.2787 4.87289   1
  -7   2   0 1.74378 1.49715   1
  -7   2   0 4.88494 1.42466   2
  -6   2   0 103.916 6.67084   1
  -6   2   0 83.4068 4.33118   2
  -5   2   0 92.4837 4.62202   2
  -5   2   0 104.260 6.38366   1
  -4   2   0 85.7722 4.18161   2
  -4   2   0 93.5354 6.29760   1
  -3   2   0 3552.46 179.936   1
  -3   2   0 3112.86 96.4250   2
  -2   2   0 1289.75 45.8880   1
  -2   2   0 1051.72 37.5322   2
  -1   2   0 804.585 25.6246   1
  -1   2   0 657.352 20.9406   2
   0   2   0 5863.96 263.317   1
   0   2   0 4710.82 332.301   2
   1   2   0 405.113 14.6058   1
   1   2   0 348.559 9.99778   2
   2   2   0 165.268 5.28958   2
   2   2   0 208.383 8.96473   1
   3   2   0 197.738 8.21825   2
   3   2   0 234.522 10.0768   1
   4   2   0 -0.7495 0.70459   2
   4   2   0 2.62713 0.77534   1
   5   2   0 49.7568 2.76350   2
   5   2   0 57.1629 3.35426   1
   6   2   0 272.340 12.7229   1
   6   2   0 236.747 10.2828   2
   7   2   0 67.5416 4.73439   1
   7   2   0 63.4453 4.04109   2
   8   2   0 141.495 11.4984   2
   8   2   0 165.090 14.6583   1
   9   2   0 235.167 18.9667   2
   9   2   0 274.159 22.6160   1
  10   2   0 15.8981 4.57762   2
 -11   3   9 15.4954 9.39075  -2
 -11   3   0 15.4954 9.39075   1
  -9   3   7 689.676 50.3164  -2
  -9   3   0 689.676 50.3164   1
  -8   3   6 399.759 29.5239  -2
  -8   3   0 399.759 29.5239   1
  -7   3   5 522.832 32.1664  -2
  -7   3   0 522.832 32.1664   1
  -6   3   4 2280.03 133.723  -2
  -6   3   0 2280.03 133.723   1
  -5   3   3 674.969 71.4586  -2
  -5   3   0 674.969 71.4586   1
  -4   3   2 207.934 11.3032  -2
  -4   3   0 207.934 11.3032   1
  -3   3   1 761.320 27.2646  -2
  -3   3   0 761.320 27.2646   1
  -2   3   0 14.9979 1.16932  -2
  -2   3   0 14.9979 1.16932   1
   1  -3   1 133.248 5.91636  -2
  -1   3   0 133.248 5.91636   1
  -1   3   0 79.4383 8.50120   2
   0  -3   2 3310.30 121.616  -2
   0   3   0 3310.30 121.616   1
  -1  -3   3 1094.35 49.3634  -2
   1   3   0 1094.35 49.3634   1
  -2  -3   4 1568.13 70.8156  -2
   2   3   0 1568.13 70.8156   1
  -3  -3   5 3958.95 178.225  -2
   3   3   0 3958.95 178.225   1
  -4  -3   6 717.193 32.7141  -2
   4   3   0 717.193 32.7141   1
  -6  -3   8 615.597 28.7689  -2
   6   3   0 615.597 28.7689   1
  -7  -3   9 13.2535 3.32016  -2
   7   3   0 13.2535 3.32016   1
  -8  -3  10 7.08920 7.45440  -2
   8   3   0 7.08920 7.45440   1
 -11   4   8 79.2115 11.1915  -2
 -11   4   0 79.2115 11.1915   1
  -9   4   6 85.2802 9.07880  -2
  -9   4   0 85.2802 9.07880   1
  -8   4   5 0.21885 4.27403  -2
  -8   4   0 0.21885 4.27403   1
  -7   4   4 36.9364 4.39676  -2
  -7   4   0 36.9364 4.39676   1
  -6   4   3 1213.03 89.4488  -2
  -6   4   0 1213.03 89.4488   1
  -5   4   2 490.482 52.6795  -2
  -5   4   0 490.482 52.6795   1
  -5   4   0 296.584 32.9350   1
  -4   4   1 646.256 24.7314  -2
  -4   4   0 646.256 24.7314   1
  -4   4   0 292.096 31.6993   1
  -3   4   0 3220.78 232.171   1
  -3   4   0 5515.05 276.366  -2
  -3   4   0 5515.05 276.366   1
  -3   4   0 2701.89 195.001   2
  -2   4   0 683.403 30.8984   2
  -2   4   0 829.958 59.3164   1
   2  -4   1 1395.66 70.6926  -2
  -2   4   0 1395.66 70.6926   1
  -1   4   0 243.585 17.6232   2
  -1   4   0 307.507 14.6134   1
   1  -4   2 420.858 22.2042  -2
  -1   4   0 420.858 22.2042   1
   0   4   0 2285.67 107.770   1
   0  -4   3 3055.79 179.198  -2
   0   4   0 3055.79 179.198   1
   0   4   0 2018.19 143.619   2
   1   4   0 53.2720 10.7008   1
  -1  -4   4 43.9253 2.78907  -2
   1   4   0 43.9253 2.78907   1
   1   4   0 35.6747 5.50167   2
  -2  -4   5 32.0422 2.16100  -2
   2   4   0 32.0422 2.16100   1
   2   4   0 24.4056 4.68958   2
  -3  -4   6 343.841 21.0745  -2
   3   4   0 343.841 21.0745   1
  -4  -4   7 283.554 16.5656  -2
   4   4   0 283.554 16.5656   1
  -5  -4   8 155.002 8.90208  -2
   5   4   0 155.002 8.90208   1
  -6  -4   9 1103.35 50.5715  -2
   6   4   0 1103.35 50.5715   1
  -7  -4  10 210.246 12.0130  -2
   7   4   0 210.246 12.0130   1
  -8  -4  11 155.167 15.9453  -2
   8   4   0 155.167 15.9453   1
   9   4   0 93.3950 9.78874   2
 -11   5   0 54.8648 6.80652   1
 -11   5   0 37.6475 5.45257   2
 -10   5   0 17.1839 3.53512   2
 -10   5   0 22.9554 4.16872   1
  -9   5   0 440.781 32.4580   2
  -9   5   0 568.221 41.6207   1
  -8   5   0 232.185 12.4443   2
  -8   5   0 256.239 13.6881   1
  -7   5   0 98.9653 7.24739   1
  -7   5   0 85.3092 4.79699   2
  -6   5   0 479.525 25.3261   1
  -6   5   0 411.874 19.2388   2
  -5   5   0 93.0474 4.57523   1
  -5   5   0 82.4558 4.38812   2
  -4   5   0 12.3183 1.16555   1
  -4   5   0 9.11047 1.14225   2
  -3   5   0 96.8513 4.45533   1
  -3   5   0 75.3062 3.60440   2
  -2   5   0 197.026 7.29312   1
  -2   5   0 174.668 8.12924   2
  -1   5   0 360.157 15.3043   1
  -1   5   0 288.040 14.6960   2
   0   5   0 1701.24 70.3751   1
   0   5   0 1447.82 72.7257   2
   1   5   0 449.690 24.0796   1
   1   5   0 413.905 15.4100   2
   2   5   0 340.675 12.0600   2
   2   5   0 390.137 16.9384   1
   3   5   0 1066.29 44.7663   1
   3   5   0 889.080 35.5650   2
   4   5   0 111.955 5.59841   2
   4   5   0 149.684 7.39516   1
   5   5   0 25.3135 2.52836   1
   5   5   0 22.3879 2.20811   2
   6   5   0 121.267 7.33325   1
   6   5   0 103.165 6.13832   2
   7   5   0 -0.3252 2.01051   2
   7   5   0 1.97142 2.26273   1
   8   5   0 8.84937 2.70073   2
 -11   6   0 10.3545 4.29300   1
 -11   6   0 11.2005 4.09554   2
 -10   6   6 11.2413 7.74012  -2
 -10   6   0 11.2413 7.74012   1
  -8   6   4 53.8176 6.99601  -2
  -8   6   0 53.8176 6.99601   1
  -6   6   2 1260.07 64.8969  -2
  -6   6   0 1260.07 64.8969   1
  -5   6   1 457.125 19.6751  -2
  -5   6   0 457.125 19.6751   1
  -4   6   0 144.561 6.88838  -2
  -4   6   0 144.561 6.88838   1
   3  -6   1 3522.05 145.270  -2
  -3   6   0 3522.05 145.270   1
  -3   6   0 1514.27 154.860   2
   2  -6   2 761.903 39.5382  -2
  -2   6   0 761.903 39.5382   1
  -2   6   0 394.344 25.0503   1
   1  -6   3 206.150 27.7400  -2
  -1   6   0 206.150 27.7400   1
   0  -6   4 382.145 24.8144  -2
   0   6   0 382.145 24.8144   1
  -1  -6   5 8.23097 2.75008  -2
   1   6   0 8.23097 2.75008   1
  -2  -6   6 18.5200 2.76507  -2
   2   6   0 18.5200 2.76507   1
  -3  -6   7 470.517 21.3244  -2
   3   6   0 470.517 21.3244   1
  -4  -6   8 246.573 12.8133  -2
   4   6   0 246.573 12.8133   1
  -5  -6   9 175.797 10.0349  -2
   5   6   0 175.797 10.0349   1
  -6  -6  10 554.510 28.8109  -2
   6   6   0 554.510 28.8109   1
 -10   7   5 88.7555 9.69336  -2
 -10   7   0 88.7555 9.69336   1
  -7   7   2 137.280 11.3152  -2
  -7   7   0 137.280 11.3152   1
  -6   7   1 74.7630 6.49643  -2
  -6   7   0 74.7630 6.49643   1
  -5   7   0 -1.8796 2.19711  -2
  -5   7   0 -1.8796 2.19711   1
   4  -7   1 133.399 6.72920  -2
  -4   7   0 133.399 6.72920   1
   3  -7   2 546.427 29.3809  -2
  -3   7   0 546.427 29.3809   1
   2  -7   3 495.920 21.1085  -2
  -2   7   0 495.920 21.1085   1
   1  -7   4 403.243 18.7785  -2
  -1   7   0 403.243 18.7785   1
   0  -7   5 1918.88 87.4899  -2
   0   7   0 1918.88 87.4899   1
  -1  -7   6 409.294 18.5368  -2
   1   7   0 409.294 18.5368   1
  -2  -7   7 91.3249 5.70830  -2
   2   7   0 91.3249 5.70830   1
  -3  -7   8 503.595 25.9939  -2
   3   7   0 503.595 25.9939   1
  -4  -7   9 38.4695 4.17483  -2
   4   7   0 38.4695 4.17483   1
  -5  -7  10 4.59284 6.68600  -2
   5   7   0 4.59284 6.68600   1
  -6  -7  11 28.5964 6.36248  -2
   6   7   0 28.5964 6.36248   1
 -10   8   0 8.36587 3.77321   2
 -10   8   0 7.88948 3.99025   1
  -9   8   0 125.091 11.2244   2
  -9   8   0 151.429 12.9649   1
  -7   8   0 52.8272 5.94186   2
  -7   8   0 57.2817 6.03955   1
  -6   8   0 737.878 37.8918   1
  -6   8   0 623.554 31.9764   2
  -5   8   0 138.569 6.94086   2
  -5   8   0 161.276 8.28151   1
  -4   8   0 81.0769 4.49517   1
  -4   8   0 59.5578 4.38817   2
  -3   8   0 421.924 18.3404   1
  -3   8   0 361.261 18.6437   2
  -2   8   0 50.6141 3.25545   1
  -2   8   0 42.3300 3.03322   2
  -1   8   0 0.10910 1.15309   1
  -1   8   0 0.47383 0.78944   2
   0   8   0 18.0047 1.90100   1
   0   8   0 15.2858 1.38981   2
   1   8   0 13.5509 1.76555   2
   1   8   0 19.0413 2.03646   1
   2   8   0 82.0335 5.29042   1
   2   8   0 71.2760 4.55126   2
   3   8   0 199.984 10.5272   2
   3   8   0 243.382 13.1889   1
   4   8   0 56.5818 4.76224   2
   4   8   0 64.6514 5.10480   1
   5   8   0 46.6727 4.37715   2
   5   8   0 58.4421 6.98870   1
  -5  -8  11 56.1646 8.84414  -2
   5   8   0 56.1646 8.84414   1
  -6   9   0 34.7532 7.01949  -2
  -6   9   0 34.7532 7.01949   1
   5  -9   1 31.6143 6.19989  -2
  -5   9   0 31.6143 6.19989   1
  -5   9   0 27.6944 3.86743   1
  -5   9   0 14.7420 2.93429   2
  -4   9   0 49.0851 3.75567   1
  -4   9   0 38.0216 4.63605   2
  -3   9   0 400.879 19.4014   2
   3  -9   3 773.389 39.4801  -2
  -3   9   0 773.389 39.4801   1
  -2   9   0 163.902 8.39364   2
  -2   9   0 197.378 15.1093   1
   2  -9   4 426.210 31.4888  -2
  -2   9   0 426.210 31.4888   1
   1  -9   5 206.622 16.3143  -2
  -1   9   0 206.622 16.3143   1
  -1   9   0 136.836 10.9910   1
  -1   9   0 113.778 6.19003   2
   0   9   0 422.077 27.6446   2
   0  -9   6 976.147 49.6830  -2
   0   9   0 976.147 49.6830   1
   1   9   0 46.1958 5.03631   2
  -1  -9   7 165.076 9.86242  -2
   1   9   0 165.076 9.86242   1
  -2  -9   8 20.2583 7.01637  -2
   2   9   0 20.2583 7.01637   1
   2   9   0 18.6608 3.53247   2
  -3  -9   9 59.2155 6.40971  -2
   3   9   0 59.2155 6.40971   1
   4   9   0 0.73575 3.39322   2
  -4  -9  10 -5.2194 7.13106  -2
   4   9   0 -5.2194 7.13106   1
  -8  10   1 136.542 12.2218  -2
  -8  10   0 136.542 12.2218   1
  -7  10   0 79.2303 8.25440  -2
  -7  10   0 79.2303 8.25440   1
   6 -10   1 584.741 43.0028  -2
  -6  10   0 584.741 43.0028   1
   5 -10   2 137.689 11.7754  -2
  -5  10   0 137.689 11.7754   1
   4 -10   3 6.92951 2.87591  -2
  -4  10   0 6.92951 2.87591   1
   3 -10   4 120.142 7.25422  -2
  -3  10   0 120.142 7.25422   1
   2 -10   5 4.54975 2.86416  -2
  -2  10   0 4.54975 2.86416   1
   1 -10   6 13.8014 2.67043  -2
  -1  10   0 13.8014 2.67043   1
   0 -10   7 156.656 9.20662  -2
   0  10   0 156.656 9.20662   1
  -1 -10   8 88.8040 6.24790  -2
   1  10   0 88.8040 6.24790   1
  -2 -10   9 33.9428 3.83528  -2
   2  10   0 33.9428 3.83528   1
  -3 -10  10 263.698 14.8666  -2
   3  10   0 263.698 14.8666   1
   7 -11   1 1.96542 8.33718  -2
  -7  11   0 1.96542 8.33718   1
   6 -11   2 155.736 14.5133  -2
  -6  11   0 155.736 14.5133   1
   5 -11   3 111.643 11.6597  -2
  -5  11   0 111.643 11.6597   1
  -5  11   0 50.4263 6.41723   1
   4 -11   4 58.9110 8.21883  -2
  -4  11   0 58.9110 8.21883   1
  -4  11   0 54.3362 7.21200   1
  -3  11   0 219.289 17.2456   2
   3 -11   5 428.022 32.2549  -2
  -3  11   0 428.022 32.2549   1
   2 -11   6 169.782 10.8322  -2
  -2  11   0 169.782 10.8322   1
  -2  11   0 58.0305 7.28420   2
   1 -11   7 48.6632 6.49095  -2
  -1  11   0 48.6632 6.49095   1
   0 -11   8 133.402 9.66597  -2
   0  11   0 133.402 9.66597   1
  -1 -11   9 -2.6793 6.81021  -2
   1  11   0 -2.6793 6.81021   1
   1  11   0 2.95855 3.55832   2
  -4  12   0 4.27599 3.93323   2
  -4  12   0 -7.9287 4.44477   1
   4 -12   4 -2.3428 8.96442  -2
  -4  12   0 -2.3428 8.96442   1
   3 -12   5 5.80588 8.36052  -2
  -3  12   0 5.80588 8.36052   1
  -3  12   0 -1.6481 4.18724   1
  -2  12   0 5.30656 4.13778   1
  -2  12   0 2.95487 4.45777   2
   1 -12   1 -1.7728 3.83656   2
   1 -12   1 5.53217 3.79832   1
   2 -12   1 3.09763 2.61690   1
   2 -12   1 1.16089 3.94999   2
   3 -12   1 46.7691 4.33951   1
   3 -12   1 44.2176 4.66200   2
   4 -12   1 12.8360 4.00871   2
   4 -12   1 10.9633 4.75511   1
   4 -12   3 23.2106 9.06558  -2
   4 -12   1 23.2106 9.06558   1
   5 -12   1 31.7989 5.04718   2
   5 -12   1 33.4718 5.22394   1
  -2 -11   9 41.3353 9.80571  -2
  -2 -11   1 41.3353 9.80571   1
  -1 -11   8 111.189 12.3516  -2
  -1 -11   1 111.189 12.3516   1
   0 -11   7 407.119 30.9594  -2
   0 -11   1 407.119 30.9594   1
   1 -11   6 77.5641 9.82123  -2
   1 -11   1 77.5641 9.82123   1
   2 -11   1 85.8421 8.51418   2
   3 -11   1 150.486 12.5502   2
   4 -11   3 8.60628 6.99157  -2
   4 -11   1 8.60628 6.99157   1
   4 -11   1 11.5861 3.74019   2
   4 -11   1 7.39628 3.48444   1
   5 -11   2 10.1530 7.14874  -2
   5 -11   1 10.1530 7.14874   1
   6 -11   1 -1.3419 7.54895  -2
   6 -11   1 -1.3419 7.54895   1
  -7  11   0 5.46131 8.36417  -2
   7 -11   1 5.46131 8.36417   1
  -4 -10  10 59.4400 7.76097  -2
  -4 -10   1 59.4400 7.76097   1
  -3 -10   9 227.444 13.3641  -2
  -3 -10   1 227.444 13.3641   1
  -2 -10   8 35.6091 3.59726  -2
  -2 -10   1 35.6091 3.59726   1
  -1 -10   7 8.84039 2.17017  -2
  -1 -10   1 8.84039 2.17017   1
   0 -10   6 -1.4465 1.76535  -2
   0 -10   1 -1.4465 1.76535   1
   1 -10   5 2.37537 2.66660  -2
   1 -10   1 2.37537 2.66660   1
   2 -10   4 50.4872 5.69363  -2
   2 -10   1 50.4872 5.69363   1
   3 -10   3 620.943 31.8701  -2
   3 -10   1 620.943 31.8701   1
   4 -10   2 104.876 6.56059  -2
   4 -10   1 104.876 6.56059   1
   5 -10   1 296.131 22.2783  -2
   5 -10   1 296.131 22.2783   1
  -6  10   0 630.667 46.2034  -2
   6 -10   1 630.667 46.2034   1
  -7  10   1 24.7369 5.62054  -2
   7 -10   1 24.7369 5.62054   1
  -8  10   2 38.0158 6.74151  -2
   8 -10   1 38.0158 6.74151   1
  -5  -9  10 9.79248 7.77350  -2
  -5  -9   1 9.79248 7.77350   1
  -4  -9   9 52.2016 8.27442  -2
  -4  -9   1 52.2016 8.27442   1
  -3  -9   8 454.342 33.7722  -2
  -3  -9   1 454.342 33.7722   1
  -2  -9   7 103.163 7.06584  -2
  -2  -9   1 103.163 7.06584   1
  -1  -9   6 348.251 18.4586  -2
  -1  -9   1 348.251 18.4586   1
   0  -9   1 540.678 39.2506   1
   0  -9   1 430.576 31.4210   2
   0  -9   5 911.827 65.7333  -2
   0  -9   1 911.827 65.7333   1
   1  -9   1 94.4314 8.02270   1
   1  -9   1 72.0436 6.51482   2
   1  -9   4 139.475 11.5847  -2
   1  -9   1 139.475 11.5847   1
   2  -9   3 131.629 7.83928  -2
   2  -9   1 131.629 7.83928   1
   2  -9   1 71.4580 6.45577   2
   2  -9   1 65.1044 11.6105   1
   3  -9   1 127.172 8.71981   1
   3  -9   1 111.046 5.88802   2
   3  -9   2 163.804 13.2306  -2
   3  -9   1 163.804 13.2306   1
   4  -9   1 2.32167 1.93577   2
   4  -9   1 11.9446 5.10455  -2
   4  -9   1 11.9446 5.10455   1
   4  -9   1 3.14052 1.84745   1
   5  -9   1 5.14790 2.77391   2
  -5   9   0 26.0344 5.78646  -2
   5  -9   1 26.0344 5.78646   1
   5  -9   1 4.14494 2.32487   1
  -6   9   1 357.546 27.1139  -2
   6  -9   1 357.546 27.1139   1
   6  -9   1 76.7863 8.46155   2
  -9   9   4 384.616 30.3127  -2
   9  -9   1 384.616 30.3127   1
  -6  -8  11 244.468 20.1956  -2
  -6  -8   1 244.468 20.1956   1
  -6  -8   1 131.012 8.07155   2
  -5  -8   1 66.3113 7.45119   1
  -5  -8   1 57.1765 4.63726   2
  -4  -8   1 35.7242 3.24116   1
  -4  -8   1 30.0558 2.96256   2
  -3  -8   1 71.2149 4.77830   1
  -3  -8   1 56.6026 4.05930   2
  -2  -8   1 2.45241 1.05914   2
  -2  -8   1 3.27864 1.38943   1
  -1  -8   1 13.6785 1.72950   1
  -1  -8   1 11.2749 1.32642   2
   0  -8   1 167.168 6.16530   2
   0  -8   1 188.649 8.92614   1
   1  -8   1 60.4708 3.32220   2
   1  -8   1 73.3682 3.98369   1
   2  -8   1 162.494 6.81368   2
   2  -8   1 194.238 9.48482   1
   3  -8   1 1162.30 42.8631   1
   3  -8   1 965.808 35.6649   2
   4  -8   1 66.6330 4.27595   2
   4  -8   1 88.0100 4.71184   1
   5  -8   1 152.579 8.24208   2
   5  -8   1 190.764 9.33533   1
   6  -8   1 470.861 28.7363   1
   6  -8   1 391.910 20.5621   2
   7  -8   1 12.5045 2.52179   2
   7  -8   1 13.0873 3.02723   1
   8  -8   1 17.9172 2.60120   1
   8  -8   1 10.9942 3.70564   2
   9  -8   1 3.08192 3.19136   2
  -9   8   4 -12.577 8.12558  -2
   9  -8   1 -12.577 8.12558   1
  10  -8   1 -3.6374 3.80030   1
  10  -8   1 -3.8356 3.59408   2
  -7  -7  11 7.44120 6.24854  -2
  -7  -7   1 7.44120 6.24854   1
  -5  -7   9 39.8871 4.25729  -2
  -5  -7   1 39.8871 4.25729   1
  -4  -7   8 135.003 7.83827  -2
  -4  -7   1 135.003 7.83827   1
  -3  -7   7 1353.49 68.3364  -2
  -3  -7   1 1353.49 68.3364   1
  -2  -7   6 331.264 15.2545  -2
  -2  -7   1 331.264 15.2545   1
  -1  -7   5 567.929 24.7151  -2
  -1  -7   1 567.929 24.7151   1
   0  -7   4 1614.42 67.0272  -2
   0  -7   1 1614.42 67.0272   1
   1  -7   3 290.182 13.6045  -2
   1  -7   1 290.182 13.6045   1
   2  -7   2 250.513 11.2114  -2
   2  -7   1 250.513 11.2114   1
   3  -7   1 -3.5953 2.54967  -2
   3  -7   1 -3.5953 2.54967   1
  -4   7   0 133.921 6.78506  -2
   4  -7   1 133.921 6.78506   1
  -5   7   1 330.039 15.5551  -2
   5  -7   1 330.039 15.5551   1
  -6   7   2 937.513 55.6675  -2
   6  -7   1 937.513 55.6675   1
  -8   7   4 309.454 23.6590  -2
   8  -7   1 309.454 23.6590   1
  -9   7   5 637.802 46.9966  -2
   9  -7   1 637.802 46.9966   1
 -10   7   6 32.1141 7.43712  -2
  10  -7   1 32.1141 7.43712   1
  -8  -6  11 71.7615 9.46641  -2
  -8  -6   1 71.7615 9.46641   1
  -6  -6   9 459.485 23.8592  -2
  -6  -6   1 459.485 23.8592   1
  -5  -6   8 66.5261 4.89335  -2
  -5  -6   1 66.5261 4.89335   1
  -4  -6   7 16.4000 3.27944  -2
  -4  -6   1 16.4000 3.27944   1
  -3  -6   6 6.75342 3.32319  -2
  -3  -6   1 6.75342 3.32319   1
  -2  -6   5 18.8596 2.29415  -2
  -2  -6   1 18.8596 2.29415   1
  -1  -6   1 135.895 17.6204   1
  -1  -6   4 260.725 13.2877  -2
  -1  -6   1 260.725 13.2877   1
  -1  -6   1 114.487 12.6395   2
   0  -6   3 2177.94 127.897  -2
   0  -6   1 2177.94 127.897   1
   0  -6   1 1100.38 113.648   1
   1  -6   2 355.509 13.3849  -2
   1  -6   1 355.509 13.3849   1
   2  -6   1 436.149 22.5427  -2
   2  -6   1 436.149 22.5427   1
  -3   6   0 3540.16 159.533  -2
   3  -6   1 3540.16 159.533   1
   3  -6   1 2173.98 221.894   1
  -4   6   1 400.585 17.0511  -2
   4  -6   1 400.585 17.0511   1
  -5   6   2 319.732 15.0778  -2
   5  -6   1 319.732 15.0778   1
   5  -6   1 236.867 26.8388   1
  -6   6   3 291.201 25.6583  -2
   6  -6   1 291.201 25.6583   1
  -7   6   4 12.7348 4.71127  -2
   7  -6   1 12.7348 4.71127   1
  -8   6   5 16.9667 5.51736  -2
   8  -6   1 16.9667 5.51736   1
 -10   6   7 80.6048 10.7275  -2
  10  -6   1 80.6048 10.7275   1
  -8  -5   1 4.11915 2.21317   2
  -8  -5   1 1.03984 2.92033   1
  -7  -5   1 10.6410 2.14880   2
  -7  -5   1 13.9907 2.22305   1
  -6  -5   1 339.045 17.1237   1
  -6  -5   1 285.711 14.2754   2
  -5  -5   1 223.877 10.5396   1
  -5  -5   1 158.861 7.99218   2
  -4  -5   1 189.107 8.35507   2
  -4  -5   1 222.067 10.2203   1
  -3  -5   1 1101.72 43.8693   2
  -3  -5   1 1320.14 54.8363   1
  -2  -5   1 457.220 19.3462   1
  -2  -5   1 374.783 13.2572   2
  -1  -5   1 247.593 8.78945   2
  -1  -5   1 290.568 13.7776   1
   0  -5   1 414.508 14.4545   2
   0  -5   1 456.022 17.1552   1
   1  -5   1 12.7488 0.83113   1
   1  -5   1 9.98158 0.90250   2
   2  -5   1 22.2957 1.48060   1
   2  -5   1 20.8245 1.43083   2
   3  -5   1 348.510 14.6426   1
   3  -5   1 287.325 12.3112   2
   4  -5   1 143.041 6.35942   1
   4  -5   1 122.253 5.83522   2
   5  -5   1 348.793 13.2034   2
   5  -5   1 422.831 22.2204   1
   6  -5   1 817.254 34.4181   2
   6  -5   1 1020.18 52.6118   1
   7  -5   1 91.9586 5.24188   2
   7  -5   1 96.9711 7.57676   1
   8  -5   1 158.701 8.92959   2
   8  -5   1 185.396 14.5899   1
   9  -5   1 296.991 15.8146   2
   9  -5   1 335.471 25.3603   1
  10  -5   1 15.1741 3.85200   1
  10  -5   1 15.0891 3.72030   2
  -8  -4  10 73.4576 8.10048  -2
  -8  -4   1 73.4576 8.10048   1
  -7  -4   9 127.155 8.18732  -2
  -7  -4   1 127.155 8.18732   1
  -6  -4   8 358.680 17.7959  -2
  -6  -4   1 358.680 17.7959   1
  -5  -4   7 35.6607 3.54639  -2
  -5  -4   1 35.6607 3.54639   1
  -4  -4   6 28.5534 2.76578  -2
  -4  -4   1 28.5534 2.76578   1
  -3  -4   1 452.680 48.1805   2
  -3  -4   5 704.020 35.5835  -2
  -3  -4   1 704.020 35.5835   1
  -2  -4   1 44.0875 2.27366   2
  -2  -4   1 59.7514 9.72722   1
  -2  -4   4 56.4461 3.34624  -2
  -2  -4   1 56.4461 3.34624   1
  -1  -4   1 379.227 22.4902   1
  -1  -4   1 320.280 18.9255   2
  -1  -4   3 701.069 41.3253  -2
  -1  -4   1 701.069 41.3253   1
   0  -4   1 2642.79 96.8796   2
   0  -4   1 3083.83 121.162   1
   0  -4   2 3208.85 328.266  -2
   0  -4   1 3208.85 328.266   1
   1  -4   1 480.939 21.8277   2
   1  -4   1 592.774 26.8230   1
   1  -4   1 1125.78 116.033  -2
   1  -4   1 1125.78 116.033   1
   2  -4   1 620.315 28.0647   1
   2  -4   1 497.436 35.7021   2
  -2   4   0 1412.46 144.876  -2
   2  -4   1 1412.46 144.876   1
   3  -4   1 2328.12 104.802   1
  -3   4   1 4179.72 242.647  -2
   3  -4   1 4179.72 242.647   1
   3  -4   1 1944.08 199.249   2
   4  -4   1 56.8870 6.27449   1
  -4   4   2 117.768 9.13971  -2
   4  -4   1 117.768 9.13971   1
   4  -4   1 49.8712 3.34366   2
  -5   4   3 59.3327 9.50813  -2
   5  -4   1 59.3327 9.50813   1
  -6   4   4 8.05440 3.48812  -2
   6  -4   1 8.05440 3.48812   1
  -7   4   5 30.7249 5.07553  -2
   7  -4   1 30.7249 5.07553   1
  -8   4   6 105.937 9.64816  -2
   8  -4   1 105.937 9.64816   1
  -9   4   7 545.181 40.4238  -2
   9  -4   1 545.181 40.4238   1
 -10   4   8 106.687 11.8192  -2
  10  -4   1 106.687 11.8192   1
  -8  -3   9 49.0114 4.65093  -2
  -8  -3   1 49.0114 4.65093   1
  -7  -3   8 196.035 10.3788  -2
  -7  -3   1 196.035 10.3788   1
  -6  -3   7 1712.52 100.390  -2
  -6  -3   1 1712.52 100.390   1
  -5  -3   6 651.320 33.0436  -2
  -5  -3   1 651.320 33.0436   1
  -4  -3   5 1139.00 51.6677  -2
  -4  -3   1 1139.00 51.6677   1
  -3  -3   4 3199.61 144.051  -2
  -3  -3   1 3199.61 144.051   1
  -2  -3   3 277.602 12.7990  -2
  -2  -3   1 277.602 12.7990   1
  -1  -3   2 155.552 7.28973  -2
  -1  -3   1 155.552 7.28973   1
   0  -3   1 16.6281 0.99055  -2
   0  -3   1 16.6281 0.99055   1
  -1   3   0 120.431 7.35371  -2
   1  -3   1 120.431 7.35371   1
   1  -3   1 43.9477 5.09801   1
  -2   3   1 291.985 10.5373  -2
   2  -3   1 291.985 10.5373   1
  -3   3   2 3951.55 162.640  -2
   3  -3   1 3951.55 162.640   1
  -4   3   3 1359.90 99.0397  -2
   4  -3   1 1359.90 99.0397   1
  -5   3   4 1204.57 88.4126  -2
   5  -3   1 1204.57 88.4126   1
  -6   3   5 2500.57 178.400  -2
   6  -3   1 2500.57 178.400   1
  -7   3   6 233.268 15.8503  -2
   7  -3   1 233.268 15.8503   1
  -8   3   7 159.147 13.0473  -2
   8  -3   1 159.147 13.0473   1
  -9   3   8 220.571 17.9837  -2
   9  -3   1 220.571 17.9837   1
 -10   3   9 19.0040 8.35081  -2
  10  -3   1 19.0040 8.35081   1
 -10  -2   1 17.5680 4.16512   2
  -9  -2   1 147.783 12.2029   2
  -9  -2   1 154.427 14.4598   1
  -8  -2   1 70.3657 5.18215   1
  -8  -2   1 62.5038 6.07891   2
  -7  -2   1 6.89221 1.58862   1
  -7  -2   1 8.19877 1.40361   2
  -6  -2   1 1.36803 1.04516   1
  -6  -2   1 -2.1923 0.99947   2
  -5  -2   1 40.3131 2.63148   1
  -5  -2   1 35.0762 2.21635   2
  -4  -2   1 114.302 5.07012   2
  -4  -2   1 134.122 6.02584   1
  -3  -2   1 1967.28 77.7624   2
  -3  -2   1 2353.06 83.7334   1
  -2  -2   1 530.449 19.0418   1
  -2  -2   1 454.163 18.1369   2
  -1  -2   1 680.192 19.0055   2
  -1  -2   1 821.099 22.9276   1
   0  -2   1 6105.35 620.130   1
   0  -2   1 4597.18 188.872   2
   1  -2   1 442.944 18.3943   2
   1  -2   1 589.908 18.7996   1
   2  -2   1 190.553 6.81729   2
   2  -2   1 227.587 8.21084   1
   3  -2   1 1259.02 52.1390   1
   3  -2   1 1007.33 34.8983   2
   4  -2   1 26.6126 1.90008   2
   4  -2   1 40.4594 3.15081   1
   5  -2   1 2.06089 1.51829   1
   5  -2   1 5.11589 0.94493   2
   6  -2   1 98.8590 5.34994   2
   6  -2   1 112.672 7.65362   1
   7  -2   1 18.7469 1.98240   2
   7  -2   1 18.2994 2.74637   1
   8  -2   1 122.639 10.3591   1
   8  -2   1 101.290 5.58412   2
   9  -2   1 315.705 23.7211   2
   9  -2   1 343.414 26.1053   1
  10  -2   1 62.1340 8.60311   1
  10  -2   1 56.5722 6.62838   2
 -10  -1   1 14.8361 3.59740   2
 -10  -1   1 17.0078 6.02511   1
  -9  -1   1 281.184 21.0483   2
  -9  -1   1 293.035 23.1385   1
  -8  -1   1 89.2447 6.73706   2
  -8  -1   1 110.901 8.18957   1
  -7  -1   1 126.002 8.13489   2
  -7  -1   1 133.976 7.11816   1
  -6  -1   1 1334.32 55.4826   1
  -6  -1   1 1086.47 39.0919   2
  -5  -1   1 432.681 13.6827   2
  -5  -1   1 526.240 22.2140   1
  -4  -1   1 217.069 7.75962   2
  -4  -1   1 274.438 11.7330   1
  -3  -1   1 544.721 19.5690   1
  -3  -1   1 422.215 16.9335   2
  -2  -1   1 395.041 17.8715   2
  -2  -1   1 463.836 14.8365   1
  -1  -1   1 23.0893 0.67762   2
  -1  -1   1 28.7765 0.81425   1
   0  -1   1 208.623 7.46623   1
   0  -1   1 161.544 6.25895   2
   1  -1   1 749.248 26.7569   2
   1  -1   1 906.865 30.3657   1
   2  -1   1 780.849 27.0529   2
   2  -1   1 990.600 37.6276   1
   3  -1   1 2640.81 91.1583   2
   3  -1   1 3053.71 108.692   1
   4  -1   1 357.460 12.7475   2
   4  -1   1 420.474 15.2432   1
   5  -1   1 454.165 16.1726   2
   5  -1   1 532.990 19.3295   1
   6  -1   1 860.304 30.1549   2
   6  -1   1 1042.98 47.4424   1
   7  -1   1 25.2757 2.28220   2
   7  -1   1 38.6259 4.22427   1
  -8   1   8 4.62884 6.25854  -2
   8  -1   1 4.62884 6.25854   1
   8  -1   1 4.42022 2.58053   2
  -9   1   9 16.8032 8.83432  -2
   9  -1   1 16.8032 8.83432   1
  10  -1   1 -0.6117 4.64777   1
 -10   0   9 79.0165 9.22832  -2
 -10   0   1 79.0165 9.22832   1
  -9   0   8 254.152 19.6865  -2
  -9   0   1 254.152 19.6865   1
  -8   0   7 26.8216 4.04307  -2
  -8   0   1 26.8216 4.04307   1
  -7   0   6 11.6674 1.72910  -2
  -7   0   1 11.6674 1.72910   1
  -6   0   5 447.202 19.0924  -2
  -6   0   1 447.202 19.0924   1
  -5   0   4 406.030 17.2135  -2
  -5   0   1 406.030 17.2135   1
  -4   0   3 1141.27 40.7429  -2
  -4   0   1 1141.27 40.7429   1
  -3   0   2 9999.99 719.290  -2
  -3   0   1 9999.99 719.290   1
  -2   0   1 21.0176 0.93740  -2
  -2   0   1 21.0176 0.93740   1
   1   0   0 697.919 22.2584  -2
  -1   0   1 697.919 22.2584   1
   0   0   1 2983.66 151.869  -2
   0   0   1 2983.66 151.869   1
  -1   0   2 981.161 32.9519  -2
   1   0   1 981.161 32.9519   1
  -2   0   3 53.7746 2.31700  -2
   2   0   1 53.7746 2.31700   1
  -3   0   4 24.4690 1.33823  -2
   3   0   1 24.4690 1.33823   1
  -4   0   5 59.9076 3.26232  -2
   4   0   1 59.9076 3.26232   1
  -5   0   6 299.850 18.3335  -2
   5   0   1 299.850 18.3335   1
  -6   0   7 1088.16 45.3314  -2
   6   0   1 1088.16 45.3314   1
  -7   0   8 341.795 21.5337  -2
   7   0   1 341.795 21.5337   1
  -8   0   9 222.415 17.5503  -2
   8   0   1 222.415 17.5503   1
  -9   0  10 421.664 31.9022  -2
   9   0   1 421.664 31.9022   1
 -10   0  11 84.3857 10.5052  -2
  10   0   1 84.3857 10.5052   1
 -11   1   1 24.7933 7.57116   1
 -10   1   1 47.5996 5.87412   1
  -9   1   1 463.927 57.3263   2
  -9   1   1 572.896 41.9000   1
  -8   1   1 234.699 10.5963   2
  -8   1   1 258.887 15.5454   1
  -7   1   1 227.790 13.2709   1
  -7   1   1 187.296 8.91812   2
  -6   1   1 1049.44 37.6177   1
  -6   1   1 896.220 37.4349   2
  -5   1   1 284.402 10.4454   1
  -5   1   1 235.296 10.2496   2
  -4   1   1 95.8454 4.39874   2
  -4   1   1 112.454 4.29158   1
  -3   1   1 3.16397 0.40887   2
  -3   1   1 2.76194 0.46767   1
  -2   1   1 246.536 7.94411   1
  -2   1   1 221.168 7.48996   2
  -1   1   1 754.844 23.4757   1
  -1   1   1 623.883 22.2060   2
   0   1   1 2674.61 89.5989   1
   0   1   1 2372.02 75.3855   2
   1   1   1 1076.68 44.4010   1
   1   1   1 901.200 32.2095   2
   2   1   1 998.867 31.0728   2
   2   1   1 1221.71 50.4819   1
   3   1   1 2553.50 79.2585   2
   3   1   1 3145.20 129.513   1
   4   1   1 115.749 4.51149   2
   4   1   1 139.116 6.55812   1
   5   1   1 168.896 6.67321   2
   5   1   1 188.721 9.26356   1
   6   1   1 302.325 13.7210   1
   6   1   1 265.429 10.3875   2
   7   1   1 6.12375 1.89122   1
   7   1   1 6.49228 1.64957   2
   8   1   1 6.07523 3.92822   1
   8   1   1 0.58453 1.79879   2
   9   1   1 6.15270 5.53379   1
   9   1   1 15.0610 4.13436   2
 -11   2   1 19.2403 5.60887   1
 -10   2   1 1.41236 3.01933   1
 -10   2   1 5.52930 2.54215   2
  -9   2   1 3.91391 2.31070   1
  -9   2   1 1.41717 1.35497   2
  -8   2   1 27.4662 3.23744   2
  -8   2   1 28.2025 3.41102   1
  -7   2   1 31.5994 2.28803   2
  -7   2   1 39.2341 3.50561   1
  -6   2   1 1511.81 62.8704   1
  -6   2   1 1317.84 54.7474   2
  -5   2   1 467.642 24.4607   1
  -5   2   1 396.070 16.7996   2
  -4   2   1 591.820 21.3043   2
  -4   2   1 677.359 28.1422   1
  -3   2   1 3708.33 166.617   2
  -3   2   1 4174.74 158.167   1
  -2   2   1 546.338 20.8361   1
  -2   2   1 446.951 18.5160   2
  -1   2   1 361.303 13.7749   2
  -1   2   1 439.777 19.9093   1
   0   2   1 1208.75 43.1076   2
   0   2   1 1383.60 57.3307   1
   1   2   1 12.1533 0.74831   2
   1   2   1 15.2313 1.16988   1
   2   2   1 11.1605 0.70689   2
   2   2   1 9.92204 1.12095   1
   3   2   1 213.997 6.91165   2
   3   2   1 249.506 10.9034   1
   4   2   1 114.448 5.68010   1
   4   2   1 91.2209 3.23402   2
   5   2   1 341.339 15.1463   1
   5   2   1 269.297 10.0151   2
   6   2   1 540.633 22.5053   2
   6   2   1 670.294 31.1443   1
   7   2   1 63.1461 4.31481   2
   7   2   1 70.8476 5.24683   1
   8   2   1 94.3045 6.06218   2
   8   2   1 118.900 12.2142   1
   9   2   1 170.179 16.6403   1
   9   2   1 143.930 12.8109   2
 -10   3   7 136.835 12.2602  -2
 -10   3   1 136.835 12.2602   1
  -9   3   6 1069.72 77.0751  -2
  -9   3   1 1069.72 77.0751   1
  -8   3   5 531.921 32.5126  -2
  -8   3   1 531.921 32.5126   1
  -7   3   4 316.476 18.1330  -2
  -7   3   1 316.476 18.1330   1
  -6   3   3 1285.02 133.683  -2
  -6   3   1 1285.02 133.683   1
  -5   3   2 76.9562 5.38086  -2
  -5   3   1 76.9562 5.38086   1
  -4   3   1 21.9272 1.55816  -2
  -4   3   1 21.9272 1.55816   1
  -3   3   0 812.263 36.8593  -2
  -3   3   1 812.263 36.8593   1
   2  -3   1 303.702 13.9745  -2
  -2   3   1 303.702 13.9745   1
   1  -3   2 939.859 47.2698  -2
  -1   3   1 939.859 47.2698   1
  -1   3   1 544.166 55.4796   2
   0  -3   3 4180.81 188.423  -2
   0   3   1 4180.81 188.423   1
  -1  -3   4 1974.00 89.1486  -2
   1   3   1 1974.00 89.1486   1
  -2  -3   5 804.906 33.7255  -2
   2   3   1 804.906 33.7255   1
  -3  -3   6 2511.47 103.728  -2
   3   3   1 2511.47 103.728   1
  -4  -3   7 260.331 17.2032  -2
   4   3   1 260.331 17.2032   1
  -5  -3   8 18.7876 2.67676  -2
   5   3   1 18.7876 2.67676   1
  -6  -3   9 54.4559 4.31688  -2
   6   3   1 54.4559 4.31688   1
  -7  -3  10 40.6654 4.40408  -2
   7   3   1 40.6654 4.40408   1
  -8  -3  11 36.8898 8.80189  -2
   8   3   1 36.8898 8.80189   1
 -11   4   7 11.3238 8.14615  -2
 -11   4   1 11.3238 8.14615   1
 -10   4   6 12.3082 6.31627  -2
 -10   4   1 12.3082 6.31627   1
  -9   4   5 153.389 12.8309  -2
  -9   4   1 153.389 12.8309   1
  -8   4   4 129.288 10.7225  -2
  -8   4   1 129.288 10.7225   1
  -7   4   3 177.216 20.0559  -2
  -7   4   1 177.216 20.0559   1
  -6   4   2 2764.60 162.279  -2
  -6   4   1 2764.60 162.279   1
  -5   4   1 463.612 49.9326   2
  -5   4   1 940.423 55.2505  -2
  -5   4   1 940.423 55.2505   1
  -5   4   1 533.291 56.8994   1
  -4   4   0 655.040 27.4408  -2
  -4   4   1 655.040 27.4408   1
  -4   4   1 334.048 36.0276   2
   3  -4   1 4373.42 196.747  -2
  -3   4   1 4373.42 196.747   1
  -3   4   1 2446.53 250.164   1
  -3   4   1 1937.85 113.199   2
   2  -4   2 171.323 9.80245  -2
  -2   4   1 171.323 9.80245   1
  -2   4   1 47.9440 2.87280   2
  -2   4   1 59.8508 4.75620   1
   1  -4   3 17.8511 2.20276  -2
  -1   4   1 17.8511 2.20276   1
  -1   4   1 25.5482 2.41529   2
   0  -4   4 20.8619 1.82504  -2
   0   4   1 20.8619 1.82504   1
  -1  -4   5 89.3272 5.08068  -2
   1   4   1 89.3272 5.08068   1
  -2  -4   6 301.533 19.9338  -2
   2   4   1 301.533 19.9338   1
  -3  -4   7 1635.12 68.0985  -2
   3   4   1 1635.12 68.0985   1
   3   4   1 648.047 68.4271   2
  -4  -4   8 281.201 13.3512  -2
   4   4   1 281.201 13.3512   1
  -5  -4   9 322.104 16.5382  -2
   5   4   1 322.104 16.5382   1
  -6  -4  10 515.509 26.8933  -2
   6   4   1 515.509 26.8933   1
  -7  -4  11 182.298 11.1574  -2
   7   4   1 182.298 11.1574   1
 -11   5   1 91.5520 9.44637   1
 -10   5   1 42.1658 5.77752   2
 -10   5   1 51.4806 6.52033   1
  -9   5   1 354.054 26.4318   1
  -9   5   1 282.559 21.2870   2
  -8   5   1 89.8424 7.70365   1
  -8   5   1 80.7202 7.12191   2
  -7   5   1 30.0483 2.36709   2
  -7   5   1 27.6476 3.19242   1
  -6   5   1 4.19743 0.94352   1
  -6   5   1 3.98785 1.01083   2
  -5   5   1 31.5311 2.19717   1
  -5   5   1 25.8113 1.99424   2
  -4   5   1 175.206 7.74278   2
  -4   5   1 206.627 9.17240   1
  -3   5   1 890.937 36.8723   2
  -3   5   1 1084.26 44.9866   1
  -2   5   1 375.451 19.0703   2
  -2   5   1 435.793 18.8137   1
  -1   5   1 547.312 23.4537   1
  -1   5   1 483.234 24.4823   2
   0   5   1 1711.47 70.2637   2
   0   5   1 2038.11 119.261   1
   1   5   1 248.091 10.6668   2
   1   5   1 302.019 18.9883   1
   2   5   1 188.198 9.08567   1
   2   5   1 159.657 6.00045   2
   3   5   1 367.536 13.3117   2
   3   5   1 420.577 18.7136   1
   4   5   1 2.29960 1.38439   1
   4   5   1 1.36747 1.34202   2
   5   5   1 6.16571 2.02652   1
   5   5   1 9.08394 1.92222   2
   6   5   1 22.6383 2.95481   1
   6   5   1 21.8339 5.66281   2
   7   5   1 3.59341 2.91106   1
   7   5   1 2.63825 2.48879   2
 -11   6   6 8.25866 8.83563  -2
 -11   6   1 8.25866 8.83563   1
 -10   6   5 30.5380 7.92239  -2
 -10   6   1 30.5380 7.92239   1
  -9   6   4 343.887 26.2775  -2
  -9   6   1 343.887 26.2775   1
  -7   6   2 151.784 12.1821  -2
  -7   6   1 151.784 12.1821   1
  -6   6   1 2846.16 117.404  -2
  -6   6   1 2846.16 117.404   1
  -5   6   0 455.671 19.8142  -2
  -5   6   1 455.671 19.8142   1
   4  -6   1 420.929 18.2454  -2
  -4   6   1 420.929 18.2454   1
   3  -6   2 1060.07 44.5682  -2
  -3   6   1 1060.07 44.5682   1
   2  -6   3 68.7234 5.85419  -2
  -2   6   1 68.7234 5.85419   1
   1  -6   4 -2.0697 2.05263  -2
  -1   6   1 -2.0697 2.05263   1
   0  -6   5 280.061 14.6144  -2
   0   6   1 280.061 14.6144   1
  -1  -6   6 228.775 11.8708  -2
   1   6   1 228.775 11.8708   1
  -2  -6   7 295.794 14.5500  -2
   2   6   1 295.794 14.5500   1
  -3  -6   8 1125.64 51.9363  -2
   3   6   1 1125.64 51.9363   1
  -4  -6   9 336.535 17.9110  -2
   4   6   1 336.535 17.9110   1
  -5  -6  10 166.141 10.0706  -2
   5   6   1 166.141 10.0706   1
  -6  -6  11 270.149 22.8732  -2
   6   6   1 270.149 22.8732   1
  -7  -6  12 45.5699 9.37187  -2
   7   6   1 45.5699 9.37187   1
 -11   7   5 120.478 12.2456  -2
 -11   7   1 120.478 12.2456   1
 -10   7   4 71.2608 8.64588  -2
 -10   7   1 71.2608 8.64588   1
  -8   7   2 54.3791 6.45976  -2
  -8   7   1 54.3791 6.45976   1
  -6   7   0 90.5658 5.68463  -2
  -6   7   1 90.5658 5.68463   1
   5  -7   1 336.483 14.9461  -2
  -5   7   1 336.483 14.9461   1
   4  -7   2 261.683 12.3911  -2
  -4   7   1 261.683 12.3911   1
   3  -7   3 1905.02 79.2741  -2
  -3   7   1 1905.02 79.2741   1
   2  -7   4 724.930 30.8751  -2
  -2   7   1 724.930 30.8751   1
   1  -7   5 251.084 12.5402  -2
  -1   7   1 251.084 12.5402   1
   0  -7   6 1499.00 68.6936  -2
   0   7   1 1499.00 68.6936   1
  -1  -7   7 132.955 7.29503  -2
   1   7   1 132.955 7.29503   1
  -2  -7   8 21.8951 3.23752  -2
   2   7   1 21.8951 3.23752   1
  -3  -7   9 16.5147 3.61909  -2
   3   7   1 16.5147 3.61909   1
  -4  -7  10 10.2934 6.84207  -2
   4   7   1 10.2934 6.84207   1
  -5  -7  11 36.8648 6.63979  -2
   5   7   1 36.8648 6.63979   1
  -6  -7  12 122.391 12.2536  -2
   6   7   1 122.391 12.2536   1
 -10   8   1 12.9352 3.86112   2
 -10   8   1 21.8189 3.07025   1
  -9   8   1 353.701 26.7799   1
  -9   8   1 297.505 22.9525   2
  -8   8   1 132.372 12.5857   2
  -8   8   1 139.104 13.1709   1
  -7   8   1 59.5851 6.14322   1
  -7   8   1 44.5185 5.53509   2
  -6   8   1 515.171 26.6031   1
  -6   8   1 457.270 28.2525   2
  -5   8   1 62.1843 3.96906   2
  -5   8   1 75.1211 4.86824   1
  -4   8   1 15.7178 1.80895   2
  -4   8   1 18.0929 1.76236   1
  -3   8   1 12.8129 1.62468   1
  -3   8   1 10.1189 1.49940   2
  -2   8   1 2.28048 1.26867   1
  -2   8   1 3.06923 1.02382   2
  -1   8   1 44.0970 3.35852   1
  -1   8   1 35.7797 2.40014   2
   0   8   1 239.064 9.97322   2
   0   8   1 277.537 14.6769   1
   1   8   1 106.953 6.45249   1
   1   8   1 87.9955 4.37529   2
   2   8   1 131.027 7.40300   2
   2   8   1 151.556 8.76800   1
   3   8   1 253.795 14.0843   2
   3   8   1 349.136 26.3852   1
   4   8   1 28.0173 3.41141   2
  -4  -8  11 67.2819 9.50750  -2
   4   8   1 67.2819 9.50750   1
   5   8   1 29.1718 3.97039   1
   5   8   1 27.7717 3.79487   2
  -8   9   1 4.49941 6.98585  -2
  -8   9   1 4.49941 6.98585   1
  -6   9   1 279.725 21.3991   1
   6  -9   1 378.454 28.5798  -2
  -6   9   1 378.454 28.5798   1
  -5   9   1 123.788 10.4806   1
   5  -9   2 203.657 16.1245  -2
  -5   9   1 203.657 16.1245   1
  -4   9   1 122.985 9.88040   2
  -4   9   1 142.912 11.5455   1
   4  -9   3 214.735 16.9267  -2
  -4   9   1 214.735 16.9267   1
  -3   9   1 444.880 32.2701   2
  -3   9   1 515.685 26.6034   1
  -2   9   1 111.857 9.34209   1
  -2   9   1 91.9142 7.90369   2
   2  -9   5 284.205 21.6909  -2
  -2   9   1 284.205 21.6909   1
  -1   9   1 35.5293 4.35310   2
   1  -9   6 63.1431 7.71007  -2
  -1   9   1 63.1431 7.71007   1
  -1   9   1 48.9139 5.45186   1
   0   9   1 129.277 10.7710   1
   0  -9   7 315.575 24.2435  -2
   0   9   1 315.575 24.2435   1
   0   9   1 108.605 8.59213   2
   1   9   1 12.0748 3.21043   1
   1   9   1 5.29721 3.18768   2
   2   9   1 5.12594 3.34545   2
  -2  -9   9 -9.3844 6.82811  -2
   2   9   1 -9.3844 6.82811   1
  -3  -9  10 13.1105 7.92699  -2
   3   9   1 13.1105 7.92699   1
   3   9   1 -1.9288 3.60659   2
   3   9   1 5.37459 4.16249   1
  -8  10   0 147.432 12.7585  -2
  -8  10   1 147.432 12.7585   1
   7 -10   1 28.7416 5.73773  -2
  -7  10   1 28.7416 5.73773   1
   6 -10   2 285.081 21.8915  -2
  -6  10   1 285.081 21.8915   1
   5 -10   3 8.59535 3.64231  -2
  -5  10   1 8.59535 3.64231   1
   4 -10   4 -4.7804 4.57652  -2
  -4  10   1 -4.7804 4.57652   1
   3 -10   5 40.5845 6.01493  -2
  -3  10   1 40.5845 6.01493   1
   2 -10   6 79.4498 8.08405  -2
  -2  10   1 79.4498 8.08405   1
   0 -10   8 562.093 29.2738  -2
   0  10   1 562.093 29.2738   1
  -1 -10   9 144.507 9.08333  -2
   1  10   1 144.507 9.08333   1
  -2 -10  10 98.4457 7.32529  -2
   2  10   1 98.4457 7.32529   1
   7 -11   2 46.5973 9.39963  -2
  -7  11   1 46.5973 9.39963   1
   6 -11   3 382.736 29.7369  -2
  -6  11   1 382.736 29.7369   1
   5 -11   4 158.495 14.2203  -2
  -5  11   1 158.495 14.2203   1
   4 -11   5 59.6899 8.53211  -2
  -4  11   1 59.6899 8.53211   1
   3 -11   6 285.560 16.2749  -2
  -3  11   1 285.560 16.2749   1
   2 -11   7 60.1382 7.08792  -2
  -2  11   1 60.1382 7.08792   1
  -2  11   1 30.6676 4.94264   2
   1 -11   8 4.34894 9.22688  -2
  -1  11   1 4.34894 9.22688   1
   0  11   1 24.5677 3.38886   1
   0  11   1 14.4392 2.52245   2
   0 -12   2 11.0608 4.13451   2
   0 -12   2 13.5910 2.90756   1
   1 -12   2 1.98428 2.45482   1
   1 -12   2 2.40117 3.69600   2
   2 -12   2 25.1514 4.69812   2
   2 -12   2 27.7806 4.61313   1
   2 -12   4 90.8142 11.5514  -2
   2 -12   2 90.8142 11.5514   1
   3 -12   2 185.638 10.8973   1
   3 -12   2 159.602 9.73205   2
   4 -12   2 12.0534 3.11113   1
   4 -12   2 9.62476 3.73727   2
   5 -12   2 33.1112 5.07493   2
   5 -12   2 53.6238 7.53758   1
  -2 -11   8 43.0554 9.64532  -2
  -2 -11   2 43.0554 9.64532   1
  -1 -11   7 181.263 16.2345  -2
  -1 -11   2 181.263 16.2345   1
   0 -11   6 395.896 30.0748  -2
   0 -11   2 395.896 30.0748   1
   3 -11   2 20.3167 3.73210   1
   3 -11   2 20.5772 4.01754   2
   4 -11   2 7.79121 6.62690  -2
   4 -11   2 7.79121 6.62690   1
   4 -11   2 1.34995 3.16821   1
   4 -11   2 3.34885 3.34776   2
   5 -11   1 19.0739 7.29269  -2
   5 -11   2 19.0739 7.29269   1
  -6  11   0 140.516 13.6928  -2
   6 -11   2 140.516 13.6928   1
  -4 -10   9 33.7627 5.18429  -2
  -4 -10   2 33.7627 5.18429   1
  -3 -10   8 34.2181 5.03420  -2
  -3 -10   2 34.2181 5.03420   1
  -2 -10   7 -0.4500 1.93576  -2
  -2 -10   2 -0.4500 1.93576   1
  -1 -10   6 15.7052 2.44983  -2
  -1 -10   2 15.7052 2.44983   1
   0 -10   5 395.222 20.6828  -2
   0 -10   2 395.222 20.6828   1
   1 -10   4 45.3294 3.72150  -2
   1 -10   2 45.3294 3.72150   1
   2 -10   3 276.866 14.7374  -2
   2 -10   2 276.866 14.7374   1
   3 -10   2 852.512 43.4106  -2
   3 -10   2 852.512 43.4106   1
   4 -10   1 102.417 6.36757  -2
   4 -10   2 102.417 6.36757   1
  -6  10   1 308.652 23.5223  -2
   6 -10   2 308.652 23.5223   1
  -7  10   2 5.07026 4.79564  -2
   7 -10   2 5.07026 4.79564   1
  -8  10   3 -0.6601 4.05582  -2
   8 -10   2 -0.6601 4.05582   1
  -5  -9   9 31.2136 7.65912  -2
  -5  -9   2 31.2136 7.65912   1
  -4  -9   8 140.970 12.9436  -2
  -4  -9   2 140.970 12.9436   1
  -3  -9   7 684.671 49.7492  -2
  -3  -9   2 684.671 49.7492   1
  -2  -9   6 154.142 9.17727  -2
  -2  -9   2 154.142 9.17727   1
  -2  -9   2 84.2818 7.59155   2
  -1  -9   5 225.947 17.3619  -2
  -1  -9   2 225.947 17.3619   1
  -1  -9   2 106.237 9.13213   1
   0  -9   2 254.849 16.4550   1
   0  -9   4 427.055 31.3900  -2
   0  -9   2 427.055 31.3900   1
   0  -9   2 213.185 10.7189   2
   1  -9   2 27.2083 3.48478   1
   1  -9   2 22.9170 2.19549   2
   1  -9   3 28.3308 4.72207  -2
   1  -9   2 28.3308 4.72207   1
   2  -9   2 1.41581 4.29561  -2
   2  -9   2 1.41581 4.29561   1
   2  -9   2 2.05180 1.79045   1
   2  -9   2 1.67663 1.13846   2
   3  -9   2 19.2836 2.69979   2
   3  -9   1 164.798 13.3817  -2
   3  -9   2 164.798 13.3817   1
   3  -9   2 29.1223 3.97136   1
  -4   9   0 43.9534 6.16377  -2
   4  -9   2 43.9534 6.16377   1
   4  -9   2 4.41326 1.59583   2
   4  -9   2 7.54523 2.32228   1
  -5   9   1 199.985 15.9928  -2
   5  -9   2 199.985 15.9928   1
   5  -9   2 86.6608 8.14267   2
   5  -9   2 108.007 10.5470   1
   6  -9   2 232.305 12.9578   2
  -8   9   4 187.538 16.8256  -2
   8  -9   2 187.538 16.8256   1
   9  -9   2 142.141 13.0833   2
   9  -9   2 201.153 17.0092   1
  -7  -8   2 17.8844 4.35299   1
  -7  -8   2 15.1958 2.96052   2
  -6  -8  10 170.247 14.9377  -2
  -6  -8   2 170.247 14.9377   1
  -6  -8   2 47.9568 4.05741   2
  -5  -8   2 15.8625 3.47770   2
  -4  -8   2 1.58707 1.60017   1
  -4  -8   2 1.78688 1.64676   2
  -3  -8   2 34.2463 3.13276   1
  -3  -8   2 22.3592 2.14473   2
  -2  -8   2 22.6728 1.61825   2
  -2  -8   2 24.9185 2.44302   1
  -1  -8   2 126.054 6.49205   1
  -1  -8   2 103.972 4.21900   2
   0  -8   2 852.981 35.6392   1
   0  -8   2 696.398 27.7689   2
   1  -8   2 86.9488 3.51748   1
   1  -8   2 72.3812 3.38448   2
   2  -8   2 178.212 6.55557   2
   2  -8   2 212.969 8.73466   1
   3  -8   2 918.422 46.4621   1
   3  -8   2 759.385 31.8599   2
   4  -8   2 54.1309 3.75371   1
   4  -8   2 38.8024 3.00770   2
   5  -8   2 59.4350 4.24784   2
   5  -8   2 61.9057 3.98209   1
   6  -8   2 38.7697 3.71916   2
   6  -8   2 47.0947 5.48634   1
   7  -8   2 -1.4936 2.01281   2
   7  -8   2 2.51733 2.52003   1
   8  -8   2 7.19677 3.12099   2
  -8   8   4 10.7236 7.05946  -2
   8  -8   2 10.7236 7.05946   1
  -9   8   5 173.610 16.1354  -2
   9  -8   2 173.610 16.1354   1
   9  -8   2 57.9135 7.71223   2
  -7  -7  10 32.2587 6.30131  -2
  -7  -7   2 32.2587 6.30131   1
  -6  -7   9 480.346 35.2296  -2
  -6  -7   2 480.346 35.2296   1
  -5  -7   8 113.818 6.92917  -2
  -5  -7   2 113.818 6.92917   1
  -4  -7   7 399.203 20.6646  -2
  -4  -7   2 399.203 20.6646   1
  -3  -7   6 1275.87 65.9536  -2
  -3  -7   2 1275.87 65.9536   1
  -2  -7   5 173.190 11.4075  -2
  -2  -7   2 173.190 11.4075   1
  -1  -7   4 338.654 19.2396  -2
  -1  -7   2 338.654 19.2396   1
   0  -7   3 61.6098 4.77773  -2
   0  -7   2 61.6098 4.77773   1
   1  -7   2 4.85607 1.16689  -2
   1  -7   2 4.85607 1.16689   1
   2  -7   1 252.270 11.1645  -2
   2  -7   2 252.270 11.1645   1
  -3   7   0 570.953 23.8012  -2
   3  -7   2 570.953 23.8012   1
  -4   7   1 235.136 11.5298  -2
   4  -7   2 235.136 11.5298   1
  -5   7   2 566.143 33.9054  -2
   5  -7   2 566.143 33.9054   1
  -7   7   4 141.109 11.8742  -2
   7  -7   2 141.109 11.8742   1
  -9   7   6 236.740 19.1795  -2
   9  -7   2 236.740 19.1795   1
  -7  -6   9 52.7325 6.75441  -2
  -7  -6   2 52.7325 6.75441   1
  -6  -6   8 70.7393 7.13251  -2
  -6  -6   2 70.7393 7.13251   1
  -5  -6   7 -1.5414 3.58986  -2
  -5  -6   2 -1.5414 3.58986   1
  -4  -6   6 30.4083 3.23633  -2
  -4  -6   2 30.4083 3.23633   1
  -3  -6   5 871.665 36.6453  -2
  -3  -6   2 871.665 36.6453   1
  -2  -6   2 202.721 24.0900   1
  -2  -6   4 331.108 15.6758  -2
  -2  -6   2 331.108 15.6758   1
  -1  -6   3 573.217 26.9625  -2
  -1  -6   2 573.217 26.9625   1
  -1  -6   2 371.015 39.7634   1
  -1  -6   2 281.666 29.9927   2
   0  -6   2 2265.79 230.921   2
   0  -6   2 2901.61 295.678   1
   0  -6   2 5244.18 224.925  -2
   0  -6   2 5244.18 224.925   1
   1  -6   1 338.717 13.5732  -2
   1  -6   2 338.717 13.5732   1
   1  -6   2 156.878 12.3556   1
  -2   6   0 802.674 57.0812  -2
   2  -6   2 802.674 57.0812   1
   2  -6   2 402.467 25.5859   2
  -3   6   1 1152.03 58.0301  -2
   3  -6   2 1152.03 58.0301   1
   3  -6   2 796.297 81.5887   1
  -4   6   2 31.0050 2.47907  -2
   4  -6   2 31.0050 2.47907   1
  -5   6   3 7.48424 9.38629  -2
   5  -6   2 7.48424 9.38629   1
  -6   6   4 189.384 13.5305  -2
   6  -6   2 189.384 13.5305   1
  -7   6   5 108.797 9.90217  -2
   7  -6   2 108.797 9.90217   1
  -9   6   7 409.963 31.4073  -2
   9  -6   2 409.963 31.4073   1
 -10   6   8 77.4991 11.5171  -2
  10  -6   2 77.4991 11.5171   1
  -9  -5   2 95.5364 9.61097   2
  -8  -5   2 58.4458 6.31379   1
  -8  -5   2 52.1520 6.36265   2
  -7  -5   2 103.895 8.68991   1
  -7  -5   2 90.0290 5.42994   2
  -6  -5   2 624.758 29.0595   1
  -6  -5   2 588.809 28.4096   2
  -5  -5   2 240.491 11.0966   1
  -5  -5   2 197.165 8.85021   2
  -4  -5   2 249.918 10.5649   2
  -4  -5   2 292.822 12.9293   1
  -3  -5   2 543.897 17.0930   2
  -3  -5   2 674.010 28.2959   1
  -2  -5   2 35.4054 1.73883   2
  -2  -5   2 47.2497 2.61598   1
  -1  -5   2 4.37114 0.47696   1
  -1  -5   2 2.82043 0.51219   2
   0  -5   2 73.4215 2.50694   1
   0  -5   2 59.3700 2.42695   2
   1  -5   2 82.6358 3.64820   1
   1  -5   2 69.5634 2.73883   2
   2  -5   2 412.753 17.0654   1
   2  -5   2 315.721 13.6326   2
   3  -5   2 1412.57 58.2621   1
   3  -5   2 1142.86 58.4538   2
   4  -5   2 213.393 10.3093   2
   4  -5   2 252.899 10.8421   1
   5  -5   2 485.722 20.6393   1
   5  -5   2 391.885 17.1259   2
   6  -5   2 806.655 34.2386   2
   6  -5   2 986.123 50.9380   1
   7  -5   2 29.7864 3.04256   2
   7  -5   2 31.5247 4.35124   1
   8  -5   2 51.0973 4.12308   2
   8  -5   2 67.1318 6.92115   1
   9  -5   2 40.8709 3.81157   2
   9  -5   2 52.1488 6.76349   1
  10  -5   2 -0.8057 3.91260   1
  10  -5   2 6.55919 3.82716   2
 -10  -4   2 7.21343 3.81944   2
  -8  -4   9 42.7656 5.87936  -2
  -8  -4   2 42.7656 5.87936   1
  -7  -4   8 11.7552 4.71123  -2
  -7  -4   2 11.7552 4.71123   1
  -6  -4   7 71.4809 4.42861  -2
  -6  -4   2 71.4809 4.42861   1
  -5  -4   6 38.2625 3.04169  -2
  -5  -4   2 38.2625 3.04169   1
  -4  -4   5 110.162 8.03005  -2
  -4  -4   2 110.162 8.03005   1
  -4  -4   2 64.5040 11.6161   2
  -3  -4   2 2125.05 124.174   1
  -3  -4   2 1739.81 178.484   2
  -3  -4   4 3165.72 223.755  -2
  -3  -4   2 3165.72 223.755   1
  -2  -4   2 466.805 18.7399   2
  -2  -4   3 867.582 61.9134  -2
  -2  -4   2 867.582 61.9134   1
  -2  -4   2 580.882 34.1675   1
  -1  -4   2 683.768 27.2310   2
  -1  -4   2 844.035 29.2275   1
   0  -4   2 3278.45 120.137   1
   0  -4   2 2743.39 107.801   2
   0  -4   1 5255.56 538.557  -2
   0  -4   2 5255.56 538.557   1
   1  -4   2 173.397 12.6617   1
   1  -4   2 128.132 9.40958   2
   2  -4   2 111.591 8.37055   2
   2  -4   2 136.776 8.35978   1
   3  -4   2 346.686 17.9836   1
  -4   4   3 3.85394 1.65716  -2
   4  -4   2 3.85394 1.65716   1
   4  -4   2 1.12995 3.67132   1
  -5   4   4 74.6005 5.76817  -2
   5  -4   2 74.6005 5.76817   1
  -6   4   5 653.596 39.7479  -2
   6  -4   2 653.596 39.7479   1
  -7   4   6 189.951 15.0978  -2
   7  -4   2 189.951 15.0978   1
  -8   4   7 313.067 24.0347  -2
   8  -4   2 313.067 24.0347   1
 -10   4   9 108.675 12.4896  -2
  10  -4   2 108.675 12.4896   1
  -8  -3   8 169.053 9.33206  -2
  -8  -3   2 169.053 9.33206   1
  -7  -3   7 403.034 18.1640  -2
  -7  -3   2 403.034 18.1640   1
  -6  -3   6 1792.09 91.9780  -2
  -6  -3   2 1792.09 91.9780   1
  -5  -3   5 444.091 20.5796  -2
  -5  -3   2 444.091 20.5796   1
  -4  -3   4 314.444 14.6368  -2
  -4  -3   2 314.444 14.6368   1
  -3  -3   3 533.325 27.5203  -2
  -3  -3   2 533.325 27.5203   1
  -2  -3   2 9.93576 0.82202  -2
  -2  -3   2 9.93576 0.82202   1
  -1  -3   1 166.820 5.32858  -2
  -1  -3   2 166.820 5.32858   1
   0   3   0 3767.63 188.857  -2
   0  -3   2 3767.63 188.857   1
  -1   3   1 813.774 37.1857  -2
   1  -3   2 813.774 37.1857   1
  -2   3   2 2499.36 112.113  -2
   2  -3   2 2499.36 112.113   1
  -3   3   3 4442.39 199.802  -2
   3  -3   2 4442.39 199.802   1
   3  -3   2 3382.23 238.605   1
  -4   3   4 630.568 66.5518  -2
   4  -3   2 630.568 66.5518   1
  -5   3   5 599.571 36.1376  -2
   5  -3   2 599.571 36.1376   1
  -6   3   6 803.767 48.3805  -2
   6  -3   2 803.767 48.3805   1
  -7   3   7 6.35594 4.41771  -2
   7  -3   2 6.35594 4.41771   1
  -8   3   8 20.2292 5.97829  -2
   8  -3   2 20.2292 5.97829   1
 -10   3  10 38.3422 10.1022  -2
  10  -3   2 38.3422 10.1022   1
 -10  -2   2 9.12799 3.45243   2
  -9  -2   2 10.4214 4.56149   1
  -9  -2   2 18.6832 3.25107   2
  -8  -2   2 2.88447 1.53543   1
  -8  -2   2 -6.3011 1.84583   2
  -7  -2   2 26.2222 3.27662   2
  -7  -2   2 32.3906 2.58411   1
  -6  -2   2 545.437 22.8381   1
  -6  -2   2 495.123 26.1570   2
  -5  -2   2 256.996 9.54638   1
  -5  -2   2 238.347 12.9673   2
  -4  -2   2 407.149 16.4769   2
  -4  -2   2 477.069 20.0089   1
  -3  -2   2 3551.04 145.984   2
  -3  -2   2 4348.44 154.761   1
  -2  -2   2 497.669 15.5279   1
  -2  -2   2 389.916 13.9452   2
  -1  -2   2 594.863 18.5310   2
  -1  -2   2 725.040 25.0782   1
   0  -2   2 3315.28 117.723   1
   0  -2   2 2290.02 103.258   2
   1  -2   2 45.8078 1.62924   1
   1  -2   2 39.0487 1.98474   2
   2  -2   2 39.6443 1.66824   2
   2  -2   2 47.8287 1.97491   1
   4  -2   2 72.5446 3.26833   1
   4  -2   2 61.5852 2.67970   2
   5  -2   2 188.860 7.14930   2
   5  -2   2 227.749 14.7451   1
   6  -2   2 960.203 50.0177   1
   6  -2   2 772.897 33.1354   2
   7  -2   2 79.1951 4.54897   2
   7  -2   2 93.1266 8.21620   1
   8  -2   2 279.902 14.8427   2
   8  -2   2 328.412 24.9065   1
   9  -2   2 215.939 17.5232   2
   9  -2   2 202.400 17.2819   1
  10  -2   2 16.0237 5.46015   1
  10  -2   2 17.9309 5.52244   2
 -10  -1   2 26.2088 3.86113   2
  -9  -1   2 480.853 35.8442   1
  -9  -1   2 465.933 30.5150   2
  -8  -1   2 210.258 12.7732   2
  -8  -1   2 249.583 11.3472   1
  -7  -1   2 163.306 7.63183   2
  -7  -1   2 180.296 8.75966   1
  -6  -1   2 775.085 32.5019   1
  -6  -1   2 641.519 23.1986   2
  -5  -1   2 167.583 6.32108   2
  -5  -1   2 208.050 9.15949   1
  -4  -1   2 167.929 6.29267   2
  -4  -1   2 202.136 7.52588   1
  -3  -1   2 102.186 3.76915   2
  -3  -1   2 128.299 9.30289   1
  -2  -1   2 1091.50 43.1560   1
  -2  -1   2 899.625 28.6705   2
  -1  -1   2 1081.61 34.3758   2
  -1  -1   2 1387.94 44.1417   1
   0  -1   2 3374.22 151.850   2
   0  -1   2 3784.64 155.680   1
   1  -1   2 847.303 30.2095   1
   1  -1   2 667.115 27.6944   2
   2  -1   2 1283.77 48.7827   1
   2  -1   2 1039.03 42.9980   2
   3  -1   2 2889.67 102.990   1
   3  -1   2 2263.89 78.2291   2
   4  -1   2 153.322 6.98664   1
   4  -1   2 120.427 4.72768   2
   5  -1   2 110.129 4.72321   2
   5  -1   2 149.124 7.12296   1
   6  -1   2 230.170 10.6720   1
   6  -1   2 190.768 7.48399   2
   7  -1   2 -1.4517 1.11093   2
   7  -1   2 -0.9912 2.33796   1
   8  -1   2 16.0091 3.74170   2
   8  -1   2 11.7157 3.68740   1
  10  -1   2 15.1610 6.19834   1
 -10   0   8 18.0191 5.90356  -2
 -10   0   2 18.0191 5.90356   1
  -9   0   7 36.3887 5.47822  -2
  -9   0   2 36.3887 5.47822   1
  -8   0   6 40.0695 5.27487  -2
  -8   0   2 40.0695 5.27487   1
  -7   0   5 198.395 9.11438  -2
  -7   0   2 198.395 9.11438   1
  -6   0   4 2350.36 97.0419  -2
  -6   0   2 2350.36 97.0419   1
  -5   0   3 597.229 24.9988  -2
  -5   0   2 597.229 24.9988   1
  -4   0   2 248.501 9.10630  -2
  -4   0   2 248.501 9.10630   1
  -3   0   1 9711.92 489.080  -2
  -3   0   2 9711.92 489.080   1
   2   0   0 2286.99 63.7093  -2
  -2   0   2 2286.99 63.7093   1
   1   0   1 966.744 30.8422  -2
  -1   0   2 966.744 30.8422   1
   0   0   2 1611.95 51.4686  -2
   0   0   2 1611.95 51.4686   1
  -1   0   3 26.5169 1.63656  -2
   1   0   2 26.5169 1.63656   1
  -2   0   4 20.9155 1.65052  -2
   2   0   2 20.9155 1.65052   1
  -3   0   5 1359.49 56.2907  -2
   3   0   2 1359.49 56.2907   1
  -4   0   6 845.553 49.9086  -2
   4   0   2 845.553 49.9086   1
  -5   0   7 716.496 30.1305  -2
   5   0   2 716.496 30.1305   1
  -6   0   8 1384.54 57.4744  -2
   6   0   2 1384.54 57.4744   1
  -7   0   9 220.031 16.2826  -2
   7   0   2 220.031 16.2826   1
  -8   0  10 134.132 12.0580  -2
   8   0   2 134.132 12.0580   1
  -9   0  11 154.909 14.1733  -2
   9   0   2 154.909 14.1733   1
 -11   1   2 76.2375 10.0476   1
 -10   1   2 51.3362 6.63852   1
  -9   1   2 458.283 28.1650   2
  -9   1   2 548.148 39.9590   1
  -8   1   2 181.314 8.41614   2
  -8   1   2 215.470 12.9327   1
  -7   1   2 80.3520 3.96321   2
  -7   1   2 90.5151 4.57607   1
  -6   1   2 161.994 7.29030   1
  -6   1   2 132.290 6.16414   2
  -5   1   2 0.37300 0.43675   1
  -5   1   2 -1.0655 0.46643   2
  -4   1   2 111.459 4.28435   1
  -4   1   2 100.965 3.84808   2
  -3   1   2 1050.89 37.4847   1
  -3   1   2 917.502 46.7858   2
  -2   1   2 808.550 21.0438   1
  -2   1   2 736.832 28.0214   2
  -1   1   2 1276.40 48.4501   2
  -1   1   2 1529.53 63.0108   1
   0   1   2 4033.49 166.141   1
   0   1   2 3520.36 144.876   2
   1   1   2 429.969 18.1120   2
   1   1   2 454.128 19.0763   1
   2   1   2 376.201 15.7601   2
   2   1   2 447.518 18.9930   1
   3   1   2 1472.24 61.0816   1
   3   1   2 1227.13 42.7566   2
   4   1   2 50.8367 2.49128   2
   4   1   2 55.1438 3.59346   1
   5   1   2 15.9987 1.73291   1
   5   1   2 13.0204 1.08139   2
   6   1   2 -2.6000 1.56867   1
   6   1   2 1.16865 0.97189   2
   7   1   2 7.81278 1.93246   2
   7   1   2 -2.4877 3.58147   1
   8   1   2 69.0409 9.38684   1
   8   1   2 66.9382 6.81418   2
   9   1   2 95.7639 10.7204   2
   9   1   2 109.966 12.9264   1
 -11   2   2 -0.7880 3.75897   1
 -10   2   2 4.91776 2.85207   1
  -9   2   2 277.809 17.3675   2
  -9   2   2 283.855 21.2023   1
  -8   2   2 86.7794 4.71602   2
  -8   2   2 110.717 7.57038   1
  -7   2   2 155.171 7.36089   2
  -7   2   2 172.395 10.2096   1
  -6   2   2 2008.33 71.5821   1
  -6   2   2 1747.32 72.3082   2
  -5   2   2 502.295 18.2095   2
  -5   2   2 576.908 20.7667   1
  -4   2   2 347.077 20.8583   2
  -4   2   2 418.263 17.6649   1
  -3   2   2 1807.90 92.0167   2
  -3   2   2 2253.28 77.7930   1
  -2   2   2 65.0622 2.43799   1
  -2   2   2 51.5247 1.81516   2
  -1   2   2 1.95748 0.51691   1
  -1   2   2 1.59638 0.38616   2
   0   2   2 23.0065 1.28987   2
   0   2   2 22.0620 1.49131   1
   1   2   2 75.2375 3.86334   1
   1   2   2 61.2040 2.99742   2
   2   2   2 345.804 16.2509   1
   2   2   2 314.482 13.5492   2
   3   2   2 1075.28 45.0820   1
   3   2   2 903.051 37.4370   2
   4   2   2 222.737 10.5025   1
   4   2   2 185.035 7.04915   2
   5   2   2 333.094 12.0775   2
   5   2   2 398.244 17.9839   1
   6   2   2 586.440 28.1192   1
   6   2   2 509.219 24.7499   2
   7   2   2 44.4252 4.06360   2
   7   2   2 55.7742 7.05191   1
   8   2   2 51.4510 4.44171   2
   8   2   2 63.4256 9.03439   1
 -12   3   2 248.861 20.6155   1
 -10   3   6 186.141 15.1294  -2
 -10   3   2 186.141 15.1294   1
  -9   3   5 771.385 55.8250  -2
  -9   3   2 771.385 55.8250   1
  -8   3   4 112.663 8.66444  -2
  -8   3   2 112.663 8.66444   1
  -7   3   3 59.1594 12.6253  -2
  -7   3   2 59.1594 12.6253   1
  -6   3   2 45.6856 3.65888  -2
  -6   3   2 45.6856 3.65888   1
  -5   3   1 109.068 5.17509  -2
  -5   3   2 109.068 5.17509   1
  -4   3   0 213.018 10.0704  -2
  -4   3   2 213.018 10.0704   1
   3  -3   1 4019.20 147.457  -2
  -3   3   2 4019.20 147.457   1
   2  -3   2 2546.76 114.612  -2
  -2   3   2 2546.76 114.612   1
   1  -3   3 1623.55 67.5181  -2
  -1   3   2 1623.55 67.5181   1
   0  -3   4 5224.45 215.404  -2
   0   3   2 5224.45 215.404   1
  -1  -3   5 751.588 34.6179  -2
   1   3   2 751.588 34.6179   1
  -2  -3   6 321.420 15.3118  -2
   2   3   2 321.420 15.3118   1
  -3  -3   7 440.493 24.3498  -2
   3   3   2 440.493 24.3498   1
  -4  -3   8 27.8907 3.01071  -2
   4   3   2 27.8907 3.01071   1
  -5  -3   9 69.5154 4.64926  -2
   5   3   2 69.5154 4.64926   1
  -6  -3  10 274.815 14.8445  -2
   6   3   2 274.815 14.8445   1
  -7  -3  11 123.812 12.1287  -2
   7   3   2 123.812 12.1287   1
  -8  -3  12 86.2661 11.5594  -2
   8   3   2 86.2661 11.5594   1
 -10   4   5 58.7324 7.66821  -2
 -10   4   2 58.7324 7.66821   1
  -9   4   4 978.665 70.5853  -2
  -9   4   2 978.665 70.5853   1
  -7   4   2 384.264 23.9943  -2
  -7   4   2 384.264 23.9943   1
  -7   4   2 168.622 12.1026   2
  -6   4   1 3147.41 141.873  -2
  -6   4   2 3147.41 141.873   1
  -5   4   0 456.285 26.6971  -2
  -5   4   2 456.285 26.6971   1
  -5   4   2 221.906 25.7059   2
  -4   4   2 48.1024 3.12667   2
   4  -4   1 115.289 5.80028  -2
  -4   4   2 115.289 5.80028   1
  -4   4   2 57.1815 3.81998   1
  -3   4   2 353.612 18.2410   2
   3  -4   2 729.861 33.2658  -2
  -3   4   2 729.861 33.2658   1
   2  -4   3 1.08618 1.67495  -2
  -2   4   2 1.08618 1.67495   1
  -2   4   2 7.48837 2.21914   2
   1  -4   4 83.4763 4.36520  -2
  -1   4   2 83.4763 4.36520   1
   0  -4   5 993.592 52.1897  -2
   0   4   2 993.592 52.1897   1
  -1  -4   6 360.083 46.0089  -2
   1   4   2 360.083 46.0089   1
  -2  -4   7 256.345 13.6251  -2
   2   4   2 256.345 13.6251   1
  -3  -4   8 1692.64 70.9311  -2
   3   4   2 1692.64 70.9311   1
  -4  -4   9 697.148 32.7048  -2
   4   4   2 697.148 32.7048   1
  -5  -4  10 302.129 16.3953  -2
   5   4   2 302.129 16.3953   1
  -6  -4  11 296.487 16.5343  -2
   6   4   2 296.487 16.5343   1
 -11   5   2 55.2220 7.87337   2
 -11   5   2 57.0678 7.35910   1
 -10   5   2 17.8578 3.38492   2
 -10   5   2 22.9450 3.80446   1
  -9   5   2 24.8990 3.51568   2
  -9   5   2 29.9174 3.83854   1
  -8   5   2 5.03633 1.92066   1
  -8   5   2 6.85638 2.12580   2
  -7   5   2 12.3579 1.75443   1
  -7   5   2 13.0500 2.40352   2
  -6   5   2 238.867 13.3372   2
  -6   5   2 266.046 11.7801   1
  -5   5   2 266.165 9.70434   2
  -5   5   2 313.363 13.6191   1
  -4   5   2 379.009 16.2487   1
  -4   5   2 305.831 13.0081   2
  -3   5   2 1559.88 70.0259   2
  -3   5   2 1857.92 77.0742   1
  -2   5   2 410.357 20.8620   2
  -2   5   2 494.422 22.7192   1
  -1   5   2 325.581 15.4002   1
  -1   5   2 315.006 16.1286   2
   0   5   2 843.845 38.3078   2
   0   5   2 1054.85 44.1405   1
   1   5   2 31.2079 2.09862   2
   1   5   2 38.5263 2.78407   1
   2   5   2 -1.2419 0.87925   2
   2   5   2 -0.5922 1.22493   1
   3   5   2 7.57027 1.58504   1
   3   5   2 1.42295 1.06849   2
   4   5   2 1.03067 1.70174   2
   4   5   2 0.42128 1.75281   1
   5   5   2 53.1362 4.46232   1
   5   5   2 48.9259 4.24663   2
   6   5   2 145.471 10.4480   1
   6   5   2 124.569 7.79091   2
   7   5   2 4.07566 3.03251   2
   7   5   2 10.0887 4.60908   1
 -11   6   5 74.1998 10.4828  -2
 -11   6   2 74.1998 10.4828   1
  -8   6   2 180.910 14.4874  -2
  -8   6   2 180.910 14.4874   1
  -7   6   1 149.478 12.0488  -2
  -7   6   2 149.478 12.0488   1
  -6   6   0 1154.76 48.2190  -2
  -6   6   2 1154.76 48.2190   1
   5  -6   1 293.902 13.5719  -2
  -5   6   2 293.902 13.5719   1
  -5   6   2 72.1450 12.2883   2
   4  -6   2 13.9400 3.45661  -2
  -4   6   2 13.9400 3.45661   1
   3  -6   3 13.1320 14.7449  -2
  -3   6   2 13.1320 14.7449   1
   2  -6   4 24.2924 2.98023  -2
  -2   6   2 24.2924 2.98023   1
   1  -6   5 168.136 11.0217  -2
  -1   6   2 168.136 11.0217   1
   0  -6   6 1107.30 51.2297  -2
   0   6   2 1107.30 51.2297   1
  -1  -6   7 497.019 24.4236  -2
   1   6   2 497.019 24.4236   1
  -2  -6   8 323.397 16.4570  -2
   2   6   2 323.397 16.4570   1
  -3  -6   9 828.200 42.3837  -2
   3   6   2 828.200 42.3837   1
  -4  -6  10 196.912 11.5537  -2
   4   6   2 196.912 11.5537   1
  -6  -6  12 27.7651 7.19094  -2
   6   6   2 27.7651 7.19094   1
 -11   7   4 58.6578 8.95834  -2
 -11   7   2 58.6578 8.95834   1
  -8   7   1 68.5010 7.11208  -2
  -8   7   2 68.5010 7.11208   1
  -7   7   0 130.349 10.8211  -2
  -7   7   2 130.349 10.8211   1
   6  -7   1 906.526 65.3537  -2
  -6   7   2 906.526 65.3537   1
   5  -7   2 536.794 25.1460  -2
  -5   7   2 536.794 25.1460   1
   4  -7   3 341.952 15.8595  -2
  -4   7   2 341.952 15.8595   1
   3  -7   4 1892.03 78.8184  -2
  -3   7   2 1892.03 78.8184   1
   2  -7   5 255.875 12.1720  -2
  -2   7   2 255.875 12.1720   1
   1  -7   6 72.3937 4.76280  -2
  -1   7   2 72.3937 4.76280   1
   0  -7   7 197.855 10.8620  -2
   0   7   2 197.855 10.8620   1
  -1  -7   8 10.6017 3.11307  -2
   1   7   2 10.6017 3.11307   1
  -2  -7   9 16.4036 3.63804  -2
   2   7   2 16.4036 3.63804   1
  -3  -7  10 169.609 14.8503  -2
   3   7   2 169.609 14.8503   1
  -4  -7  11 133.389 12.0307  -2
   4   7   2 133.389 12.0307   1
  -5  -7  12 76.4669 7.57929  -2
   5   7   2 76.4669 7.57929   1
 -10   8   2 32.8223 4.85279   1
 -10   8   2 30.5742 4.76970   2
  -9   8   2 294.979 22.7806   2
  -9   8   2 341.530 25.8864   1
  -8   8   2 74.3542 8.70344   1
  -7   8   2 21.7343 3.56722   2
  -7   8   2 25.7006 3.66199   1
  -6   8   2 81.3472 5.55979   1
  -6   8   2 62.5771 5.40232   2
  -5   8   2 -2.2777 1.81891   2
  -5   8   2 0.48993 1.53505   1
  -4   8   2 7.20292 1.62340   1
  -4   8   2 9.29876 1.61584   2
  -3   8   2 145.673 8.01279   2
  -3   8   2 173.209 9.56108   1
  -2   8   2 80.2404 5.05819   1
  -2   8   2 68.7232 4.40940   2
  -1   8   2 147.587 8.20459   2
  -1   8   2 178.378 9.87744   1
   0   8   2 381.538 15.6392   2
   0   8   2 439.382 22.8959   1
   1   8   2 64.2650 4.17054   2
   1   8   2 79.6685 5.59237   1
   2   8   2 71.6318 5.58043   1
   2   8   2 40.2790 4.56081   2
   3   8   2 119.349 7.63514   2
  -3  -8  11 175.165 15.8482  -2
   3   8   2 175.165 15.8482   1
   3   8   2 157.339 14.0821   1
   4   8   2 24.9452 3.80478   2
   4   8   2 28.3827 3.84508   1
  -9   9   1 99.8145 11.5831  -2
  -9   9   2 99.8145 11.5831   1
  -8   9   0 60.6226 9.01195  -2
  -8   9   2 60.6226 9.01195   1
  -6   9   2 361.842 19.3168   1
  -5   9   2 145.952 12.2574   1
   5  -9   3 361.494 27.2631  -2
  -5   9   2 361.494 27.2631   1
  -4   9   2 70.2409 7.20283   1
   4  -9   4 97.2492 9.60152  -2
  -4   9   2 97.2492 9.60152   1
  -4   9   2 71.8097 7.13187   2
  -3   9   2 241.613 18.1065   2
  -3   9   2 290.639 15.5429   1
   2  -9   6 137.603 12.3815  -2
  -2   9   2 137.603 12.3815   1
  -2   9   2 31.6173 2.99202   2
  -2   9   2 37.2414 5.13585   1
  -1   9   2 2.91873 2.83793   2
  -1   9   2 -0.8243 2.30718   1
   1  -9   7 -0.9822 6.56086  -2
  -1   9   2 -0.9822 6.56086   1
   0   9   2 5.32830 3.06441   1
   0   9   2 0.78465 3.22564   2
   1   9   2 6.93225 3.63378   1
   1   9   2 4.53018 3.57871   2
  -1  -9   9 27.3922 7.76285  -2
   1   9   2 27.3922 7.76285   1
   2   9   2 35.4718 5.65037   1
   2   9   2 23.7094 4.89613   2
  -2  -9  10 28.5941 8.65764  -2
   2   9   2 28.5941 8.65764   1
   3   9   2 73.1067 8.09400   2
   3   9   2 81.1040 10.5400   1
  -3  -9  11 142.713 14.7500  -2
   3   9   2 142.713 14.7500   1
   8 -10   1 29.4387 6.29385  -2
  -8  10   2 29.4387 6.29385   1
   7 -10   2 4.66968 4.89526  -2
  -7  10   2 4.66968 4.89526   1
   6 -10   3 8.61968 3.64013  -2
  -6  10   2 8.61968 3.64013   1
   5 -10   4 7.18600 3.42180  -2
  -5  10   2 7.18600 3.42180   1
   4 -10   5 42.4156 4.34112  -2
  -4  10   2 42.4156 4.34112   1
   3 -10   6 394.483 29.5343  -2
  -3  10   2 394.483 29.5343   1
   2 -10   7 102.208 6.79020  -2
  -2  10   2 102.208 6.79020   1
   1 -10   8 89.6082 6.50417  -2
  -1  10   2 89.6082 6.50417   1
   0 -10   9 234.505 13.3695  -2
   0  10   2 234.505 13.3695   1
  -1 -10  10 144.065 9.39725  -2
   1  10   2 144.065 9.39725   1
   6 -11   4 307.018 24.4103  -2
  -6  11   2 307.018 24.4103   1
   5 -11   5 81.4587 8.36041  -2
  -5  11   2 81.4587 8.36041   1
   4 -11   6 22.5318 6.69720  -2
  -4  11   2 22.5318 6.69720   1
   3 -11   7 67.5756 7.84434  -2
  -3  11   2 67.5756 7.84434   1
   2 -11   8 6.44957 6.89707  -2
  -2  11   2 6.44957 6.89707   1
  -1 -12   3 9.35347 3.95929   2
  -1 -12   3 14.8533 4.23703   1
   0 -12   3 90.9743 9.51440   2
   0 -12   3 118.142 7.87435   1
   1 -12   3 12.9549 2.78645   1
   1 -12   3 7.63808 2.85561   2
   2 -12   3 40.3704 5.59738   2
   2 -12   3 56.2864 7.34671   1
   2 -12   3 105.828 12.0517  -2
   2 -12   3 105.828 12.0517   1
   3 -12   3 183.112 10.8492   2
   3 -12   3 227.986 12.9057   1
   4 -12   3 12.2688 4.02199   1
   4 -12   3 15.0128 4.89946   2
   5 -12   3 26.9334 4.77060   1
   5 -12   3 20.1767 4.33347   2
  -3 -11   8 275.615 22.7255  -2
  -3 -11   3 275.615 22.7255   1
  -2 -11   7 42.2202 9.07695  -2
  -2 -11   3 42.2202 9.07695   1
  -1 -11   6 119.805 12.1184  -2
  -1 -11   3 119.805 12.1184   1
   0 -11   5 220.586 12.7269  -2
   0 -11   3 220.586 12.7269   1
   1 -11   4 -10.127 6.90680  -2
   1 -11   3 -10.127 6.90680   1
   2 -11   3 9.12559 4.99737  -2
   2 -11   3 9.12559 4.99737   1
   3 -11   3 48.6857 6.33564   1
   3 -11   3 40.7922 5.15787   2
   4 -11   1 15.8916 6.97119  -2
   4 -11   3 15.8916 6.97119   1
   4 -11   3 7.58726 4.02264   1
   4 -11   3 12.9043 4.02953   2
  -5  11   0 128.462 12.3443  -2
   5 -11   3 128.462 12.3443   1
   5 -11   3 65.1223 8.71948   2
  -5 -10   9 3.70319 3.53949  -2
  -5 -10   3 3.70319 3.53949   1
  -4 -10   8 1.11095 3.18778  -2
  -4 -10   3 1.11095 3.18778   1
  -3 -10   7 68.5126 7.47089  -2
  -3 -10   3 68.5126 7.47089   1
  -2 -10   6 10.1814 2.31798  -2
  -2 -10   3 10.1814 2.31798   1
  -1 -10   5 133.133 7.77145  -2
  -1 -10   3 133.133 7.77145   1
   0 -10   4 764.164 39.0015  -2
   0 -10   3 764.164 39.0015   1
   1 -10   3 133.473 7.73845  -2
   1 -10   3 133.473 7.73845   1
   2 -10   2 297.053 15.7018  -2
   2 -10   3 297.053 15.7018   1
   3 -10   1 674.384 34.4883  -2
   3 -10   3 674.384 34.4883   1
  -4  10   0 5.68685 2.85617  -2
   4 -10   3 5.68685 2.85617   1
  -6  10   2 9.84255 5.00585  -2
   6 -10   3 9.84255 5.00585   1
  -7  10   3 8.38540 3.86002  -2
   7 -10   3 8.38540 3.86002   1
  -6  -9   9 334.013 26.0445  -2
  -6  -9   3 334.013 26.0445   1
  -5  -9   8 85.9822 10.0184  -2
  -5  -9   3 85.9822 10.0184   1
  -3  -9   6 482.957 35.6879  -2
  -3  -9   3 482.957 35.6879   1
  -3  -9   3 131.073 23.1944   2
  -2  -9   5 65.5051 5.24867  -2
  -2  -9   3 65.5051 5.24867   1
  -1  -9   3 26.5356 3.62608   1
  -1  -9   4 50.0856 5.98921  -2
  -1  -9   3 50.0856 5.98921   1
  -1  -9   3 21.4564 3.18619   2
   0  -9   3 7.68973 3.24932  -2
   0  -9   3 7.68973 3.24932   1
   0  -9   3 4.17527 1.66462   2
   0  -9   3 5.85551 5.24595   1
   1  -9   3 6.81190 1.28986   1
   1  -9   3 2.92630 1.11007   2
   1  -9   2 24.3932 4.98605  -2
   1  -9   3 24.3932 4.98605   1
   2  -9   3 53.9692 5.22518   1
   2  -9   1 126.759 10.5996  -2
   2  -9   3 126.759 10.5996   1
   2  -9   3 38.4937 8.57079   2
   3  -9   3 323.036 15.8543   1
  -3   9   0 749.753 54.3049  -2
   3  -9   3 749.753 54.3049   1
   4  -9   3 71.5028 6.91260   2
   4  -9   3 83.0389 7.17272   1
  -4   9   1 189.845 15.1942  -2
   4  -9   3 189.845 15.1942   1
   5  -9   3 214.846 16.8425   2
   6  -9   3 318.062 24.8619   2
  -7   9   4 50.0974 8.66383  -2
   7  -9   3 50.0974 8.66383   1
   7  -9   3 19.2449 3.28020   2
   8  -9   3 60.9244 7.86053   2
  -8   9   5 98.3139 11.9209  -2
   8  -9   3 98.3139 11.9209   1
  -7  -8  10 23.8742 8.08722  -2
  -7  -8   3 23.8742 8.08722   1
  -7  -8   3 1.34489 3.35794   2
  -6  -8   3 0.56376 2.92808   2
  -6  -8   9 53.1426 8.26025  -2
  -6  -8   3 53.1426 8.26025   1
  -5  -8   3 5.37953 2.78026   1
  -5  -8   3 7.31839 2.27610   2
  -4  -8   3 37.8322 5.07635   1
  -4  -8   3 34.5158 2.89884   2
  -3  -8   3 266.851 12.7376   2
  -3  -8   3 367.462 27.0581   1
  -3  -8   6 489.896 35.6385  -2
  -3  -8   3 489.896 35.6385   1
  -2  -8   3 80.9618 3.22481   2
  -2  -8   3 92.8705 5.44128   1
  -1  -8   3 161.223 6.18267   2
  -1  -8   3 179.918 8.54955   1
   0  -8   3 1297.15 44.9617   1
   0  -8   3 1106.31 38.4371   2
   1  -8   3 61.4660 2.72397   2
   1  -8   3 72.7833 3.38670   1
   2  -8   3 177.154 7.37947   1
   2  -8   3 148.714 7.06189   2
   3  -8   3 203.990 9.69487   2
   3  -8   3 265.894 13.8811   1
   4  -8   3 7.88938 1.55955   2
   4  -8   3 8.24077 1.46084   1
   5  -8   3 1.33582 1.59466   2
   5  -8   3 0.99315 2.04621   1
   6  -8   3 24.6599 2.95074   2
   6  -8   3 40.4347 3.89161   1
   7  -8   3 6.86079 3.59955   2
   8  -8   3 51.6310 5.57615   2
  -8   8   5 106.615 11.7814  -2
   8  -8   3 106.615 11.7814   1
   9  -8   3 127.723 12.1129   2
  -9   8   6 344.055 27.5245  -2
   9  -8   3 344.055 27.5245   1
  -8  -7  10 23.7966 6.76223  -2
  -8  -7   3 23.7966 6.76223   1
  -6  -7   8 649.971 47.0760  -2
  -6  -7   3 649.971 47.0760   1
  -5  -7   7 172.679 13.6705  -2
  -5  -7   3 172.679 13.6705   1
  -4  -7   6 259.293 13.6535  -2
  -4  -7   3 259.293 13.6535   1
  -3  -7   5 404.900 17.7346  -2
  -3  -7   3 404.900 17.7346   1
  -2  -7   4 145.087 7.18125  -2
  -2  -7   3 145.087 7.18125   1
  -1  -7   3 4.47549 1.79902  -2
  -1  -7   3 4.47549 1.79902   1
   0  -7   2 64.4984 2.89940  -2
   0  -7   3 64.4984 2.89940   1
   1  -7   1 300.269 14.5365  -2
   1  -7   3 300.269 14.5365   1
  -2   7   0 475.982 34.4937  -2
   2  -7   3 475.982 34.4937   1
  -3   7   1 1959.11 98.4820  -2
   3  -7   3 1959.11 98.4820   1
  -4   7   2 348.201 25.1277  -2
   4  -7   3 348.201 25.1277   1
  -5   7   3 413.160 25.2968  -2
   5  -7   3 413.160 25.2968   1
  -6   7   4 951.867 68.7697  -2
   6  -7   3 951.867 68.7697   1
  -7   7   5 34.6283 5.78337  -2
   7  -7   3 34.6283 5.78337   1
  -8   7   6 29.2884 6.19522  -2
   8  -7   3 29.2884 6.19522   1
  -9   7   7 23.2421 7.39967  -2
   9  -7   3 23.2421 7.39967   1
  -9  -6  10 98.6409 10.8634  -2
  -9  -6   3 98.6409 10.8634   1
  -7  -6   8 2.18086 4.74404  -2
  -7  -6   3 2.18086 4.74404   1
  -6  -6   7 123.797 10.4183  -2
  -6  -6   3 123.797 10.4183   1
  -5  -6   6 82.7312 4.57336  -2
  -5  -6   3 82.7312 4.57336   1
  -4  -6   5 338.204 16.0901  -2
  -4  -6   3 338.204 16.0901   1
  -3  -6   4 2533.54 114.318  -2
  -3  -6   3 2533.54 114.318   1
  -3  -6   3 1148.30 118.992   2
  -2  -6   3 252.295 11.0381  -2
  -2  -6   3 252.295 11.0381   1
  -1  -6   2 564.236 24.9154  -2
  -1  -6   3 564.236 24.9154   1
  -1  -6   3 316.546 33.5407   1
  -1  -6   3 256.599 27.9428   2
   0  -6   1 2283.21 108.158  -2
   0  -6   3 2283.21 108.158   1
   0  -6   3 1101.47 113.505   2
  -1   6   0 178.654 13.3274  -2
   1  -6   3 178.654 13.3274   1
  -3   6   2 51.1996 4.68175  -2
   3  -6   3 51.1996 4.68175   1
  -4   6   3 37.8241 3.88664  -2
   4  -6   3 37.8241 3.88664   1
  -5   6   4 189.202 14.7265  -2
   5  -6   3 189.202 14.7265   1
  -6   6   5 634.619 46.3028  -2
   6  -6   3 634.619 46.3028   1
  -7   6   6 225.618 17.9046  -2
   7  -6   3 225.618 17.9046   1
  -9   6   8 413.463 32.1049  -2
   9  -6   3 413.463 32.1049   1
  -9  -5   3 201.089 15.8702   1
  -9  -5   3 185.653 15.0487   2
  -8  -5   3 75.8521 7.54788   2
  -8  -5   3 81.5579 7.54459   1
  -7  -5   3 107.838 9.06110   2
  -7  -5   3 122.334 9.84357   1
  -6  -5   3 402.144 19.0143   1
  -6  -5   3 326.455 21.0403   2
  -5  -5   3 98.9582 5.27280   1
  -5  -5   3 83.5178 4.26319   2
  -4  -5   3 20.7472 1.40263   1
  -4  -5   3 13.8563 1.25888   2
  -3  -5   3 20.0100 1.77939   2
  -3  -5   3 24.3417 1.72783   1
  -2  -5   3 13.1497 0.92445   1
  -2  -5   3 9.60481 0.67400   2
  -1  -5   3 134.222 4.98448   2
  -1  -5   3 167.708 5.96568   1
   0  -5   3 1014.96 45.8102   2
   0  -5   3 1178.96 46.4756   1
   1  -5   3 281.527 12.1913   2
   1  -5   3 361.166 18.3700   1
   2  -5   3 666.083 27.9363   2
   2  -5   3 819.099 41.2896   1
   3  -5   3 1860.16 76.6762   1
   3  -5   3 1549.02 70.0972   2
   4  -5   3 105.316 5.53912   2
   4  -5   3 127.847 5.00841   1
   5  -5   3 183.082 9.14249   2
   5  -5   3 240.485 13.4857   1
   6  -5   3 264.531 13.3717   2
   6  -5   3 314.959 23.5076   1
   7  -5   3 2.20068 1.77769   2
   7  -5   3 3.80020 2.59256   1
   8  -5   3 -1.0733 2.21994   2
   9  -5   3 4.93260 3.85951   1
   9  -5   3 8.44157 5.79449   2
  -8  -4   8 2.60224 4.24530  -2
  -8  -4   3 2.60224 4.24530   1
  -7  -4   7 41.8251 4.79991  -2
  -7  -4   3 41.8251 4.79991   1
  -6  -4   6 968.262 40.7162  -2
  -6  -4   3 968.262 40.7162   1
  -5  -4   5 233.997 10.6773  -2
  -5  -4   3 233.997 10.6773   1
  -4  -4   4 824.481 58.8339  -2
  -4  -4   3 824.481 58.8339   1
  -4  -4   3 498.862 37.9523   1
  -4  -4   3 390.701 30.1457   2
  -3  -4   3 1888.85 137.012   2
  -3  -4   3 4210.60 211.094  -2
  -3  -4   3 4210.60 211.094   1
  -3  -4   3 2293.04 166.042   1
  -2  -4   3 322.020 13.0467   1
  -2  -4   2 798.418 56.7742  -2
  -2  -4   3 798.418 56.7742   1
  -2  -4   3 270.512 11.5128   2
  -1  -4   3 286.012 17.1102   2
  -1  -4   3 348.197 17.8771   1
  -1  -4   1 671.079 31.8652  -2
  -1  -4   3 671.079 31.8652   1
   0   4   0 3533.80 249.621  -2
   0  -4   3 3533.80 249.621   1
   0  -4   3 1481.01 105.482   1
   0  -4   3 1138.66 53.7729   2
  -1   4   1 25.6669 2.76917  -2
   1  -4   3 25.6669 2.76917   1
   1  -4   3 2.40722 0.89577   1
  -2   4   2 5.66009 1.86335  -2
   2  -4   3 5.66009 1.86335   1
   2  -4   3 1.50983 1.93217   1
  -3   4   3 326.409 19.4093  -2
   3  -4   3 326.409 19.4093   1
   3  -4   3 199.533 22.5829   1
  -4   4   4 231.276 10.9564  -2
   4  -4   3 231.276 10.9564   1
  -5   4   5 396.564 24.7427  -2
   5  -4   3 396.564 24.7427   1
  -6   4   6 1524.76 109.358  -2
   6  -4   3 1524.76 109.358   1
  -7   4   7 301.911 23.0901  -2
   7  -4   3 301.911 23.0901   1
  -9   4   9 325.731 26.0067  -2
   9  -4   3 325.731 26.0067   1
  -8  -3   7 240.435 15.1942  -2
  -8  -3   3 240.435 15.1942   1
  -7  -3   6 309.752 14.2009  -2
  -7  -3   3 309.752 14.2009   1
  -6  -3   5 823.533 43.1091  -2
  -6  -3   3 823.533 43.1091   1
  -5  -3   4 70.9492 5.08216  -2
  -5  -3   3 70.9492 5.08216   1
  -4  -3   3 17.1057 1.23870  -2
  -4  -3   3 17.1057 1.23870   1
  -3  -3   2 552.670 28.4849  -2
  -3  -3   3 552.670 28.4849   1
  -2  -3   1 270.158 9.55821  -2
  -2  -3   3 270.158 9.55821   1
   1   3   0 1092.58 37.8144  -2
  -1  -3   3 1092.58 37.8144   1
   0   3   1 4408.60 181.905  -2
   0  -3   3 4408.60 181.905   1
  -1   3   2 1729.21 71.3904  -2
   1  -3   3 1729.21 71.3904   1
  -2   3   3 1168.75 52.7755  -2
   2  -3   3 1168.75 52.7755   1
  -3   3   4 2971.48 133.812  -2
   3  -3   3 2971.48 133.812   1
  -4   3   5 296.291 13.8014  -2
   4  -3   3 296.291 13.8014   1
  -5   3   6 49.6601 5.06562  -2
   5  -3   3 49.6601 5.06562   1
  -6   3   7 143.258 11.8981  -2
   6  -3   3 143.258 11.8981   1
  -7   3   8 76.1504 8.30524  -2
   7  -3   3 76.1504 8.30524   1
  -9   3  10 249.284 20.9461  -2
   9  -3   3 249.284 20.9461   1
 -11  -2   3 -1.0661 3.40855   2
 -10  -2   3 6.34031 2.85803   2
  -9  -2   3 46.9868 19.5273   1
  -9  -2   3 60.6234 6.11928   2
  -8  -2   3 71.3538 4.19482   1
  -8  -2   3 57.7197 5.05836   2
  -7  -2   3 161.251 6.36195   1
  -7  -2   3 136.914 8.72465   2
  -6  -2   3 1414.82 58.5265   1
  -6  -2   3 1295.63 66.2722   2
  -5  -2   3 303.354 11.1133   1
  -5  -2   3 253.630 9.51772   2
  -4  -2   3 354.803 15.0152   1
  -4  -2   3 293.280 10.7433   2
  -3  -2   3 2921.95 115.300   1
  -3  -2   3 2452.87 87.4185   2
  -2  -2   3 173.371 7.11029   1
  -2  -2   3 143.595 6.78763   2
  -1  -2   3 98.6860 4.38616   2
  -1  -2   3 117.912 4.37525   1
   0  -2   3 57.3003 3.01513   2
   0  -2   3 75.6631 3.61965   1
   1  -2   3 21.1438 1.34197   1
   1  -2   3 15.0891 1.32665   2
   2  -2   3 242.489 10.6238   2
   2  -2   3 314.235 13.3643   1
   3  -2   3 857.063 29.9848   2
   3  -2   3 1065.62 44.2035   1
   4  -2   3 74.0170 3.09605   2
   4  -2   3 68.7692 3.76124   1
   5  -2   3 496.137 21.0879   1
   5  -2   3 396.042 14.8606   2
   6  -2   3 491.412 21.5325   2
   6  -2   3 580.303 35.7806   1
   7  -2   3 106.486 9.74260   1
   7  -2   3 82.2363 5.39131   2
   8  -2   3 100.243 6.72832   2
   8  -2   3 108.795 10.7065   1
   9  -2   3 66.4791 8.13683   2
   9  -2   3 72.4934 9.65670   1
 -10  -1   3 73.9541 7.07738   2
  -9  -1   3 328.403 19.3704   2
  -9  -1   3 332.100 20.7277   1
  -8  -1   3 68.9007 4.19419   1
  -8  -1   3 63.6089 4.91870   2
  -7  -1   3 62.8022 3.29962   2
  -7  -1   3 76.9323 4.01957   1
  -6  -1   3 4.98187 0.93268   2
  -6  -1   3 8.70125 1.01672   1
  -5  -1   3 13.1049 1.22962   2
  -5  -1   3 20.1367 1.43626   1
  -4  -1   3 688.755 24.7497   1
  -4  -1   3 574.075 23.9426   2
  -3  -1   3 1247.59 49.4060   1
  -3  -1   3 1035.02 36.9290   2
  -2  -1   3 430.000 19.5652   2
  -2  -1   3 504.361 15.7686   1
  -1  -1   3 1396.47 49.7700   1
  -1  -1   3 1179.95 48.6460   2
   0  -1   3 2955.48 121.806   2
   0  -1   3 3426.53 141.216   1
   1  -1   3 245.697 10.7677   2
   1  -1   3 335.716 14.2756   1
   2  -1   3 300.504 13.0056   2
   2  -1   3 388.545 17.9943   1
   3  -1   3 957.659 40.0414   1
   3  -1   3 753.347 26.3948   2
   4  -1   3 11.4708 1.41075   1
   4  -1   3 12.1995 0.96891   2
   5  -1   3 1.74352 1.22519   1
   5  -1   3 9.75184 1.17552   2
   6  -1   3 28.1915 1.98519   2
   6  -1   3 13.8322 3.10453   1
   7  -1   3 3.52837 1.50050   2
   7  -1   3 5.26324 3.29670   1
   8  -1   3 80.5408 9.76088   2
  -9   1  11 325.211 26.7480  -2
   9  -1   3 325.211 26.7480   1
  -9   0   6 473.077 34.5978  -2
  -9   0   3 473.077 34.5978   1
  -8   0   5 272.503 13.0245  -2
  -8   0   3 272.503 13.0245   1
  -7   0   4 366.374 15.9466  -2
  -7   0   3 366.374 15.9466   1
  -6   0   3 4932.88 203.042  -2
  -6   0   3 4932.88 203.042   1
  -5   0   2 574.393 24.0197  -2
  -5   0   3 574.393 24.0197   1
  -4   0   1 1134.15 46.9667  -2
  -4   0   3 1134.15 46.9667   1
   3   0   0 2515.69 78.1551  -2
  -3   0   3 2515.69 78.1551   1
   2   0   1 49.1873 1.72538  -2
  -2   0   3 49.1873 1.72538   1
   1   0   2 23.7220 1.48394  -2
  -1   0   3 23.7220 1.48394   1
   0   0   3 1190.75 49.5260  -2
   0   0   3 1190.75 49.5260   1
  -1   0   4 572.555 24.3652  -2
   1   0   3 572.555 24.3652   1
  -2   0   5 1296.13 58.7552  -2
   2   0   3 1296.13 58.7552   1
  -3   0   6 2479.13 144.403  -2
   3   0   3 2479.13 144.403   1
  -4   0   7 731.388 30.6338  -2
   4   0   3 731.388 30.6338   1
  -5   0   8 495.226 21.4052  -2
   5   0   3 495.226 21.4052   1
  -6   0   9 811.854 37.4757  -2
   6   0   3 811.854 37.4757   1
  -7   0  10 94.0194 9.36047  -2
   7   0   3 94.0194 9.36047   1
  -8   0  11 28.9943 7.09089  -2
   8   0   3 28.9943 7.09089   1
  -9   0  12 6.50676 7.46520  -2
   9   0   3 6.50676 7.46520   1
 -10   1   3 48.6285 6.20947   1
  -9   1   3 197.283 13.4557   1
  -9   1   3 178.941 10.8451   2
  -8   1   3 5.23269 2.70173   1
  -8   1   3 6.17078 1.12724   2
  -7   1   3 1.77620 0.73526   1
  -7   1   3 2.23110 0.65722   2
  -6   1   3 211.684 9.33500   1
  -6   1   3 184.337 7.00958   2
  -5   1   3 227.884 7.56021   2
  -5   1   3 273.243 11.7510   1
  -4   1   3 667.118 27.8248   1
  -4   1   3 553.863 28.6519   2
  -3   1   3 2296.38 94.5688   2
  -3   1   3 2938.04 101.367   1
  -2   1   3 622.561 23.7295   2
  -2   1   3 811.699 28.1605   1
  -1   1   3 968.666 40.4286   1
  -1   1   3 778.015 32.3367   2
   0   1   3 2942.13 121.330   1
   0   1   3 2518.01 103.787   2
   1   1   3 100.113 4.93797   2
   1   1   3 101.798 5.30101   1
   2   1   3 85.1031 4.34681   2
   2   1   3 100.477 5.43315   1
   3   1   3 102.696 5.23100   2
   3   1   3 110.247 7.74593   1
   4   1   3 -1.7171 0.85386   2
   4   1   3 -1.9786 1.36972   1
   5   1   3 65.6067 3.14552   2
   5   1   3 68.0342 6.68911   1
   6   1   3 104.600 6.99079   1
   6   1   3 108.183 6.36823   2
   7   1   3 20.1206 4.90759   1
   7   1   3 25.2495 2.93878   2
   8   1   3 69.2471 5.80322   2
   8   1   3 84.4760 10.5866   1
 -11   2   3 22.7325 4.23604   1
 -10   2   3 36.6087 5.10441   1
 -10   2   3 29.1746 3.54200   2
  -9   2   3 667.950 30.7052   2
  -9   2   3 761.702 54.9161   1
  -8   2   3 272.523 10.5251   1
  -8   2   3 248.617 11.0993   2
  -7   2   3 248.484 11.0554   2
  -7   2   3 296.727 12.9493   1
  -6   2   3 1317.86 67.5079   2
  -6   2   3 1550.87 64.1718   1
  -5   2   3 146.798 6.66992   1
  -5   2   3 125.943 7.30361   2
  -4   2   3 33.0375 1.95842   1
  -4   2   3 27.4721 1.80098   2
  -3   2   3 217.356 7.83645   1
  -3   2   3 178.947 7.57986   2
  -2   2   3 18.7464 0.97622   1
  -2   2   3 14.1185 0.87692   2
  -1   2   3 173.558 8.11182   1
  -1   2   3 140.434 6.48552   2
   0   2   3 1202.28 50.2382   1
   0   2   3 1045.45 43.3295   2
   1   2   3 265.656 12.1332   1
   1   2   3 246.643 10.8418   2
   2   2   3 641.393 27.1425   2
   2   2   3 665.634 31.0828   1
   3   2   3 1087.58 46.2621   1
   3   2   3 996.057 34.7752   2
   4   2   3 125.356 6.89405   1
   4   2   3 114.181 4.66241   2
   5   2   3 139.504 6.48014   2
   5   2   3 169.648 9.37196   1
   6   2   3 101.764 7.33472   1
   6   2   3 119.080 6.97558   2
   7   2   3 16.3216 4.67542   2
   8   2   3 7.04460 5.48805   1
   8   2   3 1.79722 2.97244   2
 -11   3   6 104.767 10.7810  -2
 -11   3   3 104.767 10.7810   1
 -10   3   5 67.2205 7.45955  -2
 -10   3   3 67.2205 7.45955   1
  -9   3   4 177.135 13.9848  -2
  -9   3   3 177.135 13.9848   1
  -8   3   3 21.0535 15.3542  -2
  -8   3   3 21.0535 15.3542   1
  -7   3   2 61.0508 3.47711  -2
  -7   3   3 61.0508 3.47711   1
  -6   3   1 1439.39 59.7752  -2
  -6   3   3 1439.39 59.7752   1
  -5   3   0 712.021 29.9422  -2
  -5   3   3 712.021 29.9422   1
   4  -3   1 1454.32 60.2543  -2
  -4   3   3 1454.32 60.2543   1
   3  -3   2 4423.92 182.165  -2
  -3   3   3 4423.92 182.165   1
   2  -3   3 1036.63 43.2973  -2
  -2   3   3 1036.63 43.2973   1
   1  -3   4 606.077 26.1027  -2
  -1   3   3 606.077 26.1027   1
   0  -3   5 1452.29 60.5487  -2
   0   3   3 1452.29 60.5487   1
  -1  -3   6 38.2298 18.5622  -2
   1   3   3 38.2298 18.5622   1
  -2  -3   7 83.2841 5.25765  -2
   2   3   3 83.2841 5.25765   1
  -3  -3   8 51.8492 4.02723  -2
   3   3   3 51.8492 4.02723   1
  -4  -3   9 115.705 7.20029  -2
   4   3   3 115.705 7.20029   1
  -5  -3  10 155.488 9.23492  -2
   5   3   3 155.488 9.23492   1
  -6  -3  11 543.334 28.2682  -2
   6   3   3 543.334 28.2682   1
  -7  -3  12 135.784 13.3757  -2
   7   3   3 135.784 13.3757   1
 -12   4   6 150.550 15.2103  -2
 -12   4   3 150.550 15.2103   1
 -11   4   5 99.0059 10.5926  -2
 -11   4   3 99.0059 10.5926   1
 -10   4   4 129.891 11.4671  -2
 -10   4   3 129.891 11.4671   1
  -8   4   2 378.238 23.9805  -2
  -8   4   3 378.238 23.9805   1
  -7   4   1 211.160 10.0935  -2
  -7   4   3 211.160 10.0935   1
  -6   4   0 1246.00 52.0348  -2
  -6   4   3 1246.00 52.0348   1
   5  -4   1 54.2973 5.22664  -2
  -5   4   3 54.2973 5.22664   1
   4  -4   2 0.20547 3.97983  -2
  -4   4   3 0.20547 3.97983   1
  -4   4   3 -3.6738 3.25021   2
   3  -4   3 312.301 17.5502  -2
  -3   4   3 312.301 17.5502   1
  -3   4   3 116.442 13.7390   2
   2  -4   4 347.648 30.3082  -2
  -2   4   3 347.648 30.3082   1
   1  -4   5 391.204 34.8514  -2
  -1   4   3 391.204 34.8514   1
   0  -4   6 3354.03 151.420  -2
   0   4   3 3354.03 151.420   1
  -1  -4   7 717.012 33.8085  -2
   1   4   3 717.012 33.8085   1
  -2  -4   8 793.910 37.7874  -2
   2   4   3 793.910 37.7874   1
  -3  -4   9 596.914 29.8870  -2
   3   4   3 596.914 29.8870   1
  -4  -4  10 116.131 7.78618  -2
   4   4   3 116.131 7.78618   1
  -5  -4  11 44.5344 7.69360  -2
   5   4   3 44.5344 7.69360   1
  -6  -4  12 8.04264 8.92169  -2
   6   4   3 8.04264 8.92169   1
   7   4   3 -2.0010 5.80601   1
   7   4   3 2.55984 3.25366   2
 -12   5   3 41.5206 6.03832   1
 -11   5   3 9.72030 5.03067   2
 -11   5   3 10.4415 4.54578   1
 -10   5   3 3.78382 2.64190   2
 -10   5   3 3.46733 2.52891   1
  -9   5   3 50.9404 5.67770   2
  -9   5   3 58.1693 5.92283   1
  -8   5   3 139.747 11.0069   1
  -8   5   3 114.824 9.39962   2
  -7   5   3 163.382 10.1959   2
  -7   5   3 195.349 9.71533   1
  -6   5   3 1069.83 44.9290   1
  -6   5   3 944.482 48.7283   2
  -5   5   3 299.516 16.0593   2
  -5   5   3 340.090 15.2301   1
  -4   5   3 457.112 21.2479   1
  -4   5   3 381.660 14.8417   2
  -3   5   3 1323.78 55.2178   1
  -3   5   3 1113.14 39.8724   2
  -2   5   3 100.242 5.38347   1
  -2   5   3 84.0771 4.45846   2
  -1   5   3 39.9319 2.90873   1
  -1   5   3 37.6707 3.01201   2
   0   5   3 94.1033 4.92466   2
   0   5   3 114.042 6.09572   1
   1   5   3 2.23817 1.21524   2
   1   5   3 9.83882 1.53151   1
   2   5   3 45.2082 2.87493   2
   2   5   3 55.9372 4.11086   1
   3   5   3 169.419 9.26359   2
   3   5   3 170.458 9.98106   1
   4   5   3 24.2838 3.09643   1
   4   5   3 27.8997 3.20502   2
   5   5   3 67.2753 5.64578   2
   5   5   3 105.648 10.3416   1
   6   5   3 155.379 9.66304   2
   6   5   3 189.814 12.1022   1
 -11   6   4 98.5051 11.6327  -2
 -11   6   3 98.5051 11.6327   1
  -9   6   2 1052.09 75.9967  -2
  -9   6   3 1052.09 75.9967   1
  -8   6   1 276.249 21.0634  -2
  -8   6   3 276.249 21.0634   1
  -7   6   0 111.557 7.05885  -2
  -7   6   3 111.557 7.05885   1
   6  -6   1 236.889 17.9463  -2
  -6   6   3 236.889 17.9463   1
   5  -6   2 8.27625 3.51886  -2
  -5   6   3 8.27625 3.51886   1
   4  -6   3 38.0714 3.67654  -2
  -4   6   3 38.0714 3.67654   1
   3  -6   4 671.427 30.8826  -2
  -3   6   3 671.427 30.8826   1
   2  -6   5 512.805 24.8724  -2
  -2   6   3 512.805 24.8724   1
   1  -6   6 454.370 20.6061  -2
  -1   6   3 454.370 20.6061   1
   0  -6   7 1597.34 72.9657  -2
   0   6   3 1597.34 72.9657   1
  -1  -6   8 472.231 24.5565  -2
   1   6   3 472.231 24.5565   1
  -2  -6   9 175.853 10.4100  -2
   2   6   3 175.853 10.4100   1
  -3  -6  10 272.667 21.2391  -2
   3   6   3 272.667 21.2391   1
  -5  -6  12 10.0320 6.60267  -2
   5   6   3 10.0320 6.60267   1
  -8   7   0 240.107 18.5619  -2
  -8   7   3 240.107 18.5619   1
   7  -7   1 203.670 11.4892  -2
  -7   7   3 203.670 11.4892   1
   6  -7   2 1357.83 68.7732  -2
  -6   7   3 1357.83 68.7732   1
   5  -7   3 397.657 20.7616  -2
  -5   7   3 397.657 20.7616   1
   4  -7   4 123.255 7.23319  -2
  -4   7   3 123.255 7.23319   1
   3  -7   5 708.034 36.1688  -2
  -3   7   3 708.034 36.1688   1
   2  -7   6 61.0664 4.49395  -2
  -2   7   3 61.0664 4.49395   1
   1  -7   7 2.99411 2.77072  -2
  -1   7   3 2.99411 2.77072   1
   0  -7   8 79.3956 5.66369  -2
   0   7   3 79.3956 5.66369   1
  -1  -7   9 98.8432 6.86894  -2
   1   7   3 98.8432 6.86894   1
  -2  -7  10 165.042 14.7049  -2
   2   7   3 165.042 14.7049   1
  -3  -7  11 322.200 24.8084  -2
   3   7   3 322.200 24.8084   1
  -4  -7  12 73.1667 7.61227  -2
   4   7   3 73.1667 7.61227   1
 -10   8   3 20.2435 4.09121   1
 -10   8   3 18.0293 4.26947   2
  -9   8   3 129.941 11.3441   1
  -9   8   3 103.161 9.77673   2
  -8   8   3 6.11556 3.04637   2
  -7   8   3 1.07889 2.44907   2
  -7   8   3 1.14975 1.93820   1
  -6   8   3 42.1476 3.78634   1
  -6   8   3 26.4810 3.73479   2
  -5   8   3 23.4318 3.44075   2
  -5   8   3 26.7704 2.79253   1
  -4   8   3 98.9312 5.90944   2
  -4   8   3 103.729 6.38581   1
  -3   8   3 405.559 21.1880   1
  -3   8   3 338.566 17.6183   2
  -2   8   3 133.519 7.82212   1
  -2   8   3 108.231 6.40323   2
  -1   8   3 134.481 8.05328   1
  -1   8   3 105.080 6.40194   2
   0   8   3 304.048 16.0785   2
   0   8   3 365.584 19.4744   1
   1   8   3 38.5292 4.04175   2
   1   8   3 46.8862 6.52268   1
   2   8   3 30.2830 3.72976   1
   2   8   3 17.9479 3.28662   2
   3   8   3 12.2661 3.57762   2
  -3  -8  12 9.81302 10.3092  -2
   3   8   3 9.81302 10.3092   1
   3   8   3 10.6225 5.60315   1
  -9   9   0 294.479 23.7548  -2
  -9   9   3 294.479 23.7548   1
   8  -9   1 215.530 18.1031  -2
  -8   9   3 215.530 18.1031   1
   7  -9   2 130.016 12.3546  -2
  -7   9   3 130.016 12.3546   1
  -6   9   3 305.283 16.5866   1
  -5   9   3 47.8956 6.00346   1
   4  -9   5 37.3470 8.64711  -2
  -4   9   3 37.3470 8.64711   1
  -4   9   3 20.6653 4.08337   1
  -3   9   3 32.4932 3.63243   1
  -3   9   3 27.7744 3.13185   2
  -1   9   3 25.8703 4.14689   2
  -1   9   3 19.9282 3.89480   1
   0   9   3 89.3221 8.95796   2
   0   9   3 97.4825 9.93458   1
   0  -9   9 146.144 14.4783  -2
   0   9   3 146.144 14.4783   1
  -1  -9  10 68.1160 7.70217  -2
   1   9   3 68.1160 7.70217   1
   1   9   3 11.2797 3.23837   2
   8 -10   2 3.16970 5.76602  -2
  -8  10   3 3.16970 5.76602   1
   7 -10   3 18.7180 5.69640  -2
  -7  10   3 18.7180 5.69640   1
   6 -10   4 132.103 8.71132  -2
  -6  10   3 132.103 8.71132   1
   5 -10   5 68.2070 7.49889  -2
  -5  10   3 68.2070 7.49889   1
   4 -10   6 39.1177 4.69988  -2
  -4  10   3 39.1177 4.69988   1
   3 -10   7 438.643 23.2477  -2
  -3  10   3 438.643 23.2477   1
   2 -10   8 241.558 13.6487  -2
  -2  10   3 241.558 13.6487   1
   1 -10   9 78.4321 6.60354  -2
  -1  10   3 78.4321 6.60354   1
   0 -10  10 117.593 8.44074  -2
   0  10   3 117.593 8.44074   1
  -5  11   3 8.50183 3.20417   1
  -5  11   3 2.72790 4.20401   2
  -4  11   3 6.80461 4.36738   2
  -4  11   3 7.48377 3.06996   1
  -1 -12   4 26.4710 4.71523   2
  -1 -12   4 43.9815 5.91164   1
   0 -12   4 175.995 14.7688   2
   0 -12   4 203.394 16.4913   1
   1 -12   4 11.5966 2.86704   2
   1 -12   4 16.6627 2.89064   1
   2 -12   4 37.8536 5.33388   2
   2 -12   4 48.8751 6.05602   1
   2 -12   2 72.8081 10.8610  -2
   2 -12   4 72.8081 10.8610   1
   3 -12   4 117.735 8.01223   1
   3 -12   4 89.2296 6.80668   2
   4 -12   4 6.27104 3.68863   1
   4 -12   4 9.71345 4.71896   2
  -3 -11   7 196.204 17.5574  -2
  -3 -11   4 196.204 17.5574   1
  -2 -11   6 7.75362 7.84039  -2
  -2 -11   4 7.75362 7.84039   1
  -1 -11   5 11.4979 7.51727  -2
  -1 -11   4 11.4979 7.51727   1
   0 -11   4 8.56268 7.11716  -2
   0 -11   4 8.56268 7.11716   1
   1 -11   3 7.45672 6.64957  -2
   1 -11   4 7.45672 6.64957   1
   2 -11   2 65.3039 6.41552  -2
   2 -11   4 65.3039 6.41552   1
   3 -11   4 187.583 14.9774   1
   4 -11   4 23.5542 5.31250   2
  -6  11   2 351.053 27.7932  -2
   6 -11   4 351.053 27.7932   1
  -5 -10   8 4.79987 3.46193  -2
  -5 -10   4 4.79987 3.46193   1
  -4 -10   7 28.2641 4.39756  -2
  -4 -10   4 28.2641 4.39756   1
  -3 -10   6 378.615 28.3518  -2
  -3 -10   4 378.615 28.3518   1
  -1 -10   4 257.057 13.7558  -2
  -1 -10   4 257.057 13.7558   1
   0 -10   3 771.377 30.7720  -2
   0 -10   4 771.377 30.7720   1
   1 -10   2 52.2030 3.05683  -2
   1 -10   4 52.2030 3.05683   1
   2 -10   1 47.9685 2.96790  -2
   2 -10   4 47.9685 2.96790   1
  -3  10   0 118.214 7.05176  -2
   3 -10   4 118.214 7.05176   1
  -4  10   1 -2.4501 3.97289  -2
   4 -10   4 -2.4501 3.97289   1
  -5  10   2 10.1458 3.47816  -2
   5 -10   4 10.1458 3.47816   1
  -6  10   3 148.521 9.09442  -2
   6 -10   4 148.521 9.09442   1
  -7  10   4 21.4662 6.38134  -2
   7 -10   4 21.4662 6.38134   1
  -6  -9   8 326.069 25.4555  -2
  -6  -9   4 326.069 25.4555   1
  -5  -9   7 68.0338 9.03712  -2
  -5  -9   4 68.0338 9.03712   1
  -3  -9   5 50.8486 7.37058  -2
  -3  -9   4 50.8486 7.37058   1
  -2  -9   4 -5.9335 12.3914   1
  -2  -9   4 -6.9138 12.4340   2
  -2  -9   4 -1.1012 5.12488  -2
  -2  -9   4 -1.1012 5.12488   1
  -1  -9   3 51.1086 6.12829  -2
  -1  -9   4 51.1086 6.12829   1
  -1  -9   4 24.9640 3.38424   2
  -1  -9   4 23.6206 3.24317   1
   0  -9   4 158.455 10.8271   2
   0  -9   2 403.425 29.6345  -2
   0  -9   4 403.425 29.6345   1
   0  -9   4 173.827 8.85365   1
   1  -9   1 126.180 6.98221  -2
   1  -9   4 126.180 6.98221   1
   1  -9   4 31.7972 3.40493   2
   1  -9   4 35.7223 4.23648   1
   2  -9   4 265.836 13.0825   1
  -2   9   0 431.483 31.7278  -2
   2  -9   4 431.483 31.7278   1
   2  -9   4 214.966 16.3268   2
   3  -9   4 509.456 36.7361   1
   3  -9   4 395.972 20.6071   2
   4  -9   4 30.4375 4.13888   2
   4  -9   4 40.2864 4.94185   1
  -5   9   3 208.027 16.9849  -2
   5  -9   4 208.027 16.9849   1
   5  -9   4 124.391 11.3342   2
  -6   9   4 239.924 19.5570  -2
   6  -9   4 239.924 19.5570   1
   6  -9   4 137.244 8.92209   2
   7  -9   4 -2.7279 2.83689   2
  -7   9   5 9.00228 7.63774  -2
   7  -9   4 9.00228 7.63774   1
   8  -9   4 -2.8451 3.78233   1
   8  -9   4 -4.4337 3.59162   2
  -7  -8   4 7.89119 3.44934   2
  -7  -8   9 20.7996 7.90810  -2
  -7  -8   4 20.7996 7.90810   1
  -6  -8   4 78.4487 7.99577   2
  -5  -8   4 40.6227 5.32134   1
  -5  -8   4 21.3761 3.62960   2
  -4  -8   4 145.291 11.7329   1
  -4  -8   4 115.516 6.82928   2
  -3  -8   4 556.848 35.3730   2
  -3  -8   5 1240.95 88.7053  -2
  -3  -8   4 1240.95 88.7053   1
  -3  -8   4 737.010 45.0222   1
  -2  -8   4 22.4662 2.32143   2
  -2  -8   4 30.3552 2.04190   1
  -1  -8   4 123.249 6.06075   2
  -1  -8   4 147.986 5.64444   1
   0  -8   4 465.279 16.3049   1
   0  -8   4 386.329 16.6572   2
   1  -8   4 32.1957 2.01413   1
   1  -8   4 26.6050 2.32884   2
   2  -8   4 5.75123 1.51487   2
   2  -8   4 14.5214 1.60150   1
   3  -8   4 7.77089 1.37539   2
   3  -8   4 5.72134 1.33283   1
   4  -8   4 6.98827 1.27851   1
   4  -8   4 4.23371 1.54620   2
  -5   8   3 111.324 10.1894  -2
   5  -8   4 111.324 10.1894   1
   5  -8   4 84.5635 5.73505   2
   5  -8   4 96.0255 8.42594   1
   6  -8   4 212.894 12.3696   2
  -7   8   5 93.8290 10.4689  -2
   7  -8   4 93.8290 10.4689   1
   7  -8   4 12.7256 3.20214   2
   8  -8   4 110.877 8.74223   2
  -8   8   6 188.110 17.0554  -2
   8  -8   4 188.110 17.0554   1
  -8  -7   9 78.4773 8.80124  -2
  -8  -7   4 78.4773 8.80124   1
  -6  -7   7 461.420 33.8551  -2
  -6  -7   4 461.420 33.8551   1
  -5  -7   6 99.9837 8.81981  -2
  -5  -7   4 99.9837 8.81981   1
  -4  -7   5 127.537 10.4037  -2
  -4  -7   4 127.537 10.4037   1
  -3  -7   4 25.0646 2.75510  -2
  -3  -7   4 25.0646 2.75510   1
  -2  -7   3 158.195 7.41346  -2
  -2  -7   4 158.195 7.41346   1
  -1  -7   2 406.181 24.1622  -2
  -1  -7   4 406.181 24.1622   1
   0  -7   1 1646.68 117.501  -2
   0  -7   4 1646.68 117.501   1
  -1   7   0 371.459 27.0514  -2
   1  -7   4 371.459 27.0514   1
  -3   7   2 1946.30 137.777  -2
   3  -7   4 1946.30 137.777   1
  -4   7   3 103.632 6.01817  -2
   4  -7   4 103.632 6.01817   1
  -5   7   4 119.588 9.20255  -2
   5  -7   4 119.588 9.20255   1
  -6   7   5 129.671 11.1731  -2
   6  -7   4 129.671 11.1731   1
  -8   7   7 5.32024 6.27013  -2
   8  -7   4 5.32024 6.27013   1
  -9  -6   9 6.30572 7.25559  -2
  -9  -6   4 6.30572 7.25559   1
  -8  -6   8 13.9370 5.82317  -2
  -8  -6   4 13.9370 5.82317   1
  -7  -6   7 75.2580 7.63887  -2
  -7  -6   4 75.2580 7.63887   1
  -6  -6   6 823.198 59.0843  -2
  -6  -6   4 823.198 59.0843   1
  -5  -6   5 202.900 13.6936  -2
  -5  -6   4 202.900 13.6936   1
  -4  -6   4 390.741 23.9803  -2
  -4  -6   4 390.741 23.9803   1
  -3  -6   3 2439.81 173.677  -2
  -3  -6   4 2439.81 173.677   1
  -3  -6   4 1305.87 134.881   1
  -2  -6   2 289.831 17.5976  -2
  -2  -6   4 289.831 17.5976   1
  -2  -6   4 98.6951 13.9139   2
  -1  -6   4 146.270 18.1469   2
  -1  -6   1 290.285 11.0837  -2
  -1  -6   4 290.285 11.0837   1
  -1  -6   4 187.043 19.9806   1
   0   6   0 457.059 21.9729  -2
   0  -6   4 457.059 21.9729   1
  -1   6   1 2.59749 3.03432  -2
   1  -6   4 2.59749 3.03432   1
  -2   6   2 30.2613 3.93689  -2
   2  -6   4 30.2613 3.93689   1
  -3   6   3 625.190 31.7667  -2
   3  -6   4 625.190 31.7667   1
  -4   6   4 332.509 18.4049  -2
   4  -6   4 332.509 18.4049   1
  -5   6   5 490.066 30.2886  -2
   5  -6   4 490.066 30.2886   1
  -6   6   6 970.965 70.2792  -2
   6  -6   4 970.965 70.2792   1
  -8   6   8 141.210 13.8187  -2
   8  -6   4 141.210 13.8187   1
   9  -6   4 125.572 12.3303   1
   9  -6   4 80.9565 6.92193   2
 -10  -5   4 33.7963 5.17631   2
  -9  -5   4 185.344 14.9560   2
  -9  -5   4 221.124 17.1077   1
  -8  -5   4 85.2074 7.64829   1
  -8  -5   4 62.9338 6.54912   2
  -7  -5   4 57.2024 5.61061   1
  -7  -5   4 49.1159 5.13254   2
  -6  -5   4 109.873 5.93280   1
  -6  -5   4 98.3004 6.83881   2
  -5  -5   4 1.40990 1.37222   2
  -5  -5   4 0.99872 0.73497   1
  -4  -5   4 20.8828 1.30715   1
  -4  -5   4 17.7908 1.48602   2
  -3  -5   4 395.821 14.5137   2
  -3  -5   4 490.332 17.7928   1
  -2  -5   4 178.464 7.40255   1
  -2  -5   4 146.981 8.23693   2
  -1  -5   4 571.138 24.0365   2
  -1  -5   4 711.519 26.2699   1
   0  -5   4 1429.89 59.3656   2
   0  -5   4 1930.61 96.9069   1
   1  -5   4 256.411 10.7836   1
   1  -5   4 185.888 9.40597   2
   2  -5   4 426.216 19.8380   2
   2  -5   4 510.514 19.7541   1
   3  -5   4 864.341 36.0370   1
   3  -5   4 684.098 29.2282   2
   4  -5   4 11.3069 1.73020   2
   4  -5   4 16.6129 1.48523   1
   5  -5   4 10.1770 2.56317   1
   5  -5   4 8.37888 1.75954   2
   6  -5   4 0.03804 1.71564   2
   6  -5   4 0.55527 2.27459   1
   7  -5   4 3.29922 2.24297   2
   7  -5   4 3.27818 3.04889   1
   8  -5   4 68.9223 5.94200   2
   8  -5   4 72.0576 8.40520   1
   9  -5   4 70.1269 6.51847   2
   9  -5   4 82.7449 10.2703   1
  -9  -4   8 130.525 11.3185  -2
  -9  -4   4 130.525 11.3185   1
  -8  -4   7 43.5441 5.67528  -2
  -8  -4   4 43.5441 5.67528   1
  -7  -4   6 216.483 13.5087  -2
  -7  -4   4 216.483 13.5087   1
  -6  -4   5 1749.88 128.966  -2
  -6  -4   4 1749.88 128.966   1
  -5  -4   4 484.206 54.0073  -2
  -5  -4   4 484.206 54.0073   1
  -5  -4   4 280.768 32.8577   1
  -5  -4   4 228.248 27.8704   2
  -4  -4   4 328.070 25.8227   2
  -4  -4   4 406.893 31.2113   1
  -3  -4   4 1096.31 64.3706   2
  -3  -4   4 1307.91 96.2060   1
  -3  -4   2 3185.27 225.163  -2
  -3  -4   4 3185.27 225.163   1
  -2  -4   4 9.73908 0.83184   1
  -2  -4   1 53.9210 3.17053  -2
  -2  -4   4 53.9210 3.17053   1
  -2  -4   4 7.51371 4.22923   2
   1   4   0 39.1583 2.35368  -2
  -1  -4   4 39.1583 2.35368   1
  -1  -4   4 5.86055 0.84224   1
  -1  -4   4 12.3945 6.24636   2
   0   4   1 20.2766 1.81168  -2
   0  -4   4 20.2766 1.81168   1
   0  -4   4 11.5196 2.21040   1
  -1   4   2 73.8699 3.80105  -2
   1  -4   4 73.8699 3.80105   1
  -2   4   3 442.514 18.7482  -2
   2  -4   4 442.514 18.7482   1
  -3   4   4 2061.02 85.2011  -2
   3  -4   4 2061.02 85.2011   1
  -4   4   5 371.545 16.1791  -2
   4  -4   4 371.545 16.1791   1
  -5   4   6 704.023 42.7386  -2
   5  -4   4 704.023 42.7386   1
  -6   4   7 958.318 69.3814  -2
   6  -4   4 958.318 69.3814   1
  -7   4   8 186.703 15.7943  -2
   7  -4   4 186.703 15.7943   1
  -8   4   9 101.296 11.5658  -2
   8  -4   4 101.296 11.5658   1
  -9   4  10 32.8511 10.2461  -2
   9  -4   4 32.8511 10.2461   1
  -9  -3   7 448.526 32.5376  -2
  -9  -3   4 448.526 32.5376   1
  -8  -3   6 96.8051 7.51352  -2
  -8  -3   4 96.8051 7.51352   1
  -7  -3   5 46.1312 15.1048  -2
  -7  -3   4 46.1312 15.1048   1
  -6  -3   4 21.6667 3.77955  -2
  -6  -3   4 21.6667 3.77955   1
  -5  -3   3 68.3853 10.4349  -2
  -5  -3   4 68.3853 10.4349   1
  -4  -3   2 332.794 20.2218  -2
  -4  -3   4 332.794 20.2218   1
  -3  -3   1 3158.74 135.288  -2
  -3  -3   4 3158.74 135.288   1
   2   3   0 1546.99 48.1644  -2
  -2  -3   4 1546.99 48.1644   1
   1   3   1 2112.71 87.0677  -2
  -1  -3   4 2112.71 87.0677   1
   0   3   2 5753.38 236.672  -2
   0  -3   4 5753.38 236.672   1
  -1   3   3 634.654 32.0796  -2
   1  -3   4 634.654 32.0796   1
  -2   3   4 580.859 24.5300  -2
   2  -3   4 580.859 24.5300   1
  -3   3   5 650.522 27.4668  -2
   3  -3   4 650.522 27.4668   1
  -4   3   6 104.959 5.84605  -2
   4  -3   4 104.959 5.84605   1
  -5   3   7 101.524 9.08046  -2
   5  -3   4 101.524 9.08046   1
  -6   3   8 380.786 28.6730  -2
   6  -3   4 380.786 28.6730   1
  -7   3   9 75.5333 9.17562  -2
   7  -3   4 75.5333 9.17562   1
  -8   3  10 139.902 13.7016  -2
   8  -3   4 139.902 13.7016   1
  -9   3  11 289.122 24.3396  -2
   9  -3   4 289.122 24.3396   1
 -11  -2   4 8.53496 3.65254   2
 -10  -2   4 32.2831 4.19101   2
  -9  -2   4 341.291 22.8713   2
  -9  -2   4 397.347 22.9596   1
  -8  -2   4 147.012 9.84248   2
  -8  -2   4 158.095 10.7531   1
  -7  -2   4 172.306 8.00944   2
  -7  -2   4 195.934 11.4184   1
  -6  -2   4 1584.19 65.5218   2
  -6  -2   4 1858.79 66.6371   1
  -5  -2   4 157.348 9.02230   1
  -5  -2   4 123.845 5.68567   2
  -4  -2   4 271.958 11.1560   1
  -4  -2   4 219.864 8.10887   2
  -3  -2   4 393.994 16.5566   2
  -3  -2   4 501.356 20.0949   1
  -2  -2   4 1.40842 0.35076   1
  -2  -2   4 1.51272 0.52573   2
  -1  -2   4 60.2407 2.97712   1
  -1  -2   4 51.8183 2.65727   2
   0  -2   4 463.251 19.7764   2
   0  -2   4 558.600 23.6410   1
   1  -2   4 140.266 6.85694   2
   1  -2   4 196.485 8.70689   1
   2  -2   4 545.126 23.0797   1
   2  -2   4 437.543 18.9323   2
   3  -2   4 1485.04 61.6285   1
   3  -2   4 1238.15 43.2290   2
   4  -2   4 268.903 12.8079   1
   4  -2   4 222.778 8.76108   2
   5  -2   4 467.476 20.5011   1
   5  -2   4 420.372 15.4628   2
   6  -2   4 303.119 11.5530   2
   6  -2   4 342.924 25.9237   1
   7  -2   4 17.6732 2.09298   2
   7  -2   4 10.9549 3.99226   1
   8  -2   4 8.08205 5.01415   2
   8  -2   4 14.2687 4.52870   1
  -9  -1   4 43.1309 11.3866   1
  -9  -1   4 43.3011 12.5579   2
  -8  -1   4 13.1092 1.93036   2
  -8  -1   4 18.8718 1.94693   1
  -7  -1   4 13.9560 1.42150   1
  -7  -1   4 11.9385 1.30584   2
  -6  -1   4 205.651 9.39519   1
  -6  -1   4 171.505 7.74798   2
  -5  -1   4 415.046 17.5810   2
  -5  -1   4 517.735 18.7715   1
  -4  -1   4 620.606 19.4661   1
  -4  -1   4 511.217 21.3917   2
  -3  -1   4 3009.66 93.4033   1
  -3  -1   4 2492.37 112.111   2
  -2  -1   4 669.832 27.9314   2
  -2  -1   4 802.690 28.8449   1
  -1  -1   4 809.862 33.6366   1
  -1  -1   4 661.834 27.8518   2
   0  -1   4 2508.78 103.461   1
   0  -1   4 2101.95 86.8012   2
   1  -1   4 29.7564 2.18791   2
   1  -1   4 43.4671 2.67075   1
   2  -1   4 42.3035 2.81919   1
   2  -1   4 31.9609 2.30814   2
   3  -1   4 7.53380 1.26017   1
   3  -1   4 4.37903 1.29053   2
   4  -1   4 13.2962 1.67000   1
   4  -1   4 12.6096 1.30934   2
   5  -1   4 108.047 4.87491   2
   5  -1   4 140.510 7.33587   1
   6  -1   4 211.607 8.42773   2
   6  -1   4 230.867 18.4205   1
   7  -1   4 11.5377 2.52569   2
  -8   1  11 119.927 14.1142  -2
   8  -1   4 119.927 14.1142   1
  -9   0   5 1302.83 98.4066  -2
  -9   0   4 1302.83 98.4066   1
  -8   0   4 259.622 12.0336  -2
  -8   0   4 259.622 12.0336   1
  -7   0   3 364.900 15.8022  -2
  -7   0   4 364.900 15.8022   1
  -6   0   2 2254.95 93.1375  -2
  -6   0   4 2254.95 93.1375   1
  -5   0   1 388.196 16.4757  -2
  -5   0   4 388.196 16.4757   1
   4   0   0 60.5865 2.52912  -2
  -4   0   4 60.5865 2.52912   1
   3   0   1 25.1929 1.26552  -2
  -3   0   4 25.1929 1.26552   1
   2   0   2 20.3933 1.49070  -2
  -2   0   4 20.3933 1.49070   1
   1   0   3 610.591 25.6775  -2
  -1   0   4 610.591 25.6775   1
   0   0   4 2483.76 102.738  -2
   0   0   4 2483.76 102.738   1
  -1   0   5 1416.95 59.3055  -2
   1   0   4 1416.95 59.3055   1
  -2   0   6 1026.05 47.2495  -2
   2   0   4 1026.05 47.2495   1
  -3   0   7 2078.77 86.5600  -2
   3   0   4 2078.77 86.5600   1
  -4   0   8 313.373 14.3035  -2
   4   0   4 313.373 14.3035   1
  -5   0   9 173.964 12.0702  -2
   5   0   4 173.964 12.0702   1
  -6   0  10 69.3986 7.80997  -2
   6   0   4 69.3986 7.80997   1
  -8   0  12 12.6389 6.94978  -2
   8   0   4 12.6389 6.94978   1
 -10   1   4 -0.0819 2.49659   1
  -9   1   4 7.14601 2.03937   1
  -9   1   4 8.49423 1.98482   2
  -8   1   4 30.1198 3.30102   2
  -8   1   4 36.6808 2.43256   1
  -7   1   4 142.657 6.59928   2
  -7   1   4 163.578 7.49038   1
  -6   1   4 1210.96 50.2794   1
  -6   1   4 1015.89 36.4428   2
  -5   1   4 437.795 22.9531   2
  -5   1   4 514.917 21.7499   1
  -4   1   4 890.568 30.9817   1
  -4   1   4 757.913 27.2338   2
  -3   1   4 2875.29 99.2436   1
  -3   1   4 2275.49 81.2387   2
  -2   1   4 305.185 13.1927   1
  -2   1   4 234.271 10.8640   2
  -1   1   4 270.128 12.1986   1
  -1   1   4 173.760 8.08574   2
   0   1   4 653.213 27.4441   1
   0   1   4 573.365 24.0992   2
   1   1   4 3.78990 1.22263   1
   1   1   4 1.99836 0.99597   2
   2   1   4 14.2029 1.89034   2
   2   1   4 17.1093 2.01887   1
   3   1   4 125.722 6.39924   2
   3   1   4 136.564 7.73033   1
   4   1   4 63.9450 4.63401   1
   4   1   4 51.8349 2.86493   2
   5   1   4 174.561 7.66419   2
   5   1   4 230.161 12.4036   1
   6   1   4 389.042 29.8332   1
   6   1   4 261.200 13.5765   2
   7   1   4 11.3750 4.94374   2
   7   1   4 16.9196 5.08562   1
 -10   2   4 85.4200 7.58991   2
 -10   2   4 107.971 9.14486   1
  -9   2   4 740.500 44.8164   1
  -9   2   4 594.255 43.0054   2
  -8   2   4 161.970 7.59999   1
  -8   2   4 135.299 8.60438   2
  -7   2   4 91.1719 6.29296   2
  -7   2   4 96.3184 4.78486   1
  -6   2   4 355.466 19.1093   2
  -6   2   4 420.029 17.9561   1
  -5   2   4 2.14133 1.09787   2
  -5   2   4 2.59448 0.76197   1
  -4   2   4 29.3585 1.42759   1
  -4   2   4 15.7721 1.92972   2
  -3   2   4 637.427 22.2883   1
  -3   2   4 503.020 18.1352   2
  -2   2   4 247.836 11.0302   1
  -2   2   4 215.975 10.1073   2
  -1   2   4 683.076 29.1552   1
  -1   2   4 530.884 22.6869   2
   0   2   4 1944.82 80.4063   1
   0   2   4 1633.05 67.5639   2
   1   2   4 283.884 16.7236   1
   1   2   4 277.542 12.3254   2
   2   2   4 496.949 23.9453   1
   2   2   4 460.121 20.0449   2
   3   2   4 440.418 16.2164   2
   3   2   4 470.181 21.5667   1
   4   2   4 47.0726 2.87082   2
   4   2   4 42.7962 4.27487   1
   5   2   4 15.3362 2.48163   2
   5   2   4 13.1784 3.07573   1
   6   2   4 4.38039 2.68321   2
   7   2   4 -1.9809 2.92163   2
   7   2   4 -1.6662 4.71878   1
 -11   3   5 15.4475 6.53841  -2
 -11   3   4 15.4475 6.53841   1
 -10   3   4 20.1022 5.26742  -2
 -10   3   4 20.1022 5.26742   1
  -8   3   2 147.545 7.07179  -2
  -8   3   4 147.545 7.07179   1
  -7   3   1 368.205 16.1973  -2
  -7   3   4 368.205 16.1973   1
  -6   3   0 2327.76 118.343  -2
  -6   3   4 2327.76 118.343   1
   5  -3   1 1205.91 50.1432  -2
  -5   3   4 1205.91 50.1432   1
   4  -3   2 681.378 28.7646  -2
  -4   3   4 681.378 28.7646   1
   3  -3   3 2809.89 97.2148  -2
  -3   3   4 2809.89 97.2148   1
   2  -3   4 511.990 22.3282  -2
  -2   3   4 511.990 22.3282   1
   1  -3   5 -0.2526 13.4894  -2
  -1   3   4 -0.2526 13.4894   1
   0  -3   6 231.602 10.7959  -2
   0   3   4 231.602 10.7959   1
  -1  -3   7 146.438 8.35901  -2
   1   3   4 146.438 8.35901   1
  -2  -3   8 105.583 6.59257  -2
   2   3   4 105.583 6.59257   1
  -3  -3   9 757.033 34.4218  -2
   3   3   4 757.033 34.4218   1
  -4  -3  10 274.859 15.3725  -2
   4   3   4 274.859 15.3725   1
  -5  -3  11 176.431 10.6864  -2
   5   3   4 176.431 10.6864   1
  -6  -3  12 492.984 37.2447  -2
   6   3   4 492.984 37.2447   1
 -11   4   4 120.639 11.6041  -2
 -11   4   4 120.639 11.6041   1
  -9   4   2 932.710 67.2241  -2
  -9   4   4 932.710 67.2241   1
  -8   4   1 126.178 7.10920  -2
  -8   4   4 126.178 7.10920   1
  -7   4   0 30.1875 2.84649  -2
  -7   4   4 30.1875 2.84649   1
   6  -4   1 7.38550 2.60565  -2
  -6   4   4 7.38550 2.60565   1
   5  -4   2 61.3499 5.49050  -2
  -5   4   4 61.3499 5.49050   1
   4  -4   3 258.402 15.1524  -2
  -4   4   4 258.402 15.1524   1
   3  -4   4 2007.03 83.4103  -2
  -3   4   4 2007.03 83.4103   1
   2  -4   5 547.825 24.1759  -2
  -2   4   4 547.825 24.1759   1
   1  -4   6 754.692 32.3464  -2
  -1   4   4 754.692 32.3464   1
   0  -4   7 1365.95 62.1571  -2
   0   4   4 1365.95 62.1571   1
  -1  -4   8 596.430 28.4653  -2
   1   4   4 596.430 28.4653   1
  -2  -4   9 146.088 8.90455  -2
   2   4   4 146.088 8.90455   1
  -3  -4  10 152.258 9.57166  -2
   3   4   4 152.258 9.57166   1
  -4  -4  11 13.5622 5.30487  -2
   4   4   4 13.5622 5.30487   1
  -5  -4  12 -0.9496 8.91424  -2
   5   4   4 -0.9496 8.91424   1
  -6  -4  13 59.5502 11.3800  -2
   6   4   4 59.5502 11.3800   1
 -12   5   4 7.07004 4.13756   2
 -12   5   4 10.1020 4.27802   1
 -10   5   4 62.7379 4.86594   2
 -10   5   4 64.0635 6.53858   1
  -9   5   4 269.679 14.5065   2
  -9   5   4 299.555 22.3808   1
  -8   5   4 170.949 9.22168   1
  -8   5   4 144.020 8.19516   2
  -7   5   4 232.556 11.4428   1
  -7   5   4 198.836 9.37662   2
  -6   5   4 948.289 39.9825   1
  -6   5   4 796.805 33.6049   2
  -5   5   4 137.315 9.35636   2
  -5   5   4 175.847 8.62456   1
  -4   5   4 98.3658 5.07991   1
  -4   5   4 77.9376 3.97801   2
  -3   5   4 305.298 14.1586   1
  -3   5   4 250.950 11.0940   2
  -2   5   4 5.02925 1.31873   1
  -2   5   4 2.22626 1.08597   2
  -1   5   4 27.7309 2.36616   2
  -1   5   4 31.5522 2.87140   1
   0   5   4 86.5089 4.73438   2
   0   5   4 124.913 6.50069   1
   1   5   4 31.2335 2.97394   1
   1   5   4 27.8818 2.53008   2
   2   5   4 154.408 8.71202   2
   2   5   4 143.884 8.84829   1
   3   5   4 349.338 18.9281   1
   3   5   4 326.998 16.8516   2
   4   5   4 21.4279 4.18697   1
   4   5   4 13.7545 3.21335   2
   5   5   4 64.9500 5.80945   2
   5   5   4 75.5719 7.38923   1
  -9   6   1 306.110 23.4931  -2
  -9   6   4 306.110 23.4931   1
  -8   6   0 48.6845 6.48093  -2
  -8   6   4 48.6845 6.48093   1
   7  -6   1 14.9865 3.58498  -2
  -7   6   4 14.9865 3.58498   1
   6  -6   2 225.920 12.5193  -2
  -6   6   4 225.920 12.5193   1
   5  -6   3 189.915 10.3161  -2
  -5   6   4 189.915 10.3161   1
   4  -6   4 397.037 18.4912  -2
  -4   6   4 397.037 18.4912   1
   3  -6   5 1305.73 55.6396  -2
  -3   6   4 1305.73 55.6396   1
   2  -6   6 510.336 26.0882  -2
  -2   6   4 510.336 26.0882   1
   1  -6   7 324.057 17.2879  -2
  -1   6   4 324.057 17.2879   1
   0  -6   8 864.067 44.2052  -2
   0   6   4 864.067 44.2052   1
  -1  -6   9 155.033 9.58949  -2
   1   6   4 155.033 9.58949   1
  -2  -6  10 21.1623 5.45627  -2
   2   6   4 21.1623 5.45627   1
  -4  -6  12 -8.6466 6.61705  -2
   4   6   4 -8.6466 6.61705   1
 -10   7   1 81.3913 9.06499  -2
 -10   7   4 81.3913 9.06499   1
   8  -7   1 305.639 23.2192  -2
  -8   7   4 305.639 23.2192   1
   7  -7   2 131.980 8.08853  -2
  -7   7   4 131.980 8.08853   1
   6  -7   3 959.076 48.8895  -2
  -6   7   4 959.076 48.8895   1
   5  -7   4 106.661 6.92259  -2
  -5   7   4 106.661 6.92259   1
   4  -7   5 16.1860 3.40697  -2
  -4   7   4 16.1860 3.40697   1
   3  -7   6 1.23930 3.13007  -2
  -3   7   4 1.23930 3.13007   1
   2  -7   7 21.5249 3.66005  -2
  -2   7   4 21.5249 3.66005   1
   1  -7   8 95.4892 6.62902  -2
  -1   7   4 95.4892 6.62902   1
   0  -7   9 332.265 17.9902  -2
   0   7   4 332.265 17.9902   1
  -2  -7  11 87.1305 7.49415  -2
   2   7   4 87.1305 7.49415   1
  -3  -7  12 318.621 18.1495  -2
   3   7   4 318.621 18.1495   1
 -10   8   4 0.29738 2.52144   2
 -10   8   4 2.36356 3.25048   1
  -9   8   4 -2.1805 2.82177   1
  -8   8   4 4.18870 2.81180   1
  -8   8   4 -0.5606 2.81936   2
  -7   8   4 28.1201 3.60656   1
  -6   8   4 257.125 14.0703   1
  -5   8   4 105.435 6.72800   1
  -4   8   4 148.864 8.76073   1
  -4   8   4 130.384 10.8822   2
  -3   8   4 424.182 22.3268   1
  -3   8   4 361.300 18.8254   2
  -2   8   4 62.5710 4.66026   2
  -2   8   4 74.9326 5.61584   1
  -1   8   4 51.4860 4.29403   2
  -1   8   4 66.7491 9.01499   1
   0   8   4 44.4688 3.81554   2
   0   8   4 46.3657 4.39077   1
   1   8   4 12.1238 3.17532   1
   1   8   4 6.44933 3.14780   2
   2   8   4 6.61458 3.60528   2
   2   8   4 10.4464 3.47373   1
   9  -9   1 407.622 31.5875  -2
  -9   9   4 407.622 31.5875   1
   8  -9   2 152.097 14.4385  -2
  -8   9   4 152.097 14.4385   1
  -7   9   4 31.7652 3.56952   1
  -6   9   4 51.1059 4.54381   1
  -5   9   4 -2.1539 2.23867   1
  -4   9   4 21.6620 3.83418   1
  -3   9   4 23.3714 3.15396   1
  -2   9   4 10.8382 4.68749   2
  -2   9   4 8.29308 3.50793   1
   2  -9   8 46.6257 9.84889  -2
  -2   9   4 46.6257 9.84889   1
   1  -9   9 51.8700 10.4976  -2
  -1   9   4 51.8700 10.4976   1
  -1   9   4 50.3463 6.41914   1
  -1   9   4 43.3617 5.83376   2
   0   9   4 155.768 14.4212   1
   0  -9  10 273.805 23.2411  -2
   0   9   4 273.805 23.2411   1
   0   9   4 127.614 8.59782   2
   7 -10   4 25.3435 5.70433  -2
  -7  10   4 25.3435 5.70433   1
   6 -10   5 392.345 21.4161  -2
  -6  10   4 392.345 21.4161   1
   5 -10   6 153.095 9.82528  -2
  -5  10   4 153.095 9.82528   1
   4 -10   7 117.828 8.30332  -2
  -4  10   4 117.828 8.30332   1
   3 -10   8 167.550 10.5582  -2
  -3  10   4 167.550 10.5582   1
   2 -10   9 52.8392 5.96007  -2
  -2  10   4 52.8392 5.96007   1
  -1 -12   5 53.8352 7.31187   1
  -1 -12   5 46.8246 6.30835   2
   0 -12   5 125.250 11.6762   2
   0 -12   5 136.755 12.1061   1
   1 -12   5 6.08425 2.73802   2
   1 -12   5 4.76725 3.63374   1
   2 -12   5 10.2223 2.91505   2
   2 -12   5 9.71204 4.07552   1
   3 -12   5 -0.1676 4.30505   2
  -4 -11   7 23.7694 9.25256  -2
  -4 -11   5 23.7694 9.25256   1
  -3 -11   6 40.3915 9.13988  -2
  -3 -11   5 40.3915 9.13988   1
  -2 -11   5 13.8202 7.71723  -2
  -2 -11   5 13.8202 7.71723   1
  -1 -11   4 14.6422 7.51500  -2
  -1 -11   5 14.6422 7.51500   1
   1 -11   2 44.9119 7.76467  -2
   1 -11   5 44.9119 7.76467   1
   2 -11   5 148.688 12.3968   1
   3 -11   5 253.855 19.6460   1
  -5  11   2 121.013 12.6214  -2
   5 -11   5 121.013 12.6214   1
  -5 -10   7 21.6959 4.23542  -2
  -5 -10   5 21.6959 4.23542   1
  -4 -10   6 128.114 11.2096  -2
  -4 -10   5 128.114 11.2096   1
  -3 -10   5 586.149 42.7921  -2
  -3 -10   5 586.149 42.7921   1
  -2 -10   4 82.9315 10.4664  -2
  -2 -10   5 82.9315 10.4664   1
  -1 -10   3 135.034 6.09116  -2
  -1 -10   5 135.034 6.09116   1
   0 -10   2 394.451 16.0530  -2
   0 -10   5 394.451 16.0530   1
   1 -10   1 1.99419 1.70706  -2
   1 -10   5 1.99419 1.70706   1
  -2  10   0 3.75676 1.80214  -2
   2 -10   5 3.75676 1.80214   1
  -3  10   1 48.8718 3.29815  -2
   3 -10   5 48.8718 3.29815   1
  -5  10   3 89.1401 9.03025  -2
   5 -10   5 89.1401 9.03025   1
  -6  10   4 416.942 31.5523  -2
   6 -10   5 416.942 31.5523   1
  -7  -9   8 78.1744 10.6954  -2
  -7  -9   5 78.1744 10.6954   1
  -6  -9   7 110.815 11.6505  -2
  -6  -9   5 110.815 11.6505   1
  -5  -9   6 4.75672 6.89006  -2
  -5  -9   5 4.75672 6.89006   1
  -3  -9   4 51.7628 7.41546  -2
  -3  -9   5 51.7628 7.41546   1
  -2  -9   3 67.3105 7.66512  -2
  -2  -9   5 67.3105 7.66512   1
  -2  -9   5 25.8944 7.67569   1
  -1  -9   2 233.968 9.92195  -2
  -1  -9   5 233.968 9.92195   1
  -1  -9   5 121.522 10.1105   2
   0  -9   1 938.799 44.9065  -2
   0  -9   5 938.799 44.9065   1
   0  -9   5 429.978 31.3178   1
   0  -9   5 383.795 28.2378   2
   1  -9   5 77.6671 4.55503   1
   1  -9   5 65.5897 6.20535   2
   2  -9   5 213.452 10.7678   1
   2  -9   5 166.253 13.0719   2
   3  -9   5 341.483 17.9682   2
   3  -9   5 434.051 31.5126   1
  -3   9   2 660.938 48.1803  -2
   3  -9   5 660.938 48.1803   1
   4  -9   5 20.2373 3.51283   2
  -4   9   3 44.9822 6.80547  -2
   4  -9   5 44.9822 6.80547   1
   5  -9   5 22.5237 3.09379   2
  -6   9   5 40.0379 8.29696  -2
   6  -9   5 40.0379 8.29696   1
   6  -9   5 42.4161 5.54299   2
   7  -9   5 -1.0505 3.22114   2
  -7   9   6 37.2920 9.47523  -2
   7  -9   5 37.2920 9.47523   1
  -8  -8   9 8.81596 8.67497  -2
  -8  -8   5 8.81596 8.67497   1
  -8  -8   5 4.45760 2.48572   2
  -7  -8   5 29.4592 3.14983   2
  -7  -8   8 73.1292 9.61363  -2
  -7  -8   5 73.1292 9.61363   1
  -6  -8   5 282.763 22.1012   1
  -6  -8   5 211.821 11.8436   2
  -5  -8   5 34.6441 3.12150   2
  -5  -8   5 49.6656 6.02260   1
  -4  -8   5 65.7158 6.64257   1
  -4  -8   5 62.8062 6.17684   2
  -3  -8   5 612.975 23.0843   1
  -3  -8   5 499.506 36.2939   2
  -2  -8   5 56.4189 2.48919   1
  -2  -8   5 38.0738 3.24695   2
  -1  -8   5 50.3090 3.42406   2
  -1  -8   5 69.0113 3.45455   1
   0  -8   5 20.0522 2.35683   2
   0  -8   5 30.9277 2.09137   1
   1  -8   5 1.15675 0.98880   1
   1  -8   5 4.02884 1.11044   2
   2  -8   5 45.2571 2.34546   1
   2  -8   5 33.3131 2.96739   2
   3  -8   5 177.807 9.80946   2
   3  -8   5 226.627 9.81390   1
  -3   8   2 371.415 27.5711  -2
   3  -8   5 371.415 27.5711   1
   4  -8   5 25.7123 2.66084   2
   4  -8   5 31.4334 3.90286   1
   5  -8   5 166.444 9.89591   2
  -5   8   4 296.507 22.8516  -2
   5  -8   5 296.507 22.8516   1
   6  -8   5 219.768 13.0028   2
   7  -8   5 25.0458 3.59866   2
  -7   8   6 108.925 11.9238  -2
   7  -8   5 108.925 11.9238   1
  -8  -7   8 44.8028 7.00910  -2
  -8  -7   5 44.8028 7.00910   1
  -6  -7   6 46.9519 6.02808  -2
  -6  -7   5 46.9519 6.02808   1
  -5  -7   5 4.91593 3.88181  -2
  -5  -7   5 4.91593 3.88181   1
  -3  -7   3 395.959 24.0534  -2
  -3  -7   5 395.959 24.0534   1
  -2  -7   2 191.027 8.81682  -2
  -2  -7   5 191.027 8.81682   1
  -1  -7   1 633.536 30.3296  -2
  -1  -7   5 633.536 30.3296   1
   0   7   0 2127.97 100.656  -2
   0  -7   5 2127.97 100.656   1
  -1   7   1 228.637 17.0256  -2
   1  -7   5 228.637 17.0256   1
  -2   7   2 269.602 20.0595  -2
   2  -7   5 269.602 20.0595   1
  -3   7   3 684.221 49.5106  -2
   3  -7   5 684.221 49.5106   1
  -4   7   4 12.7306 3.76693  -2
   4  -7   5 12.7306 3.76693   1
  -5   7   5 -4.4116 4.14240  -2
   5  -7   5 -4.4116 4.14240   1
  -7   7   7 47.2203 7.45272  -2
   7  -7   5 47.2203 7.45272   1
  -8   7   8 84.6092 10.5264  -2
   8  -7   5 84.6092 10.5264   1
  -8  -6   7 48.3887 7.01935  -2
  -8  -6   5 48.3887 7.01935   1
  -7  -6   6 188.763 14.9572  -2
  -7  -6   5 188.763 14.9572   1
  -6  -6   5 1307.67 93.2154  -2
  -6  -6   5 1307.67 93.2154   1
  -5  -6   4 169.338 27.9697  -2
  -5  -6   5 169.338 27.9697   1
  -4  -6   3 330.961 27.6422  -2
  -4  -6   5 330.961 27.6422   1
  -3  -6   2 876.052 35.1105  -2
  -3  -6   5 876.052 35.1105   1
  -2  -6   1 12.9688 2.23257  -2
  -2  -6   5 12.9688 2.23257   1
   1   6   0 0.22939 2.14445  -2
  -1  -6   5 0.22939 2.14445   1
   0   6   1 270.958 14.0780  -2
   0  -6   5 270.958 14.0780   1
  -2   6   3 584.544 29.7779  -2
   2  -6   5 584.544 29.7779   1
  -3   6   4 1349.34 55.9495  -2
   3  -6   5 1349.34 55.9495   1
  -4   6   5 301.863 19.4678  -2
   4  -6   5 301.863 19.4678   1
  -5   6   6 391.548 29.3166  -2
   5  -6   5 391.548 29.3166   1
  -7   6   8 29.4755 8.33667  -2
   7  -6   5 29.4755 8.33667   1
  -8   6   9 60.6825 10.7195  -2
   8  -6   5 60.6825 10.7195   1
 -10  -5   5 32.7434 4.95081   2
  -9  -5   5 73.5674 7.42619   1
  -9  -5   5 68.5398 7.60773   2
  -8  -5   5 4.37951 2.40113   1
  -8  -5   5 -1.0070 2.19712   2
  -7  -5   5 2.34875 1.38638   1
  -7  -5   5 2.55031 2.03500   2
  -6  -5   5 67.0172 5.40876   1
  -6  -5   5 42.8846 4.22536   2
  -5  -5   5 42.9518 3.72780   1
  -5  -5   5 34.1397 1.88275   2
  -4  -5   5 209.264 9.38315   2
  -4  -5   5 252.007 10.5975   1
  -3  -5   5 1212.59 42.1147   1
  -3  -5   5 959.635 40.4618   2
  -2  -5   5 306.836 10.9382   1
  -2  -5   5 259.369 11.4295   2
  -1  -5   5 691.753 24.2500   1
  -1  -5   5 535.718 25.0231   2
   0  -5   5 1111.33 47.4298   2
   0  -5   5 1511.62 75.9916   1
   1  -5   5 51.0695 3.23799   2
   1  -5   5 76.5063 4.39389   1
   2  -5   5 74.6117 4.24729   2
   2  -5   5 100.238 5.23233   1
   3  -5   5 84.0531 5.11874   2
   3  -5   5 127.637 6.23974   1
   4  -5   5 -0.5530 1.20749   1
   4  -5   5 -1.9211 1.41418   2
   5  -5   5 47.9371 5.50572   1
   5  -5   5 35.1535 3.48180   2
   6  -5   5 88.3536 6.44767   2
   6  -5   5 100.291 9.56227   1
   7  -5   5 15.5881 4.18219   1
   7  -5   5 14.5463 3.18602   2
   8  -5   5 69.6326 6.23232   2
   8  -5   5 105.538 11.3862   1
  -9  -4   7 534.176 38.8522  -2
  -9  -4   5 534.176 38.8522   1
  -8  -4   6 167.954 13.2420  -2
  -8  -4   5 167.954 13.2420   1
  -7  -4   5 324.839 31.6758  -2
  -7  -4   5 324.839 31.6758   1
  -6  -4   4 1741.87 89.0131  -2
  -6  -4   5 1741.87 89.0131   1
  -6  -4   5 644.914 46.0116   2
  -5  -4   3 231.103 13.3594  -2
  -5  -4   5 231.103 13.3594   1
  -4  -4   2 111.432 8.31330  -2
  -4  -4   5 111.432 8.31330   1
  -4  -4   5 23.5426 6.13925   1
  -3  -4   5 153.480 18.1942   1
  -3  -4   1 656.053 68.9294  -2
  -3  -4   5 656.053 68.9294   1
   2   4   0 19.7096 1.49026  -2
  -2  -4   5 19.7096 1.49026   1
  -2  -4   5 1.33649 2.92539   1
   1   4   1 103.211 5.25098  -2
  -1  -4   5 103.211 5.25098   1
   0   4   2 1155.07 52.2322  -2
   0  -4   5 1155.07 52.2322   1
  -1   4   3 382.278 16.2577  -2
   1  -4   5 382.278 16.2577   1
  -2   4   4 692.635 29.0758  -2
   2  -4   5 692.635 29.0758   1
  -3   4   5 2059.30 85.3923  -2
   3  -4   5 2059.30 85.3923   1
  -4   4   6 602.247 27.7854  -2
   4  -4   5 602.247 27.7854   1
  -5   4   7 455.211 33.8241  -2
   5  -4   5 455.211 33.8241   1
  -6   4   8 322.800 25.0483  -2
   6  -4   5 322.800 25.0483   1
  -7   4   9 23.7484 7.99050  -2
   7  -4   5 23.7484 7.99050   1
  -8   4  10 -2.9069 9.61022  -2
   8  -4   5 -2.9069 9.61022   1
  -9  -3   6 80.4914 7.46369  -2
  -9  -3   5 80.4914 7.46369   1
  -8  -3   5 5.09724 19.5352  -2
  -8  -3   5 5.09724 19.5352   1
  -7  -3   4 55.0657 4.98954  -2
  -7  -3   5 55.0657 4.98954   1
  -6  -3   3 838.036 43.4571  -2
  -6  -3   5 838.036 43.4571   1
  -5  -3   2 432.335 33.8587  -2
  -5  -3   5 432.335 33.8587   1
  -4  -3   1 1222.17 126.683  -2
  -4  -3   5 1222.17 126.683   1
   3   3   0 3796.47 162.572  -2
  -3  -3   5 3796.47 162.572   1
   2   3   1 738.587 25.7279  -2
  -2  -3   5 738.587 25.7279   1
   1   3   2 857.388 35.6744  -2
  -1  -3   5 857.388 35.6744   1
   0   3   3 1510.88 68.2792  -2
   0  -3   5 1510.88 68.2792   1
  -1   3   4 15.8905 1.99535  -2
   1  -3   5 15.8905 1.99535   1
  -2   3   5 123.157 6.26606  -2
   2  -3   5 123.157 6.26606   1
  -3   3   6 33.2113 3.56776  -2
   3  -3   5 33.2113 3.56776   1
  -4   3   7 90.6261 5.58601  -2
   4  -3   5 90.6261 5.58601   1
  -5   3   8 162.484 13.6264  -2
   5  -3   5 162.484 13.6264   1
  -6   3   9 579.728 43.0268  -2
   6  -3   5 579.728 43.0268   1
  -7   3  10 92.8011 10.8801  -2
   7  -3   5 92.8011 10.8801   1
  -8   3  11 98.2225 12.4388  -2
   8  -3   5 98.2225 12.4388   1
 -10  -2   5 72.0651 6.88800   2
  -9  -2   5 492.231 28.2621   2
  -9  -2   5 651.919 35.3511   1
  -8  -2   5 33.9207 3.63349   2
  -8  -2   5 54.8894 4.56593   1
  -7  -2   5 120.059 8.08564   1
  -7  -2   5 92.6190 4.76197   2
  -6  -2   5 392.103 14.3959   2
  -6  -2   5 482.597 37.6786   1
  -5  -2   5 24.0004 1.79631   2
  -5  -2   5 34.0276 2.08195   1
  -4  -2   5 0.41199 0.66244   2
  -4  -2   5 -0.3652 0.63168   1
  -3  -2   5 132.029 4.46008   1
  -3  -2   5 119.672 5.49074   2
  -2  -2   5 100.933 4.58746   2
  -2  -2   5 110.161 5.03952   1
  -1  -2   5 422.980 18.3115   2
  -1  -2   5 595.969 25.1051   1
   0  -2   5 1543.52 63.9882   2
   0  -2   5 1855.14 76.8092   1
   1  -2   5 246.076 10.9950   1
   1  -2   5 196.413 8.94196   2
   2  -2   5 659.170 28.5091   2
   2  -2   5 860.486 36.3095   1
   3  -2   5 673.223 29.0005   1
   3  -2   5 569.588 24.9528   2
   4  -2   5 58.9618 4.16798   1
   4  -2   5 54.0532 3.07938   2
   5  -2   5 77.8486 3.75185   2
   5  -2   5 85.8510 8.19894   1
   6  -2   5 23.2121 4.51112   1
   6  -2   5 30.3462 2.26505   2
   7  -2   5 2.95250 2.64292   2
   7  -2   5 -6.4640 3.91224   1
   8  -2   5 17.0820 5.51224   1
   8  -2   5 11.3278 5.78470   2
  -9  -1   5 56.6612 4.64484   1
  -9  -1   5 50.3106 4.84478   2
  -8  -1   5 138.256 7.44629   1
  -8  -1   5 115.348 5.76013   2
  -7  -1   5 276.089 10.3973   2
  -7  -1   5 352.436 15.3931   1
  -6  -1   5 1107.80 46.0319   2
  -6  -1   5 1385.85 49.6666   1
  -5  -1   5 353.119 11.4187   1
  -5  -1   5 294.815 12.6815   2
  -4  -1   5 731.597 33.2365   2
  -4  -1   5 915.527 28.5945   1
  -3  -1   5 2436.47 84.2196   1
  -3  -1   5 2020.59 83.4006   2
  -2  -1   5 36.5469 2.35466   2
  -2  -1   5 38.9759 2.35683   1
  -1  -1   5 125.945 6.20412   1
  -1  -1   5 106.234 5.57153   2
   0  -1   5 171.067 8.31279   1
   0  -1   5 150.167 6.97251   2
   1  -1   5 0.60573 1.11787   1
   1  -1   5 0.94147 1.27888   2
   2  -1   5 117.391 6.33390   1
   2  -1   5 87.1097 4.84396   2
   3  -1   5 208.130 10.2093   2
   3  -1   5 238.011 11.8196   1
   4  -1   5 35.5495 3.55237   1
   4  -1   5 31.4901 2.33819   2
   5  -1   5 193.498 7.94129   2
  -5   1   9 244.057 19.7531  -2
   5  -1   5 244.057 19.7531   1
   5  -1   5 316.724 24.2125   1
   6  -1   5 255.571 13.0351   2
   6  -1   5 324.148 25.6945   1
  -7   1  11 139.379 14.4978  -2
   7  -1   5 139.379 14.4978   1
  -9   0   4 1286.16 97.4094  -2
  -9   0   5 1286.16 97.4094   1
  -8   0   3 259.695 12.5574  -2
  -8   0   5 259.695 12.5574   1
  -7   0   2 197.386 8.94414  -2
  -7   0   5 197.386 8.94414   1
  -6   0   1 408.074 17.5313  -2
  -6   0   5 408.074 17.5313   1
   5   0   0 14.8635 1.08540  -2
  -5   0   5 14.8635 1.08540   1
   4   0   1 68.1989 2.85672  -2
  -4   0   5 68.1989 2.85672   1
   3   0   2 1420.09 49.2815  -2
  -3   0   5 1420.09 49.2815   1
   2   0   3 1272.92 52.6932  -2
  -2   0   5 1272.92 52.6932   1
   1   0   4 1459.14 60.8190  -2
  -1   0   5 1459.14 60.8190   1
   0   0   5 3966.08 178.809  -2
   0   0   5 3966.08 178.809   1
  -1   0   6 884.985 40.9363  -2
   1   0   5 884.985 40.9363   1
  -2   0   7 444.127 27.6767  -2
   2   0   5 444.127 27.6767   1
  -3   0   8 610.619 27.1989  -2
   3   0   5 610.619 27.1989   1
  -4   0   9 93.2638 6.16840  -2
   4   0   5 93.2638 6.16840   1
  -5   0  10 9.41606 2.47709  -2
   5   0   5 9.41606 2.47709   1
  -7   0  12 45.2007 7.75181  -2
   7   0   5 45.2007 7.75181   1
 -10   1   5 13.3790 2.73827   2
  -9   1   5 325.476 30.9849   1
  -9   1   5 263.311 19.5932   2
  -8   1   5 169.015 8.00443   1
  -8   1   5 136.679 9.02214   2
  -7   1   5 327.121 17.9349   2
  -7   1   5 389.269 16.9325   1
  -6   1   5 1310.32 67.2327   2
  -6   1   5 1603.00 66.4494   1
  -5   1   5 275.565 10.1891   2
  -5   1   5 338.329 12.1726   1
  -4   1   5 452.352 15.9478   1
  -4   1   5 351.133 12.9568   2
  -3   1   5 1173.42 40.8411   1
  -3   1   5 889.292 40.4406   2
  -2   1   5 12.7236 1.35488   2
  -2   1   5 16.4555 1.78949   1
  -1   1   5 2.67321 0.98579   2
  -1   1   5 -0.0483 1.03793   1
   0   1   5 48.7308 3.54640   1
   0   1   5 40.9869 2.89238   2
   1   1   5 39.6430 3.39235   1
   1   1   5 25.4047 3.43736   2
   2   1   5 302.693 14.2910   2
   2   1   5 370.820 18.0807   1
   3   1   5 414.650 19.6096   1
   3   1   5 373.052 17.2729   2
   4   1   5 21.8582 3.40759   1
   4   1   5 26.9521 2.14985   2
   5   1   5 181.876 15.5643   1
   5   1   5 133.646 7.78816   2
  -5  -1  11 212.995 17.2809  -2
   5   1   5 212.995 17.2809   1
   6   1   5 225.478 18.7649   1
   6   1   5 131.182 10.9764   2
   7   1   5 7.26675 3.41630   2
   7   1   5 13.6982 5.24105   1
 -10   2   5 66.2529 6.53458   2
 -10   2   5 75.1892 7.02370   1
  -9   2   5 303.046 15.6409   1
  -9   2   5 261.463 19.5576   2
  -8   2   5 4.44035 1.08279   1
  -8   2   5 1.43545 1.61162   2
  -7   2   5 2.30146 0.92689   1
  -7   2   5 0.37303 1.56554   2
  -6   2   5 60.2138 4.65672   2
  -6   2   5 88.5226 4.46177   1
  -5   2   5 74.2683 3.73919   1
  -5   2   5 50.0675 4.21556   2
  -4   2   5 407.743 14.5654   1
  -4   2   5 345.963 15.8871   2
  -3   2   5 1668.56 58.0229   1
  -3   2   5 1315.89 54.6297   2
  -2   2   5 203.536 9.17902   2
  -2   2   5 235.514 14.3014   1
  -1   2   5 585.917 24.8505   2
  -1   2   5 777.131 32.9439   1
   0   2   5 881.600 36.8652   2
   0   2   5 1063.14 44.2292   1
   1   2   5 144.326 7.18754   2
   1   2   5 172.390 8.28689   1
   2   2   5 110.733 6.18463   2
   2   2   5 150.028 8.07155   1
   3   2   5 57.9266 4.35937   1
   3   2   5 44.6566 3.63154   2
   4   2   5 5.17108 2.24452   1
   4   2   5 1.58477 1.56699   2
   5   2   5 15.3207 3.07248   1
   5   2   5 8.17485 2.89908   2
   6   2   5 61.4871 7.80954   1
   6   2   5 40.5794 4.43846   2
  -9   3   2 797.033 57.4367  -2
  -9   3   5 797.033 57.4367   1
  -8   3   1 508.277 22.1271  -2
  -8   3   5 508.277 22.1271   1
  -7   3   0 578.816 24.9997  -2
  -7   3   5 578.816 24.9997   1
   6  -3   1 2483.90 181.561  -2
  -6   3   5 2483.90 181.561   1
   5  -3   2 568.818 44.9131  -2
  -5   3   5 568.818 44.9131   1
   4  -3   3 312.947 27.7843  -2
  -4   3   5 312.947 27.7843   1
   3  -3   4 565.087 23.5332  -2
  -3   3   5 565.087 23.5332   1
   2  -3   5 111.581 6.47740  -2
  -2   3   5 111.581 6.47740   1
   1  -3   6 186.549 9.77851  -2
  -1   3   5 186.549 9.77851   1
   0  -3   7 812.160 34.1213  -2
   0   3   5 812.160 34.1213   1
  -1  -3   8 220.199 12.4101  -2
   1   3   5 220.199 12.4101   1
  -2  -3   9 361.627 18.2465  -2
   2   3   5 361.627 18.2465   1
  -3  -3  10 892.042 43.0185  -2
   3   3   5 892.042 43.0185   1
  -4  -3  11 130.763 12.2634  -2
   4   3   5 130.763 12.2634   1
  -5  -3  12 109.020 8.42330  -2
   5   3   5 109.020 8.42330   1
  -6  -3  13 111.879 12.7010  -2
   6   3   5 111.879 12.7010   1
 -11   4   3 89.6750 10.1287  -2
 -11   4   5 89.6750 10.1287   1
  -9   4   1 123.790 10.6605  -2
  -9   4   5 123.790 10.6605   1
  -8   4   0 0.68482 3.91817  -2
  -8   4   5 0.68482 3.91817   1
   7  -4   1 47.4720 3.96085  -2
  -7   4   5 47.4720 3.96085   1
   6  -4   2 671.629 28.8649  -2
  -6   4   5 671.629 28.8649   1
   5  -4   3 373.586 17.2999  -2
  -5   4   5 373.586 17.2999   1
   4  -4   4 425.254 19.2794  -2
  -4   4   5 425.254 19.2794   1
   3  -4   5 2003.94 70.0894  -2
  -3   4   5 2003.94 70.0894   1
   2  -4   6 948.088 40.6829  -2
  -2   4   5 948.088 40.6829   1
   1  -4   7 622.921 26.9859  -2
  -1   4   5 622.921 26.9859   1
   0  -4   8 584.474 30.2662  -2
   0   4   5 584.474 30.2662   1
  -1  -4   9 54.9059 5.22414  -2
   1   4   5 54.9059 5.22414   1
  -2  -4  10 7.74305 4.85158  -2
   2   4   5 7.74305 4.85158   1
  -3  -4  11 34.2089 8.48324  -2
   3   4   5 34.2089 8.48324   1
  -4  -4  12 76.9838 10.2650  -2
   4   4   5 76.9838 10.2650   1
  -5  -4  13 52.6924 8.65049  -2
   5   4   5 52.6924 8.65049   1
 -12   5   5 49.9966 6.29528   2
 -12   5   5 56.2257 7.49810   1
 -11   5   5 83.6147 9.36408   1
 -11   5   5 61.8395 7.62504   2
 -10   5   5 89.8548 8.25981   1
 -10   5   5 85.2068 8.50316   2
  -9   5   5 459.042 33.9284   2
  -9   5   5 509.360 37.2092   1
  -8   5   5 161.545 8.96298   1
  -8   5   5 142.108 11.6005   2
  -7   5   5 120.828 7.05891   1
  -7   5   5 114.319 9.50196   2
  -6   5   5 510.072 22.3616   1
  -6   5   5 389.577 24.3003   2
  -5   5   5 20.2399 1.98386   1
  -5   5   5 9.40730 2.33393   2
  -4   5   5 2.82229 1.24609   1
  -4   5   5 -0.0291 1.04391   2
  -3   5   5 7.98518 1.48155   2
  -3   5   5 10.5432 1.64019   1
  -2   5   5 26.3869 2.57804   2
  -2   5   5 23.6210 2.90819   1
  -1   5   5 123.568 6.83662   2
  -1   5   5 164.169 8.66266   1
   0   5   5 448.209 23.5648   1
   0   5   5 364.441 18.9059   2
   1   5   5 46.0968 3.76874   2
   1   5   5 52.4728 4.72176   1
   2   5   5 136.794 8.19585   2
   2   5   5 149.540 9.50746   1
   3   5   5 207.536 11.8422   2
   3   5   5 229.424 13.6255   1
   4   5   5 23.8767 4.18454   2
   4   5   5 25.5909 4.11744   1
  -9   6   0 40.6922 7.22905  -2
  -9   6   5 40.6922 7.22905   1
   8  -6   1 17.4127 4.15053  -2
  -8   6   5 17.4127 4.15053   1
   7  -6   2 118.566 7.78995  -2
  -7   6   5 118.566 7.78995   1
   6  -6   3 697.091 35.8490  -2
  -6   6   5 697.091 35.8490   1
   5  -6   4 480.492 25.1441  -2
  -5   6   5 480.492 25.1441   1
   4  -6   5 330.062 17.6784  -2
  -4   6   5 330.062 17.6784   1
   3  -6   6 1160.02 58.9680  -2
  -3   6   5 1160.02 58.9680   1
   2  -6   7 274.599 15.0894  -2
  -2   6   5 274.599 15.0894   1
   1  -6   8 70.9609 6.04120  -2
  -1   6   5 70.9609 6.04120   1
   0  -6   9 73.1257 6.53703  -2
   0   6   5 73.1257 6.53703   1
  -2  -6  11 -1.1609 6.26658  -2
   2   6   5 -1.1609 6.26658   1
  -3  -6  12 71.3359 8.30003  -2
   3   6   5 71.3359 8.30003   1
 -11   7   1 123.453 12.4146  -2
 -11   7   5 123.453 12.4146   1
 -10   7   0 92.1172 9.60547  -2
 -10   7   5 92.1172 9.60547   1
   8  -7   2 115.664 11.9776  -2
  -8   7   5 115.664 11.9776   1
   7  -7   3 28.0462 4.38053  -2
  -7   7   5 28.0462 4.38053   1
   6  -7   4 139.523 8.59110  -2
  -6   7   5 139.523 8.59110   1
   5  -7   5 1.63021 3.67509  -2
  -5   7   5 1.63021 3.67509   1
   4  -7   6 14.8609 3.94544  -2
  -4   7   5 14.8609 3.94544   1
   3  -7   7 204.420 11.7415  -2
  -3   7   5 204.420 11.7415   1
   2  -7   8 231.459 13.2161  -2
  -2   7   5 231.459 13.2161   1
   0  -7  10 586.267 30.8446  -2
   0   7   5 586.267 30.8446   1
  -1  -7  11 114.508 8.72465  -2
   1   7   5 114.508 8.72465   1
  -2  -7  12 70.1711 7.57925  -2
   2   7   5 70.1711 7.57925   1
 -10   8   5 2.17003 3.76302   2
 -10   8   5 10.4481 3.77111   1
  -9   8   5 98.2735 9.62283   1
  -8   8   5 47.5516 5.64444   1
  -7   8   5 100.659 6.91271   1
  -6   8   5 381.530 20.3297   1
  -5   8   5 76.2733 6.32736   1
  -4   8   5 101.190 7.05641   1
  -3   8   5 139.663 9.63427   1
  -2   8   5 26.7077 3.54359   1
  -2   8   5 18.5922 2.82091   2
  -1   8   5 -1.4148 2.62058   2
  -1   8   5 2.09500 2.84986   1
   0   8   5 -0.9016 4.54308   2
   0   8   5 3.75139 3.31993   1
   1   8   5 1.70769 3.66467   1
   1   8   5 -1.7983 3.72784   2
  -8   9   5 15.4417 4.00454   1
  -7   9   5 3.58679 3.13797   1
  -6   9   5 -1.4017 2.58423   1
  -5   9   5 11.7035 2.93716   1
  -4   9   5 34.1069 3.88454   1
   3  -9   8 265.797 22.7753  -2
  -3   9   5 265.797 22.7753   1
  -3   9   5 190.379 16.0318   1
   2  -9   9 116.129 9.98380  -2
  -2   9   5 116.129 9.98380   1
   1  -9  10 52.1586 8.86791  -2
  -1   9   5 52.1586 8.86791   1
  -1 -12   6 14.8599 4.02425   1
  -1 -12   6 16.1076 4.22177   2
   0 -12   6 26.0779 3.57975   2
   0 -12   6 43.4755 5.75815   1
   1 -12   6 1.75461 3.81969   2
   1 -12   6 1.21182 3.68283   1
   2 -12   6 -1.6779 2.25054   1
   2 -12   6 2.74225 2.81150   2
  -4 -11   6 6.55986 8.77652  -2
  -4 -11   6 6.55986 8.77652   1
  -3 -11   5 65.6630 10.1964  -2
  -3 -11   6 65.6630 10.1964   1
  -2 -11   4 9.43063 7.79357  -2
  -2 -11   6 9.43063 7.79357   1
  -1 -11   3 127.352 12.6173  -2
  -1 -11   6 127.352 12.6173   1
   2 -11   6 105.981 10.0514   1
  -3  11   1 312.985 24.6997  -2
   3 -11   6 312.985 24.6997   1
  -4  11   2 12.8206 8.26314  -2
   4 -11   6 12.8206 8.26314   1
  -5 -10   6 20.1551 4.12113  -2
  -5 -10   6 20.1551 4.12113   1
  -4 -10   5 110.134 10.0444  -2
  -4 -10   6 110.134 10.0444   1
  -3 -10   4 380.590 28.3798  -2
  -3 -10   6 380.590 28.3798   1
  -2 -10   3 10.6426 3.70996  -2
  -2 -10   6 10.6426 3.70996   1
  -1 -10   2 12.0234 2.39555  -2
  -1 -10   6 12.0234 2.39555   1
   0 -10   1 -1.0455 1.77416  -2
   0 -10   6 -1.0455 1.77416   1
  -1  10   0 9.96510 1.81805  -2
   1 -10   6 9.96510 1.81805   1
  -2  10   1 88.4357 4.00009  -2
   2 -10   6 88.4357 4.00009   1
  -3  10   2 403.623 21.2601  -2
   3 -10   6 403.623 21.2601   1
  -4  10   3 46.0103 6.60320  -2
   4 -10   6 46.0103 6.60320   1
  -5  10   4 182.444 15.2671  -2
   5 -10   6 182.444 15.2671   1
  -7  -9   7 -3.3618 8.03213  -2
  -7  -9   6 -3.3618 8.03213   1
  -6  -9   6 -1.9535 7.76395  -2
  -6  -9   6 -1.9535 7.76395   1
  -5  -9   5 6.90086 6.88836  -2
  -5  -9   6 6.90086 6.88836   1
  -3  -9   6 137.143 24.6454   1
  -3  -9   3 455.151 33.6935  -2
  -3  -9   6 455.151 33.6935   1
  -2  -9   6 57.8086 6.07766   1
  -1  -9   1 383.933 25.4268  -2
  -1  -9   6 383.933 25.4268   1
  -1  -9   6 211.758 16.1874   1
   0  -9   6 521.242 25.1926   1
   0   9   0 989.515 71.1401  -2
   0  -9   6 989.515 71.1401   1
   1  -9   6 18.1009 3.04725   2
  -1   9   1 48.1176 6.52973  -2
   1  -9   6 48.1176 6.52973   1
   1  -9   6 26.2775 2.38485   1
  -2   9   2 140.967 11.9807  -2
   2  -9   6 140.967 11.9807   1
   2  -9   6 109.579 6.57051   1
   2  -9   6 83.2014 7.69064   2
  -3   9   3 143.722 12.5210  -2
   3  -9   6 143.722 12.5210   1
   3  -9   6 86.1704 5.88041   2
   3  -9   6 103.468 8.96349   1
   4  -9   6 0.27127 2.22236   2
   5  -9   6 6.27961 2.78470   2
  -5   9   5 21.4878 7.41502  -2
   5  -9   6 21.4878 7.41502   1
  -6   9   6 124.581 13.0932  -2
   6  -9   6 124.581 13.0932   1
   6  -9   6 18.9206 4.59489   2
  -8  -8   6 19.1241 4.20505   2
  -8  -8   6 16.9586 4.18832   1
  -7  -8   6 62.9440 7.24315   1
  -6  -8   6 317.373 25.0382   2
  -6  -8   6 430.588 32.4209   1
  -5  -8   6 13.9390 3.06483   2
  -5  -8   6 16.4499 2.31835   1
  -4  -8   6 89.3625 5.28007   1
  -4  -8   6 74.1757 7.01527   2
  -3  -8   6 90.5899 5.04749   1
  -3  -8   6 64.3969 6.19449   2
  -2  -8   6 0.17664 1.30893   2
  -2  -8   6 0.24431 0.98539   1
  -1  -8   6 5.11939 1.18912   1
  -1  -8   6 7.78507 1.53371   2
   0  -8   6 139.640 5.31509   1
   0  -8   6 109.486 6.36193   2
   1  -8   6 29.3583 2.83561   1
   1  -8   6 27.2081 2.62623   2
   2  -8   6 198.273 10.8297   2
   2  -8   6 264.266 13.9549   1
   3  -8   6 433.536 22.4284   1
   3  -8   6 334.417 17.7329   2
   4  -8   6 32.7866 3.38111   2
   4  -8   6 37.1107 5.13153   1
   5  -8   6 146.397 9.34145   2
  -6   8   6 296.915 23.6893  -2
   6  -8   6 296.915 23.6893   1
   6  -8   6 121.409 8.82251   2
   7  -8   6 4.30570 3.57845   2
  -7   8   7 38.5447 10.3845  -2
   7  -8   6 38.5447 10.3845   1
  -9  -7   8 69.9428 9.11788  -2
  -9  -7   6 69.9428 9.11788   1
  -8  -7   7 25.7462 6.31102  -2
  -8  -7   6 25.7462 6.31102   1
  -6  -7   5 55.5471 6.62781  -2
  -6  -7   6 55.5471 6.62781   1
  -3  -7   2 1326.07 57.2631  -2
  -3  -7   6 1326.07 57.2631   1
  -2  -7   1 333.964 12.0213  -2
  -2  -7   6 333.964 12.0213   1
   1   7   0 467.907 18.7996  -2
  -1  -7   6 467.907 18.7996   1
   0   7   1 1561.79 110.896  -2
   0  -7   6 1561.79 110.896   1
  -1   7   2 65.7886 4.33626  -2
   1  -7   6 65.7886 4.33626   1
  -2   7   3 55.8938 4.11638  -2
   2  -7   6 55.8938 4.11638   1
  -3   7   4 7.47314 2.81394  -2
   3  -7   6 7.47314 2.81394   1
  -4   7   5 23.7571 4.90336  -2
   4  -7   6 23.7571 4.90336   1
  -6   7   7 256.521 20.5680  -2
   6  -7   6 256.521 20.5680   1
  -7   7   8 69.2614 9.69075  -2
   7  -7   6 69.2614 9.69075   1
  -9  -6   7 414.338 31.1010  -2
  -9  -6   6 414.338 31.1010   1
  -8  -6   6 94.7033 9.41128  -2
  -8  -6   6 94.7033 9.41128   1
  -5  -6   3 57.5990 6.16639  -2
  -5  -6   6 57.5990 6.16639   1
  -4  -6   2 23.4126 4.47445  -2
  -4  -6   6 23.4126 4.47445   1
  -3  -6   1 6.71303 1.54395  -2
  -3  -6   6 6.71303 1.54395   1
   2   6   0 25.9067 2.09491  -2
  -2  -6   6 25.9067 2.09491   1
   1   6   1 255.468 10.5248  -2
  -1  -6   6 255.468 10.5248   1
   0   6   2 1168.74 83.1652  -2
   0  -6   6 1168.74 83.1652   1
  -1   6   3 413.696 21.3230  -2
   1  -6   6 413.696 21.3230   1
  -2   6   4 682.017 49.3606  -2
   2  -6   6 682.017 49.3606   1
  -3   6   5 1227.96 72.4582  -2
   3  -6   6 1227.96 72.4582   1
  -4   6   6 107.330 10.0028  -2
   4  -6   6 107.330 10.0028   1
  -5   6   7 157.557 13.8799  -2
   5  -6   6 157.557 13.8799   1
  -6   6   8 45.4061 8.91726  -2
   6  -6   6 45.4061 8.91726   1
  -7   6   9 -2.9603 8.99271  -2
   7  -6   6 -2.9603 8.99271   1
 -10  -5   6 -1.6655 2.37079   2
 -10  -5   6 5.39169 3.61509   1
  -9  -5   6 0.39121 2.02637   2
  -9  -5   6 0.20091 2.76475   1
  -8  -5   6 8.42869 1.81609   2
  -8  -5   6 6.80598 2.57739   1
  -7  -5   6 56.4989 5.67399   1
  -7  -5   6 39.9673 4.41732   2
  -6  -5   6 380.039 23.5538   2
  -6  -5   6 481.441 29.5996   1
  -5  -5   6 114.140 5.74749   2
  -5  -5   6 140.197 6.43603   1
  -4  -5   6 510.585 20.7973   1
  -4  -5   6 430.577 18.4918   2
  -3  -5   6 1148.71 45.7370   1
  -3  -5   6 979.919 41.0110   2
  -2  -5   6 125.347 4.80506   1
  -2  -5   6 90.8176 6.03386   2
  -1  -5   6 251.099 11.0021   1
  -1  -5   6 190.620 10.1084   2
   0  -5   6 277.721 13.2087   2
   0  -5   6 396.749 18.2744   1
   1  -5   6 0.96555 1.50452   2
   1  -5   6 0.72628 1.25082   1
   2  -5   6 11.0565 1.89908   2
   2  -5   6 22.3277 2.17847   1
   3  -5   6 99.8548 5.94484   1
   3  -5   6 52.3922 4.19662   2
   4  -5   6 15.3334 2.41315   2
   4  -5   6 22.6608 3.51490   1
   5  -5   6 232.822 18.2914   1
   5  -5   6 167.335 9.92799   2
   6  -5   6 299.356 23.3415   1
   6  -5   6 228.197 18.2808   2
   7  -5   6 2.66376 3.16556   2
   7  -5   6 4.83133 4.29655   1
 -10  -4   7 104.338 10.3842  -2
 -10  -4   6 104.338 10.3842   1
  -7  -4   4 167.995 13.0674  -2
  -7  -4   6 167.995 13.0674   1
  -6  -4   3 883.312 46.1557  -2
  -6  -4   6 883.312 46.1557   1
  -5  -4   2 34.0471 4.16084  -2
  -5  -4   6 34.0471 4.16084   1
  -4  -4   1 25.9169 2.58785  -2
  -4  -4   6 25.9169 2.58785   1
   3   4   0 364.032 15.0445  -2
  -3  -4   6 364.032 15.0445   1
   2   4   1 305.054 12.6340  -2
  -2  -4   6 305.054 12.6340   1
   1   4   2 536.638 28.3163  -2
  -1  -4   6 536.638 28.3163   1
   0   4   3 3402.62 198.751  -2
   0  -4   6 3402.62 198.751   1
  -1   4   4 641.275 38.6771  -2
   1  -4   6 641.275 38.6771   1
  -2   4   5 1166.07 48.7190  -2
   2  -4   6 1166.07 48.7190   1
  -3   4   6 877.909 40.3141  -2
   3  -4   6 877.909 40.3141   1
  -4   4   7 132.332 11.6279  -2
   4  -4   6 132.332 11.6279   1
  -5   4   8 64.0568 8.37662  -2
   5  -4   6 64.0568 8.37662   1
  -7   4  10 18.3010 9.31408  -2
   7  -4   6 18.3010 9.31408   1
 -10  -3   6 -0.8119 4.83473  -2
 -10  -3   6 -0.8119 4.83473   1
  -8  -3   4 78.0148 8.26036  -2
  -8  -3   6 78.0148 8.26036   1
  -7  -3   3 353.566 19.9231  -2
  -7  -3   6 353.566 19.9231   1
  -6  -3   2 1763.61 90.0174  -2
  -6  -3   6 1763.61 90.0174   1
  -5  -3   1 626.245 32.6253  -2
  -5  -3   6 626.245 32.6253   1
   4   3   0 769.201 30.9289  -2
  -4  -3   6 769.201 30.9289   1
   3   3   1 2382.33 120.828  -2
  -3  -3   6 2382.33 120.828   1
   2   3   2 335.538 17.9723  -2
  -2  -3   6 335.538 17.9723   1
   1   3   3 46.9620 4.29742  -2
  -1  -3   6 46.9620 4.29742   1
   0   3   4 222.039 12.8186  -2
   0  -3   6 222.039 12.8186   1
  -1   3   5 206.274 13.3785  -2
   1  -3   6 206.274 13.3785   1
  -2   3   6 102.971 7.81160  -2
   2  -3   6 102.971 7.81160   1
  -3   3   7 919.432 55.4991  -2
   3  -3   6 919.432 55.4991   1
  -4   3   8 229.178 18.1296  -2
   4  -3   6 229.178 18.1296   1
  -5   3   9 247.740 19.8335  -2
   5  -3   6 247.740 19.8335   1
  -6   3  10 497.286 37.6494  -2
   6  -3   6 497.286 37.6494   1
  -7   3  11 60.8734 10.1789  -2
   7  -3   6 60.8734 10.1789   1
 -10  -2   6 42.1625 5.20032   1
 -10  -2   6 35.7178 4.27860   2
  -9  -2   6 336.190 19.6392   2
  -9  -2   6 385.164 22.7224   1
  -8  -2   6 52.6258 4.20633   1
  -8  -2   6 27.1233 2.44362   2
  -7  -2   6 29.6900 2.35573   2
  -7  -2   6 33.6599 3.39070   1
  -6  -2   6 1.61207 1.01515   1
  -6  -2   6 3.50881 0.95710   2
  -5  -2   6 23.5031 1.83274   1
  -5  -2   6 18.9099 1.68748   2
  -4  -2   6 159.269 7.40686   2
  -4  -2   6 173.871 6.77977   1
  -3  -2   6 1126.77 39.3032   1
  -3  -2   6 955.908 39.8815   2
  -2  -2   6 262.669 11.4283   1
  -2  -2   6 224.403 10.7894   2
  -1  -2   6 668.312 35.5613   2
  -1  -2   6 815.454 34.5134   1
   0  -2   6 1344.35 55.7297   1
   0  -2   6 1136.66 47.4619   2
   1  -2   6 174.100 8.26685   2
   1  -2   6 201.578 9.48798   1
   2  -2   6 242.642 11.5957   2
   2  -2   6 301.698 18.8416   1
   3  -2   6 176.758 9.40110   1
   3  -2   6 160.039 8.42175   2
   4  -2   6 4.59729 1.56598   2
   4  -2   6 23.8235 2.70188   1
   5  -2   6 0.72573 1.61379   2
   5  -2   6 1.65529 3.42991   1
   6  -2   6 7.04284 4.16369   1
   6  -2   6 6.83065 2.85681   2
   7  -2   6 6.74020 4.95149   1
   7  -2   6 5.58609 5.51517   2
  -9  -1   6 264.436 28.6382   1
  -9  -1   6 212.323 11.1338   2
  -9  -1   4 326.468 24.0970  -2
  -9  -1   6 326.468 24.0970   1
  -8  -1   6 115.035 5.83603   2
  -8  -1   6 159.013 9.97227   1
  -7  -1   6 346.198 19.0151   1
  -7  -1   6 282.342 13.3458   2
  -6  -1   6 1255.57 43.7411   1
  -6  -1   6 983.193 41.0722   2
  -5  -1   6 150.930 7.41032   1
  -5  -1   6 125.558 6.22103   2
  -4  -1   6 139.530 6.46061   2
  -4  -1   6 161.574 6.19907   1
  -3  -1   6 586.619 24.8462   2
  -3  -1   6 712.668 25.0571   1
  -2  -1   6 16.5980 1.57962   1
  -2  -1   6 14.6717 1.68548   2
  -1  -1   6 9.13536 1.42286   2
  -1  -1   6 9.33608 1.51697   1
   0  -1   6 149.839 17.0602   1
   0  -1   6 129.420 6.70507   2
   1  -1   6 58.3659 3.86397   2
   1  -1   6 68.6865 4.10777   1
   2  -1   6 321.911 15.2352   2
   2  -1   6 389.908 18.6140   1
   3  -1   6 469.067 21.6989   2
   3  -1   6 556.462 26.6801   1
   4  -1   6 22.2772 2.54880   2
  -4   1   9 283.653 22.0453  -2
   4  -1   6 283.653 22.0453   1
   4  -1   6 43.5480 5.00236   1
   5  -1   6 118.270 6.83133   2
  -6   1  11 369.632 29.2459  -2
   6  -1   6 369.632 29.2459   1
   6  -1   6 131.633 8.59536   2
   7  -1   6 -0.7139 5.57006   2
  -7   1  12 51.5837 11.3863  -2
   7  -1   6 51.5837 11.3863   1
  -9   0   3 447.639 25.0040  -2
  -9   0   6 447.639 25.0040   1
  -8   0   2 36.8333 4.16334  -2
  -8   0   6 36.8333 4.16334   1
  -7   0   1 15.1599 1.45521  -2
  -7   0   6 15.1599 1.45521   1
   6   0   0 326.444 14.5814  -2
  -6   0   6 326.444 14.5814   1
   5   0   1 291.028 13.0409  -2
  -5   0   6 291.028 13.0409   1
   4   0   2 952.374 41.2521  -2
  -4   0   6 952.374 41.2521   1
   3   0   3 2622.57 112.853  -2
  -3   0   6 2622.57 112.853   1
   2   0   4 894.842 37.5706  -2
  -2   0   6 894.842 37.5706   1
   1   0   5 1020.36 46.5399  -2
  -1   0   6 1020.36 46.5399   1
   0   0   6 2231.06 92.6917  -2
   0   0   6 2231.06 92.6917   1
  -1   0   7 269.373 12.5628  -2
   1   0   6 269.373 12.5628   1
  -2   0   8 161.614 8.54829  -2
   2   0   6 161.614 8.54829   1
  -3   0   9 8.85291 2.27226  -2
   3   0   6 8.85291 2.27226   1
  -4   0  10 24.1119 3.01543  -2
   4   0   6 24.1119 3.01543   1
  -6   0  12 214.464 17.8864  -2
   6   0   6 214.464 17.8864   1
 -10   1   6 76.3842 7.35161   2
  -9   1   6 509.484 37.1128   2
  -9   1   6 637.829 29.6634   1
  -9   1   2 1069.87 76.1516  -2
  -9   1   6 1069.87 76.1516   1
  -8   1   6 203.229 9.71008   1
  -8   1   6 141.350 9.20017   2
  -7   1   6 374.019 16.3004   1
  -7   1   6 287.926 16.4006   2
  -6   1   6 758.958 39.6117   2
  -6   1   6 964.719 43.9601   1
  -5   1   6 67.4360 2.83695   1
  -5   1   6 51.6237 3.09046   2
  -4   1   6 30.7835 2.40450   2
  -4   1   6 38.9316 2.05957   1
  -3   1   6 18.4837 1.79223   2
  -3   1   6 31.1375 1.86123   1
  -2   1   6 14.1735 1.75118   1
  -2   1   6 7.97137 1.46351   2
  -1   1   6 208.289 9.86255   1
  -1   1   6 165.732 8.08991   2
   0   1   6 527.468 29.0369   1
   0   1   6 452.615 19.5540   2
   0  -1   7 1098.73 78.5947  -2
   0   1   6 1098.73 78.5947   1
   1   1   6 122.484 6.60633   1
   1   1   6 103.903 6.03314   2
   2   1   6 259.158 13.1114   2
   2   1   6 319.443 16.2121   1
  -3  -1  10 959.440 68.9360  -2
   3   1   6 959.440 68.9360   1
   3   1   6 521.264 34.7891   1
   3   1   6 509.493 26.6217   2
   4   1   6 42.7225 3.64680   2
   4   1   6 47.9560 6.21502   1
  -4  -1  11 128.215 12.6758  -2
   4   1   6 128.215 12.6758   1
   5   1   6 71.8216 9.13918   1
   5   1   6 70.5580 7.93163   2
   6   1   6 71.0236 6.26609   2
   6   1   6 79.4858 10.5168   1
 -11   2   6 12.1888 3.56619   2
 -10   2   6 3.82425 1.98228   1
 -10   2   6 3.79247 2.48865   2
  -9   2   6 4.48682 2.26160   2
  -9   2   6 4.54491 1.40749   1
  -8   2   6 6.12094 2.03870   2
  -8   2   6 8.81668 1.47309   1
  -7   2   6 83.9452 4.66225   1
  -7   2   6 55.7050 4.65252   2
  -6   2   6 652.752 27.7511   1
  -6   2   6 523.442 31.9725   2
  -5   2   6 191.556 7.11820   1
  -5   2   6 149.156 7.01694   2
  -4   2   6 480.025 17.2777   1
  -4   2   6 364.601 16.9913   2
  -3   2   6 1395.87 49.0766   1
  -3   2   6 1034.34 43.0321   2
  -2   2   6 302.232 15.4956   1
  -2   2   6 212.019 10.8268   2
  -1   2   6 402.310 17.7049   1
  -1   2   6 334.373 14.6508   2
   0   2   6 245.150 11.1549   2
   0   2   6 301.840 13.6843   1
   1   2   6 21.0858 2.40120   2
   1   2   6 37.6946 2.71689   1
   2   2   6 3.06112 1.56577   2
   2   2   6 -4.1431 1.94035   1
   3   2   6 23.2412 3.26019   1
   3   2   6 30.4033 2.49750   2
   4   2   6 2.22943 2.84171   2
   4   2   6 2.45753 2.48107   1
   5   2   6 66.6899 5.85646   2
   5   2   6 82.8123 10.3324   1
  -9   3   1 1034.18 52.2894  -2
  -9   3   6 1034.18 52.2894   1
  -8   3   0 381.531 18.1017  -2
  -8   3   6 381.531 18.1017   1
   7  -3   1 250.295 11.9813  -2
  -7   3   6 250.295 11.9813   1
   6  -3   2 733.728 31.2030  -2
  -6   3   6 733.728 31.2030   1
   5  -3   3 38.3126 3.32472  -2
  -5   3   6 38.3126 3.32472   1
   4  -3   4 115.151 5.39673  -2
  -4   3   6 115.151 5.39673   1
   3  -3   5 55.9981 3.35285  -2
  -3   3   6 55.9981 3.35285   1
   2  -3   6 99.6667 5.90110  -2
  -2   3   6 99.6667 5.90110   1
   1  -3   7 242.301 12.3557  -2
  -1   3   6 242.301 12.3557   1
   0  -3   8 1239.53 56.0841  -2
   0   3   6 1239.53 56.0841   1
  -1  -3   9 332.291 17.6062  -2
   1   3   6 332.291 17.6062   1
  -2  -3  10 193.927 11.3168  -2
   2   3   6 193.927 11.3168   1
  -3  -3  11 420.054 31.6765  -2
   3   3   6 420.054 31.6765   1
  -4  -3  12 99.2858 10.9203  -2
   4   3   6 99.2858 10.9203   1
  -5  -3  13 25.5471 8.91508  -2
   5   3   6 25.5471 8.91508   1
 -10   4   1 14.0709 5.90070  -2
 -10   4   6 14.0709 5.90070   1
  -9   4   0 102.921 6.75159  -2
  -9   4   6 102.921 6.75159   1
   8  -4   1 104.550 6.70173  -2
  -8   4   6 104.550 6.70173   1
   7  -4   2 190.091 10.7134  -2
  -7   4   6 190.091 10.7134   1
   6  -4   3 1465.07 61.9002  -2
  -6   4   6 1465.07 61.9002   1
   5  -4   4 636.179 28.0971  -2
  -5   4   6 636.179 28.0971   1
   4  -4   5 612.729 27.8077  -2
  -4   4   6 612.729 27.8077   1
   3  -4   6 759.847 34.3202  -2
  -3   4   6 759.847 34.3202   1
   2  -4   7 183.183 10.6645  -2
  -2   4   6 183.183 10.6645   1
   1  -4   8 52.1486 5.27162  -2
  -1   4   6 52.1486 5.27162   1
   0  -4   9 4.09699 4.34458  -2
   0   4   6 4.09699 4.34458   1
  -1  -4  10 21.3962 5.10219  -2
   1   4   6 21.3962 5.10219   1
  -3  -4  12 218.220 19.2550  -2
   3   4   6 218.220 19.2550   1
  -4  -4  13 66.3556 8.45931  -2
   4   4   6 66.3556 8.45931   1
 -11   5   6 43.9326 5.78416   2
 -10   5   6 84.1078 8.01393   1
  -9   5   6 285.246 21.9150   2
  -9   5   6 342.218 18.0768   1
  -8   5   6 18.0410 2.36744   1
  -8   5   6 15.1219 3.20183   2
  -7   5   6 13.0127 1.94275   1
  -7   5   6 10.0920 2.60704   2
  -6   5   6 6.39376 1.63130   1
  -6   5   6 4.76746 2.34725   2
  -5   5   6 11.6768 1.75197   1
  -5   5   6 1.99576 2.08175   2
  -4   5   6 83.9434 4.83066   2
  -4   5   6 95.1442 6.12750   1
  -3   5   6 266.738 13.1418   2
  -3   5   6 304.391 16.0588   1
  -2   5   6 47.1726 3.88070   2
  -2   5   6 62.3294 4.88699   1
  -1   5   6 209.236 11.9203   1
  -1   5   6 169.772 9.56791   2
   0   5   6 379.024 19.9782   2
   0   5   6 421.545 22.5437   1
   1   5   6 38.1223 3.79428   2
   1   5   6 34.0868 5.18956   1
   2   5   6 74.3004 5.82449   2
   2   5   6 78.5139 7.03790   1
   3   5   6 45.4754 5.03471   1
   3   5   6 45.8354 5.12316   2
 -11   6   1 11.4405 8.82179  -2
 -11   6   6 11.4405 8.82179   1
   9  -6   1 244.226 19.5505  -2
  -9   6   6 244.226 19.5505   1
   8  -6   2 191.868 11.4120  -2
  -8   6   6 191.868 11.4120   1
   7  -6   3 279.578 15.4696  -2
  -7   6   6 279.578 15.4696   1
   6  -6   4 1002.38 51.1601  -2
  -6   6   6 1002.38 51.1601   1
   5  -6   5 343.068 18.5790  -2
  -5   6   6 343.068 18.5790   1
   4  -6   6 120.278 8.07939  -2
  -4   6   6 120.278 8.07939   1
   3  -6   7 368.686 19.9066  -2
  -3   6   6 368.686 19.9066   1
   2  -6   8 91.0561 7.17434  -2
  -2   6   6 91.0561 7.17434   1
  -1  -6  11 36.3587 6.97066  -2
   1   6   6 36.3587 6.97066   1
  -2  -6  12 50.3067 8.33970  -2
   2   6   6 50.3067 8.33970   1
  10  -7   1 40.7922 7.56377  -2
 -10   7   6 40.7922 7.56377   1
   9  -7   2 249.157 19.7855  -2
  -9   7   6 249.157 19.7855   1
   8  -7   3 8.90587 8.75874  -2
  -8   7   6 8.90587 8.75874   1
   7  -7   4 18.9834 9.05504  -2
  -7   7   6 18.9834 9.05504   1
   6  -7   5 61.5047 9.24436  -2
  -6   7   6 61.5047 9.24436   1
   5  -7   6 98.4643 10.9580  -2
  -5   7   6 98.4643 10.9580   1
   2  -7   9 149.242 9.83901  -2
  -2   7   6 149.242 9.83901   1
   1  -7  10 92.8403 7.86855  -2
  -1   7   6 92.8403 7.86855   1
   0  -7  11 209.468 13.0492  -2
   0   7   6 209.468 13.0492   1
  -1  -7  12 33.2420 10.0583  -2
   1   7   6 33.2420 10.0583   1
   1   7   6 38.0331 6.70545   2
   1   7   6 39.6414 7.29187   1
  -9   8   6 213.433 17.3347   1
  -8   8   6 46.2593 4.90693   1
  -7   8   6 96.4518 7.45692   1
  -6   8   6 171.235 10.6522   1
  -5   8   6 42.5778 4.40267   1
  -4   8   6 14.4111 3.11064   1
  -3   8   6 3.73985 2.94847   1
  -3   8   6 5.63378 3.77214   2
  -2   8   6 4.78208 4.11278   2
  -2   8   6 -3.0572 3.01721   1
  -1   8   6 11.8177 3.81417   1
  -1   8   6 13.7128 3.87192   2
  -7   9   6 19.2326 3.62669   1
  -6   9   6 112.310 11.1775   1
   6  -9   6 136.817 16.8751  -2
  -6   9   6 136.817 16.8751   1
  -5   9   6 13.2773 4.36280   1
   5  -9   7 23.9971 13.0145  -2
  -5   9   6 23.9971 13.0145   1
  -4   9   6 61.4605 5.81965   1
  -4 -11   5 28.6690 9.31691  -2
  -4 -11   7 28.6690 9.31691   1
  -3 -11   4 228.495 19.2003  -2
  -3 -11   7 228.495 19.2003   1
  -2 -11   3 63.3569 9.75414  -2
  -2 -11   7 63.3569 9.75414   1
  -1 -11   2 174.047 15.4609  -2
  -1 -11   7 174.047 15.4609   1
   0 -11   1 391.763 29.8990  -2
   0 -11   7 391.763 29.8990   1
   2 -11   7 32.4826 6.20299   1
  -3  11   2 68.5230 10.0818  -2
   3 -11   7 68.5230 10.0818   1
  -5 -10   5 22.1444 4.26496  -2
  -5 -10   7 22.1444 4.26496   1
  -4 -10   4 30.9807 4.73005  -2
  -4 -10   7 30.9807 4.73005   1
  -3 -10   3 68.7492 4.12084  -2
  -3 -10   7 68.7492 4.12084   1
  -2 -10   2 -1.1417 1.77949  -2
  -2 -10   7 -1.1417 1.77949   1
  -1 -10   1 10.4464 1.99679  -2
  -1 -10   7 10.4464 1.99679   1
   0  10   0 159.420 7.24176  -2
   0 -10   7 159.420 7.24176   1
  -1  10   1 41.5562 2.85139  -2
   1 -10   7 41.5562 2.85139   1
  -2  10   2 118.583 5.17357  -2
   2 -10   7 118.583 5.17357   1
  -4  10   4 124.680 11.6278  -2
   4 -10   7 124.680 11.6278   1
  -7  -9   6 11.3439 8.48353  -2
  -7  -9   7 11.3439 8.48353   1
  -6  -9   5 101.014 11.4382  -2
  -6  -9   7 101.014 11.4382   1
  -5  -9   4 66.6099 8.86281  -2
  -5  -9   7 66.6099 8.86281   1
  -2  -9   1 84.5804 8.18791  -2
  -2  -9   7 84.5804 8.18791   1
  -1  -9   7 134.584 9.86543   1
   0   9   1 341.447 25.5448  -2
   0  -9   7 341.447 25.5448   1
   0  -9   7 217.737 15.0532   1
   0  -9   7 179.416 14.1944   2
   1  -9   7 -1.1286 2.42389   2
   1  -9   7 3.91540 2.82721   1
  -1   9   2 5.54044 5.65988  -2
   1  -9   7 5.54044 5.65988   1
   2  -9   7 -0.1289 2.59428   2
  -2   9   3 1.15877 6.23703  -2
   2  -9   7 1.15877 6.23703   1
   3  -9   7 -1.4536 2.58497   2
   4  -9   7 -1.9415 2.50758   2
  -4   9   5 21.2243 7.80297  -2
   4  -9   7 21.2243 7.80297   1
   5  -9   7 29.0414 5.30556   2
  -5   9   6 45.0359 9.22607  -2
   5  -9   7 45.0359 9.22607   1
  -8  -8   7 17.3711 8.60247  -2
  -8  -8   7 17.3711 8.60247   1
  -7  -8   7 20.0700 3.76519   2
  -7  -8   6 62.4355 9.32635  -2
  -7  -8   7 62.4355 9.32635   1
  -6  -8   7 81.0156 8.83989   2
  -6  -8   7 106.560 6.85345   1
  -5  -8   7 9.16076 2.76677   2
  -5  -8   7 8.35909 2.89415   1
  -4  -8   7 -1.5287 1.45013   1
  -4  -8   7 -1.3188 1.98965   2
  -3  -8   7 32.1724 2.66447   1
  -3  -8   7 27.5761 2.64612   2
  -2  -8   7 4.25704 1.54969   2
  -2  -8   7 3.83946 1.55051   1
  -1  -8   7 109.873 6.50538   2
  -1  -8   7 138.654 6.13204   1
   0  -8   7 281.813 14.9869   2
   0  -8   7 358.826 14.6982   1
   1  -8   7 53.5649 4.03439   1
   1  -8   7 39.2787 3.60781   2
   2  -8   7 268.319 14.3142   1
   2  -8   7 205.541 11.4310   2
   3  -8   7 252.645 13.9765   2
   3  -8   7 333.675 25.0677   1
   4  -8   7 12.8899 3.21515   2
   5  -8   7 38.4764 4.30932   2
  -5   8   6 122.937 12.7805  -2
   5  -8   7 122.937 12.7805   1
   6  -8   7 9.50416 3.53409   2
  -6   8   7 20.3466 9.66026  -2
   6  -8   7 20.3466 9.66026   1
  -9  -7   7 19.3864 7.28458  -2
  -9  -7   7 19.3864 7.28458   1
  -8  -7   6 8.18800 5.65730  -2
  -8  -7   7 8.18800 5.65730   1
  -5  -7   3 165.291 13.3208  -2
  -5  -7   7 165.291 13.3208   1
  -4  -7   2 416.388 30.5588  -2
  -4  -7   7 416.388 30.5588   1
  -3  -7   1 1325.43 63.0483  -2
  -3  -7   7 1325.43 63.0483   1
   2   7   0 81.5536 4.01515  -2
  -2  -7   7 81.5536 4.01515   1
   1   7   1 140.135 6.23591  -2
  -1  -7   7 140.135 6.23591   1
   0   7   2 177.896 9.73064  -2
   0  -7   7 177.896 9.73064   1
  -1   7   3 1.02224 2.66268  -2
   1  -7   7 1.02224 2.66268   1
  -2   7   4 29.3326 3.56800  -2
   2  -7   7 29.3326 3.56800   1
  -3   7   5 216.772 16.9691  -2
   3  -7   7 216.772 16.9691   1
  -4   7   6 144.789 12.5375  -2
   4  -7   7 144.789 12.5375   1
  -5   7   7 205.208 17.0335  -2
   5  -7   7 205.208 17.0335   1
  -6   7   8 406.493 31.2681  -2
   6  -7   7 406.493 31.2681   1
  -9  -6   6 380.826 28.7887  -2
  -9  -6   7 380.826 28.7887   1
  -6  -6   3 136.272 11.5868  -2
  -6  -6   7 136.272 11.5868   1
  -5  -6   2 3.58597 4.19990  -2
  -5  -6   7 3.58597 4.19990   1
  -4  -6   1 24.0855 3.24484  -2
  -4  -6   7 24.0855 3.24484   1
   3   6   0 486.440 20.1619  -2
  -3  -6   7 486.440 20.1619   1
   2   6   1 281.422 10.4977  -2
  -2  -6   7 281.422 10.4977   1
   1   6   2 590.308 27.0489  -2
  -1  -6   7 590.308 27.0489   1
   0   6   3 1547.44 70.0386  -2
   0  -6   7 1547.44 70.0386   1
  -1   6   4 275.943 12.1378  -2
   1  -6   7 275.943 12.1378   1
  -2   6   5 315.906 15.3790  -2
   2  -6   7 315.906 15.3790   1
  -3   6   6 431.533 22.6236  -2
   3  -6   7 431.533 22.6236   1
  -4   6   7 40.9359 7.47443  -2
   4  -6   7 40.9359 7.47443   1
  -5   6   8 24.1636 7.98726  -2
   5  -6   7 24.1636 7.98726   1
  -6   6   9 27.7751 9.61279  -2
   6  -6   7 27.7751 9.61279   1
 -10  -5   7 9.02939 3.42530   2
 -10  -5   7 6.73074 3.50641   1
  -9  -5   7 93.2740 8.52094   2
  -9  -5   7 114.243 10.1249   1
  -8  -5   7 35.8804 4.34356   1
  -8  -5   7 27.7571 3.55110   2
  -7  -5   7 132.784 10.4163   2
  -7  -5   7 167.753 13.0593   1
  -6  -5   7 582.312 28.0720   1
  -6  -5   7 478.473 22.5729   2
  -5  -5   7 122.824 6.03460   2
  -5  -5   7 129.167 6.29687   1
  -4  -5   7 285.885 12.0637   1
  -4  -5   7 254.592 11.6027   2
  -3  -5   7 509.120 17.9726   1
  -3  -5   7 428.199 18.7143   2
  -2  -5   7 6.90503 1.33571   2
  -2  -5   7 11.2763 1.21272   1
  -1  -5   7 2.69445 1.14567   2
  -1  -5   7 1.67614 1.10531   1
   0  -5   7 0.76274 1.22524   1
   0  -5   7 2.91019 1.13614   2
   1  -5   7 14.5475 1.88594   2
   1  -5   7 10.2708 1.81940   1
   2  -5   7 124.477 7.18895   2
   2  -5   7 191.046 9.71262   1
   3  -5   7 335.318 17.6657   1
   3  -5   7 244.671 13.4886   2
   4  -5   7 22.2580 4.17718   1
   4  -5   7 12.3864 2.57189   2
   5  -5   7 160.044 13.9512   1
   5  -5   7 128.331 12.4434   2
   6  -5   7 137.551 9.13576   2
   6  -5   7 182.271 16.1551   1
  -8  -4   4 44.2887 6.05012  -2
  -8  -4   7 44.2887 6.05012   1
  -7  -4   3 32.1627 5.10489  -2
  -7  -4   7 32.1627 5.10489   1
  -6  -4   2 34.8524 5.83891  -2
  -6  -4   7 34.8524 5.83891   1
  -5  -4   1 27.0045 3.88574  -2
  -5  -4   7 27.0045 3.88574   1
   4   4   0 314.345 13.4488  -2
  -4  -4   7 314.345 13.4488   1
  -3  -4   7 973.143 101.613   1
   3   4   1 1657.86 61.0751  -2
  -3  -4   7 1657.86 61.0751   1
   2   4   2 248.579 11.2372  -2
  -2  -4   7 248.579 11.2372   1
   1   4   3 821.523 34.6166  -2
  -1  -4   7 821.523 34.6166   1
   0   4   4 1351.82 79.6252  -2
   0  -4   7 1351.82 79.6252   1
  -1   4   5 517.588 24.2979  -2
   1  -4   7 517.588 24.2979   1
  -2   4   6 212.634 11.7927  -2
   2  -4   7 212.634 11.7927   1
  -3   4   7 129.043 8.11263  -2
   3  -4   7 129.043 8.11263   1
  -4   4   8 19.5784 6.45301  -2
   4  -4   7 19.5784 6.45301   1
  -6   4  10 57.9350 10.5854  -2
   6  -4   7 57.9350 10.5854   1
  -9  -3   4 485.406 35.3317  -2
  -9  -3   7 485.406 35.3317   1
  -8  -3   3 228.606 17.2648  -2
  -8  -3   7 228.606 17.2648   1
  -7  -3   2 433.525 24.1459  -2
  -7  -3   7 433.525 24.1459   1
  -6  -3   1 1669.38 85.2316  -2
  -6  -3   7 1669.38 85.2316   1
   5   3   0 280.235 12.1089  -2
  -5  -3   7 280.235 12.1089   1
   4   3   1 293.271 10.7551  -2
  -4  -3   7 293.271 10.7551   1
   3   3   2 455.211 16.1705  -2
  -3  -3   7 455.211 16.1705   1
   2   3   3 91.8903 5.20423  -2
  -2  -3   7 91.8903 5.20423   1
   1   3   4 173.292 8.53077  -2
  -1  -3   7 173.292 8.53077   1
   0   3   5 813.367 34.0294  -2
   0  -3   7 813.367 34.0294   1
  -1   3   6 185.048 9.67871  -2
   1  -3   7 185.048 9.67871   1
  -2   3   7 417.280 21.7981  -2
   2  -3   7 417.280 21.7981   1
  -3   3   8 940.098 47.9407  -2
   3  -3   7 940.098 47.9407   1
  -4   3   9 121.391 11.5461  -2
   4  -3   7 121.391 11.5461   1
  -5   3  10 153.481 14.4328  -2
   5  -3   7 153.481 14.4328   1
  -6   3  11 104.808 12.5463  -2
   6  -3   7 104.808 12.5463   1
 -10  -2   7 34.4741 4.19297   1
  -9  -2   7 11.6669 2.46278   2
  -9  -2   7 15.2381 3.07792   1
  -8  -2   7 -3.3945 1.49221   2
  -8  -2   7 -4.6191 1.71546   1
  -7  -2   7 20.3785 2.14857   2
  -7  -2   7 28.5398 3.41403   1
  -6  -2   7 397.732 16.6413   1
  -6  -2   7 355.580 16.8830   2
  -5  -2   7 129.284 6.01186   1
  -5  -2   7 110.878 5.52253   2
  -4  -2   7 646.868 22.9046   1
  -4  -2   7 554.674 23.7108   2
  -3  -2   7 1311.79 45.6309   1
  -3  -2   7 1178.77 49.2151   2
  -2  -2   7 171.691 9.19097   2
  -2  -2   7 212.547 9.87939   1
  -1  -2   7 574.934 24.9734   1
  -1  -2   7 545.103 25.0945   2
   0  -2   7 476.829 20.6926   2
   0  -2   7 565.631 24.0996   1
   1  -2   7 46.0738 3.26498   1
   1  -2   7 31.3250 2.99206   2
   2  -2   7 18.1600 2.68070   2
   2  -2   7 24.0225 2.50494   1
   3  -2   7 7.09752 1.93000   1
   3  -2   7 -7.8654 2.30263   2
   4  -2   7 3.58380 1.65887   2
   4  -2   7 0.93075 2.21743   1
   5  -2   7 62.6728 5.53896   2
   5  -2   7 67.5693 9.10936   1
   6  -2   7 94.0979 11.5144   1
   6  -2   7 90.3011 7.55710   2
 -10  -1   4 146.261 12.3243  -2
 -10  -1   7 146.261 12.3243   1
  -9  -1   7 519.035 32.8861   1
  -9  -1   7 418.953 26.1788   2
  -8  -1   7 95.1409 4.92019   2
  -8  -1   7 138.687 8.75394   1
  -7  -1   7 204.830 12.6876   1
  -7  -1   7 157.735 8.08923   2
  -6  -1   7 727.943 25.6824   1
  -6  -1   7 558.369 25.8294   2
  -5  -1   7 7.42373 1.23447   2
  -5  -1   7 10.7711 0.97459   1
   5   1   1 198.770 29.3847  -2
  -5  -1   7 198.770 29.3847   1
  -4  -1   7 16.1220 1.66445   2
  -4  -1   7 23.3417 1.64373   1
  -3  -1   7 33.8870 3.37605   2
  -3  -1   7 37.7032 7.10449   1
  -2  -1   7 35.5769 2.81413   1
  -2  -1   7 27.1906 2.80299   2
  -1  -1   7 334.202 15.3607   1
  -1  -1   7 254.325 12.0808   2
   0  -1   7 622.653 33.7112   2
   0  -1   7 713.706 30.5859   1
   1  -1   7 83.4753 6.44570   2
   1  -1   7 91.9103 5.49785   1
   2  -1   7 350.890 18.4795   1
   2  -1   7 323.486 22.0054   2
   3  -1   7 465.584 24.2886   1
   3  -1   7 436.065 32.1386   2
   4  -1   7 23.6550 3.57783   1
   4  -1   7 21.3206 2.61038   2
   5  -1   7 56.4400 5.20810   2
  -5   1  11 66.0487 10.8583  -2
   5  -1   7 66.0487 10.8583   1
   6  -1   7 31.8445 6.56467   2
  -6   1  12 33.6571 10.8052  -2
   6  -1   7 33.6571 10.8052   1
 -10   0   3 30.8687 4.49163  -2
 -10   0   7 30.8687 4.49163   1
  -9   0   2 37.1159 4.20053  -2
  -9   0   7 37.1159 4.20053   1
  -8   0   1 15.0703 3.20051  -2
  -8   0   7 15.0703 3.20051   1
   7   0   0 187.174 8.90458  -2
  -7   0   7 187.174 8.90458   1
   6   0   1 1141.49 39.9093  -2
  -6   0   7 1141.49 39.9093   1
   5   0   2 711.364 25.1497  -2
  -5   0   7 711.364 25.1497   1
   4   0   3 842.856 29.6703  -2
  -4   0   7 842.856 29.6703   1
   3   0   4 2111.77 87.5654  -2
  -3   0   7 2111.77 87.5654   1
   2   0   5 420.165 19.1157  -2
  -2   0   7 420.165 19.1157   1
   1   0   6 293.589 13.6050  -2
  -1   0   7 293.589 13.6050   1
   0   0   7 155.826 8.38391  -2
   0   0   7 155.826 8.38391   1
  -1   0   8 26.6396 2.98233  -2
   1   0   7 26.6396 2.98233   1
  -2   0   9 27.8155 2.99162  -2
   2   0   7 27.8155 2.99162   1
  -3   0  10 190.850 10.7784  -2
   3   0   7 190.850 10.7784   1
  -4   0  11 87.3997 6.26683  -2
   4   0   7 87.3997 6.26683   1
  -5   0  12 119.774 11.6073  -2
   5   0   7 119.774 11.6073   1
 -10   1   7 123.872 10.6534   2
 -10   1   2 202.642 15.8137  -2
 -10   1   7 202.642 15.8137   1
  -9   1   1 966.193 69.0282  -2
  -9   1   7 966.193 69.0282   1
  -9   1   7 431.914 55.5896   1
  -9   1   7 368.029 27.3308   2
  -8   1   7 51.2728 5.20945   2
  -8   1   7 76.3417 4.62494   1
  -8   1   0 236.783 31.2777  -2
  -8   1   7 236.783 31.2777   1
  -7   1   7 72.4249 4.42627   1
  -7   1   7 54.6769 5.45168   2
  -6   1   7 98.7951 5.02299   2
  -6   1   7 135.045 5.39649   1
  -5   1   7 3.77943 0.85068   1
  -5   1   7 1.74028 1.28272   2
  -4   1   7 43.8753 3.09301   2
  -4   1   7 59.2566 3.02051   1
  -3   1   7 276.477 13.0301   1
  -3   1   7 215.848 10.0421   2
  -2   1   7 75.1630 4.86948   1
  -2   1   7 79.2014 5.17127   2
  -1   1   7 512.673 28.1835   1
   1  -1   7 604.474 43.8498  -2
  -1   1   7 604.474 43.8498   1
  -1   1   7 419.555 18.6018   2
   0   1   7 792.995 33.9970   2
   0  -1   8 1622.27 115.541  -2
   0   1   7 1622.27 115.541   1
   0   1   7 964.225 51.3557   1
   1   1   7 49.6674 4.12196   2
   1   1   7 62.6334 6.40630   1
  -1  -1   9 255.616 20.3612  -2
   1   1   7 255.616 20.3612   1
   2   1   7 253.834 20.0081   1
  -2  -1  10 285.295 22.0250  -2
   2   1   7 285.295 22.0250   1
   2   1   7 233.209 12.8796   2
   3   1   7 203.907 15.8452   2
  -3  -1  11 288.030 22.7058  -2
   3   1   7 288.030 22.7058   1
   3   1   7 227.588 19.1073   1
   4   1   7 4.78058 2.70672   2
  -4  -1  12 0.74236 9.30830  -2
   4   1   7 0.74236 9.30830   1
   4   1   7 5.06483 3.93034   1
   5   1   7 8.15239 3.61394   2
   5   1   7 -1.0657 4.60446   1
 -11   2   7 2.52599 3.37426   2
 -10   2   7 16.0650 4.25119   1
 -10   2   7 11.7739 3.10750   2
  -9   2   7 194.582 10.4648   1
  -9   2   7 157.299 12.7283   2
  -8   2   7 70.7182 6.69086   2
  -8   2   7 85.5715 4.84811   1
  -7   2   7 255.152 12.0804   1
  -7   2   7 202.024 15.5900   2
  -6   2   7 1138.61 39.9761   1
  -6   2   7 869.314 45.5416   2
  -5   2   7 180.439 7.14955   1
  -5   2   7 130.661 6.31383   2
  -4   2   7 427.703 19.9422   2
  -4   2   7 618.993 23.6233   1
  -3   2   7 254.839 11.8415   2
  -3   2   7 358.954 16.9420   1
  -2   2   7 40.7776 3.31740   1
  -2   2   7 29.4391 2.79935   2
  -1   2   7 20.4275 2.28044   1
  -1   2   7 9.31393 1.91385   2
   0   2   7 7.26461 1.71855   2
   0   2   7 7.17406 1.91772   1
   1   2   7 0.03936 1.58120   2
   1   2   7 -3.1404 1.81657   1
   2   2   7 93.3226 6.47968   1
   2   2   7 83.2044 5.88088   2
   3   2   7 154.627 9.50972   1
   3   2   7 137.531 8.72502   2
   4   2   7 12.6962 4.14034   1
   4   2   7 16.6753 3.68593   2
 -10   3   1 144.990 12.1432  -2
 -10   3   7 144.990 12.1432   1
  -9   3   0 648.491 33.1433  -2
  -9   3   7 648.491 33.1433   1
   8  -3   1 148.790 8.43408  -2
  -8   3   7 148.790 8.43408   1
   7  -3   2 4.22554 2.85681  -2
  -7   3   7 4.22554 2.85681   1
   6  -3   3 117.939 7.09130  -2
  -6   3   7 117.939 7.09130   1
   5  -3   4 94.2563 6.48137  -2
  -5   3   7 94.2563 6.48137   1
   4  -3   5 132.119 5.83664  -2
  -4   3   7 132.119 5.83664   1
   3  -3   6 1050.55 39.5396  -2
  -3   3   7 1050.55 39.5396   1
   2  -3   7 378.580 17.5901  -2
  -2   3   7 378.580 17.5901   1
   1  -3   8 348.744 16.5712  -2
  -1   3   7 348.744 16.5712   1
   0  -3   9 1159.60 53.6115  -2
   0   3   7 1159.60 53.6115   1
  -1  -3  10 201.247 11.7151  -2
   1   3   7 201.247 11.7151   1
  -2  -3  11 141.571 13.1679  -2
   2   3   7 141.571 13.1679   1
  -3  -3  12 42.3184 8.69338  -2
   3   3   7 42.3184 8.69338   1
  -4  -3  13 9.62667 9.72283  -2
   4   3   7 9.62667 9.72283   1
 -12   4   7 -3.8133 4.27676   2
 -10   4   0 63.8732 8.20955  -2
 -10   4   7 63.8732 8.20955   1
   9  -4   1 546.970 28.3374  -2
  -9   4   7 546.970 28.3374   1
   8  -4   2 281.669 15.3427  -2
  -8   4   7 281.669 15.3427   1
   7  -4   3 330.434 17.6780  -2
  -7   4   7 330.434 17.6780   1
   6  -4   4 1020.10 51.9449  -2
  -6   4   7 1020.10 51.9449   1
   5  -4   5 427.478 22.5019  -2
  -5   4   7 427.478 22.5019   1
   4  -4   6 134.329 9.57105  -2
  -4   4   7 134.329 9.57105   1
   3  -4   7 151.930 8.56406  -2
  -3   4   7 151.930 8.56406   1
   2  -4   8 9.24854 4.28789  -2
  -2   4   7 9.24854 4.28789   1
   1  -4   9 19.4895 4.98089  -2
  -1   4   7 19.4895 4.98089   1
   0  -4  10 111.225 11.9860  -2
   0   4   7 111.225 11.9860   1
  -1  -4  11 135.264 13.2862  -2
   1   4   7 135.264 13.2862   1
  -2  -4  12 104.304 9.16137  -2
   2   4   7 104.304 9.16137   1
   3   4   7 190.604 12.0545   1
   3   4   7 212.147 16.8852   2
 -11   5   7 19.9496 4.66835   1
 -11   5   7 17.6779 4.45982   2
 -10   5   7 20.6403 3.78940   1
 -10   5   7 8.26643 3.75817   2
  -9   5   7 44.0061 4.11945   1
  -9   5   7 36.7967 6.81985   2
  -8   5   7 3.81516 1.95601   1
  -8   5   7 0.68613 2.85138   2
  -7   5   7 15.8688 2.32415   1
  -7   5   7 13.1546 3.22198   2
  -6   5   7 95.1327 8.91935   2
  -6   5   7 122.833 7.47287   1
  -5   5   7 33.4211 4.40178   2
  -5   5   7 45.4430 3.99247   1
  -4   5   7 208.614 11.7018   1
  -4   5   7 149.483 12.4537   2
  -3   5   7 472.644 24.8261   1
  -3   5   7 346.405 18.2773   2
  -2   5   7 41.2559 3.75876   2
  -2   5   7 47.8546 4.51271   1
  -1   5   7 99.0005 6.72835   2
  -1   5   7 126.393 14.2128   1
   0   5   7 135.970 8.73234   2
   0   5   7 164.760 10.4263   1
   1   5   7 24.5909 3.80725   1
   1   5   7 21.4245 3.14072   2
   2   5   7 6.59507 4.09325   2
   2   5   7 0.03079 3.67002   1
  10  -6   1 73.6483 10.3444  -2
 -10   6   7 73.6483 10.3444   1
   8  -6   3 222.916 19.6867  -2
  -8   6   7 222.916 19.6867   1
   7  -6   4 143.282 9.61996  -2
  -7   6   7 143.282 9.61996   1
   6  -6   5 631.891 32.9610  -2
  -6   6   7 631.891 32.9610   1
   5  -6   6 135.375 9.35366  -2
  -5   6   7 135.375 9.35366   1
   4  -6   7 45.0627 9.45215  -2
  -4   6   7 45.0627 9.45215   1
   1  -6  10 45.8910 7.04245  -2
  -1   6   7 45.8910 7.04245   1
   0  -6  11 215.522 13.8224  -2
   0   6   7 215.522 13.8224   1
  -1  -6  12 76.1964 9.07264  -2
   1   6   7 76.1964 9.07264   1
 -10   7   7 2.75156 3.64599   1
 -10   7   7 1.47805 4.20301   2
   9  -7   3 1.51437 6.39755  -2
  -9   7   7 1.51437 6.39755   1
   8  -7   4 2.01703 5.96509  -2
  -8   7   7 2.01703 5.96509   1
   7  -7   5 72.0667 8.60318  -2
  -7   7   7 72.0667 8.60318   1
   6  -7   6 267.850 21.3097  -2
  -6   7   7 267.850 21.3097   1
   5  -7   7 186.653 11.5477  -2
  -5   7   7 186.653 11.5477   1
   4  -7   8 109.915 8.38513  -2
  -4   7   7 109.915 8.38513   1
   3  -7   9 429.523 23.3863  -2
  -3   7   7 429.523 23.3863   1
   2  -7  10 89.1263 8.21003  -2
  -2   7   7 89.1263 8.21003   1
   1  -7  11 17.7923 6.56958  -2
  -1   7   7 17.7923 6.56958   1
  -8   8   7 42.2270 6.10957   2
  -8   8   7 51.0798 4.73639   1
  -7   8   7 32.7336 3.96990   1
  -6   8   7 26.7252 3.71658   1
  -5   8   7 7.07622 3.07242   1
  -4   8   7 -4.2391 3.91833   2
  -4   8   7 7.85066 3.41739   1
  -3   8   7 37.8381 4.78074   1
  -3   8   7 17.2461 5.02009   2
  -3 -11   3 267.670 21.9107  -2
  -3 -11   8 267.670 21.9107   1
  -2 -11   2 29.9635 8.72099  -2
  -2 -11   8 29.9635 8.72099   1
  -1 -11   1 102.683 11.6767  -2
  -1 -11   8 102.683 11.6767   1
   0  11   0 152.011 14.6269  -2
   0 -11   8 152.011 14.6269   1
   1 -11   8 2.55998 4.01013   1
  -2  11   2 -4.7454 9.99881  -2
   2 -11   8 -4.7454 9.99881   1
  -5 -10   4 1.56654 2.46466  -2
  -5 -10   8 1.56654 2.46466   1
  -4 -10   3 4.38084 1.95163  -2
  -4 -10   8 4.38084 1.95163   1
  -3 -10   2 44.7429 3.98180  -2
  -3 -10   8 44.7429 3.98180   1
  -2 -10   1 25.6369 4.47190  -2
  -2 -10   8 25.6369 4.47190   1
   1  10   0 102.927 9.82677  -2
  -1 -10   8 102.927 9.82677   1
   0  10   1 499.020 38.4505  -2
   0 -10   8 499.020 38.4505   1
  -1  10   2 83.2172 6.16417  -2
   1 -10   8 83.2172 6.16417   1
  -2  10   3 300.172 23.6910  -2
   2 -10   8 300.172 23.6910   1
  -3  10   4 167.239 14.5096  -2
   3 -10   8 167.239 14.5096   1
  -7  -9   5 77.5858 11.0959  -2
  -7  -9   8 77.5858 11.0959   1
  -6  -9   4 343.138 26.7019  -2
  -6  -9   8 343.138 26.7019   1
  -2  -9   8 14.9419 3.22338   1
  -1  -9   8 11.4170 3.29260   2
  -1  -9   8 21.0698 3.57851   1
   0   9   2 17.3657 5.10212  -2
   0  -9   8 17.3657 5.10212   1
   0  -9   8 20.6353 3.86036   1
   0  -9   8 7.13562 3.19011   2
   1  -9   8 7.13635 3.73810   1
  -1   9   3 28.1903 7.36361  -2
   1  -9   8 28.1903 7.36361   1
   2  -9   8 23.9684 4.48052   2
   2  -9   8 26.2290 4.95222   1
  -2   9   4 44.1428 8.71397  -2
   2  -9   8 44.1428 8.71397   1
  -3   9   5 277.799 22.4171  -2
   3  -9   8 277.799 22.4171   1
   3  -9   8 84.2791 9.59762   2
  -4   9   6 67.7857 10.9474  -2
   4  -9   8 67.7857 10.9474   1
   4  -9   8 -0.5549 3.06001   2
  -8  -8   8 5.50850 2.61363   1
  -8  -8   8 10.3662 3.56028   2
  -7  -8   8 13.4210 3.83087   1
  -6  -8   8 -2.1519 2.77573   1
  -5  -8   8 2.57565 2.49556   1
  -5  -8   8 -1.4986 2.28922   2
  -4  -8   8 23.5459 2.51253   2
  -4  -8   8 24.2806 2.51793   1
  -3  -8   8 224.040 11.5352   1
  -3  -8   8 178.836 9.96332   2
  -2  -8   8 45.1735 3.87293   2
  -2  -8   8 57.7894 4.19987   1
  -1  -8   8 294.088 12.2385   1
  -1  -8   8 224.567 12.2851   2
   0  -8   8 453.363 18.5359   1
   0  -8   8 359.490 18.9976   2
   1  -8   8 11.2568 2.33316   2
   1  -8   8 20.4149 2.58996   1
   2  -8   8 133.589 8.15613   1
   3  -8   8 48.0039 4.41649   2
   4  -8   8 -0.2843 2.86703   2
  -4   8   6 7.04290 8.23446  -2
   4  -8   8 7.04290 8.23446   1
   5  -8   8 2.01958 3.30311   2
  -5   8   7 4.76576 9.17703  -2
   5  -8   8 4.76576 9.17703   1
  -9  -7   6 106.996 11.1800  -2
  -9  -7   8 106.996 11.1800   1
  -5  -7   2 105.065 9.56887  -2
  -5  -7   8 105.065 9.56887   1
  -4  -7   1 140.775 7.77602  -2
  -4  -7   8 140.775 7.77602   1
   3   7   0 482.353 23.5549  -2
  -3  -7   8 482.353 23.5549   1
   2   7   1 14.9341 3.06588  -2
  -2  -7   8 14.9341 3.06588   1
   1   7   2 10.2777 2.48778  -2
  -1  -7   8 10.2777 2.48778   1
   0   7   3 80.3978 5.45180  -2
   0  -7   8 80.3978 5.45180   1
  -1   7   4 84.1356 5.83770  -2
   1  -7   8 84.1356 5.83770   1
  -2   7   5 277.616 15.0745  -2
   2  -7   8 277.616 15.0745   1
  -3   7   6 465.235 34.7498  -2
   3  -7   8 465.235 34.7498   1
  -4   7   7 76.1702 9.05523  -2
   4  -7   8 76.1702 9.05523   1
  -5   7   8 137.704 13.6360  -2
   5  -7   8 137.704 13.6360   1
  -7  -6   3 1.74212 5.51259  -2
  -7  -6   8 1.74212 5.51259   1
  -6  -6   2 82.7997 8.65056  -2
  -6  -6   8 82.7997 8.65056   1
  -5  -6   1 66.5953 7.30957  -2
  -5  -6   8 66.5953 7.30957   1
   4   6   0 278.312 14.0858  -2
  -4  -6   8 278.312 14.0858   1
   3   6   1 1148.16 54.8121  -2
  -3  -6   8 1148.16 54.8121   1
   2   6   2 282.806 11.7907  -2
  -2  -6   8 282.806 11.7907   1
   1   6   3 512.137 37.3849  -2
  -1  -6   8 512.137 37.3849   1
   0   6   4 821.764 37.8079  -2
   0  -6   8 821.764 37.8079   1
  -1   6   5 62.9532 5.05253  -2
   1  -6   8 62.9532 5.05253   1
  -2   6   6 112.659 7.66641  -2
   2  -6   8 112.659 7.66641   1
  -3   6   7 22.7126 7.21134  -2
   3  -6   8 22.7126 7.21134   1
  -4   6   8 16.5709 8.03168  -2
   4  -6   8 16.5709 8.03168   1
  -5   6   9 20.4169 9.58768  -2
   5  -6   8 20.4169 9.58768   1
 -10  -5   8 42.4530 5.38366   1
 -10  -5   8 23.4953 4.39319   2
  -9  -5   8 186.234 14.6210   2
  -8  -5   8 69.8245 7.02897   1
  -8  -5   8 52.6197 5.56993   2
  -7  -5   8 197.143 15.2785   1
  -7  -5   8 159.064 12.3187   2
  -6  -5   8 340.685 16.5492   2
  -6  -5   8 402.934 19.7444   1
  -5  -5   8 25.7620 2.28800   1
  -5  -5   8 13.8667 1.92552   2
  -4  -5   8 35.7852 2.94372   2
  -4  -5   8 45.5324 3.26013   1
  -3  -5   8 29.0401 2.93159   2
  -3  -5   8 38.3535 2.45543   1
  -2  -5   8 22.5230 1.88264   1
  -2  -5   8 19.9214 2.30787   2
  -1  -5   8 110.623 5.98490   1
  -1  -5   8 77.1260 4.89823   2
   0  -5   8 277.085 12.7948   2
   0  -5   8 325.695 17.1252   1
   1  -5   8 27.3893 2.89402   1
   1  -5   8 10.4246 2.53295   2
   2  -5   8 169.980 9.90063   2
   2  -5   8 260.562 14.1227   1
   3  -5   8 366.804 19.5071   1
   3  -5   8 282.739 15.5510   2
   4  -5   8 14.7646 4.23598   1
   4  -5   8 9.03056 2.77607   2
   5  -5   8 64.0033 5.46503   2
   5  -5   8 74.2989 9.91607   1
  -9  -4   4 99.6037 10.1223  -2
  -9  -4   8 99.6037 10.1223   1
  -8  -4   3 13.7298 5.28676  -2
  -8  -4   8 13.7298 5.28676   1
  -7  -4   2 48.3692 6.23980  -2
  -7  -4   8 48.3692 6.23980   1
  -6  -4   1 409.980 30.1051  -2
  -6  -4   8 409.980 30.1051   1
   5   4   0 149.337 8.13923  -2
  -5  -4   8 149.337 8.13923   1
   4   4   1 333.044 14.6047  -2
  -4  -4   8 333.044 14.6047   1
   3   4   2 1794.38 62.4775  -2
  -3  -4   8 1794.38 62.4775   1
   2   4   3 760.844 32.6396  -2
  -2  -4   8 760.844 32.6396   1
   1   4   4 674.858 36.0595  -2
  -1  -4   8 674.858 36.0595   1
   0   4   5 570.669 29.3216  -2
   0  -4   8 570.669 29.3216   1
  -1   4   6 48.0600 4.67593  -2
   1  -4   8 48.0600 4.67593   1
  -2   4   7 9.83195 4.22931  -2
   2  -4   8 9.83195 4.22931   1
  -3   4   8 25.0986 5.26726  -2
   3  -4   8 25.0986 5.26726   1
  -5   4  10 65.3988 11.4314  -2
   5  -4   8 65.3988 11.4314   1
 -10  -3   4 136.985 11.7859  -2
 -10  -3   8 136.985 11.7859   1
  -9  -3   3 713.517 51.4543  -2
  -9  -3   8 713.517 51.4543   1
  -8  -3   2 183.623 14.3352  -2
  -8  -3   8 183.623 14.3352   1
  -7  -3   1 194.573 14.9525  -2
  -7  -3   8 194.573 14.9525   1
   6   3   0 583.081 35.9149  -2
  -6  -3   8 583.081 35.9149   1
   5   3   1 19.0323 2.59935  -2
  -5  -3   8 19.0323 2.59935   1
   4   3   2 31.1593 2.21226  -2
  -4  -3   8 31.1593 2.21226   1
   3   3   3 52.1150 3.08858  -2
  -3  -3   8 52.1150 3.08858   1
   2   3   4 104.908 6.18780  -2
  -2  -3   8 104.908 6.18780   1
   1   3   5 235.662 11.7954  -2
  -1  -3   8 235.662 11.7954   1
   0   3   6 1136.55 57.6635  -2
   0  -3   8 1136.55 57.6635   1
  -1   3   7 270.340 14.6727  -2
   1  -3   8 270.340 14.6727   1
  -2   3   8 256.045 14.1349  -2
   2  -3   8 256.045 14.1349   1
  -3   3   9 483.240 25.4290  -2
   3  -3   8 483.240 25.4290   1
  -4   3  10 93.8737 10.7092  -2
   4  -3   8 93.8737 10.7092   1
  -5   3  11 52.2319 10.1571  -2
   5  -3   8 52.2319 10.1571   1
 -10  -2   8 2.89686 2.55043   1
  -9  -2   8 58.2748 6.15246   1
  -8  -2   8 6.97639 3.39381   1
  -8  -2   8 23.9867 2.48721   2
  -7  -2   8 184.517 8.74476   1
  -7  -2   8 163.888 11.3084   2
  -6  -2   8 653.313 26.8662   1
  -6  -2   8 561.625 31.1816   2
  -5  -2   8 177.436 6.81944   1
  -5  -2   8 163.652 10.4460   2
  -4  -2   8 431.176 19.2683   2
  -4  -2   8 528.897 19.0020   1
  -3  -2   8 656.544 23.1056   1
  -3  -2   8 571.438 25.1421   2
  -2  -2   8 54.1202 5.11399   1
  -2  -2   8 59.2788 4.25099   2
  -1  -2   8 125.356 6.72067   1
  -1  -2   8 98.4883 5.70225   2
   0  -2   8 17.6435 2.01169   2
   0  -2   8 17.0451 2.22595   1
   1  -2   8 -1.5314 1.65123   2
   1  -2   8 1.01417 1.68743   1
   2  -2   8 45.6292 4.52625   2
   2  -2   8 61.8364 4.85637   1
   3  -2   8 114.611 7.44389   1
   3  -2   8 116.353 7.67346   2
   4  -2   8 5.16471 4.09304   1
   4  -2   8 6.03780 3.06091   2
   5  -2   8 78.2566 10.5545   1
   5  -2   8 81.4164 7.01635   2
 -10  -1   8 101.744 8.89475   1
  -9  -1   8 340.048 22.9482   1
  -9  -1   8 289.905 21.9335   2
  -8  -1   8 7.85609 2.65167   2
  -8  -1   8 3.12097 2.64558   1
  -7  -1   8 24.4475 2.22963   2
  -7  -1   8 27.7969 2.42560   1
  -6  -1   8 13.4397 1.17931   1
   6   1   1 261.168 39.0755  -2
  -6  -1   8 261.168 39.0755   1
  -6  -1   8 10.2678 1.54462   2
  -5  -1   8 -0.1775 1.22662   2
  -5  -1   8 3.93831 0.91423   1
  -4  -1   8 107.844 4.59115   1
  -4  -1   8 92.1823 4.97977   2
  -3  -1   8 309.018 14.4923   2
  -3  -1   8 367.591 16.2843   1
  -2  -1   8 82.0654 5.09253   2
  -2  -1   8 91.9841 5.68806   1
  -1  -1   8 411.598 18.7558   2
  -1  -1   8 538.999 25.3405   1
   1   1   6 610.357 75.0295  -2
  -1  -1   8 610.357 75.0295   1
   0  -1   8 815.754 35.1324   1
   0  -1   8 677.161 36.9841   2
   1  -1   8 13.5690 4.41421   2
   1  -1   8 36.3932 4.82043   1
  -1   1   8 308.653 23.2836  -2
   1  -1   8 308.653 23.2836   1
  -2   1   9 211.032 17.6503  -2
   2  -1   8 211.032 17.6503   1
   2  -1   8 177.130 13.8796   1
   2  -1   8 157.210 12.6237   2
   3  -1   8 122.641 10.6375   2
   3  -1   8 125.973 10.6946   1
   4  -1   8 9.66159 5.24641   2
  -4   1  11 37.6966 8.97713  -2
   4  -1   8 37.6966 8.97713   1
   5  -1   8 -2.8070 4.64104   2
  -5   1  12 -6.5235 9.92322  -2
   5  -1   8 -6.5235 9.92322   1
 -10   0   2 28.8806 4.64837  -2
 -10   0   8 28.8806 4.64837   1
  -9   0   1 266.646 17.8365  -2
  -9   0   8 266.646 17.8365   1
   8   0   0 223.138 14.0100  -2
  -8   0   8 223.138 14.0100   1
   7   0   1 429.867 15.7176  -2
  -7   0   8 429.867 15.7176   1
   6   0   2 1505.48 52.6349  -2
  -6   0   8 1505.48 52.6349   1
   5   0   3 473.787 17.0793  -2
  -5   0   8 473.787 17.0793   1
   4   0   4 358.466 15.2255  -2
  -4   0   8 358.466 15.2255   1
   3   0   5 585.590 25.7585  -2
  -3   0   8 585.590 25.7585   1
   2   0   6 158.730 8.22047  -2
  -2   0   8 158.730 8.22047   1
   1   0   7 30.2999 3.37236  -2
  -1   0   8 30.2999 3.37236   1
   0   0   8 59.1855 4.43565  -2
   0   0   8 59.1855 4.43565   1
  -1   0   9 90.9484 5.93602  -2
   1   0   8 90.9484 5.93602   1
  -2   0  10 105.299 6.87779  -2
   2   0   8 105.299 6.87779   1
  -3   0  11 382.821 20.3956  -2
   3   0   8 382.821 20.3956   1
  -4   0  12 192.944 16.2943  -2
   4   0   8 192.944 16.2943   1
 -11   1   8 32.5432 6.29330   2
 -10   1   8 47.5317 6.53173   2
 -10   1   1 104.797 10.4133  -2
 -10   1   8 104.797 10.4133   1
  -9   1   0 414.488 30.7379  -2
  -9   1   8 414.488 30.7379   1
  -8   1   8 7.58241 1.51883   1
  -7   1   8 -1.0241 1.51988   1
  -7   1   8 2.17942 2.16604   2
  -6   1   8 44.6069 2.47374   1
  -6   1   8 22.2422 3.57501   2
  -5   1   8 31.6143 2.99616   2
  -5   1   8 44.6173 2.83376   1
  -4   1   8 275.624 10.9309   1
  -4   1   8 199.517 9.95804   2
  -3   1   8 577.454 25.8025   1
  -3   1   8 443.714 20.5661   2
  -2   1   8 41.0062 3.99787   2
   2  -1   7 344.151 24.3340  -2
  -2   1   8 344.151 24.3340   1
  -2   1   8 60.7899 6.14681   1
  -1   1   8 340.852 21.2142   1
   1  -1   8 352.900 26.4767  -2
  -1   1   8 352.900 26.4767   1
  -1   1   8 261.725 18.4426   2
   0   1   8 423.141 26.3363   1
   0   1   8 381.445 20.0667   2
   0  -1   9 686.125 49.9237  -2
   0   1   8 686.125 49.9237   1
   1   1   8 27.4547 3.60074   2
   1   1   8 25.8073 4.62948   1
  -1  -1  10 77.9622 10.0958  -2
   1   1   8 77.9622 10.0958   1
   2   1   8 30.5827 5.29850   1
   2   1   8 21.6721 3.53352   2
  -2  -1  11 28.2924 9.02764  -2
   2   1   8 28.2924 9.02764   1
   3   1   8 18.7621 4.86334   1
   3   1   8 17.0169 2.88783   2
   4   1   8 16.9453 3.82539   2
   4   1   8 22.6712 5.62628   1
 -11   2   8 16.7154 4.43119   2
 -10   2   8 63.6922 7.46179   2
 -10   2   8 84.8204 8.12666   1
  -9   2   8 444.425 23.0266   1
  -9   2   8 337.888 25.5420   2
  -8   2   8 57.4844 4.06000   1
  -8   2   8 39.9882 5.58828   2
  -7   2   8 260.282 12.2245   1
  -7   2   8 182.468 14.5578   2
  -6   2   8 351.876 13.4644   1
  -6   2   8 251.805 19.3749   2
  -5   2   8 117.618 5.46490   1
  -5   2   8 79.1150 5.10550   2
  -4   2   8 50.7403 4.08890   2
  -4   2   8 59.9084 3.52398   1
  -3   2   8 32.1508 4.73691   1
  -3   2   8 23.3007 2.58731   2
  -2   2   8 10.9499 1.75282   1
  -2   2   8 4.45858 1.80463   2
  -1   2   8 55.0460 4.44939   1
  -1   2   8 43.4793 3.74434   2
   0   2   8 140.043 8.57364   1
   0   2   8 110.593 7.08253   2
   1   2   8 12.2860 2.37961   2
   1   2   8 13.2316 3.46788   1
   2   2   8 124.038 8.26895   2
   2   2   8 168.441 15.0070   1
   3   2   8 158.652 10.0897   2
   3   2   8 174.002 10.7963   1
   9  -3   1 175.629 10.1054  -2
  -9   3   8 175.629 10.1054   1
   8  -3   2 16.2041 3.75752  -2
  -8   3   8 16.2041 3.75752   1
   7  -3   3 89.3919 6.21758  -2
  -7   3   8 89.3919 6.21758   1
   6  -3   4 432.373 22.0458  -2
  -6   3   8 432.373 22.0458   1
   5  -3   5 123.516 8.42972  -2
  -5   3   8 123.516 8.42972   1
   4  -3   6 290.113 16.3859  -2
  -4   3   8 290.113 16.3859   1
   3  -3   7 1021.32 44.5448  -2
  -3   3   8 1021.32 44.5448   1
   2  -3   8 220.259 12.6739  -2
  -2   3   8 220.259 12.6739   1
   1  -3   9 194.803 11.5039  -2
  -1   3   8 194.803 11.5039   1
  -1  -3  11 62.0834 8.51772  -2
   1   3   8 62.0834 8.51772   1
  -2  -3  12 7.94914 5.74573  -2
   2   3   8 7.94914 5.74573   1
   9  -4   2 607.161 31.5615  -2
  -9   4   8 607.161 31.5615   1
   8  -4   3 269.080 15.1157  -2
  -8   4   8 269.080 15.1157   1
   7  -4   4 205.727 12.0444  -2
  -7   4   8 205.727 12.0444   1
   6  -4   5 327.578 17.8655  -2
  -6   4   8 327.578 17.8655   1
   5  -4   6 53.8557 5.70296  -2
  -5   4   8 53.8557 5.70296   1
   4  -4   7 9.74763 4.68393  -2
  -4   4   8 9.74763 4.68393   1
   3  -4   8 18.2556 5.06346  -2
  -3   4   8 18.2556 5.06346   1
   0  -4  11 430.530 23.4116  -2
   0   4   8 430.530 23.4116   1
  -1  -4  12 79.7143 8.32788  -2
   1   4   8 79.7143 8.32788   1
 -11   5   8 -0.5479 4.18989   2
 -10   5   8 -0.0280 3.85330   2
  -9   5   8 21.0337 3.24678   1
  -9   5   8 22.1177 4.59389   2
  -8   5   8 17.3187 2.91830   1
  -8   5   8 12.7043 3.88941   2
  -7   5   8 106.775 7.00896   1
  -7   5   8 73.5631 8.83568   2
  -6   5   8 309.770 16.7419   1
  -5   5   8 69.9786 5.60088   1
  -5   5   8 44.0964 5.66393   2
  -4   5   8 174.295 10.9726   1
  -4   5   8 84.7941 8.95206   2
  -3   5   8 187.217 15.5428   2
  -3   5   8 278.998 16.8424   1
  -2   5   8 30.6172 3.87698   1
  -2   5   8 10.6159 4.46923   2
  -1   5   8 34.2086 4.19781   1
  -1   5   8 20.2899 3.86820   2
   0   5   8 3.23387 2.85362   2
   0   5   8 7.83748 3.44707   1
  10  -6   2 88.6450 12.1364  -2
 -10   6   8 88.6450 12.1364   1
   9  -6   3 402.396 30.8221  -2
  -9   6   8 402.396 30.8221   1
   5  -6   7 30.4468 9.13331  -2
  -5   6   8 30.4468 9.13331   1
   4  -6   8 21.1092 6.49907  -2
  -4   6   8 21.1092 6.49907   1
   3  -6   9 109.977 9.29131  -2
  -3   6   8 109.977 9.29131   1
   2  -6  10 43.8360 7.62294  -2
  -2   6   8 43.8360 7.62294   1
   1  -6  11 79.7897 9.33085  -2
  -1   6   8 79.7897 9.33085   1
   8  -7   5 92.2425 8.32452  -2
  -8   7   8 92.2425 8.32452   1
   7  -7   6 111.124 8.84959  -2
  -7   7   8 111.124 8.84959   1
   6  -7   7 435.323 23.6588  -2
  -6   7   8 435.323 23.6588   1
   5  -7   8 118.187 9.22783  -2
  -5   7   8 118.187 9.22783   1
   4  -7   9 62.8940 7.36396  -2
  -4   7   8 62.8940 7.36396   1
   3  -7  10 126.029 9.79913  -2
  -3   7   8 126.029 9.79913   1
  -2 -11   1 21.7737 9.10645  -2
  -2 -11   9 21.7737 9.10645   1
  -1 -11   9 -3.3543 3.74380   1
  -5 -10   3 3.01801 2.50462  -2
  -5 -10   9 3.01801 2.50462   1
  -4 -10   2 43.2699 3.90325  -2
  -4 -10   9 43.2699 3.90325   1
  -3 -10   1 235.140 12.5117  -2
  -3 -10   9 235.140 12.5117   1
   2  10   0 35.7806 4.06712  -2
  -2 -10   9 35.7806 4.06712   1
   1  10   1 156.548 9.13859  -2
  -1 -10   9 156.548 9.13859   1
   0  10   2 256.158 13.6184  -2
   0 -10   9 256.158 13.6184   1
  -1  10   3 71.9164 6.38167  -2
   1 -10   9 71.9164 6.38167   1
  -2  10   4 70.9518 9.02996  -2
   2 -10   9 70.9518 9.02996   1
  -4  -9   1 58.1488 9.50338  -2
  -4  -9   9 58.1488 9.50338   1
   3   9   0 57.0021 9.44824  -2
  -3  -9   9 57.0021 9.44824   1
  -2  -9   9 1.55504 3.73198   1
  -1  -9   9 12.9174 4.47670   1
  -1  -9   9 9.85355 6.60284   2
   0  -9   9 36.2487 5.48737   2
   0  -9   9 49.7829 6.05972   1
   1  -9   9 4.89549 3.98700   2
   1  -9   9 6.48596 4.63817   1
  -1   9   4 46.7384 9.56523  -2
   1  -9   9 46.7384 9.56523   1
   3  -9   9 95.7999 7.86590   2
   3  -9   9 144.419 13.3221   1
  -7  -8   9 2.67415 3.40412   1
  -6  -8   9 75.5723 5.41465   1
  -5  -8   9 14.0109 2.41797   1
  -5  -8   9 8.10064 3.03561   2
  -4  -8   9 183.952 13.7270   1
  -4  -8   9 135.742 8.79801   2
  -3  -8   9 277.795 14.2946   1
  -3  -8   9 217.972 12.1004   2
  -2  -8   9 15.4071 2.56411   2
  -2  -8   9 24.7863 2.95953   1
  -1  -8   9 148.767 8.61112   1
  -1  -8   9 116.630 7.69169   2
   0  -8   9 189.449 10.7799   1
   0  -8   9 143.233 9.51472   2
   1  -8   9 9.01200 2.67570   2
   1  -8   9 8.14550 2.65878   1
   2  -8   9 9.24454 2.91817   2
   2  -8   9 17.2666 4.25655   1
   3  -8   9 -2.9777 3.90670   1
   3  -8   9 0.72021 3.07661   2
  -7  -7   3 124.588 11.5027  -2
  -7  -7   9 124.588 11.5027   1
   4   7   0 33.9058 4.00060  -2
  -4  -7   9 33.9058 4.00060   1
   3   7   1 5.11450 3.66043  -2
  -3  -7   9 5.11450 3.66043   1
   2   7   2 11.4639 3.69516  -2
  -2  -7   9 11.4639 3.69516   1
   1   7   3 118.528 6.05020  -2
  -1  -7   9 118.528 6.05020   1
   0   7   4 322.207 17.2314  -2
   0  -7   9 322.207 17.2314   1
  -1   7   5 168.078 10.0425  -2
   1  -7   9 168.078 10.0425   1
  -2   7   6 200.210 16.7315  -2
   2  -7   9 200.210 16.7315   1
  -3   7   7 382.536 29.4615  -2
   3  -7   9 382.536 29.4615   1
  -4   7   8 35.2045 8.93733  -2
   4  -7   9 35.2045 8.93733   1
  -8  -6   3 -4.7115 6.31784  -2
  -8  -6   9 -4.7115 6.31784   1
  -6  -6   1 481.323 35.5931  -2
  -6  -6   9 481.323 35.5931   1
   5   6   0 164.854 9.25804  -2
  -5  -6   9 164.854 9.25804   1
   4   6   1 378.097 18.9696  -2
  -4  -6   9 378.097 18.9696   1
   3   6   2 859.218 41.4134  -2
  -3  -6   9 859.218 41.4134   1
   2   6   3 157.899 9.14657  -2
  -2  -6   9 157.899 9.14657   1
   1   6   4 143.862 8.76061  -2
  -1  -6   9 143.862 8.76061   1
   0   6   5 77.5794 6.40904  -2
   0  -6   9 77.5794 6.40904   1
  -1   6   6 3.95249 4.87989  -2
   1  -6   9 3.95249 4.87989   1
  -2   6   7 13.6904 5.52546  -2
   2  -6   9 13.6904 5.52546   1
  -3   6   8 75.8707 10.7012  -2
   3  -6   9 75.8707 10.7012   1
  -4   6   9 25.6870 9.73394  -2
   4  -6   9 25.6870 9.73394   1
 -10  -5   9 71.4187 8.23396   1
  -9  -5   9 182.158 14.8446   1
  -9  -5   9 146.272 12.0460   2
  -8  -5   9 12.8561 2.87937   2
  -8  -5   9 25.5765 4.63034   1
  -7  -5   9 59.3304 4.38576   1
  -7  -5   9 47.4993 4.03916   2
  -6  -5   9 61.6226 4.38479   1
  -6  -5   9 31.8914 3.79677   2
  -5  -5   9 0.89945 1.56045   1
  -5  -5   9 -0.4580 1.49608   2
  -4  -5   9 53.6751 4.14854   1
  -4  -5   9 39.7992 3.48621   2
  -3  -5   9 76.0497 4.84783   2
  -3  -5   9 98.0440 4.99012   1
  -2  -5   9 12.2367 3.37680   1
  -2  -5   9 4.53521 1.80461   2
  -1  -5   9 205.646 11.3779   1
  -1  -5   9 169.308 9.59597   2
   0  -5   9 407.394 21.3747   1
   0  -5   9 339.959 18.1415   2
   1  -5   9 17.7206 2.80532   1
   1  -5   9 8.45282 2.37298   2
   2  -5   9 145.784 9.09476   1
   3  -5   9 115.038 7.87080   2
   3  -5   9 110.433 11.2436   1
   4  -5   9 5.38341 3.11495   2
   4  -5   9 0.90024 4.55810   1
 -10  -4   4 3.92019 7.42766  -2
 -10  -4   9 3.92019 7.42766   1
  -8  -4   2 46.4539 7.13981  -2
  -8  -4   9 46.4539 7.13981   1
  -7  -4   1 175.242 14.2766  -2
  -7  -4   9 175.242 14.2766   1
   6   4   0 1103.38 79.0266  -2
  -6  -4   9 1103.38 79.0266   1
   5   4   1 304.844 15.3708  -2
  -5  -4   9 304.844 15.3708   1
   4   4   2 764.787 36.9020  -2
  -4  -4   9 764.787 36.9020   1
   3   4   3 678.098 27.2770  -2
  -3  -4   9 678.098 27.2770   1
   2   4   4 141.389 12.2954  -2
  -2  -4   9 141.389 12.2954   1
   1   4   5 54.5069 4.91784  -2
  -1  -4   9 54.5069 4.91784   1
   0   4   6 7.40911 4.13209  -2
   0  -4   9 7.40911 4.13209   1
  -1   4   7 18.6716 4.64792  -2
   1  -4   9 18.6716 4.64792   1
  -2   4   8 109.121 8.22109  -2
   2  -4   9 109.121 8.22109   1
  -4   4  10 94.3409 11.9954  -2
   4  -4   9 94.3409 11.9954   1
 -11  -3   4 53.3095 8.26628  -2
 -11  -3   9 53.3095 8.26628   1
  -9  -3   2 467.015 34.3766  -2
  -9  -3   9 467.015 34.3766   1
  -8  -3   1 55.4890 6.47595  -2
  -8  -3   9 55.4890 6.47595   1
   7   3   0 13.7757 4.70078  -2
  -7  -3   9 13.7757 4.70078   1
   6   3   1 44.3904 3.81515  -2
  -6  -3   9 44.3904 3.81515   1
   5   3   2 65.7988 4.67546  -2
  -5  -3   9 65.7988 4.67546   1
   4   3   3 132.990 6.09040  -2
  -4  -3   9 132.990 6.09040   1
   3   3   4 842.745 40.5825  -2
  -3  -3   9 842.745 40.5825   1
   2   3   5 352.445 18.6318  -2
  -2  -3   9 352.445 18.6318   1
   1   3   6 388.093 20.4725  -2
  -1  -3   9 388.093 20.4725   1
   0   3   7 1102.49 56.0904  -2
   0  -3   9 1102.49 56.0904   1
  -1   3   8 166.444 10.0052  -2
   1  -3   9 166.444 10.0052   1
  -2   3   9 221.265 18.0186  -2
   2  -3   9 221.265 18.0186   1
  -3   3  10 45.9920 8.31194  -2
   3  -3   9 45.9920 8.31194   1
  -4   3  11 8.68845 8.09067  -2
   4  -3   9 8.68845 8.09067   1
 -10  -2   9 35.0696 4.62454   1
  -9  -2   9 266.988 20.3494   1
  -9  -2   9 230.916 17.9359   2
  -8  -2   9 64.5817 6.77212   2
  -8  -2   9 86.5280 8.21556   1
  -7  -2   9 325.730 16.1921   1
  -7  -2   9 248.827 12.6465   2
  -6  -2   9 553.995 25.2062   1
  -6  -2   9 480.578 21.6255   2
  -5  -2   9 63.8350 3.33165   1
  -5  -2   9 60.6829 3.86777   2
  -4  -2   9 154.316 8.11330   2
  -4  -2   9 175.539 7.18803   1
  -3  -2   9 75.1351 5.32804   1
  -3  -2   9 72.5461 4.91265   2
  -2  -2   9 3.01338 1.93769   1
  -2  -2   9 -1.2301 1.82753   2
  -1  -2   9 4.02470 1.87400   1
  -1  -2   9 2.47147 1.71480   2
   0  -2   9 73.1861 5.27396   1
   0  -2   9 45.8106 4.49157   2
   1  -2   9 8.76523 2.18666   2
   1  -2   9 3.95370 2.09237   1
   2  -2   9 142.176 12.0300   1
   2  -2   9 132.032 8.51371   2
   3  -2   9 196.543 11.8301   1
   3  -2   9 178.206 10.8695   2
   4  -2   9 3.60035 4.73229   1
   4  -2   9 9.12942 3.20902   2
 -10  -1   9 27.5061 4.27896   1
  -9  -1   9 72.2716 7.53529   1
  -9  -1   9 63.6614 7.16791   2
  -8  -1   9 0.61235 2.43926   2
  -8  -1   9 1.76380 2.62889   1
  -7  -1   9 10.3903 1.69067   1
  -7  -1   9 -1.8159 2.35900   2
  -6  -1   9 151.838 6.49652   1
   6   1   2 95.4050 39.1623  -2
  -6  -1   9 95.4050 39.1623   1
  -6  -1   9 107.533 6.48416   2
  -5  -1   9 40.5245 3.55814   2
  -5  -1   9 43.6712 2.86137   1
  -4  -1   9 276.619 13.2413   2
  -4  -1   9 332.794 12.7957   1
  -3  -1   9 474.896 22.2295   1
  -3  -1   9 397.176 20.2895   2
  -2  -1   9 42.8165 3.34479   2
  -2  -1   9 46.2271 4.32219   1
  -1  -1   9 168.756 12.1354   2
  -1  -1   9 273.662 14.7429   1
   0  -1   9 242.550 17.6530   2
   0  -1   9 317.795 16.9777   1
   1  -1   9 22.5178 3.64405   2
  -1   1   9 116.591 11.0679  -2
   1  -1   9 116.591 11.0679   1
   1  -1   9 12.1755 3.17032   1
   2  -1   9 18.3930 3.81703   1
   2  -1   9 17.2739 4.28458   2
  -3   1  11 5.27248 8.59968  -2
   3  -1   9 5.27248 8.59968   1
   3  -1   9 2.61142 2.81877   2
 -10   0   1 114.706 10.1204  -2
 -10   0   9 114.706 10.1204   1
   9   0   0 606.395 44.0124  -2
  -9   0   9 606.395 44.0124   1
   8   0   1 255.573 19.3490  -2
  -8   0   9 255.573 19.3490   1
   7   0   2 300.791 13.8078  -2
  -7   0   9 300.791 13.8078   1
   6   0   3 820.292 29.1804  -2
  -6   0   9 820.292 29.1804   1
   5   0   4 167.936 6.58391  -2
  -5   0   9 167.936 6.58391   1
   4   0   5 84.5757 4.39153  -2
  -4   0   9 84.5757 4.39153   1
   3   0   6 3.84719 2.03571  -2
  -3   0   9 3.84719 2.03571   1
   2   0   7 22.6244 2.71805  -2
  -2   0   9 22.6244 2.71805   1
   1   0   8 112.055 6.98177  -2
  -1   0   9 112.055 6.98177   1
   0   0   9 568.566 29.5094  -2
   0   0   9 568.566 29.5094   1
  -1   0  10 161.662 13.7367  -2
   1   0   9 161.662 13.7367   1
  -2   0  11 287.917 15.9391  -2
   2   0   9 287.917 15.9391   1
  -3   0  12 241.798 13.8251  -2
   3   0   9 241.798 13.8251   1
 -11   1   9 3.71592 4.95813   2
 -10   1   9 4.14720 3.46773   2
 -10   1   0 1.82423 8.04205  -2
 -10   1   9 1.82423 8.04205   1
   9  -1   1 8.03467 8.05785  -2
  -9   1   9 8.03467 8.05785   1
  -8   1   9 12.2534 3.25212   2
  -8   1   9 15.2239 3.84830   1
  -7   1   9 108.940 5.09381   1
  -7   1   9 78.1830 7.66936   2
   7  -1   3 152.966 50.7687  -2
  -7   1   9 152.966 50.7687   1
  -6   1   9 386.650 14.4234   1
  -6   1   9 240.605 18.6430   2
   5  -1   5 201.211 53.8705  -2
  -5   1   9 201.211 53.8705   1
  -5   1   9 57.1027 3.43962   1
  -5   1   9 35.1244 4.50632   2
   4  -1   6 304.052 24.0492  -2
  -4   1   9 304.052 24.0492   1
  -4   1   9 242.980 12.1312   1
  -4   1   9 236.210 18.1994   2
  -3   1   9 482.190 25.0587   2
   3  -1   7 852.162 55.9332  -2
  -3   1   9 852.162 55.9332   1
  -3   1   9 467.419 30.1815   1
  -2   1   9 39.1758 5.48345   2
  -2   1   9 32.5027 5.14787   1
   2  -1   8 200.246 17.1074  -2
  -2   1   9 200.246 17.1074   1
   1  -1   9 137.237 12.8403  -2
  -1   1   9 137.237 12.8403   1
  -1   1   9 106.058 10.4993   2
  -1   1   9 119.596 11.3258   1
   0   1   9 100.983 6.94896   2
   0   1   9 113.684 11.3096   1
   1   1   9 5.66864 3.55139   2
   1   1   9 5.98155 4.11875   1
  -2  -1  12 11.8240 6.96261  -2
   2   1   9 11.8240 6.96261   1
   2   1   9 4.16924 3.39389   2
 -11   2   9 12.2770 4.58410   2
 -10   2   9 81.1003 8.95929   1
  -9   2   9 330.548 25.2228   1
  -9   2   9 224.142 18.0764   2
  -8   2   9 90.4540 6.04415   1
  -8   2   9 66.9688 7.49100   2
  -7   2   9 149.957 9.10660   1
  -7   2   9 109.306 9.94766   2
  -6   2   9 45.7838 6.09782   2
  -6   2   9 72.6122 4.27119   1
  -5   2   9 6.61119 1.45646   1
  -5   2   9 4.34105 2.74846   2
  -4   2   9 5.20446 1.93836   2
  -4   2   9 1.96209 1.49300   1
  -3   2   9 61.7496 5.21103   1
  -3   2   9 64.4599 5.16287   2
  -2   2   9 9.59747 2.95364   1
  -2   2   9 12.9292 2.44241   2
  -1   2   9 173.627 10.2054   1
  -1   2   9 135.236 8.39107   2
   0   2   9 285.183 15.7584   1
   0   2   9 251.772 14.4179   2
   1   2   9 11.2494 3.12703   1
   1   2   9 13.9906 2.99164   2
   2   2   9 67.2586 6.03119   1
   2   2   9 63.0426 5.77450   2
  10  -3   1 23.2510 8.53638  -2
 -10   3   9 23.2510 8.53638   1
   9  -3   2 29.3134 8.14361  -2
  -9   3   9 29.3134 8.14361   1
   8  -3   3 35.7225 4.95461  -2
  -8   3   9 35.7225 4.95461   1
   7  -3   4 129.795 8.49024  -2
  -7   3   9 129.795 8.49024   1
   6  -3   5 755.439 38.8565  -2
  -6   3   9 755.439 38.8565   1
   5  -3   6 254.916 14.1922  -2
  -5   3   9 254.916 14.1922   1
   4  -3   7 156.522 9.58820  -2
  -4   3   9 156.522 9.58820   1
   3  -3   8 491.182 36.7804  -2
  -3   3   9 491.182 36.7804   1
   1  -3  10 41.6597 5.91431  -2
  -1   3   9 41.6597 5.91431   1
   0  -3  11 8.69513 5.24465  -2
   0   3   9 8.69513 5.24465   1
  -1  -3  12 -1.6006 6.00204  -2
   1   3   9 -1.6006 6.00204   1
   9  -4   3 289.832 22.8575  -2
  -9   4   9 289.832 22.8575   1
   8  -4   4 95.9976 10.5419  -2
  -8   4   9 95.9976 10.5419   1
   7  -4   5 33.6540 7.80239  -2
  -7   4   9 33.6540 7.80239   1
   5  -4   7 10.8704 7.64340  -2
  -5   4   9 10.8704 7.64340   1
   3  -4   9 235.036 19.6714  -2
  -3   4   9 235.036 19.6714   1
   2  -4  10 105.784 8.59925  -2
  -2   4   9 105.784 8.59925   1
   1  -4  11 109.832 9.44766  -2
  -1   4   9 109.832 9.44766   1
   0   4   9 251.008 14.7344   1
   0   4   9 186.507 11.5892   2
 -10   5   9 19.5926 5.00318   1
 -10   5   9 11.0890 4.81659   2
  -9   5   9 135.244 9.17486   1
  -9   5   9 107.083 11.3055   2
  -8   5   9 28.8329 5.30343   2
  -8   5   9 33.7401 3.86071   1
  -7   5   9 133.589 8.65883   1
  -7   5   9 91.2769 9.76677   2
  -6   5   9 287.477 15.9236   1
  -6   5   9 201.704 16.8192   2
  -5   5   9 18.8294 3.22706   1
  -5   5   9 15.7963 4.27100   2
  -4   5   9 30.8898 5.11285   2
  -4   5   9 57.0612 5.33584   1
  -3   5   9 38.1158 4.32472   1
  -3   5   9 31.8395 5.11015   2
  -2   5   9 3.75447 3.72275   2
  -2   5   9 2.39742 3.24647   1
   8  -6   5 43.1963 8.41822  -2
  -8   6   9 43.1963 8.41822   1
   7  -6   6 7.14825 7.21791  -2
  -7   6   9 7.14825 7.21791   1
   6  -6   7 22.2416 7.33075  -2
  -6   6   9 22.2416 7.33075   1
   5  -6   8 10.4716 6.83366  -2
  -5   6   9 10.4716 6.83366   1
   4  -6   9 45.6194 7.99943  -2
  -4   6   9 45.6194 7.99943   1
  -4 -10   1 63.0320 5.73969  -2
  -4 -10  10 63.0320 5.73969   1
   3  10   0 298.519 15.6523  -2
  -3 -10  10 298.519 15.6523   1
   2  10   1 98.5011 7.13078  -2
  -2 -10  10 98.5011 7.13078   1
   1  10   2 155.043 9.55400  -2
  -1 -10  10 155.043 9.55400   1
   0  10   3 111.488 8.10393  -2
   0 -10  10 111.488 8.10393   1
  -6  -9  10 56.0935 4.84544   1
  -5  -9   1 7.44648 9.33058  -2
  -5  -9  10 7.44648 9.33058   1
  -4  -9  10 -4.7530 3.62180   1
   4   9   0 14.8640 8.61402  -2
  -4  -9  10 14.8640 8.61402   1
   3   9   1 23.9370 9.68197  -2
  -3  -9  10 23.9370 9.68197   1
  -3  -9  10 4.28059 3.86657   1
  -3  -9  10 9.66769 5.64534   2
  -2  -9  10 5.25078 3.88624   1
  -2  -9  10 -7.7776 4.09107   2
   2   9   2 18.8415 9.88591  -2
  -2  -9  10 18.8415 9.88591   1
  -1  -9  10 74.7417 5.94103   1
   0  -9  10 108.017 11.2095   2
   0  -9  10 147.045 9.38028   1
   1  -9  10 1.39137 5.78684   1
  -7  -8  10 38.5246 5.58403   1
  -6  -8  10 127.803 7.83020   1
  -5  -8  10 31.6162 3.42468   1
  -5  -8  10 20.9218 3.89212   2
  -4  -8  10 112.598 7.35899   2
  -4  -8  10 140.106 8.40353   1
  -3  -8  10 240.271 12.8561   1
  -3  -8  10 169.499 14.8215   2
  -2  -8  10 5.57038 3.10343   2
  -2  -8  10 9.30056 2.85042   1
  -1  -8  10 33.2335 3.62477   2
  -1  -8  10 45.5367 5.85148   1
   0  -8  10 0.52630 2.69412   2
   1  -8  10 0.82038 3.43447   1
   1  -8  10 2.84574 2.95571   2
   2  -8  10 3.64152 3.29419   2
   2  -8  10 4.69340 4.67399   1
  -8  -7   3 19.3870 7.07520  -2
  -8  -7  10 19.3870 7.07520   1
  -7  -7   2 37.4566 7.44505  -2
  -7  -7  10 37.4566 7.44505   1
  -6  -7   1 72.3848 8.47761  -2
  -6  -7  10 72.3848 8.47761   1
   2   7   3 140.723 12.9514  -2
  -2  -7  10 140.723 12.9514   1
   1   7   4 275.464 21.9419  -2
  -1  -7  10 275.464 21.9419   1
   0   7   5 535.702 27.9315  -2
   0  -7  10 535.702 27.9315   1
  -1   7   6 72.5967 6.76034  -2
   1  -7  10 72.5967 6.76034   1
  -2   7   7 96.9382 11.2583  -2
   2  -7  10 96.9382 11.2583   1
  -3   7   8 104.126 12.3012  -2
   3  -7  10 104.126 12.3012   1
  -9  -6   3 132.613 13.1409  -2
  -9  -6  10 132.613 13.1409   1
  -8  -6   2 44.2512 8.21021  -2
  -8  -6  10 44.2512 8.21021   1
  -7  -6   1 157.459 14.1408  -2
  -7  -6  10 157.459 14.1408   1
   3   6   3 290.206 15.3111  -2
  -3  -6  10 290.206 15.3111   1
   2   6   4 29.3390 7.54549  -2
  -2  -6  10 29.3390 7.54549   1
   1   6   5 13.6163 5.15506  -2
  -1  -6  10 13.6163 5.15506   1
   0   6   6 22.5267 5.87783  -2
   0  -6  10 22.5267 5.87783   1
  -1   6   7 41.7557 6.70843  -2
   1  -6  10 41.7557 6.70843   1
  -2   6   8 35.4026 9.93709  -2
   2  -6  10 35.4026 9.93709   1
  -9  -5  10 35.4408 5.78516   2
  -9  -5  10 57.4957 7.35202   1
  -8  -5  10 -0.5528 3.16203   1
  -8  -5  10 3.16095 2.68438   2
  -7  -5  10 -1.0458 1.98729   2
  -7  -5  10 -0.5503 3.11299   1
  -6  -5  10 0.55547 2.07093   1
  -6  -5  10 2.90253 1.93868   2
  -5  -5  10 18.6532 2.35381   2
  -5  -5  10 28.9785 3.05283   1
  -4  -5  10 107.446 6.68346   1
  -4  -5  10 57.6884 5.10436   2
  -3  -5  10 273.958 15.2521   2
  -3  -5  10 380.841 19.1576   1
  -2  -5  10 14.2544 2.36025   2
  -2  -5  10 26.1319 2.94199   1
  -1  -5  10 170.496 10.0446   2
  -1  -5  10 183.784 10.7206   1
   0  -5  10 270.272 14.9478   1
   0  -5  10 195.108 16.8890   2
   1  -5  10 11.3825 2.86762   2
   1  -5  10 12.7092 3.12188   1
   2  -5  10 39.5409 4.44050   1
   2  -5  10 42.4465 4.33742   2
   3  -5  10 4.29228 3.10191   2
   3  -5  10 10.6776 5.14542   1
 -10  -4   3 35.0199 8.74067  -2
 -10  -4  10 35.0199 8.74067   1
  -9  -4   2 330.492 25.5296  -2
  -9  -4  10 330.492 25.5296   1
   7   4   0 244.047 19.3284  -2
  -7  -4  10 244.047 19.3284   1
   6   4   1 518.860 25.5745  -2
  -6  -4  10 518.860 25.5745   1
   5   4   2 283.004 14.6265  -2
  -5  -4  10 283.004 14.6265   1
   4   4   3 117.958 7.70367  -2
  -4  -4  10 117.958 7.70367   1
   3   4   4 140.087 8.68369  -2
  -3  -4  10 140.087 8.68369   1
   2   4   5 6.89389 4.12205  -2
  -2  -4  10 6.89389 4.12205   1
   1   4   6 13.3017 5.48634  -2
  -1  -4  10 13.3017 5.48634   1
   0   4   7 107.119 7.74036  -2
   0  -4  10 107.119 7.74036   1
  -1   4   8 90.0879 7.66420  -2
   1  -4  10 90.0879 7.66420   1
  -2   4   9 115.430 9.16022  -2
   2  -4  10 115.430 9.16022   1
  -3   4  10 319.398 25.7227  -2
   3  -4  10 319.398 25.7227   1
 -10  -3   2 34.0772 7.00466  -2
 -10  -3  10 34.0772 7.00466   1
   7   3   1 33.0867 6.71604  -2
  -7  -3  10 33.0867 6.71604   1
   6   3   2 266.833 13.8545  -2
  -6  -3  10 266.833 13.8545   1
   5   3   3 129.358 7.64517  -2
  -5  -3  10 129.358 7.64517   1
   4   3   4 290.321 15.0051  -2
  -4  -3  10 290.321 15.0051   1
   3   3   5 912.396 36.6572  -2
  -3  -3  10 912.396 36.6572   1
   2   3   6 173.709 10.2094  -2
  -2  -3  10 173.709 10.2094   1
   1   3   7 220.796 17.4154  -2
  -1  -3  10 220.796 17.4154   1
   0   3   8 189.027 11.1976  -2
   0  -3  10 189.027 11.1976   1
  -1   3   9 44.0905 9.00800  -2
   1  -3  10 44.0905 9.00800   1
  -2   3  10 1.85366 7.07363  -2
   2  -3  10 1.85366 7.07363   1
   3  -3  10 7.77223 5.01428   1
   3  -3  10 5.80121 3.98661   2
 -11  -2  10 14.8904 4.40694   1
 -10  -2  10 111.574 10.5522   1
  -9  -2  10 235.651 18.4546   2
  -9  -2  10 260.988 20.7087   1
  -8  -2  10 45.7099 4.18262   1
  -8  -2  10 31.4311 4.30180   2
  -7  -2  10 150.856 8.38827   1
  -7  -2  10 122.006 7.19855   2
  -6  -2  10 175.146 9.62547   1
  -6  -2  10 134.689 7.76683   2
  -5  -2  10 14.8298 2.46000   1
  -5  -2  10 1.23338 2.07524   2
  -4  -2  10 0.18134 1.87382   2
  -4  -2  10 4.13495 1.59708   1
  -3  -2  10 22.7082 2.79561   1
  -3  -2  10 15.1625 2.27331   2
  -2  -2  10 4.12955 2.12322   1
  -2  -2  10 2.47702 1.96122   2
  -1  -2  10 84.1564 6.33406   2
  -1  -2  10 132.479 8.07379   1
   0  -2  10 239.586 13.3357   1
   0  -2  10 180.340 15.5695   2
   1  -2  10 8.94505 2.61436   2
   1  -2  10 9.41093 2.68972   1
   2  -2  10 97.5157 7.23862   2
   2  -2  10 126.074 12.0274   1
 -10  -1  10 -0.6376 5.32874   1
 -10  -1  10 -1.7333 3.68084   2
  -9  -1  10 17.0489 4.44653   1
  -9  -1  10 9.15994 3.48510   2
  -8  -1  10 10.5442 2.29982   1
  -8  -1  10 5.55351 2.85741   2
  -7  -1  10 95.1071 8.68503   2
  -7  -1  10 119.882 7.08055   1
  -6  -1  10 304.642 15.5249   1
  -6  -1  10 233.269 12.2489   2
  -5  -1  10 60.0659 3.70403   1
  -5  -1  10 42.3687 3.74058   2
  -4  -1  10 199.643 8.60055   1
  -4  -1  10 197.557 11.0255   2
  -3  -1  10 372.020 27.6537   2
  -3  -1  10 449.550 23.5787   1
  -2  -1  10 31.4893 3.21957   1
  -2  -1  10 21.1055 3.45753   2
  -1  -1  10 69.7668 7.99270   1
  -1  -1  10 54.1315 6.25920   2
   1   1   8 107.217 11.7333  -2
  -1  -1  10 107.217 11.7333   1
   0  -1  10 33.1841 5.66296   2
   0  -1  10 45.2884 4.11175   1
  -1   1  10 15.2937 8.23860  -2
   1  -1  10 15.2937 8.23860   1
   1  -1  10 7.24681 3.14552   2
  -2   1  11 3.96529 8.87664  -2
   2  -1  10 3.96529 8.87664   1
   2  -1  10 3.77491 3.47077   2
 -11   0   1 88.5953 9.25229  -2
 -11   0  10 88.5953 9.25229   1
   9   0   1 532.043 39.2213  -2
  -9   0  10 532.043 39.2213   1
   8   0   2 173.756 14.6450  -2
  -8   0  10 173.756 14.6450   1
   7   0   3 92.5389 5.97863  -2
  -7   0  10 92.5389 5.97863   1
   6   0   4 71.4356 4.10052  -2
  -6   0  10 71.4356 4.10052   1
   5   0   5 6.70066 2.12901  -2
  -5   0  10 6.70066 2.12901   1
   4   0   6 19.4545 2.08998  -2
  -4   0  10 19.4545 2.08998   1
   3   0   7 218.268 12.2091  -2
  -3   0  10 218.268 12.2091   1
   2   0   8 102.331 6.92570  -2
  -2   0  10 102.331 6.92570   1
   1   0   9 202.175 11.5603  -2
  -1   0  10 202.175 11.5603   1
   0   0  10 307.998 16.8148  -2
   0   0  10 307.998 16.8148   1
  -1   0  11 169.650 10.3355  -2
   1   0  10 169.650 10.3355   1
  -2   0  12 43.5054 6.52724  -2
   2   0  10 43.5054 6.52724   1
 -11   1  10 0.12563 4.21248   2
 -10   1  10 14.1454 4.33936   2
  -8   1  10 11.2309 3.66218   2
  -8   1  10 10.9524 4.30638   1
  -7   1  10 167.332 8.86995   1
  -6   1  10 316.507 24.1922   2
  -6   1  10 412.166 20.3287   1
  -5   1  10 32.2628 3.07102   1
  -4   1  10 103.021 6.51401   1
  -4   1  10 127.020 11.3272   2
  -3   1  10 133.862 12.2195   2
  -3   1  10 148.788 13.2749   1
  -2   1  10 7.49333 4.43654   2
  -2   1  10 7.17369 4.13430   1
  -1   1  10 8.26876 4.23780   1
   1  -1  10 26.0970 9.73927  -2
  -1   1  10 26.0970 9.73927   1
   0  -1  11 46.7833 10.9020  -2
   0   1  10 46.7833 10.9020   1
   0   1  10 15.2933 4.97361   1
   1   1  10 7.35363 2.94206   2
   1   1  10 11.6961 3.17174   1
 -11   2  10 7.11607 4.73608   2
 -10   2  10 60.3153 8.48332   2
 -10   2  10 110.633 11.9288   1
  -9   2  10 36.0395 5.56477   2
  -8   2  10 6.82913 3.68519   2
  -8   2  10 7.48502 5.96579   1
  -7   2  10 1.86925 2.41105   1
  -7   2  10 1.21118 3.92356   2
  -6   2  10 13.4913 2.76404   1
  -5   2  10 7.69933 3.62632   1
  -4   2  10 92.8556 11.2810   2
  -4   2  10 108.707 7.93577   1
  -3   2  10 159.359 9.72194   2
  -3   2  10 187.360 11.0923   1
  -2   2  10 8.90294 2.75151   1
  -2   2  10 5.57050 2.61578   2
  -1   2  10 95.8679 7.13226   2
  -1   2  10 124.435 8.31288   1
   0   2  10 128.951 8.62358   2
   0   2  10 159.742 9.98108   1
  10  -3   2 36.6198 10.6109  -2
 -10   3  10 36.6198 10.6109   1
   8  -3   4 111.361 11.0259  -2
  -8   3  10 111.361 11.0259   1
   7  -3   5 142.620 13.1133  -2
  -7   3  10 142.620 13.1133   1
   6  -3   6 569.284 42.2986  -2
  -6   3  10 569.284 42.2986   1
   5  -3   7 145.359 9.64861  -2
  -5   3  10 145.359 9.64861   1
   4  -3   8 113.213 11.7469  -2
  -4   3  10 113.213 11.7469   1
   3  -3   9 34.1915 5.92408  -2
  -3   3  10 34.1915 5.92408   1
   2  -3  10 11.2302 5.59823  -2
  -2   3  10 11.2302 5.59823   1
   1  -3  11 5.20000 6.01459  -2
  -1   3  10 5.20000 6.01459   1
   9  -4   4 36.5730 12.1783  -2
  -9   4  10 36.5730 12.1783   1
   8  -4   5 -9.1577 11.1310  -2
  -8   4  10 -9.1577 11.1310   1
   7  -4   6 13.7249 9.79371  -2
  -7   4  10 13.7249 9.79371   1
   6  -4   7 84.9414 8.18303  -2
  -6   4  10 84.9414 8.18303   1
   5  -4   8 65.4515 7.59538  -2
  -5   4  10 65.4515 7.59538   1
   4  -4   9 102.943 8.95117  -2
  -4   4  10 102.943 8.95117   1
   3  -4  10 377.450 21.0052  -2
  -3   4  10 377.450 21.0052   1
  -2   4  10 4.98888 5.79622   1
  -8   5  10 13.6808 3.57107   1
  -8   5  10 13.6084 4.81526   2
  -7   5  10 46.9837 4.70302   1
  -7   5  10 28.4588 5.57457   2
  -6   5  10 74.3410 6.78978   1
  -6   5  10 32.2071 5.91908   2
  -5   5  10 11.4639 3.47298   1
  -5   5  10 10.3097 4.39540   2
  -4   5  10 -5.4601 3.16017   1
  -4   5  10 1.65286 4.12560   2
  -4  -9  11 24.6209 3.84914   1
  -4  -9  11 20.1993 3.49712   2
  -3  -9  11 46.3580 7.15981   2
  -3  -9  11 93.8318 9.95811   1
   3   9   2 180.992 18.4019  -2
  -3  -9  11 180.992 18.4019   1
  -2  -9  11 4.62440 3.53662   1
  -2  -9  11 8.12507 3.21160   2
  -1  -9  11 78.2891 6.74233   1
  -1  -9  11 63.6840 5.91480   2
  -6  -8  11 140.950 8.80568   1
  -5  -8  11 -0.0277 7.81654   2
  -5  -8  11 7.34325 3.07450   1
  -4  -8  11 51.3943 4.69315   1
  -4  -8  11 40.0905 6.60540   2
  -3  -8  11 37.2904 4.20253   1
  -3  -8  11 22.1291 5.47851   2
  -2  -8  11 2.17644 2.80208   2
  -2  -8  11 6.50648 3.24167   1
  -1  -8  11 -1.0190 3.36316   1
  -1  -8  11 2.63817 3.03256   2
   0  -8  11 7.92154 3.39443   2
   0  -8  11 24.0284 6.52247   1
  -7  -7   1 -3.5281 7.45192  -2
  -7  -7  11 -3.5281 7.45192   1
   6   7   0 31.5056 8.03407  -2
  -6  -7  11 31.5056 8.03407   1
   5   7   1 35.7411 5.44603  -2
  -5  -7  11 35.7411 5.44603   1
   4   7   2 164.205 10.0347  -2
  -4  -7  11 164.205 10.0347   1
   3   7   3 328.437 17.3168  -2
  -3  -7  11 328.437 17.3168   1
   2   7   4 66.4854 6.59224  -2
  -2  -7  11 66.4854 6.59224   1
   1   7   5 102.592 8.12926  -2
  -1  -7  11 102.592 8.12926   1
   0   7   6 205.943 18.2995  -2
   0  -7  11 205.943 18.2995   1
  -1   7   7 14.0680 9.01866  -2
   1  -7  11 14.0680 9.01866   1
  -8  -6   1 68.3296 10.1281  -2
  -8  -6  11 68.3296 10.1281   1
   7   6   0 174.759 15.8975  -2
  -7  -6  11 174.759 15.8975   1
   6   6   1 284.411 23.0001  -2
  -6  -6  11 284.411 23.0001   1
   5   6   2 51.5179 6.13339  -2
  -5  -6  11 51.5179 6.13339   1
   4   6   3 41.3188 6.22336  -2
  -4  -6  11 41.3188 6.22336   1
   3   6   4 -4.2550 8.22822  -2
  -3  -6  11 -4.2550 8.22822   1
   2   6   5 13.3136 8.84624  -2
  -2  -6  11 13.3136 8.84624   1
  -1   6   8 60.1787 10.0585  -2
   1  -6  11 60.1787 10.0585   1
  -9  -5  11 3.62374 4.05899   1
  -8  -5  11 5.10108 3.29199   2
  -8  -5  11 11.6053 2.80012   1
  -7  -5  11 41.6085 4.13482   2
  -7  -5  11 58.0402 4.88921   1
  -6  -5  11 135.514 8.43905   2
  -6  -5  11 179.310 10.1852   1
  -5  -5  11 5.09158 2.30461   2
  -5  -5  11 6.82693 2.81215   1
  -4  -5  11 156.110 9.30916   2
  -4  -5  11 157.957 11.0365   1
  -3  -5  11 228.271 17.4098   1
  -3  -5  11 236.518 18.8871   2
  -2  -5  11 1.68164 3.43056   1
  -2  -5  11 9.02220 3.52602   2
  -1  -5  11 70.2036 5.56202   2
  -1  -5  11 97.8253 9.69615   1
   0  -5  11 40.7406 4.47344   2
   0  -5  11 35.1553 4.38183   1
   1  -5  11 3.88885 2.95682   2
   1  -5  11 3.12588 3.28740   1
  -9  -4   1 371.224 28.7673  -2
  -9  -4  11 371.224 28.7673   1
   8   4   0 143.830 13.3145  -2
  -8  -4  11 143.830 13.3145   1
   2   4   6 60.5586 7.52150  -2
  -2  -4  11 60.5586 7.52150   1
   1   4   7 138.143 12.8255  -2
  -1  -4  11 138.143 12.8255   1
  -1   4   9 71.4743 9.62964  -2
   1  -4  11 71.4743 9.62964   1
 -10  -3   1 10.4891 7.69508  -2
 -10  -3  11 10.4891 7.69508   1
   9   3   0 29.2237 7.40268  -2
  -9  -3  11 29.2237 7.40268   1
   8   3   1 36.5970 7.86656  -2
  -8  -3  11 36.5970 7.86656   1
   5   3   4 125.628 10.8929  -2
  -5  -3  11 125.628 10.8929   1
   4   3   5 163.291 12.9306  -2
  -4  -3  11 163.291 12.9306   1
   3   3   6 480.481 35.4253  -2
  -3  -3  11 480.481 35.4253   1
   2   3   7 110.241 10.3185  -2
  -2  -3  11 110.241 10.3185   1
   1   3   8 62.5086 8.31473  -2
  -1  -3  11 62.5086 8.31473   1
   0   3   9 -8.5271 8.37196  -2
   0  -3  11 -8.5271 8.37196   1
  -1   3  10 18.3677 5.73062  -2
   1  -3  11 18.3677 5.73062   1
 -10  -2  11 82.6882 9.74485   1
  -9  -2  11 116.506 11.1302   2
  -9  -2  11 147.651 13.4971   1
  -8  -2  11 11.5323 3.41663   1
  -8  -2  11 9.51997 3.53467   2
  -7  -2  11 22.9477 3.90372   2
  -7  -2  11 26.9023 3.39461   1
  -6  -2  11 0.14443 3.16827   1
  -6  -2  11 -1.9272 2.15548   2
  -5  -2  11 -1.6267 2.03971   2
  -5  -2  11 -2.1398 2.38623   1
  -4  -2  11 32.4690 2.79176   1
  -4  -2  11 33.4498 3.46705   2
  -3  -2  11 127.979 7.57501   1
  -3  -2  11 113.763 11.3355   2
  -2  -2  11 13.7751 3.14487   1
  -2  -2  11 5.17391 2.36198   2
  -1  -2  11 167.215 10.0153   1
  -1  -2  11 146.722 9.31954   2
   0  -2  11 181.459 10.9310   2
   0  -2  11 198.429 11.6657   1
   1  -2  11 4.21093 2.90349   1
   1  -2  11 1.37436 2.81763   2
 -10  -1  11 23.4372 5.38999   1
 -10  -1  11 16.2767 4.42721   2
  -9  -1  11 116.644 11.8100   1
  -9  -1  11 95.0873 9.88694   2
  -8  -1  11 41.0255 3.87151   1
  -7  -1  11 186.933 10.7225   1
  -7  -1  11 159.749 14.4361   2
  -6  -1  11 288.325 22.7243   2
  -6  -1  11 334.860 22.9060   1
   5   1   5 128.039 11.5514  -2
  -5  -1  11 128.039 11.5514   1
  -4  -1  11 78.9992 5.78101   1
  -3  -1  11 68.1224 7.16092   2
  -3  -1  11 78.1802 5.72446   1
  -2  -1  11 1.74308 2.49231   1
  -2  -1  11 -0.5359 2.64867   2
  -1  -1  11 6.03568 4.33787   1
  -1  -1  11 2.01713 3.00016   2
   1   1   9 1.30047 9.17917  -2
  -1  -1  11 1.30047 9.17917   1
   0   1  10 56.0854 7.51407  -2
   0  -1  11 56.0854 7.51407   1
   0  -1  11 33.7592 4.78181   2
  10   0   1 62.4108 9.14436  -2
 -10   0  11 62.4108 9.14436   1
   9   0   2 146.516 13.6709  -2
  -9   0  11 146.516 13.6709   1
   8   0   3 27.8661 4.44093  -2
  -8   0  11 27.8661 4.44093   1
   7   0   4 9.61440 3.79362  -2
  -7   0  11 9.61440 3.79362   1
   6   0   5 29.6522 5.58863  -2
  -6   0  11 29.6522 5.58863   1
   5   0   6 38.7339 4.24222  -2
  -5   0  11 38.7339 4.24222   1
   4   0   7 91.4844 5.15637  -2
  -4   0  11 91.4844 5.15637   1
   3   0   8 419.831 17.4853  -2
  -3   0  11 419.831 17.4853   1
   2   0   9 251.122 14.7392  -2
  -2   0  11 251.122 14.7392   1
   1   0  10 183.251 10.9333  -2
  -1   0  11 183.251 10.9333   1
   0   0  11 337.510 18.4677  -2
   0   0  11 337.510 18.4677   1
  10  -1   2 52.0887 13.8293  -2
 -10   1  11 52.0887 13.8293   1
 -10   1  11 27.8671 5.44433   2
   9  -1   3 382.576 30.8651  -2
  -9   1  11 382.576 30.8651   1
   8  -1   4 124.016 14.3198  -2
  -8   1  11 124.016 14.3198   1
   7  -1   5 145.510 15.4542  -2
  -7   1  11 145.510 15.4542   1
  -7   1  11 120.535 10.2935   1
  -6   1  11 181.264 8.40573   1
   5  -1   7 60.2915 11.1781  -2
  -5   1  11 60.2915 11.1781   1
  -5   1  11 7.68652 2.86465   1
   4  -1   8 31.2197 9.64906  -2
  -4   1  11 31.2197 9.64906   1
  -4   1  11 13.0801 3.01600   1
  -3   1  11 1.72559 3.09505   1
   3  -1   9 5.83955 10.0219  -2
  -3   1  11 5.83955 10.0219   1
   2  -1  10 31.3219 10.4703  -2
  -2   1  11 31.3219 10.4703   1
  -2   1  11 10.3403 4.67520   1
  -1   1  11 6.62902 2.98778   1
  -1   1  11 1.15737 2.75842   2
  -9   2  11 3.60338 4.97995   1
  -9   2  11 3.13682 4.27833   2
  -8   2  11 -1.1389 3.63366   2
  -8   2  11 4.43124 4.38586   1
  -7   2  11 27.8311 3.91000   1
  -7   2  11 18.9907 4.71227   2
  -6   2  11 96.5139 7.24742   1
  -6   2  11 70.2299 8.60012   2
  -5   2  11 14.1531 3.37620   1
  -5   2  11 4.75190 3.57414   2
  -4   2  11 108.889 7.98954   1
  -4   2  11 79.1464 8.54481   2
  -3   2  11 224.243 13.0344   1
  -3   2  11 167.255 14.1651   2
  -2   2  11 7.60176 3.06307   2
  -2   2  11 8.50163 3.13329   1
   9  -3   4 322.392 26.7640  -2
  -9   3  11 322.392 26.7640   1
   8  -3   5 92.2104 13.1449  -2
  -8   3  11 92.2104 13.1449   1
   7  -3   6 79.4596 11.5575  -2
  -7   3  11 79.4596 11.5575   1
   6  -3   7 95.0460 8.43887  -2
  -6   3  11 95.0460 8.43887   1
   5  -3   8 45.0780 6.71299  -2
  -5   3  11 45.0780 6.71299   1
   4  -3   9 13.6239 6.18196  -2
  -4   3  11 13.6239 6.18196   1
   3  -3  10 18.7356 8.87334  -2
  -3   3  11 18.7356 8.87334   1
  -3  -8  12 4.73194 5.64898   1
   6   7   1 142.327 14.1875  -2
  -6  -7  12 142.327 14.1875   1
   5   7   2 93.0599 7.88653  -2
  -5  -7  12 93.0599 7.88653   1
   4   7   3 111.437 8.85472  -2
  -4  -7  12 111.437 8.85472   1
   3   7   4 329.601 17.7910  -2
  -3  -7  12 329.601 17.7910   1
   2   7   5 73.7265 7.89477  -2
  -2  -7  12 73.7265 7.89477   1
   1   7   6 36.7419 10.6227  -2
  -1  -7  12 36.7419 10.6227   1
   7   6   1 51.9027 10.9558  -2
  -7  -6  12 51.9027 10.9558   1
   6   6   2 38.7539 7.04838  -2
  -6  -6  12 38.7539 7.04838   1
   5   6   3 5.81127 6.65530  -2
  -5  -6  12 5.81127 6.65530   1
   4   6   4 3.53970 6.67523  -2
  -4  -6  12 3.53970 6.67523   1
   3   6   5 73.9844 8.24150  -2
  -3  -6  12 73.9844 8.24150   1
   2   6   6 58.0301 8.60763  -2
  -2  -6  12 58.0301 8.60763   1
   1   6   7 130.519 15.9873  -2
  -1  -6  12 130.519 15.9873   1
  -8  -5  12 3.27392 3.11153   1
  -7  -5  12 45.4302 4.50893   2
  -7  -5  12 66.1012 5.70755   1
  -6  -5  12 195.660 11.3549   1
  -6  -5  12 165.050 10.6305   2
  -5  -5  12 7.18098 3.16702   1
  -5  -5  12 6.13534 2.88794   2
  -4  -5  12 60.2512 5.17604   1
  -4  -5  12 66.8314 5.62340   2
  -3  -5  12 67.5314 5.78180   1
  -3  -5  12 65.4272 5.51273   2
  -2  -5  12 4.41235 2.95298   2
  -2  -5  12 4.91911 3.01834   1
  -1  -5  12 9.08370 3.13922   2
  -1  -5  12 16.3539 5.48819   1
   8   4   1 43.1451 9.21470  -2
  -8  -4  12 43.1451 9.21470   1
   7   4   2 27.3809 10.2801  -2
  -7  -4  12 27.3809 10.2801   1
   6   4   3 19.0451 6.38312  -2
  -6  -4  12 19.0451 6.38312   1
   5   4   4 -0.7674 6.05387  -2
  -5  -4  12 -0.7674 6.05387   1
   4   4   5 68.4722 7.50785  -2
  -4  -4  12 68.4722 7.50785   1
   3   4   6 198.035 12.2823  -2
  -3  -4  12 198.035 12.2823   1
   2   4   7 87.2576 13.2131  -2
  -2  -4  12 87.2576 13.2131   1
   1   4   8 91.4176 13.0830  -2
  -1  -4  12 91.4176 13.0830   1
   9   3   1 173.585 16.0134  -2
  -9  -3  12 173.585 16.0134   1
   8   3   2 64.7836 10.2125  -2
  -8  -3  12 64.7836 10.2125   1
   7   3   3 112.790 12.7514  -2
  -7  -3  12 112.790 12.7514   1
   6   3   4 373.396 19.3467  -2
  -6  -3  12 373.396 19.3467   1
   5   3   5 74.5316 6.93619  -2
  -5  -3  12 74.5316 6.93619   1
   4   3   6 99.0716 7.74872  -2
  -4  -3  12 99.0716 7.74872   1
   3   3   7 38.3702 6.37424  -2
  -3  -3  12 38.3702 6.37424   1
   2   3   8 15.6466 8.76070  -2
  -2  -3  12 15.6466 8.76070   1
   1   3   9 3.85596 5.72373  -2
  -1  -3  12 3.85596 5.72373   1
  -9  -2  12 5.32118 4.13670   2
  -9  -2  12 11.2798 5.54656   1
  -8  -2  12 3.49824 3.50702   2
  -8  -2  12 4.78828 3.08723   1
  -7  -2  12 -2.5956 3.17006   2
  -7  -2  12 6.60535 3.04620   1
  -6  -2  12 55.5939 4.92811   1
  -6  -2  12 48.9140 6.54115   2
  -5  -2  12 2.68292 2.95496   1
  -5  -2  12 3.10067 2.57182   2
  -4  -2  12 89.7436 6.82257   2
  -4  -2  12 102.309 7.10443   1
  -3  -2  12 175.790 8.31362   1
  -3  -2  12 149.981 9.56889   2
  -2  -2  12 10.3974 2.92702   2
  -2  -2  12 6.86023 3.04412   1
  -1  -2  12 66.1733 5.81295   2
  -1  -2  12 78.9383 6.76671   1
  -9  -1  12 139.960 13.8772   1
  -9  -1  12 124.398 11.8200   2
  -8  -1  12 5.70382 3.32527   1
  -8  -1  12 3.66869 3.53070   2
  -7  -1  12 43.1382 5.44889   2
  -7  -1  12 71.8628 9.93708   1
  -6  -1  12 77.6812 8.24575   2
   6   1   5 275.063 23.6326  -2
  -6  -1  12 275.063 23.6326   1
  -6  -1  12 80.1447 9.74724   1
  -5  -1  12 -0.6183 3.14360   2
   5   1   6 97.7707 13.3129  -2
  -5  -1  12 97.7707 13.3129   1
  -5  -1  12 -9.2376 5.40766   1
  -4  -1  12 3.67782 2.37868   1
  -4  -1  12 -0.3446 3.11211   2
  -3  -1  12 3.64136 3.29779   2
  -3  -1  12 0.12176 3.91809   1
   3   1   8 30.4031 11.6130  -2
  -3  -1  12 30.4031 11.6130   1
  -2  -1  12 10.8579 4.71795   1
   2   1   9 19.5820 11.1267  -2
  -2  -1  12 19.5820 11.1267   1
   9   0   3 8.95305 8.72734  -2
  -9   0  12 8.95305 8.72734   1
   8   0   4 25.3994 8.28871  -2
  -8   0  12 25.3994 8.28871   1
   7   0   5 34.7567 8.06104  -2
  -7   0  12 34.7567 8.06104   1
   6   0   6 247.463 20.4611  -2
  -6   0  12 247.463 20.4611   1
   5   0   7 110.516 11.6332  -2
  -5   0  12 110.516 11.6332   1
   4   0   8 188.437 10.9583  -2
  -4   0  12 188.437 10.9583   1
   3   0   9 253.714 11.3492  -2
  -3   0  12 253.714 11.3492   1
   2   0  10 30.2421 5.75994  -2
  -2   0  12 30.2421 5.75994   1
  -8   1  12 0.93426 3.93835   2
  -8   1  12 6.85947 5.10214   1
  -7   1  12 41.4842 6.23546   1
  -6   1  12 20.6630 4.91652   1
   5  -1   8 3.69887 10.7247  -2
  -5   1  12 3.69887 10.7247   1
  -5   1  12 0.57752 5.05058   1
  -4   1  12 -0.7254 3.57188   2
  -4   1  12 4.38521 5.18098   1
  -6   2  12 178.947 15.5599   1
  -5  -5  13 3.34753 3.25583   2
  -5  -5  13 -0.3258 3.46027   1
  -4  -5  13 33.5591 4.51981   1
  -4  -5  13 11.3987 3.58356   2
   6   4   4 40.6064 7.89883  -2
  -6  -4  13 40.6064 7.89883   1
   5   4   5 55.8682 8.60254  -2
  -5  -4  13 55.8682 8.60254   1
   4   4   6 75.9666 8.59712  -2
  -4  -4  13 75.9666 8.59712   1
  -7  -3  13 39.8708 5.71550   2
  -7  -3  13 49.9642 5.05522   1
   6   3   5 115.975 9.32095  -2
  -6  -3  13 115.975 9.32095   1
   5   3   6 24.5497 6.84063  -2
  -5  -3  13 24.5497 6.84063   1
  -4  -3  13 -0.0601 3.70511   2
   4   3   7 -4.2027 9.22826  -2
  -4  -3  13 -4.2027 9.22826   1
  -4  -3  13 -2.3633 4.53235   1
  -7  -2  13 45.4551 4.81537   1
  -6  -2  13 113.722 8.42182   1
  -6  -2  13 105.033 10.3405   2
  -5  -2  13 -5.1110 3.44770   2
  -5  -2  13 8.31363 3.50443   1
  -4  -2  13 126.985 12.3785   1
   0   0   0    0.00    0.00   0
;
_shelx_hkl_checksum              70594
loop_
_space_group_symop_operation_xyz
'x, y, z'
'-x, -y, -z'
loop_
_atom_site_label
_atom_site_type_symbol
_atom_site_fract_x
_atom_site_fract_y
_atom_site_fract_z
_atom_site_U_iso_or_equiv
_atom_site_adp_type
_atom_site_occupancy
_atom_site_site_symmetry_order
_atom_site_calc_flag
_atom_site_refinement_flags_posn
_atom_site_refinement_flags_adp
C1 C 0.1525(8) 0.6994(8) 0.7515(7) 0.0238(11) Uani 1 1 d . .
H1 H 0.130434 0.578200 0.683788 0.029 Uiso 1 1 calc R U
C2 C 0.2560(9) 0.7652(9) 0.9409(8) 0.0298(13) Uani 1 1 d . .
H2 H 0.305563 0.690009 1.004852 0.036 Uiso 1 1 calc R U
C3 C 0.2876(10) 0.9430(10) 1.0384(7) 0.0326(13) Uani 1 1 d . .
H3 H 0.358683 0.989723 1.169455 0.039 Uiso 1 1 calc R U
C4 C 0.2150(9) 1.0517(9) 0.9432(6) 0.0245(9) Uani 1 1 d . .
C5 C 0.1113(8) 0.9807(8) 0.7526(6) 0.0207(9) Uani 1 1 d . .
H5 H 0.060690 1.053343 0.685398 0.025 Uiso 1 1 calc R U
C6 C 0.2423(11) 1.2457(9) 1.0409(9) 0.0394(16) Uani 1 1 d . .
H6A H 0.245620 1.312812 0.962264 0.059 Uiso 1 1 calc R U
H6B H 0.362212 1.294168 1.157656 0.059 Uiso 1 1 calc R U
H6C H 0.136590 1.255685 1.066006 0.059 Uiso 1 1 calc R U
N1 N 0.0824(6) 0.8067(6) 0.6621(5) 0.0186(7) Uani 1 1 d . .
O1 O -0.0171(6) 0.7394(6) 0.4741(5) 0.0247(7) Uani 1 1 d . .
I1 I 0.28496(5) 0.71624(4) 0.39636(4) 0.02164(10) Uani 1 1 d . .
I3 I 0.62325(4) 0.71567(4) 0.40645(4) 0.01996(9) Uani 1 1 d . .
loop_
_atom_site_aniso_label
_atom_site_aniso_U_11
_atom_site_aniso_U_22
_atom_site_aniso_U_33
_atom_site_aniso_U_23
_atom_site_aniso_U_13
_atom_site_aniso_U_12
C1 0.031(3) 0.022(2) 0.020(2) 0.009(2) 0.0119(19) 0.011(2)
C2 0.031(3) 0.031(3) 0.021(2) 0.012(2) 0.006(2) 0.011(2)
C3 0.033(3) 0.033(3) 0.018(2) 0.004(2) 0.006(2) 0.005(3)
C4 0.025(2) 0.020(2) 0.0187(19) 0.002(2) 0.0072(19) 0.0005(19)
C5 0.024(2) 0.020(2) 0.0203(19) 0.0067(19) 0.0119(19) 0.0086(19)
C6 0.045(4) 0.025(3) 0.031(3) -0.003(2) 0.015(3) -0.001(3)
N1 0.0168(18) 0.0221(18) 0.0176(15) 0.0088(17) 0.0079(15) 0.0065(15)
O1 0.0233(18) 0.0218(15) 0.0244(16) 0.0072(15) 0.0081(15) 0.0073(14)
I1 0.02128(17) 0.02259(16) 0.02359(16) 0.00912(13) 0.01196(13) 0.00861(12)
I3 0.01889(16) 0.01953(15) 0.01986(15) 0.00585(11) 0.00853(12) 0.00653(11)
loop_
_atom_type_symbol
_atom_type_description
_atom_type_scat_dispersion_real
_atom_type_scat_dispersion_imag
_atom_type_scat_source
C C 0.0033 0.0016 'International Tables Vol C Tables 4.2.6.8 and 6.1.1.4'
H H 0.0000 0.0000 'International Tables Vol C Tables 4.2.6.8 and 6.1.1.4'
N N 0.0061 0.0033 'International Tables Vol C Tables 4.2.6.8 and 6.1.1.4'
O O 0.0106 0.0060 'International Tables Vol C Tables 4.2.6.8 and 6.1.1.4'
I I -0.4742 1.8119 'International Tables Vol C Tables 4.2.6.8 and 6.1.1.4'
loop_
_geom_angle_atom_site_label_1
_geom_angle_atom_site_label_2
_geom_angle_atom_site_label_3
_geom_angle
N1 C1 C2 119.9(5)
N1 C1 H1 120.1
C2 C1 H1 120.1
C1 C2 C3 119.5(6)
C1 C2 H2 120.2
C3 C2 H2 120.2
C4 C3 C2 119.7(5)
C4 C3 H3 120.2
C2 C3 H3 120.2
C5 C4 C3 119.2(6)
C5 C4 C6 118.4(6)
C3 C4 C6 122.4(5)
N1 C5 C4 119.5(6)
N1 C5 H5 120.2
C4 C5 H5 120.2
C4 C6 H6A 109.5
C4 C6 H6B 109.5
H6A C6 H6B 109.5
C4 C6 H6C 109.5
H6A C6 H6C 109.5
H6B C6 H6C 109.5
C1 N1 C5 122.2(4)
C1 N1 O1 118.9(5)
C5 N1 O1 118.9(5)
loop_
_geom_bond_atom_site_label_1
_geom_bond_atom_site_label_2
_geom_bond_distance
C1 N1 1.345(7)
C1 C2 1.373(7)
C1 H1 0.9500
C2 C3 1.391(9)
C2 H2 0.9500
C3 C4 1.388(9)
C3 H3 0.9500
C4 C5 1.382(6)
C4 C6 1.515(9)
C5 N1 1.356(7)
C5 H5 0.9500
C6 H6A 0.9800
C6 H6B 0.9800
C6 H6C 0.9800
N1 O1 1.361(5)
I1 I3 2.7171(5)
loop_
_geom_torsion_atom_site_label_1
_geom_torsion_atom_site_label_2
_geom_torsion_atom_site_label_3
_geom_torsion_atom_site_label_4
_geom_torsion
N1 C1 C2 C3 -0.2(9)
C1 C2 C3 C4 -0.2(10)
C2 C3 C4 C5 0.3(10)
C2 C3 C4 C6 179.3(6)
C3 C4 C5 N1 0.0(9)
C6 C4 C5 N1 -179.0(5)
C2 C1 N1 C5 0.5(9)
C2 C1 N1 O1 178.9(5)
C4 C5 N1 C1 -0.4(9)
C4 C5 N1 O1 -178.9(6)
