#------------------------------------------------------------------------------
#$Date: 2019-08-16 07:05:43 +0300 (Fri, 16 Aug 2019) $
#$Revision: 217556 $
#$URL: file:///home/coder/svn-repositories/cod/cif/1/55/22/1552238.cif $
#------------------------------------------------------------------------------
#
# This file is available in the Crystallography Open Database (COD),
# http://www.crystallography.net/. The original data for this entry
# were provided by IUCr Journals, http://journals.iucr.org/.
#
# The file may be used within the scientific community so long as
# proper attribution is given to the journal article from which the
# data were obtained.
#
data_1552238
loop_
_publ_author_name
'S\'anchez-Garc\'ia, Jessica J.'
'Flores-Alamo, Marcos'
'Mart\'inez-Falc\'on, Ezequiel'
'Klimova, Elena I.'
_publ_section_title
;
 5-Chloro-2-ferrocenylbenzo[<i>d</i>]oxazole
;
_journal_coeditor_code           VM4041
_journal_issue                   8
_journal_name_full               IUCrData
_journal_page_first              x191096
_journal_paper_doi               10.1107/S2414314619010964
_journal_volume                  4
_journal_year                    2019
_chemical_formula_iupac          '[Fe (C5 H5) (C12 H7 Cl N O)]'
_chemical_formula_sum            'C17 H12 Cl Fe N O'
_chemical_formula_weight         337.58
_chemical_name_systematic
;
5-Chloro-2-ferrocenylbenzo[<i>d</i>]oxazole
;
_space_group_IT_number           4
_space_group_name_Hall           'P 2yb'
_space_group_name_H-M_alt        'P 1 21 1'
_symmetry_cell_setting           monoclinic
_symmetry_space_group_name_Hall  'P 2yb'
_symmetry_space_group_name_H-M   'P 1 21 1'
_atom_sites_solution_hydrogens   geom
_audit_conform_dict_name         cif_core.dic
_audit_conform_dict_version      2.4.5
_audit_creation_method           'WinGX routine CIF_UPDATE'
_cell_angle_alpha                90
_cell_angle_beta                 94.217(10)
_cell_angle_gamma                90
_cell_formula_units_Z            2
_cell_length_a                   5.7854(7)
_cell_length_b                   9.2974(11)
_cell_length_c                   12.6443(12)
_cell_measurement_reflns_used    1067
_cell_measurement_temperature    130(2)
_cell_measurement_theta_max      27.74
_cell_measurement_theta_min      4.138
_cell_volume                     678.29(13)
_computing_cell_refinement
;
CrysAlis PRO; Agilent, 2013
;
_computing_data_collection
;
<i>CrysAlis PRO</i> (Agilent, 2013)
;
_computing_data_reduction
;
<i>CrysAlis RED</i> (Agilent, 2013)
;
_computing_molecular_graphics
;
ORTEP-3 for Windows (Farrugia, 2012)
;
_computing_publication_material
;
Mercury (Macrae <i>et al.</i>,  2006)
;
_computing_structure_refinement
;
SHELXL2018 (Sheldrick, 2015b)
;
_computing_structure_solution
;
SHELXS2018 (Sheldrick, 2015a)
;
_diffrn_ambient_temperature      130(2)
_diffrn_detector_area_resol_mean 10.4685
_diffrn_measured_fraction_theta_full 0.998
_diffrn_measured_fraction_theta_max 0.998
_diffrn_measurement_device_type  'Agilent Xcalibur Atlas Gemini'
_diffrn_measurement_method       '\w scans'
_diffrn_radiation_monochromator  graphite
_diffrn_radiation_type           MoK\a
_diffrn_radiation_wavelength     0.71073
_diffrn_reflns_av_R_equivalents  0.0449
_diffrn_reflns_av_unetI/netI     0.0859
_diffrn_reflns_limit_h_max       6
_diffrn_reflns_limit_h_min       -6
_diffrn_reflns_limit_k_max       11
_diffrn_reflns_limit_k_min       -8
_diffrn_reflns_limit_l_max       15
_diffrn_reflns_limit_l_min       -14
_diffrn_reflns_number            3384
_diffrn_reflns_theta_full        25.242
_diffrn_reflns_theta_max         25.344
_diffrn_reflns_theta_min         3.531
_exptl_absorpt_coefficient_mu    1.304
_exptl_absorpt_correction_T_max  0.956
_exptl_absorpt_correction_T_min  0.89
_exptl_absorpt_correction_type   analytical
_exptl_absorpt_process_details
;
(<i>CrysAlis RED</i>; Agilent,  2013)
;
_exptl_crystal_colour            brown
_exptl_crystal_density_diffrn    1.653
_exptl_crystal_description       prism
_exptl_crystal_F_000             344
_exptl_crystal_size_max          0.18
_exptl_crystal_size_mid          0.057
_exptl_crystal_size_min          0.036
_refine_diff_density_max         1.022
_refine_diff_density_min         -0.494
_refine_ls_abs_structure_details
;
Flack <i>x</i> determined using 562 quotients
[(<i>I</i>^+^)-(<i>I</i>^-^)]/[(<i>I</i>^+^)+(<i>I</i>^-^)]
(Parsons et al., 2013)
;
_refine_ls_abs_structure_Flack   0.01(3)
_refine_ls_extinction_method     none
_refine_ls_goodness_of_fit_ref   1.077
_refine_ls_hydrogen_treatment    constr
_refine_ls_matrix_type           full
_refine_ls_number_parameters     190
_refine_ls_number_reflns         2001
_refine_ls_number_restraints     1
_refine_ls_restrained_S_all      1.076
_refine_ls_R_factor_all          0.0566
_refine_ls_R_factor_gt           0.0467
_refine_ls_shift/su_max          0
_refine_ls_shift/su_mean         0
_refine_ls_structure_factor_coef Fsqd
_refine_ls_weighting_details
'w=1/[\s^2^(Fo^2^)+(0.0549P)^2^] where P=(Fo^2^+2Fc^2^)/3'
_refine_ls_weighting_scheme      calc
_refine_ls_wR_factor_gt          0.1043
_refine_ls_wR_factor_ref         0.1142
_reflns_number_gt                1782
_reflns_number_total             2001
_reflns_threshold_expression     'I > 2\s(I)'
_cod_data_source_file            vm4041sup1.cif
_cod_data_source_block           I
_cod_original_sg_symbol_H-M      'P 21'
_cod_database_code               1552238
_shelx_estimated_absorpt_t_min   0.799
_shelx_estimated_absorpt_t_max   0.955
_shelx_hkl_file
;
   0  -8   4 298.250 24.5313   4
   0  -8   5 474.544 42.4312   4
   0  -7   0-15.1417 17.0067   2
   0  -7  -1 202.155 46.2819   2
   0  -7   1 145.550 39.7945   2
   0  -7   2 1319.57 106.794   2
   0  -7   3 239.429 45.9700   2
   0  -7   3 193.115 17.7034   4
   0  -7   4 95.8180 32.5415   2
   0  -7   4 129.528 22.6135   4
   0  -7   5 2290.78 136.055   2
   0  -6   0 2002.99 117.918   2
   0  -6  -1 2732.50 143.076   2
   0  -6   1 2909.97 143.473   2
   0  -6   2 501.667 60.3079   2
   0  -6  -2 497.173 62.4951   2
   0  -6  -3 944.975 89.3334   2
   0  -6   3 983.585 84.9347   2
   0  -6  -4 1905.21 129.687   2
   0  -6   4 1794.58 115.991   2
   0  -6   5 550.495 65.4242   2
   0  -6  13 192.577 49.8823   1
   0  -5   0 13.2427 20.8604   2
   0  -5   1 2861.11 127.359   2
   0  -5  -1 2825.85 132.362   2
   0  -5   2 3195.30 136.225   2
   0  -5  -2 3278.00 145.291   2
   0  -5   3 811.265 69.3938   2
   0  -5  -3 759.527 74.9340   2
   0  -5  -4 1143.52 93.8778   2
   0  -5   4 1115.03 81.7941   2
   0  -5  -5 2604.25 148.140   3
   0  -5  -5 2627.91 145.724   2
   0  -5  -6 759.152 82.3825   3
   0  -5  12 731.161 91.9855   1
   0  -5  13-20.1038 32.6744   1
   0  -4   0 3319.24 125.312   2
   0  -4   1 176.751 32.7055   2
   0  -4  -1 156.794 32.5272   2
   0  -4  -2 921.100 74.0987   2
   0  -4   2 859.710 64.8402   2
   0  -4   3 3095.70 120.111   2
   0  -4  -3 2947.26 135.275   2
   0  -4   4 1732.52 93.4970   2
   0  -4  -4 1701.37 104.714   2
   0  -4  -5 1109.41 90.3117   2
   0  -4  -6 3188.59 152.107   2
   0  -4  -7 1425.86 111.137   3
   0  -4  -7 1370.56 110.827   2
   0  -4  11 841.567 90.4451   1
   0  -4  12 383.551 66.4222   1
   0  -4  13 445.168 73.4668   1
   0  -4  14 651.648 90.1274   1
   0  -3   0 3.39750 15.5402   2
   0  -3   1 1284.49 69.2041   2
   0  -3  -1 1289.87 72.0964   2
   0  -3  -2 1557.43 84.8811   2
   0  -3   2 1351.57 71.7070   2
   0  -3  -3 245.662 38.1243   2
   0  -3   3 230.740 31.9253   2
   0  -3  -4 908.630 73.2696   2
   0  -3  -5 1483.28 98.6599   2
   0  -3  -6 1129.98 89.3845   2
   0  -3  -7 139.021 36.0717   2
   0  -3  -8 1838.22 128.490   3
   0  -3  -8 1900.52 131.899   1
   0  -3  -8 1739.56 122.099   2
   0  -3   9 337.730 53.4855   1
   0  -3  -9 539.172 74.2282   1
   0  -3  10 174.567 39.4970   1
   0  -3  11 287.736 54.9929   1
   0  -3  12 502.138 76.2156   1
   0  -3  13 326.081 65.6985   1
   0  -3  14 126.038 60.2340   3
   0  -3  15 332.071 85.0353   3
   0  -2   0 5988.81 119.266   2
   0  -2   1 2564.98 81.8085   2
   0  -2  -1 2642.07 88.7459   2
   0  -2  -2 16480.4 233.442   2
   0  -2   2 15346.5 195.274   2
   0  -2  -3 3922.02 125.970   2
   0  -2  -4 3618.81 129.812   2
   0  -2  -5 179.000 32.9564   2
   0  -2  -6 674.467 67.3298   1
   0  -2  -6 690.605 66.8706   2
   0  -2   7 5730.83 180.448   1
   0  -2  -7 6052.58 208.976   2
   0  -2  -7 6081.60 203.143   1
   0  -2  -8 230.211 48.0080   1
   0  -2   8 178.138 38.3225   1
   0  -2  -8 329.153 52.6119   2
   0  -2  -9 370.137 57.9906   1
   0  -2  -9 403.380 61.2524   2
   0  -2   9 362.136 54.4706   1
   0  -2  10 2345.74 142.781   1
   0  -2 -10 2081.41 134.891   1
   0  -2  11 278.761 60.5127   1
   0  -2  12 12.3529 39.0400   3
   0  -2  13 1034.70 133.725   3
   0  -2  14 753.167 117.099   3
   0  -2  15 124.784 52.2138   3
   0  -1  -2 23096.4 230.877   2
   0  -1  -3 274.635 34.4438   2
   0  -1  -4 1960.96 90.2218   2
   0  -1  -4 1742.00 81.9918   1
   0  -1  -5 2795.72 115.731   1
   0  -1   5 2985.01 115.088   1
   0  -1  -5 3261.81 126.015   2
   0  -1  -6 619.971 59.2601   2
   0  -1   6 649.962 59.2931   1
   0  -1  -6 700.698 65.4873   1
   0  -1  -7 348.328 48.5987   1
   0  -1  -7 479.315 59.9214   2
   0  -1   7 453.511 56.6734   1
   0  -1   8 2768.54 140.042   1
   0  -1  -8 2650.54 140.426   2
   0  -1  -8 2663.86 136.392   1
   0  -1  -9 1782.83 118.380   1
   0  -1   9 2026.60 125.746   1
   0  -1  -9 1632.08 115.823   2
   0  -1  10 26.6602 483.033   3
   0  -1  11-6.24232 40.9568   3
   0  -1  12 1260.26 164.884   3
   0  -1  13 434.399 87.2871   3
   0  -1  14 276.737 72.3619   3
   0  -1  15 666.391 115.307   3
   0   0  -3 9198.88 155.014   2
   0   0  -3 9150.50 153.013   1
   0   0   4 539.678 48.4944   1
   0   0  -4 437.902 40.8236   1
   0   0  -4 486.394 43.4245   2
   0   0  -5 1393.57 78.5572   2
   0   0   5 1430.96 84.0572   1
   0   0   5 1342.05 91.3965   3
   0   0  -6 8037.77 203.585   2
   0   0   6 8489.01 213.360   1
   0   0   6 7590.96 225.029   3
   0   0   7 2178.01 137.261   3
   0   0  -7 2137.79 110.362   2
   0   0  -8 86.8205 27.0361   2
   0   0   8 42.7379 32.1262   3
   0   0  -9 358.824 52.7483   2
   0   0   9 175.692 58.8976   3
   0   0 -10 26.0854 21.5591   2
   0   0  10 3.10686 29.3583   3
   0   0  11 467.397 112.896   3
   0   0  12 11.0136 39.5283   3
   0   0  13 69.5708 47.1894   3
   0   0  14 1575.51 167.533   3
   0   0  15-64.0835 60.7725   3
   0   1   2 21845.7 241.121   3
   0   1   3 299.367 37.5990   3
   0   1   4 1700.78 89.8890   3
   0   1   5 2940.72 128.508   3
   0   1   6 553.357 63.6358   3
   0   1   7 340.524 54.5284   3
   0   1  -8 2819.35 134.785   2
   0   1   8 2590.10 161.136   3
   0   1   9 1411.88 136.584   3
   0   1  -9 1884.07 119.086   2
   0   1 -10 179.596 39.4098   2
   0   1  10 28.6194 574.919   3
   0   1  11-31.2216 35.7443   3
   0   1  12 1513.45 171.624   3
   0   1  13 442.522 87.9506   3
   0   1  14 231.111 68.4012   3
   0   1  15 409.599 93.3200   3
   0   2  -2 15310.0 203.860   2
   0   2  -3 3413.65 103.140   2
   0   2  -4 3856.00 125.106   2
   0   2   5 184.278 43.3881   3
   0   2   6 721.340 75.6140   3
   0   2   7 5900.45 222.527   3
   0   2   8 126.362 50.7698   3
   0   2   9 164.785 59.3574   3
   0   2 -10 2345.52 135.268   2
   0   2  10 1675.87 177.765   3
   0   2  11 125.809 63.5402   3
   0   2  12 20.2423 35.3158   3
   0   2  13 923.608 121.090   3
   0   2  14 735.505 113.453   3
   0   2  15 37.0015 41.1538   3
   0   3  -1 1275.51 69.8602   2
   0   3  -2 1603.52 80.8759   2
   0   3  -3 244.746 35.4011   2
   0   3  -4 924.178 64.3388   2
   0   3  -5 1356.67 85.2364   2
   0   3  -6 962.426 74.9087   2
   0   3  -7 112.342 32.8243   2
   0   3   7 131.306 40.6002   2
   0   3  -8 1769.73 113.385   2
   0   3   8 1577.69 123.627   2
   0   3   9 359.169 65.1795   3
   0   3  10 44.9700 49.1595   3
   0   3  11 32.0088 61.5610   3
   0   3  12 446.127 83.5898   3
   0   3  13 196.712 63.2965   3
   0   3  14 52.9447 41.6173   3
   0   3  15 363.034 85.2240   3
   0   4   0 3312.92 130.366   2
   0   4  -1 140.175 32.8503   2
   0   4  -2 821.142 67.0116   2
   0   4  -3 3158.85 128.477   2
   0   4  -4 1511.18 93.2493   2
   0   4  -5 998.109 77.8714   2
   0   4  -6 3442.80 145.543   2
   0   4   7 1150.24 108.254   2
   0   4  -7 1282.68 94.2949   2
   0   4   8 1030.29 106.179   2
   0   4  -8 1067.64 91.1737   2
   0   4  -9 615.524 72.2327   2
   0   4   9 625.091 91.2007   2
   0   4 -10 434.596 61.4795   2
   0   4 -11 767.890 84.9442   2
   0   4 -12 295.256 57.1075   2
   0   4 -13 328.707 63.3071   2
   0   4 -14 651.326 87.7296   2
   0   4 -15-27.9712 25.7859   2
   0   5   0-10.5700 23.8885   2
   0   5  -1 2237.58 118.080   2
   0   5   1 2381.72 125.988   2
   0   5  -2 3281.07 141.734   2
   0   5   2 2761.44 64.2345   4
   0   5  -3 785.125 71.8731   2
   0   5  -4 1073.06 83.3331   2
   0   5  -5 2394.79 127.379   2
   0   5  -6 717.379 73.7531   2
   0   5   6 739.723 89.5266   2
   0   5   7 305.226 63.4218   2
   0   5  -7 216.086 42.2423   2
   0   5   8 249.823 54.8897   2
   0   5  -8 185.438 42.0892   2
   0   5  -9 1414.30 110.459   2
   0   5   9 1610.68 146.694   2
   0   5 -10 66.1836 33.7574   2
   0   5  10 152.297 50.6847   2
   0   5 -11 377.589 61.8780   2
   0   5 -12 678.879 85.5534   2
   0   5 -13 49.9456 36.0653   2
   0   5 -14 55.3957 34.7280   2
   0   6   0 1741.68 117.976   2
   0   6  -1 2684.86 141.461   2
   0   6   1 2922.68 154.500   2
   0   6   2 429.963 63.4537   2
   0   6  -2 378.770 55.4411   2
   0   6   3 758.787 40.9464   4
   0   6   3 862.104 90.1894   2
   0   6  -3 736.023 74.7762   2
   0   6  -4 1693.54 113.064   2
   0   6   4 1797.58 130.337   2
   0   6   5 537.135 79.3980   2
   0   6  -5 446.367 58.8424   2
   0   6   6 129.738 43.8124   2
   0   6  -6 184.570 44.0491   2
   0   6  -7 3450.91 168.994   2
   0   6   7 3624.81 207.734   2
   0   6  -8 39.0035 26.0813   2
   0   6   8 9.30142 26.3802   2
   0   6  -9 237.458 48.0540   2
   0   6   9 161.881 54.2968   2
   0   6 -10 921.229 94.4090   2
   0   6  10 1194.24 133.775   2
   0   6  11 133.464 49.3800   2
   0   6 -11 98.3134 32.1417   2
   0   6 -12 33.7510 24.7856   2
   0   6 -13 204.365 49.4997   2
   0   7   0-19.4667 26.1398   2
   0   7   1 246.248 49.9154   2
   0   7  -1 238.589 50.7411   2
   0   7  -2 1299.56 108.099   2
   0   7   2 1229.92 111.222   2
   0   7   3 200.694 49.8701   2
   0   7  -3 236.525 47.3330   2
   0   7   4 104.132 37.3686   2
   0   7   4 102.794 17.7408   4
   0   7  -4 88.4925 32.7897   2
   0   7   5 1963.76 150.541   2
   0   7  -5 2171.40 136.470   2
   0   7  -6 41.8539 21.9014   2
   0   7   6 54.2909 32.9560   2
   0   7   7 117.609 51.4541   2
   0   7  -7 28.5791 22.1211   2
   0   7   8 387.010 76.1979   2
   0   7  -8 298.895 54.2477   2
   0   7  -9 611.336 78.7482   2
   0   7   9 692.943 105.766   2
   0   7  10 336.011 77.1664   2
   0   7 -10 133.687 36.9409   2
   0   7 -11 540.825 79.9660   2
   0   7  11 616.973 102.853   2
   0   8   0 1501.08 125.570   2
   0   8  -1 36.1674 30.3869   2
   0   8   1 9.52208 30.0338   2
   0   8  -2 642.920 84.0717   2
   0   8   2 732.645 95.5498   2
   0   8  -3 2257.70 151.070   2
   0   8   3 2065.33 157.868   2
   0   8  -4 267.770 52.9071   2
   0   8   4 228.780 56.2653   2
   0   8  -5 414.231 64.5402   2
   0   8   5 431.346 37.0294   4
   0   8   5 473.550 80.1893   2
   0   8  -6 206.930 46.9880   2
   0   8   6 266.583 65.4496   2
   0   8   7 647.370 97.6977   2
   0   8  -7 598.462 77.8445   2
   0   8  -8 244.407 54.0737   2
   0   8   8 161.218 54.2803   2
   0   8   9 436.786 85.6983   2
   0   8  -9 287.068 58.0899   2
   0   8  10 244.698 68.9379   2
   0   8 -10 147.929 41.9937   2
   0   8  11 298.917 77.3619   2
   0   9   0 0.60440 33.7204   2
   0   9  -1 961.348 105.900   2
   0   9   1 894.338 107.538   2
   0   9   2 352.075 70.2079   2
   0   9  -2 407.932 70.4848   2
   0   9  -3 102.716 40.3741   2
   0   9   3 48.0833 34.9050   2
   0   9   4 249.507 63.5008   2
   0   9  -4 186.239 47.7970   2
   0   9   5 879.008 114.783   2
   0   9  -5 711.807 88.3880   2
   0   9   6 402.477 78.8064   2
   0   9  -6 395.402 69.1455   2
   0   9   7-32.4514 40.3710   2
   0   9  -7 76.4392 37.0785   2
   0   9  -8 133.730 42.2399   2
   0   9   8 155.967 56.1889   2
   0   9  -9 378.061 69.8157   2
   0   9   9 363.142 86.6220   2
   0   9  10 36.6589 35.0585   2
   0  10   0 200.796 55.7183   2
   0  10   1 269.558 63.0424   2
   0  10  -1 233.576 56.0805   2
   0  10   2 465.141 85.2117   2
   0  10  -2 386.287 70.2243   2
   0  10   3 1152.30 130.920   2
   0  10  -3 1214.44 126.192   2
   0  10  -4 661.651 94.3021   2
   0  10   4 647.675 104.743   2
   0  10  -5 301.184 67.9034   2
   0  10   5 268.075 71.3306   2
   0  10  -6 257.797 60.0318   2
   0  10   6 235.547 69.1736   2
   0  10  -7 200.415 54.0193   2
   0  10   7 276.905 73.2380   2
   0  10   8 11.3536 41.4705   2
   0  11   0 28.9698 40.9923   2
   0  11   1 178.310 55.2546   2
   0  11  -1 255.791 68.4416   2
   0  11   2 76.3446 42.9028   2
   0  11  -2 59.1964 35.0481   2
   0  11   3-61.3958 43.1211   2
   0  11  -3 1.96825 27.9484   2
   0  11   4 109.241 52.2132   2
   0  11  -4 56.2360 42.6532   2
   0  11   5 440.649 97.8859   2
   0  11  -5 485.248 86.2955   2
   0  11   6 71.0462 42.4509   2
   0  11  -6 92.7065 40.7628   2
   0  12   0 90.7048 53.0882   2
   0  12  -1 120.122 49.6656   2
   0  12   1 254.639 70.1854   2
   0  12  -2 308.170 75.4406   2
   0  12   2 331.337 83.0234   2
   0  12  -3 221.672 62.3114   2
   0  12   3 307.953 75.2932   2
   0  12  -4 142.839 48.7337   2
   1  -8   0 216.270 44.7409   2
   1  -8   1 719.309 77.1819   2
   1  -8   2 27.9423 15.8519   2
   1  -8   3 416.824 60.7945   2
   1  -8   4 1474.57 107.330   2
   1  -8   5 286.846 36.4159   4
   1  -8   5 328.067 50.5190   2
  -1  -7   2 336.333 19.2075   4
   1  -7  -2 561.159 71.0077   2
   1  -7  -1 372.771 57.1310   2
   1  -7   0 247.327 46.6349   2
   1  -7   1 58.1980 24.3162   2
   1  -7   2 610.395 69.4770   2
   1  -7   3 913.471 81.9683   2
   1  -7   4 52.6249 21.1538   2
   1  -7   4 68.1964 18.6721   4
   1  -7   5 232.043 40.0857   2
   1  -7   5 262.183 37.3640   4
   1  -7   6 1011.78 79.1852   4
   1  -7   7 31.2382 21.5137   4
   1  -7   8-10.7844 19.4943   4
  -1  -6   5 138.534 39.8715   2
  -1  -6   4 557.671 70.5534   2
   1  -6  -4 518.458 67.0017   2
   1  -6  -3 3045.29 155.232   2
  -1  -6   3 3000.96 157.806   2
   1  -6  -2 1083.43 88.3924   2
  -1  -6   2 1074.59 92.4739   2
  -1  -6   1 681.777 77.6960   2
   1  -6  -1 526.034 62.0662   2
  -1  -6   1 484.166 26.5292   4
   1  -6   0 3966.94 156.927   2
  -1  -6   0 3901.69 181.303   2
  -1  -6  -1 994.218 94.9104   2
   1  -6   1 1000.91 78.3258   2
  -1  -6  -2 1399.05 109.719   2
   1  -6   2 1250.85 87.9377   2
   1  -6   3 1292.94 67.4811   4
   1  -6   3 1247.78 86.2211   2
   1  -6   4 349.707 40.9790   4
   1  -6   4 426.693 50.2322   2
   1  -6   5 916.459 73.3106   4
   1  -6   6 75.0237 26.3831   4
   1  -6  13 39.4710 31.5867   1
   1  -6  14 428.052 80.4056   1
  -1  -5  12 289.090 51.3503   1
  -1  -5  11 373.018 55.3538   1
   1  -5  -5 1383.34 110.643   3
   1  -5  -5 1374.75 106.701   2
  -1  -5   4 2307.77 130.462   2
   1  -5  -4 2300.75 130.483   2
   1  -5  -3 1011.79 82.6723   2
  -1  -5   3 1193.36 93.7525   2
   1  -5  -2 1664.93 101.313   2
  -1  -5   2 1740.32 109.886   2
  -1  -5   1 2489.94 128.373   2
   1  -5  -1 2309.72 112.933   2
  -1  -5   0 2020.44 121.124   2
   1  -5   0 2030.48 101.313   2
  -1  -5   0 1824.34 59.2466   4
   1  -5   1 51.5597 16.9954   2
  -1  -5  -1 59.5245 19.3793   2
   1  -5   2 3081.64 121.112   2
  -1  -5  -2 2998.97 148.375   2
   1  -5   3 2027.50 95.2934   2
   1  -5   3 1953.39 83.5126   4
  -1  -5  -3 1976.98 122.051   2
   1  -5   4 330.953 38.8402   2
   1  -5   4 347.155 41.5461   4
  -1  -5  -4 298.992 52.7430   2
   1  -5   5 663.448 64.6458   4
  -1  -5  -5 700.873 75.6996   3
  -1  -5  -5 685.786 77.1945   2
  -1  -5  -6 1153.03 100.949   3
   1  -5  12 727.435 100.243   1
   1  -5  13 531.754 91.4274   1
   1  -5  14 141.239 59.7365   1
  -1  -4  12 340.053 55.5551   1
  -1  -4  11 251.786 48.0016   1
  -1  -4  10 1680.98 101.373   1
   1  -4  -7 2072.87 135.688   3
   1  -4  -6 2646.17 145.841   2
   1  -4  -5 13488.6 310.949   2
  -1  -4   4 5911.88 192.426   2
   1  -4  -4 6231.89 200.321   2
  -1  -4   3 435.920 54.9738   2
   1  -4  -3 478.918 53.6703   2
   1  -4  -2 3248.28 128.660   2
  -1  -4   2 2926.85 131.027   2
  -1  -4   1 1218.76 85.2744   2
   1  -4  -1 1334.76 79.1796   2
  -1  -4   0 615.530 35.8867   4
   1  -4   0 655.291 52.3047   2
  -1  -4   0 694.855 65.4798   2
  -1  -4  -1 6610.86 194.825   2
   1  -4   1 6281.26 147.629   2
   1  -4   2 182.330 28.5121   2
   1  -4   2 162.591 23.7894   4
  -1  -4  -2 176.198 35.5228   2
   1  -4   3 183.017 30.2781   4
  -1  -4  -3 181.506 37.4497   2
   1  -4   3 216.346 27.7981   2
  -1  -4  -4 2636.63 132.958   2
  -1  -4  -4 2799.13 133.049   3
   1  -4   4 2685.04 115.003   4
  -1  -4  -5 623.829 66.6791   3
  -1  -4  -5 620.965 68.8051   2
  -1  -4  -6 1449.46 109.489   2
  -1  -4  -6 1466.12 106.761   3
  -1  -4  -7 523.913 69.7315   2
  -1  -4  -7 420.606 62.0877   3
   1  -4  11 533.024 79.9965   1
   1  -4  12 285.798 64.2171   1
   1  -4  13-34.6397 39.9347   1
   1  -4  14 322.728 77.9998   1
   1  -4  15 267.402 71.3829   1
  -1  -3  15 664.687 118.218   3
  -1  -3  14 322.882 81.5342   3
  -1  -3  10 821.296 71.3859   1
   1  -3 -10 820.921 87.4854   1
  -1  -3   9 793.633 66.2255   1
  -1  -3   8 2478.44 105.265   1
   1  -3  -7 1793.50 124.610   2
   1  -3  -6 1001.61 85.2004   2
   1  -3  -5 918.476 78.3156   2
   1  -3  -4 441.340 53.6604   2
   1  -3  -3 5686.77 166.286   2
  -1  -3   3 5146.30 163.284   2
  -1  -3   2 1369.60 83.8276   2
   1  -3  -2 1473.18 79.6202   2
   1  -3  -1 2056.85 87.0927   2
  -1  -3   1 2000.20 99.8813   2
  -1  -3   0 2419.29 74.6118   4
  -1  -3   0 2507.88 109.404   2
   1  -3   0 2687.09 89.2195   2
  -1  -3  -1 631.661 56.6963   2
  -1  -3  -1 658.825 42.7406   4
   1  -3   1 668.789 40.6318   2
   1  -3   2 1744.68 62.2482   2
   1  -3   2 1630.52 71.8123   4
  -1  -3  -2 1721.17 92.8096   2
  -1  -3  -3 2345.26 112.123   2
   1  -3   3 2329.94 99.2027   4
  -1  -3  -4 1141.40 78.1909   3
  -1  -3  -4 1199.97 84.6693   2
  -1  -3  -5 1212.65 91.9007   1
  -1  -3  -5 1299.67 92.1835   2
  -1  -3  -5 1223.66 87.4464   3
  -1  -3  -6 2181.17 123.112   2
  -1  -3  -6 2005.99 124.807   1
  -1  -3  -6 2265.61 123.060   3
  -1  -3  -7 233.747 51.4113   1
  -1  -3  -7 203.453 42.1013   3
  -1  -3  -7 125.378 34.6988   2
  -1  -3  -8 453.139 64.0539   2
  -1  -3  -8 476.783 65.6232   3
   1  -3  10 427.972 69.9931   1
   1  -3  11 485.799 79.2373   1
   1  -3  12 729.598 100.042   1
   1  -3  13 314.438 74.9661   1
   1  -3  14 154.516 59.6683   1
   1  -3  14 223.717 68.8915   3
   1  -3  15 145.928 60.8401   1
   1  -3  15 61.5981 34.7758   3
  -1  -2  15 746.670 121.443   3
  -1  -2  14 286.854 71.9100   3
  -1  -2  13 494.852 91.9402   3
  -1  -2  12 1677.34 187.271   3
   1  -2 -11 221.248 43.5983   1
   1  -2 -10 394.654 63.8356   1
   1  -2  -9 1751.02 116.422   1
   1  -2  -8 290.212 56.4253   2
   1  -2  -8 345.709 52.2176   1
  -1  -2   8 392.061 44.7364   1
   1  -2  -7 574.782 71.2274   2
  -1  -2   7 690.881 53.3676   1
  -1  -2   6 10335.9 173.838   1
   1  -2  -6 10010.9 261.505   2
   1  -2  -5 433.948 56.6226   2
   1  -2  -4 102.748 28.5893   2
   1  -2  -3 8997.86 197.256   2
   1  -2  -2 11597.7 201.836   2
  -1  -2   2 11505.6 215.160   2
  -1  -2   1 10250.5 196.560   2
   1  -2  -1 9581.62 160.668   2
   1  -2   0 6027.02 108.433   2
  -1  -2   0 6555.50 157.824   2
   1  -2   1 1070.65 36.3918   2
  -1  -2  -1 1034.83 53.6186   4
   1  -2   1 1069.74 53.3046   4
  -1  -2  -1 1095.87 64.9200   2
  -1  -2  -2 5255.94 142.141   2
   1  -2   2 5147.59 126.752   4
  -1  -2  -3 2559.58 98.9030   3
  -1  -2  -3 2569.38 110.248   1
  -1  -2  -3 2702.49 109.797   2
  -1  -2  -4 288.231 38.8000   3
  -1  -2  -4 278.924 43.8453   1
  -1  -2  -4 235.634 36.6738   2
  -1  -2  -5 4016.33 164.477   1
  -1  -2  -5 3830.60 143.392   2
  -1  -2  -5 4029.61 147.388   3
  -1  -2  -6 0.37650 23.4715   1
  -1  -2  -6 28.3665 19.9044   3
  -1  -2  -6 24.0123 18.2514   2
  -1  -2  -7 1132.41 87.6144   2
  -1  -2  -7 1170.75 97.5359   1
   1  -2   8 1774.27 125.474   1
  -1  -2  -8 2037.23 125.310   2
  -1  -2  -8 2176.71 138.147   1
  -1  -2  -9 447.162 63.1403   2
   1  -2   9 340.100 61.3731   1
   1  -2  10 521.168 77.3206   1
   1  -2  11 1389.26 128.838   1
   1  -2  12 21.3102 32.3732   1
   1  -2  12-5.19519 33.0422   3
   1  -2  13 74.2002 42.9494   3
   1  -2  13 120.724 50.5648   1
   1  -2  14 525.770 100.693   3
   1  -2  15 147.313 62.4119   3
  -1  -1  15 103.187 50.5926   3
  -1  -1  14 849.062 123.300   3
  -1  -1  13 131.107 51.1377   3
  -1  -1  12 189.865 80.9626   3
  -1  -1  11 336.998 104.374   3
  -1  -1  10 195.322 74.8063   3
   1  -1 -10 231.487 43.9174   1
   1  -1  -9 48.9488 19.8607   1
  -1  -1   9 110.941 42.0630   3
   1  -1  -9 86.9497 34.1778   2
   1  -1  -8 2592.40 124.432   1
   1  -1  -8 2529.27 143.988   2
   1  -1  -7 2851.08 121.935   1
   1  -1  -7 3083.67 152.925   2
   1  -1  -6 319.298 46.8934   2
   1  -1  -5 3645.74 141.863   2
   1  -1  -4 1923.44 96.1974   2
  -1  -1   1 14139.4 137.286   1
  -1  -1   1 15762.3 209.213   2
  -1  -1   0 1045.17 49.1741   1
  -1  -1   0 1040.19 54.8344   2
  -1  -1  -1 335.618 35.7968   1
   1  -1   1 342.129 30.9585   4
  -1  -1  -1 330.879 30.9387   2
  -1  -1  -2 4659.84 102.653   3
  -1  -1  -2 4297.10 108.968   2
   1  -1   2 4638.94 123.386   4
  -1  -1  -2 4725.92 135.400   1
  -1  -1  -3 1401.51 81.1865   1
  -1  -1  -3 1532.28 70.1357   3
  -1  -1  -3 1520.97 72.2654   2
  -1  -1  -4 958.387 64.3066   3
  -1  -1  -4 970.442 73.8988   1
  -1  -1  -4 791.250 56.0511   2
  -1  -1  -5 2518.41 124.414   1
  -1  -1  -5 2132.07 97.4507   2
  -1  -1  -6 3056.54 125.740   2
  -1  -1  -6 3258.86 147.488   1
   1  -1   6 3069.08 148.591   1
   1  -1   7 1146.45 97.2032   1
  -1  -1  -7 1268.58 85.6261   2
   1  -1   8 145.841 41.7568   1
  -1  -1  -8 190.601 40.0778   2
   1  -1   9 928.151 116.906   3
   1  -1   9 1213.56 113.286   1
  -1  -1  -9 1375.63 101.693   2
   1  -1  10 1161.63 113.950   1
   1  -1  10 1067.30 127.949   3
  -1  -1 -10 1284.12 105.352   2
   1  -1  11 109.189 53.8466   1
   1  -1  11 76.5407 59.1327   3
   1  -1  12 135.748 78.6884   3
   1  -1  12 536.780 89.8335   1
   1  -1  13 1505.81 155.207   3
   1  -1  14 149.501 61.2429   3
   1  -1  15 8.53960 33.2533   3
  -1   0  15-16.0767 41.7380   3
  -1   0  14 122.678 57.0940   3
  -1   0  13 1486.07 156.085   3
  -1   0  12-103.440 48.7701   3
  -1   0  11 10.5998 54.9392   3
  -1   0  10 779.763 125.309   3
   1   0  -9 27.1896 19.7699   2
  -1   0   9 28.6385 27.4044   3
  -1   0   8 400.731 71.8421   3
   1   0  -7 2607.50 105.963   1
  -1   0   7 2875.79 154.529   3
  -1   0   6 632.072 70.1662   3
   1   0  -6 558.225 46.6096   1
  -1   0   5 2211.00 114.455   3
   1   0  -5 2296.85 83.1759   1
  -1   0   4 184.462 34.9054   3
  -1   0   3 179.974 30.7206   3
  -1   0   2 9837.99 149.148   3
  -1   0   1 2248.35 53.1305   3
  -1   0   0 8418.52 115.280   2
  -1   0  -1 52029.3 268.040   2
   1   0   1 53299.3 353.262   4
   1   0   2 23.2485 11.0317   2
   1   0   2 32.1072 20.5131   4
  -1   0  -2 22.4781 10.0284   2
  -1   0  -3 37.6837 13.6019   2
   1   0   3 17.7551 13.7682   2
   1   0   4 6895.10 144.438   2
  -1   0  -4 6642.45 136.313   2
   1   0   4 7050.28 172.472   3
   1   0   5 1472.38 77.2939   2
  -1   0  -5 1478.89 73.8135   2
   1   0   5 1393.29 89.0521   3
   1   0   6 495.188 61.1955   3
   1   0   6 519.229 65.7136   1
  -1   0  -6 495.239 47.6954   2
   1   0   7 10204.1 283.910   3
  -1   0  -7 9935.80 225.869   2
   1   0   7 10074.3 286.636   1
  -1   0  -8 1033.09 77.3043   2
   1   0   8 1061.81 99.2643   3
   1   0   8 1164.83 105.968   1
   1   0   9 96.1542 44.3910   1
   1   0   9 12.9046 29.7536   3
  -1   0  -9 61.0374 26.1355   2
  -1   0 -10 643.370 72.5229   2
   1   0  10 300.472 81.0394   3
  -1   0 -11 41.1881 21.6849   2
   1   0  11 11.1317 29.6264   3
   1   0  12 1322.96 137.021   3
   1   0  13 37.2430 41.0961   3
   1   0  14 109.654 52.4436   3
   1   0  15 568.147 104.841   3
  -1   1  15 118.373 55.3930   3
  -1   1  14 534.241 98.0585   3
  -1   1  13 117.267 56.1133   3
  -1   1  12 98.7603 71.3245   3
  -1   1  11 202.733 100.380   3
  -1   1  10 61.0063 63.6827   3
  -1   1   9 58.8319 45.4470   3
  -1   1   8 2668.24 160.379   3
  -1   1   7 2713.37 151.503   3
  -1   1   6 447.104 62.2754   3
  -1   1   5 3324.73 147.589   3
  -1   1   4 1529.67 92.0696   3
  -1   1   3 1534.04 82.0146   3
  -1   1   2 2770.23 90.6008   3
   1   1   1 301.914 29.4041   4
   1   1   2 4436.33 118.277   4
   1   1   3 1589.84 75.3336   2
  -1   1  -3 1377.76 43.1904   2
   1   1   3 1610.28 75.1965   3
   1   1   4 900.424 67.0375   3
  -1   1  -4 826.698 43.4049   2
   1   1   4 819.032 59.9502   2
  -1   1  -5 2176.73 82.9721   2
   1   1   5 2194.80 110.890   3
   1   1   5 2171.11 104.683   2
   1   1   6 3358.33 149.384   3
   1   1   6 3215.48 137.248   2
  -1   1  -6 3324.02 114.615   2
   1   1   7 1176.79 96.5981   3
   1   1   7 1245.06 90.5527   2
  -1   1  -7 1160.94 74.2259   2
  -1   1  -8 146.587 28.3606   2
   1   1   8 192.752 46.6355   3
   1   1   9 1151.69 119.022   3
  -1   1  -9 1238.57 89.6679   2
   1   1  10 1044.27 125.185   3
  -1   1 -10 1121.38 91.1194   2
  -1   1 -11 178.630 37.8766   2
   1   1  11 45.3391 44.0005   3
   1   1  12 189.115 73.0266   3
   1   1  13 1484.28 152.648   3
   1   1  14 240.519 67.8805   3
   1   1  15 50.0209 53.7383   3
  -1   2  15 784.203 117.966   3
  -1   2  14 383.856 88.6617   3
  -1   2  13 527.161 93.3204   3
  -1   2  12 1893.56 185.347   3
  -1   2  11 27.7719 58.4687   3
  -1   2  10 61.4996 67.8770   3
  -1   2   9 1276.93 135.815   3
  -1   2   8 258.547 55.8443   3
  -1   2   7 506.869 69.4853   3
  -1   2   6 10364.2 283.611   3
  -1   2   5 337.101 52.8349   3
  -1   2   1 9607.81 165.861   2
  -1   2   0 5978.10 108.836   2
  -1   2  -1 927.500 34.7378   2
   1   2   1 913.899 49.3484   4
  -1   2  -1 956.433 52.3333   4
   1   2   2 4880.04 123.463   4
  -1   2  -3 2604.73 58.4429   2
  -1   2  -4 186.677 21.4705   2
   1   2   4 177.341 36.8947   2
   1   2   5 3847.18 153.120   3
   1   2   5 3440.78 143.372   2
   1   2   6-3.96110 22.6299   3
  -1   2  -6 4.88071 11.3542   2
   1   2   6-4.25142 24.5759   2
  -1   2  -7 922.228 62.7957   2
   1   2   7 1058.87 94.0880   3
   1   2   7 948.470 86.3253   2
   1   2   8 1941.49 143.665   3
   1   2   8 2181.83 137.248   2
  -1   2  -8 2145.76 104.897   2
   1   2   9 389.047 60.5230   2
  -1   2  -9 410.611 49.6780   2
   1   2   9 317.174 76.7064   3
   1   2  10 553.114 84.0908   3
  -1   2 -10 499.570 58.5010   2
   1   2  11 871.610 127.830   3
  -1   2 -11 1227.28 94.0189   2
   1   2  12 67.2590 32.9855   3
  -1   2 -12 159.821 34.2683   2
   1   2  13-17.6724 31.7735   3
   1   2  14 707.946 110.162   3
   1   2  15 72.3532 48.8258   3
   1   3 -16 113.513 51.0172   2
  -1   3  15 656.562 109.100   3
   1   3 -15 532.014 92.3633   2
  -1   3  14 350.579 80.7300   3
  -1   3  13 98.4537 47.5785   3
  -1   3  12 624.240 96.9232   3
  -1   3  11 61.7937 67.6794   3
  -1   3  10 371.731 99.1157   3
  -1   3   9 281.134 88.4810   3
   1   3  -9 813.344 90.0488   2
   1   3  -8 2398.84 148.088   2
   1   3  -7 1820.95 123.247   2
   1   3  -6 991.029 88.5089   2
   1   3  -5 727.868 75.3965   2
   1   3  -4 421.366 54.4520   2
  -1   3   2 1417.88 83.2918   2
  -1   3   1 2303.66 95.3975   2
  -1   3   0 2450.87 73.9106   4
  -1   3   0 2411.56 87.2075   2
  -1   3  -1 647.617 43.9427   4
  -1   3  -1 692.809 43.7584   2
   1   3   2 1586.09 70.3729   4
  -1   3  -2 1662.82 59.7439   2
  -1   3  -3 2133.80 67.8357   2
   1   3   3 2004.61 90.2347   4
  -1   3  -4 1255.22 58.1180   2
   1   3   5 1375.17 98.2125   2
  -1   3  -5 1291.13 62.5849   2
   1   3   6 2017.93 126.642   2
  -1   3  -6 2022.44 87.3870   2
  -1   3  -7 177.332 30.8311   2
   1   3   7 162.731 41.0498   2
   1   3   8 381.376 61.3894   2
  -1   3  -8 472.475 51.5955   2
   1   3   9 882.033 98.4953   2
  -1   3  -9 889.994 71.2640   2
  -1   3 -10 468.099 55.2041   2
   1   3  10 426.646 69.9054   2
   1   3  10 327.513 80.7475   3
   1   3  11 492.218 85.6764   3
  -1   3 -11 416.238 53.8357   2
   1   3  12 770.707 110.437   3
   1   3  13 413.484 80.8638   3
   1   4 -16 228.097 57.5976   2
   1   4 -15-14.8982 27.5345   2
   1   4 -14 55.5789 41.9050   2
   1   4 -13 486.887 80.5673   2
   1   4 -12 144.816 48.4070   2
   1   4 -11 138.186 44.1131   2
   1   4 -10 1482.81 127.151   2
   1   4  -9-24.4238 25.8987   2
   1   4  -8 1804.07 134.692   2
   1   4  -7 2105.82 138.712   2
  -1   4   7 1950.32 140.679   2
   1   4  -6 2375.32 139.396   2
   1   4  -5 13557.8 319.758   2
   1   4  -4 6012.28 211.252   2
  -1   4   3 417.545 60.3067   2
   1   4  -3 484.685 63.3562   2
  -1   4   2 3442.55 142.553   2
  -1   4   1 1240.33 79.0909   2
  -1   4   0 628.615 54.6468   2
  -1   4   0 671.238 37.4817   4
  -1   4  -1 6387.36 154.180   2
   1   4   2 174.665 23.7305   4
  -1   4  -2 233.846 30.4226   2
   1   4   3 195.302 28.8730   4
  -1   4  -3 192.232 27.2830   2
   1   4   4 2521.47 110.496   4
  -1   4  -4 2596.57 93.7292   2
  -1   4  -5 467.748 43.4262   2
   1   4   6 1371.05 110.326   2
  -1   4  -6 1215.15 71.5929   2
   1   4   7 472.888 71.2432   2
  -1   4  -7 461.933 48.3207   2
  -1   4  -8 494.584 52.0353   2
   1   4   8 548.218 79.4462   2
   1   4   9 1058.00 111.303   2
  -1   4  -9 1013.70 78.0792   2
  -1   4 -10 937.109 76.3748   2
  -1   4 -10 801.494 73.1424   2
   1   4  10 880.279 103.552   2
  -1   4 -11 642.292 70.5229   2
  -1   4 -11 661.178 66.7007   2
   1   4  11 665.699 93.0872   2
  -1   4 -12 405.308 59.5185   2
  -1   4 -13-6.85146 15.2658   2
   1   5 -15 77.1664 40.1176   2
   1   5 -14 310.554 67.1114   2
   1   5 -13 167.417 51.3909   2
   1   5 -12 217.444 56.1241   2
   1   5 -11 352.271 67.1504   2
   1   5 -10 100.502 39.1698   2
   1   5  -9 590.054 82.3515   2
  -1   5   8 792.630 96.3006   2
   1   5  -8 602.059 78.4986   2
  -1   5   7 755.305 90.1491   2
   1   5  -7 744.028 87.1446   2
   1   5  -6 582.340 76.2278   2
  -1   5   6 548.385 79.9295   2
  -1   5   5 1403.02 114.435   2
   1   5  -5 1258.40 106.591   2
  -1   5   4 2316.83 140.614   2
   1   5  -4 2364.20 143.219   2
  -1   5   3 1104.82 95.0764   2
   1   5  -3 1103.10 95.2748   2
   1   5  -2 1654.96 115.722   2
  -1   5   2 1794.63 112.946   2
  -1   5   1 2227.67 119.277   2
  -1   5   1 2046.26 62.7902   4
  -1   5   0 2024.72 108.514   2
  -1   5  -1 44.9862 20.3180   2
  -1   5  -2 2923.18 116.358   2
   1   5   3 1891.92 79.2906   4
  -1   5  -3 1983.53 93.4200   2
   1   5   4 356.589 40.1361   4
  -1   5  -4 345.982 40.4937   2
  -1   5  -5 649.179 55.7562   2
   1   5   5 608.118 59.3007   4
   1   5   5 653.438 79.2668   2
   1   5   6 1033.86 99.9879   2
  -1   5  -6 1085.57 72.6393   2
   1   5   7 1098.88 109.285   2
  -1   5  -7 1090.67 77.6049   2
  -1   5  -8 783.417 69.6657   2
   1   5   8 750.797 98.2867   2
   1   5   9 882.412 103.225   2
  -1   5  -9 727.201 68.8189   2
   1   5  10 1005.73 117.318   2
  -1   5 -10 937.312 81.3088   2
  -1   5 -11 31.4623 17.3042   2
   1   5  11 77.8263 43.4737   2
   1   5  12 689.894 102.161   2
  -1   5 -12 719.448 78.0050   2
   1   6 -14 199.464 57.9064   2
   1   6 -13 36.3570 27.6258   2
   1   6 -12 327.767 71.0039   2
   1   6 -11 57.0593 35.8914   2
   1   6 -10 61.4959 32.7289   2
  -1   6   9 691.651 101.162   2
   1   6  -9 583.320 83.0010   2
   1   6  -8 700.026 89.3150   2
  -1   6   8 719.583 99.8582   2
  -1   6   7 1025.61 113.947   2
   1   6  -7 1092.20 111.949   2
   1   6  -6 1461.71 123.574   2
  -1   6   6 1631.96 134.615   2
   1   6  -5 121.514 46.4778   2
  -1   6   5 141.945 48.8515   2
  -1   6   4 491.967 70.7350   2
   1   6  -4 430.930 66.1998   2
  -1   6   3 2799.98 160.901   2
   1   6  -3 2590.03 152.445   2
  -1   6   2 926.703 90.5082   2
   1   6  -2 996.455 96.9505   2
   1   6  -1 502.218 71.5120   2
  -1   6   1 346.342 21.8902   4
  -1   6   1 476.843 60.3035   2
  -1   6   0 3608.63 160.387   2
   1   6   0 3951.05 188.238   2
   1   6   1 883.460 91.3982   2
  -1   6  -1 863.732 74.0512   2
  -1   6  -2 1346.90 89.9230   2
   1   6   2 1345.74 114.263   2
   1   6   3 1126.87 102.979   2
  -1   6  -3 1003.56 76.6581   2
   1   6   3 1199.60 61.8628   4
   1   6   4 365.466 63.6693   2
   1   6   4 388.942 40.2708   4
  -1   6  -4 329.527 44.7769   2
   1   6   5 1117.40 109.983   2
   1   6   5 1055.21 73.8882   4
  -1   6  -5 1120.64 79.7848   2
   1   6   6 85.0914 25.0825   4
   1   6   6 101.651 40.7189   2
  -1   6  -6 82.8401 26.2766   2
   1   6   7 232.264 42.7284   4
   1   6   7 244.070 56.1386   2
  -1   6  -7 242.099 39.3101   2
   1   6   8 1725.88 146.975   2
  -1   6  -8 1764.93 106.722   2
  -1   6  -9 192.383 40.3394   2
   1   6   9 296.440 66.9789   2
   1   6  10 57.9142 37.0777   2
  -1   6 -10 42.0998 27.8023   2
   1   6  11 615.686 98.9526   2
   1   6  12 117.860 48.9155   2
   1   7 -13 40.4787 34.0289   2
   1   7 -12 211.317 56.4389   2
   1   7 -11 512.716 87.7288   2
   1   7 -10 419.655 78.8660   2
   1   7  -9 16.4103 23.5038   2
  -1   7   9 50.8080 30.8320   2
   1   7  -8 205.742 52.2746   2
  -1   7   8 215.254 61.0838   2
   1   7  -7 122.548 42.9385   2
  -1   7   7 167.314 51.6679   2
  -1   7   6 34.1689 33.6787   2
   1   7  -6 25.1031 24.5163   2
   1   7  -5 504.150 76.1976   2
  -1   7   5 568.666 83.6348   2
  -1   7   4 980.713 107.909   2
   1   7  -4 946.420 100.993   2
  -1   7   3 26.9813 25.3181   2
   1   7  -3 20.0235 24.3818   2
  -1   7   2 481.473 68.1409   2
   1   7  -2 529.342 77.7885   2
   1   7  -1 357.342 65.0391   2
  -1   7   1 488.203 67.1133   2
   1   7   0 195.660 50.1198   2
  -1   7   0 221.664 44.0850   2
   1   7   1 12.5617 26.9955   2
  -1   7  -1 78.8608 32.1242   2
   1   7   2 606.917 83.9239   2
  -1   7  -2 553.834 63.8958   2
  -1   7  -3 809.130 76.3590   2
   1   7   3 788.508 94.6656   2
   1   7   4 103.216 20.4089   4
  -1   7  -4 91.6116 31.0843   2
   1   7   4 101.289 40.4116   2
   1   7   5 280.258 36.7584   4
   1   7   5 327.971 65.9913   2
  -1   7  -5 292.083 46.1928   2
   1   7   6 907.785 105.022   2
   1   7   6 888.285 71.2435   4
  -1   7  -6 1015.85 82.2766   2
   1   7   7 6.18921 24.1445   2
   1   7   7 11.6628 12.4466   4
  -1   7  -7 13.1702 19.2543   2
   1   7   8 15.2177 28.7218   2
   1   7   8 14.4879 16.6662   4
  -1   7  -8 34.8945 18.8914   2
  -1   7  -9 1073.77 90.9971   2
   1   7   9 1057.29 125.095   2
   1   7  10 245.107 65.7419   2
   1   7  11 33.1481 34.6638   2
   1   7  12 470.626 92.0868   2
   1   8 -12 100.091 39.3823   2
   1   8 -11 192.308 64.4937   2
  -1   8  10 974.973 130.306   2
   1   8 -10 707.100 99.5067   2
  -1   8   9 496.235 90.7165   2
   1   8  -9 379.541 71.7153   2
  -1   8   8 304.747 72.7678   2
   1   8  -8 277.382 64.7684   2
   1   8  -7 545.124 84.7206   2
  -1   8   7 557.777 98.1361   2
  -1   8   6 626.085 98.1839   2
   1   8  -6 516.344 82.6128   2
   1   8  -5 23.2319 26.9892   2
  -1   8   5 61.7898 43.9076   2
  -1   8   4 405.369 73.3935   2
   1   8  -4 299.839 63.2716   2
  -1   8   3 747.567 93.7274   2
   1   8  -3 716.520 90.0545   2
  -1   8   2 706.454 90.1740   2
   1   8  -2 822.864 99.2616   2
  -1   8   1 248.735 54.3703   2
   1   8  -1 279.230 60.3687   2
  -1   8   0 129.915 39.9249   2
   1   8   0 181.649 54.6897   2
  -1   8  -1 773.933 85.2061   2
   1   8   1 847.036 104.220   2
  -1   8  -2 69.8482 27.3306   2
   1   8   2-10.4255 30.3516   2
  -1   8  -3 308.600 54.1000   2
   1   8   3 278.573 60.6119   2
   1   8   4 1689.99 147.244   2
  -1   8  -4 1659.17 115.643   2
  -1   8  -5 269.336 47.6794   2
   1   8   5 188.749 53.7377   2
   1   8   6 63.3301 33.8322   2
  -1   8  -6 115.045 34.2450   2
   1   8   7 1212.34 132.800   2
  -1   8  -7 1075.12 92.5275   2
   1   8   8 429.046 80.5974   2
  -1   8  -8 426.156 58.9697   2
   1   8   9 138.531 57.1791   2
   1   8  10 296.660 75.7199   2
   1   8  11 212.336 65.7720   2
   1   9 -11 234.578 62.5329   2
   1   9 -10 89.6079 42.5684   2
  -1   9  10 218.039 65.2585   2
  -1   9   9 81.8697 52.3661   2
   1   9  -9-9.70755 31.3699   2
   1   9  -8 397.599 76.6525   2
  -1   9   8 587.400 101.531   2
   1   9  -7 132.429 46.3575   2
  -1   9   7 231.980 66.9175   2
   1   9  -6-8.62650 28.2786   2
  -1   9   6-15.8056 30.9369   2
  -1   9   5 652.983 99.3973   2
   1   9  -5 525.958 82.3222   2
   1   9  -4 605.338 90.9624   2
  -1   9   4 623.186 93.3455   2
  -1   9   3 357.528 73.2026   2
   1   9  -3 383.694 73.4030   2
   1   9  -2 64.3112 41.2479   2
  -1   9   2 129.014 47.8134   2
  -1   9   1 1141.51 114.626   2
   1   9  -1 1362.48 133.264   2
   1   9   0 281.328 69.6611   2
  -1   9   0 317.384 60.9044   2
  -1   9  -1 26.1030 20.6572   2
   1   9   1-7.75758 38.9313   2
   1   9   2 1204.65 128.555   2
  -1   9  -2 969.295 97.9887   2
   1   9   3 129.722 48.0154   2
  -1   9  -3 45.8356 25.7155   2
   1   9   4 534.019 90.9347   2
  -1   9  -4 645.551 78.7813   2
   1   9   5 511.994 91.3704   2
  -1   9  -5 515.306 70.1338   2
   1   9   6 445.260 83.5157   2
  -1   9  -6 215.081 45.5211   2
   1   9   7 242.359 72.2530   2
  -1   9  -7 299.182 53.6852   2
   1   9   8 178.080 61.0383   2
   1   9   9 156.036 57.0723   2
   1  10  -9 343.085 70.9971   2
   1  10  -8 61.8701 41.0536   2
  -1  10   8 84.9699 47.0341   2
   1  10  -7 157.567 53.9581   2
  -1  10   7 90.2019 47.5125   2
  -1  10   6 426.563 92.7399   2
   1  10  -6 467.560 85.1525   2
  -1  10   5 317.563 74.6314   2
   1  10  -5 239.032 63.1245   2
  -1  10   4 256.225 62.9196   2
   1  10  -4 179.815 54.9845   2
  -1  10   3 1031.55 123.151   2
   1  10  -3 842.487 110.543   2
   1  10  -2 416.686 88.2470   2
  -1  10   2 406.746 77.5318   2
  -1  10   1 392.962 72.2863   2
   1  10  -1 459.596 83.2758   2
  -1  10   0 697.979 95.0442   2
   1  10   0 784.675 110.388   2
  -1  10  -1 341.541 67.4943   2
   1  10   1 400.403 78.9033   2
  -1  10  -2 762.422 95.3939   2
   1  10   2 820.979 115.695   2
   1  10   3 405.745 83.2365   2
  -1  10  -3 466.986 73.7711   2
  -1  10  -4 515.611 76.0191   2
   1  10   4 528.909 99.5967   2
   1  10   5 447.628 88.0054   2
  -1  10  -5 426.639 66.7571   2
   1  10   6 224.481 68.2741   2
   1  10   7 189.856 63.5594   2
   1  11  -8 144.277 52.0658   2
   1  11  -7 291.509 71.5999   2
  -1  11   6 71.1731 44.2236   2
   1  11  -6-5.64281 27.0168   2
   1  11  -5 284.035 68.9643   2
  -1  11   5 311.886 75.9328   2
   1  11  -4 157.437 55.3199   2
  -1  11   4 72.8488 46.2861   2
   1  11  -3 306.729 79.0657   2
  -1  11   3 197.484 65.3152   2
  -1  11   2 49.0234 32.9249   2
   1  11  -2 23.6979 33.6341   2
  -1  11   1 262.180 65.9536   2
   1  11  -1 251.011 68.5565   2
   1  11   0 118.664 50.5667   2
  -1  11   0 193.237 55.2182   2
   1  11   1 223.859 68.1142   2
  -1  11  -1 346.965 68.1139   2
   1  11   2 83.9883 49.0867   2
  -1  11  -2 125.541 46.1306   2
   1  11   3 140.035 56.8836   2
  -1  11  -3 113.207 39.7305   2
   1  11   4 66.0031 42.4004   2
   1  11   5-5.58747 31.7579   2
   1  12  -6 53.7195 35.2537   2
   1  12  -5 262.358 69.4668   2
   1  12  -4 164.021 59.9801   2
  -1  12   4 79.2356 36.7433   2
   1  12  -3 113.013 51.1359   2
  -1  12   3 151.208 58.5582   2
   1  12  -2 408.350 85.0492   2
  -1  12   2 467.890 88.1198   2
   1  12  -1 57.5792 46.4901   2
  -1  12   1 63.3800 34.7013   2
   1  12   0 92.8848 53.4488   2
  -1  12   0 74.6413 36.7087   2
  -1  12  -1 157.389 52.8108   2
   1  12   1 166.373 59.6424   2
  -2  -8   3 560.112 45.6043   4
  -2  -8   2 530.197 40.4323   4
   2  -8  -1 393.905 57.7696   2
   2  -8   0 90.3007 28.3258   2
   2  -8   1 793.505 77.2221   2
   2  -8   2 984.576 85.9149   2
   2  -8   3 328.751 48.5273   2
   2  -8   4 339.641 45.4917   2
  -2  -7   2 301.522 35.4943   4
   2  -7  -2 272.139 47.2914   2
  -2  -7   1 47.6217 15.4128   4
   2  -7  -1 50.7468 25.6142   2
   2  -7   0 589.224 64.4550   2
   2  -7   1 814.567 73.9492   2
   2  -7   2 327.587 46.9693   2
   2  -7   3 315.502 44.4773   2
   2  -7   4 622.062 56.2517   2
   2  -7   5 558.675 61.5863   4
   2  -7   6 397.650 53.6440   4
   2  -7   7 912.987 80.4575   4
   2  -6  -4 313.427 53.6206   2
   2  -6  -3 82.3804 30.8190   2
   2  -6  -2 2381.26 131.274   2
   2  -6  -1 903.019 76.2269   2
  -2  -6   1 876.077 59.4237   4
   2  -6   0 496.262 54.2129   2
  -2  -6   0 611.777 51.1537   4
   2  -6   1 1349.66 83.9698   2
   2  -6   2 1217.72 77.3038   2
   2  -6   3 434.117 44.4567   2
   2  -6   4 1015.34 59.4604   2
   2  -6   4 1043.43 82.2720   4
   2  -6   5 389.373 52.8819   4
   2  -6   6 901.562 81.7227   4
   2  -6   7 227.405 45.2913   4
   2  -6  13 81.9183 35.2164   1
   2  -6  14-61.4709 42.1572   1
  -2  -5  10 296.592 34.0081   1
  -2  -5   9 277.485 32.9451   1
   2  -5  -5 433.893 62.1687   2
   2  -5  -5 502.511 69.5218   3
   2  -5  -4 741.547 75.9132   2
  -2  -5   4 633.347 76.9099   2
  -2  -5   3 2564.68 149.437   2
   2  -5  -3 2338.26 124.380   2
  -2  -5   2 13.7778 22.9883   2
   2  -5  -2 38.0856 19.9786   2
   2  -5  -1 189.724 33.4720   2
  -2  -5   1 255.629 50.4237   2
  -2  -5   0 2379.39 100.387   4
  -2  -5   0 2625.30 145.738   2
   2  -5   0 2591.64 108.584   2
  -2  -5  -1 1137.44 74.0051   4
  -2  -5  -1 1274.07 104.208   2
   2  -5   1 1111.01 65.2227   2
   2  -5   2 459.068 41.1622   2
  -2  -5  -2 443.583 65.3101   2
   2  -5   3 1749.99 69.6437   2
  -2  -5  -3 1705.02 121.095   2
  -2  -5  -4 1005.10 96.9976   1
   2  -5   4 963.483 76.4021   4
  -2  -5  -4 1015.42 99.6952   2
   2  -5   5 364.414 51.2621   4
  -2  -5  -5 465.232 60.5591   3
   2  -5   6 561.895 66.1210   4
  -2  -5  -6 394.435 59.1926   3
   2  -5   7 704.710 79.4379   4
   2  -5  12-56.4084 55.6558   1
   2  -5  13 108.426 50.7243   1
   2  -5  14 651.666 110.537   1
   2  -5  15 165.301 61.4252   1
  -2  -4   8 115.633 18.9694   1
   2  -4  -6 1209.40 101.765   2
   2  -4  -6 1264.77 104.776   3
   2  -4  -5 3245.73 158.176   2
   2  -4  -5 3300.45 162.420   3
   2  -4  -4 4937.04 185.079   2
   2  -4  -4 5516.60 198.353   3
  -2  -4   4 4610.66 193.350   2
   2  -4  -3 4085.07 150.980   2
  -2  -4   3 3537.48 163.269   2
   2  -4  -2 35.6467 20.3143   2
  -2  -4   2 2.72660 16.5403   2
  -2  -4   1 5118.69 190.597   2
   2  -4  -1 5284.94 152.501   2
  -2  -4   0 538.255 51.1174   4
  -2  -4   0 669.540 70.1925   2
   2  -4   0 565.854 47.1906   2
  -2  -4  -1 1301.91 95.9195   2
   2  -4   1 1188.49 57.9072   2
  -2  -4  -1 1151.62 76.5437   4
   2  -4   2 9212.46 143.527   2
  -2  -4  -2 9338.56 254.382   2
   2  -4   3 14.7365 14.6726   4
  -2  -4  -3 92.8665 37.5005   1
  -2  -4  -3 66.3024 29.6631   2
   2  -4   3 23.7207 7.54486   2
   2  -4   4 769.689 68.8932   4
  -2  -4  -4 686.248 65.4966   3
  -2  -4  -4 802.954 80.0023   2
  -2  -4  -4 734.396 78.4292   1
  -2  -4  -5 1243.54 91.5204   3
   2  -4   5 1187.13 91.6951   4
  -2  -4  -5 1345.32 110.830   1
  -2  -4  -5 1198.28 100.756   2
   2  -4   6 117.537 35.2422   4
  -2  -4  -6 84.6688 26.4133   3
  -2  -4  -6 130.369 36.9351   2
  -2  -4  -7 492.638 63.6301   3
   2  -4   7 533.674 70.0490   4
   2  -4  11 556.651 86.5008   1
   2  -4  12 151.415 58.2961   1
   2  -4  13 688.954 109.470   1
   2  -4  14 25.4230 46.8449   1
   2  -4  15 139.115 71.0157   1
  -2  -3  15 25.6503 54.5391   3
  -2  -3  14 404.239 92.2901   3
  -2  -3  13 695.829 109.258   3
   2  -3  -7 1850.72 127.786   2
   2  -3  -7 1821.48 125.503   3
   2  -3  -6 1302.69 102.924   3
   2  -3  -6 1351.32 107.993   2
   2  -3  -5 381.780 52.8983   3
   2  -3  -5 411.715 56.7151   2
   2  -3  -4 132.551 32.1586   3
   2  -3  -4 166.603 35.1090   2
   2  -3  -3 2967.64 126.831   2
   2  -3  -3 3165.96 130.741   3
  -2  -3   3 2542.67 135.416   2
  -2  -3   2 291.139 47.6418   2
   2  -3  -2 246.332 37.4201   2
   2  -3  -1 3489.12 115.686   2
  -2  -3   1 3465.15 147.726   2
   2  -3   0 2894.79 91.3260   2
  -2  -3   0 2750.32 116.757   4
  -2  -3   0 2659.08 130.428   2
  -2  -3   0 2700.20 109.474   1
  -2  -3  -1 2092.71 101.311   4
  -2  -3  -1 2284.40 120.462   2
  -2  -3  -1 2188.80 107.218   1
   2  -3   1 2018.10 63.5071   2
  -2  -3  -2 830.434 68.4741   4
  -2  -3  -2 959.832 76.8251   2
  -2  -3  -2 906.064 76.7893   1
  -2  -3  -3 1521.27 98.4755   2
   2  -3   3 1452.61 87.5870   4
  -2  -3  -3 1477.86 98.0277   1
  -2  -3  -3 1493.25 81.5697   3
  -2  -3  -4 3284.43 128.536   3
  -2  -3  -4 3343.44 157.953   1
  -2  -3  -4 3268.24 145.974   2
   2  -3   4 2997.02 136.205   4
   2  -3   5 211.787 43.0358   4
  -2  -3  -5 189.579 37.2112   3
  -2  -3  -5 232.879 42.3577   2
  -2  -3  -5 220.941 43.9655   1
  -2  -3  -6 1098.22 86.5790   3
  -2  -3  -6 1144.98 90.1495   2
   2  -3   6 1136.85 93.9421   4
  -2  -3  -6 1115.63 94.9074   1
   2  -3   7 1824.08 130.972   4
  -2  -3  -7 1770.47 116.604   3
  -2  -3  -7 1812.94 118.380   2
  -2  -3  -8 177.247 40.3720   2
   2  -3  10 150.982 45.0010   1
   2  -3  11 149.784 47.1913   1
   2  -3  12 375.252 76.8252   1
   2  -3  13 573.704 103.501   1
   2  -3  13 461.582 93.5964   3
   2  -3  14 308.853 78.8012   3
   2  -3  14 299.889 84.7182   1
   2  -3  15 55.5177 48.9118   1
   2  -3  15 118.612 53.0025   3
  -2  -2  15 151.528 61.0809   3
  -2  -2  14 474.206 94.1119   3
  -2  -2  13 209.877 63.1420   3
  -2  -2  12 1067.67 128.319   3
   2  -2 -12 1043.83 87.0126   1
  -2  -2  11 2278.15 183.058   3
   2  -2 -11 2239.49 135.761   1
   2  -2 -10 829.356 78.5492   1
   2  -2  -7 235.428 51.5705   2
   2  -2  -7 194.475 43.9820   3
   2  -2  -6 361.278 54.7534   2
   2  -2  -6 518.326 63.3872   3
   2  -2  -5 11329.3 263.864   3
   2  -2  -5 10470.9 262.452   2
   2  -2  -4 443.435 53.1460   2
   2  -2  -4 419.660 49.8055   3
   2  -2  -3 519.533 53.1528   2
   2  -2  -3 640.205 56.5639   3
   2  -2  -2 2140.37 95.2024   2
  -2  -2   2 1954.96 68.7915   1
   2  -2  -2 2209.35 92.3142   3
  -2  -2   2 2115.72 111.281   2
   2  -2  -1 101.033 22.4797   2
  -2  -2   1 116.452 27.5447   2
  -2  -2   1 109.211 23.2798   1
  -2  -2   0 1249.91 73.4536   1
  -2  -2   0 1092.01 77.5113   2
   2  -2   0 1024.45 50.7198   2
  -2  -2  -1 1913.11 96.9255   4
   2  -2   1 1952.71 54.4718   2
  -2  -2  -1 2259.71 106.939   1
  -2  -2  -1 2205.22 106.017   2
   2  -2   2 907.631 69.3751   4
  -2  -2  -2 914.774 70.1670   4
  -2  -2  -2 793.709 47.3412   3
  -2  -2  -2 803.881 64.9889   2
  -2  -2  -2 966.799 75.9700   1
   2  -2   3 2045.46 104.583   4
  -2  -2  -3 2102.25 116.614   1
  -2  -2  -3 2094.30 86.3638   3
  -2  -2  -3 2095.62 102.599   2
  -2  -2  -4 4733.07 141.305   3
  -2  -2  -4 5178.08 190.769   1
   2  -2   4 5050.80 176.753   4
  -2  -2  -4 4699.41 158.183   2
   2  -2   5 744.847 72.5408   4
  -2  -2  -5 841.148 81.0381   1
  -2  -2  -5 725.048 60.5706   3
  -2  -2  -5 830.464 70.2399   2
   2  -2   6 2021.52 128.834   4
  -2  -2  -6 1941.55 108.811   2
  -2  -2  -6 1963.13 130.064   1
   2  -2   7 54.4995 28.9868   4
  -2  -2  -7 84.1185 26.1406   2
  -2  -2  -8 364.387 52.7737   2
   2  -2   9 1376.93 131.434   1
  -2  -2  -9 1591.08 116.221   2
   2  -2  10 435.639 80.0538   1
   2  -2  11 886.836 111.541   3
   2  -2  11 847.184 111.231   1
   2  -2  12 393.691 78.2695   3
   2  -2  12 465.846 93.5115   1
   2  -2  13 88.7920 41.7123   3
   2  -2  13 128.059 55.6613   1
   2  -2  14 6.94707 47.7790   3
   2  -2  14 85.5252 50.5580   1
   2  -2  15 218.881 66.8633   3
  -2  -1  15 86.2528 52.1591   3
  -2  -1  14 893.313 130.937   3
  -2  -1  13 803.619 117.528   3
  -2  -1  12 41.4587 30.2885   3
  -2  -1  11 10.3810 33.7397   3
   2  -1 -11 14.7768 17.8475   1
   2  -1 -10 702.223 68.6028   1
  -2  -1  10 857.476 106.158   3
  -2  -1   9 709.322 93.8860   3
   2  -1  -9 821.713 70.9337   1
   2  -1  -8 102.811 39.8197   2
  -2  -1   8 26.0990 28.5612   3
   2  -1  -8 116.952 29.2690   1
   2  -1  -4 3257.33 124.224   3
   2  -1  -3 4515.44 131.504   3
   2  -1  -2 444.150 39.6356   3
   2  -1  -1 645.044 39.3490   3
  -2  -1   1 609.300 54.5215   2
  -2  -1   0 3173.19 115.106   2
  -2  -1  -1 2224.13 50.4146   3
   2  -1   1 2465.81 66.2131   2
  -2  -1  -1 2662.39 102.997   2
  -2  -1  -2 2244.63 64.5377   3
   2  -1   2 2299.64 106.159   4
   2  -1   2 2057.35 50.6374   2
  -2  -1  -2 2412.43 97.9165   2
   2  -1   3 1402.30 42.5867   2
   2  -1   3 1627.87 92.6708   4
  -2  -1  -3 1675.22 81.6491   2
   2  -1   4 1774.61 55.8887   2
  -2  -1  -4 1765.49 85.8038   2
   2  -1   4 1947.10 109.952   4
   2  -1   5 923.115 81.4178   4
  -2  -1  -5 900.803 64.7052   2
   2  -1   6 457.269 61.6437   4
  -2  -1  -6 481.191 49.6518   2
   2  -1   7 3832.86 191.797   4
   2  -1   7 3604.64 192.719   1
  -2  -1  -7 3777.36 146.590   2
   2  -1   8 1020.36 108.431   1
  -2  -1  -8 1073.91 87.6416   2
  -2  -1  -9 397.164 56.5567   2
   2  -1   9 390.414 68.3503   3
   2  -1   9 390.091 73.5772   1
  -2  -1 -10 262.442 48.2249   2
   2  -1  10 256.549 64.4065   1
   2  -1  10 268.178 58.9703   3
   2  -1  11 1114.51 121.152   3
   2  -1  11 1032.33 126.300   1
   2  -1  12 56.3691 35.1711   3
   2  -1  12 192.054 61.1214   1
   2  -1  13 628.773 102.141   1
   2  -1  13 445.638 85.3421   3
   2  -1  14 812.351 119.840   3
   2  -1  15-32.8672 41.2173   3
  -2   0  15 370.392 90.8769   3
  -2   0  14 250.240 71.9374   3
  -2   0  13 61.5667 44.2317   3
  -2   0  12 3021.17 211.911   3
  -2   0  11 297.246 74.4922   3
  -2   0  10 513.139 81.0515   3
  -2   0   9 1777.99 139.382   3
   2   0  -8-15.4329 16.1158   1
  -2   0   8 8.97118 29.4713   3
  -2   0   7 520.068 67.2659   3
   2   0  -7 603.550 43.7055   1
  -2   0   6 3788.81 161.694   3
  -2   0   5 1991.00 111.025   3
  -2   0   4 4433.93 141.100   3
  -2   0   3 789.646 52.9374   3
  -2   0   2 1228.47 55.3517   3
  -2   0   1 7218.14 97.6397   3
   2   0  -1 7184.35 168.382   2
   2   0   0 1722.21 74.5352   2
  -2   0  -1 671.217 43.8852   2
   2   0   1 718.853 48.4300   2
   2   0   2 2104.57 59.1074   3
  -2   0  -2 2256.95 77.9966   2
   2   0   2 2089.11 71.6828   2
   2   0   2 2081.44 99.0519   4
   2   0   3 38.9719 22.7319   4
   2   0   3 24.3759 13.5093   3
  -2   0  -3 49.1671 16.0085   2
   2   0   3 33.2887 14.1322   2
   2   0   4 16.5607 18.5081   4
   2   0   4 40.5166 15.4553   2
   2   0   4 37.6737 18.4909   3
  -2   0  -4 45.8259 14.5719   2
   2   0   5 7075.42 188.734   3
   2   0   5 7270.67 228.410   4
  -2   0  -5 6820.66 154.053   2
   2   0   5 6946.84 161.918   2
   2   0   6 2075.50 132.832   4
   2   0   6 2001.16 96.5595   2
   2   0   6 2057.41 112.013   3
  -2   0  -6 2038.56 93.0093   2
  -2   0  -7 30.3955 18.8397   2
   2   0   7-29.5444 41.2318   1
   2   0   7 18.0112 23.4708   3
   2   0   7 27.1337 22.3078   4
   2   0   8 868.406 88.8644   3
   2   0   8 977.465 111.530   1
  -2   0  -8 908.939 72.9884   2
   2   0   9 1469.33 121.410   3
   2   0   9 1629.64 143.606   1
  -2   0  -9 1526.23 101.056   2
   2   0  10 24.0672 33.5940   3
   2   0  10 103.832 54.7150   1
  -2   0 -10 7.93909 13.7657   2
   2   0  11 507.037 81.9562   3
   2   0  11 655.909 99.9850   1
  -2   0 -11 559.773 66.5787   2
   2   0  12 887.800 110.712   3
   2   0  13 433.975 82.2322   3
   2   0  14 20.7922 35.7461   3
   2   0  15 167.727 58.7840   3
  -2   1  15-19.3825 42.3459   3
  -2   1  14 1106.93 138.313   3
  -2   1  13 711.475 109.013   3
  -2   1  12 51.7069 36.2038   3
  -2   1  11-17.4920 34.7991   3
  -2   1  10 1007.13 116.445   3
  -2   1   9 740.412 90.6752   3
  -2   1   8 110.898 43.2630   3
  -2   1   7 4156.41 187.080   3
  -2   1   6 3077.54 150.091   3
  -2   1   5 185.061 40.7322   3
  -2   1   4 3540.28 134.308   3
  -2   1   3 4811.39 138.661   3
   2   1  -2 431.046 31.0337   1
   2   1  -1 598.355 43.1877   1
   2   1   0 3057.92 106.276   1
   2   1   0 3200.21 117.980   2
   2   1   1 2677.61 112.784   1
   2   1   1 2759.14 104.810   2
   2   1   2 2259.80 91.7639   2
   2   1   2 2274.56 101.991   4
   2   1   3 1569.83 91.7485   4
   2   1   3 1613.60 69.5110   3
  -2   1  -3 1456.10 44.0513   2
   2   1   3 1494.44 76.5550   2
   2   1   4 2197.45 94.5090   3
  -2   1  -4 1924.80 57.7154   2
   2   1   4 2112.69 114.439   4
   2   1   4 1999.48 94.3503   2
   2   1   5 894.778 67.4000   2
   2   1   5 909.998 69.0166   3
   2   1   5 929.543 83.4787   4
  -2   1  -5 900.455 45.9113   2
   2   1   6 509.588 54.9510   2
   2   1   6 630.727 74.8794   4
   2   1   6 466.807 55.0200   3
  -2   1  -6 523.075 41.5224   2
   2   1   7 3939.93 169.202   3
   2   1   7 3824.66 157.217   2
   2   1   7 4212.40 202.009   4
   2   1   7 3958.37 199.783   1
  -2   1  -7 3852.05 120.360   2
   2   1   8 1017.79 88.2622   2
   2   1   8 1085.08 97.8929   3
  -2   1  -8 996.620 69.2275   2
   2   1   8 1144.80 118.744   1
   2   1   9 408.524 65.2006   3
  -2   1  -9 416.013 49.9752   2
   2   1  10 228.577 53.3919   3
  -2   1 -10 296.733 44.0764   2
   2   1  11 1046.98 116.186   3
  -2   1 -11 996.387 83.5975   2
   2   1  12 65.6855 41.0551   3
   2   1  13 408.944 81.5508   3
   2   1  14 687.013 113.217   3
   2   1  15-42.4580 41.5574   3
  -2   2  15 203.704 73.0782   3
  -2   2  14 472.585 91.5549   3
  -2   2  13 311.347 73.4389   3
  -2   2  12 1109.16 130.535   3
  -2   2  11 2122.52 167.894   3
  -2   2  10 851.521 105.151   3
  -2   2   9 307.277 63.5709   3
  -2   2   8 3200.76 178.563   3
  -2   2   7 211.755 49.6792   3
  -2   2   6 463.398 63.0372   3
  -2   2  -1 2123.67 102.333   4
   2   2   1 2078.76 105.767   2
   2   2   2 928.799 66.2728   4
  -2   2  -2 913.493 73.1051   4
   2   2   2 917.064 68.7845   2
   2   2   3 1810.12 99.7024   4
   2   2   3 1916.78 99.1073   2
   2   2   4 4773.63 170.595   4
   2   2   4 4814.69 160.440   2
   2   2   5 753.011 69.4964   2
   2   2   5 725.072 72.5021   4
   2   2   6 2040.04 129.537   4
   2   2   6 1962.38 114.316   3
   2   2   6 1760.85 109.680   2
  -2   2  -6 1772.59 61.7558   2
  -2   2  -7 91.2076 17.8948   2
   2   2   7 84.8289 31.5858   4
   2   2   7 86.4404 29.2452   3
   2   2   7 115.108 34.5166   2
   2   2   8 293.209 53.9726   3
   2   2   8 346.100 56.4516   2
  -2   2  -8 264.825 32.8072   2
  -2   2  -9 1519.20 87.9175   2
   2   2   9 1549.67 117.806   2
   2   2   9 1720.32 131.623   3
  -2   2 -10 477.690 54.7344   2
   2   2  10 473.066 70.4834   2
   2   2  10 524.130 77.7582   3
  -2   2 -11 906.559 75.9152   2
   2   2  11 853.398 102.470   3
   2   2  12 520.217 84.7031   3
   2   2  13 77.0744 45.6031   3
   2   2  14-32.6328 33.6706   3
   2   2  15 107.145 50.9009   3
   2   3 -16 86.4681 37.2865   2
   2   3 -15 8.09305 45.0108   2
   2   3 -14 459.827 87.9097   2
  -2   3  13 733.859 106.844   3
   2   3 -13 634.990 99.6987   2
   2   3 -12 185.871 59.2335   2
  -2   3  12 101.043 44.7932   3
   2   3 -11 366.990 72.8599   2
  -2   3  11 387.482 74.7945   3
   2   3 -10 789.265 103.215   2
   2   3  -9 186.065 50.7020   2
   2   3  -8 1691.48 137.875   2
   2   3  -7 1656.56 129.184   2
   2   3  -6 1170.69 109.783   2
  -2   3   0 2880.77 118.722   4
  -2   3  -1 2110.29 103.358   4
  -2   3  -2 841.362 68.9814   4
   2   3   2 816.428 74.0516   2
   2   3   3 1335.07 84.1438   4
   2   3   3 1382.50 94.5043   2
   2   3   4 2959.46 134.633   4
   2   3   4 3085.06 143.923   2
   2   3   5 265.581 45.0291   2
   2   3   5 199.072 38.9828   4
   2   3   6 1136.21 94.1768   2
   2   3   6 1078.96 92.7779   4
  -2   3  -6 920.835 35.3020   2
  -2   3  -6 805.697 34.4525   2
  -2   3  -7 1544.94 59.0896   2
   2   3   7 1646.77 124.726   4
   2   3   7 1421.86 113.177   2
  -2   3  -7 1518.09 58.6773   2
  -2   3  -8 180.550 23.9733   2
  -2   3  -8 186.442 24.4729   2
   2   3   8 200.460 46.9569   2
  -2   3  -9 429.010 41.9595   2
   2   3   9 536.220 76.6645   2
  -2   3  -9 522.807 45.7754   2
   2   3  10 232.895 53.4554   2
  -2   3 -10 190.025 32.1048   2
  -2   3 -10 173.383 29.9428   2
  -2   3 -11 308.039 42.8539   2
   2   3  11 288.532 60.0799   2
   2   4 -15 366.117 79.7924   2
   2   4 -14 123.677 48.6740   2
   2   4 -13-22.5181 26.4938   2
   2   4 -12 697.216 103.496   2
   2   4 -11 132.891 50.8189   2
   2   4 -10 351.236 71.9254   2
   2   4  -9 564.929 87.1018   2
   2   4  -8 99.7807 38.8374   2
   2   4  -7 747.377 92.9348   2
   2   4  -6 1192.48 113.240   2
   2   4  -5 2931.88 167.683   2
  -2   4   2 4.33257 17.7547   2
  -2   4   1 5571.56 166.203   2
  -2   4   0 588.000 52.7520   4
  -2   4   0 640.494 53.0731   2
  -2   4  -1 1300.27 63.9595   2
  -2   4  -1 1178.61 77.1813   4
  -2   4  -2 9337.75 144.990   2
   2   4   3 27.2864 13.8319   4
   2   4   3 63.8906 30.0389   2
  -2   4  -3 19.8700 7.84650   2
   2   4   4 763.354 66.0543   4
   2   4   4 860.730 83.5445   2
   2   4   5 1163.68 101.807   2
   2   4   5 1230.51 93.1619   4
   2   4   6 104.253 27.0631   4
   2   4   6 130.332 39.8246   2
  -2   4  -6 72.6453 9.72578   2
  -2   4  -6 75.3441 10.1581   2
  -2   4  -7 433.470 28.8393   2
   2   4   7 541.504 71.2225   4
   2   4   7 481.188 72.4573   2
  -2   4  -7 437.746 29.4487   2
  -2   4  -8 511.542 37.2957   2
   2   4   8 544.132 77.5989   2
  -2   4  -8 571.604 41.3768   2
   2   4   9 722.663 91.7066   2
  -2   4  -9 664.424 47.9161   2
  -2   4  -9 657.075 49.7474   2
  -2   4 -10 216.523 32.3438   2
   2   4  10 199.457 53.7492   2
   2   4  11 915.654 110.617   2
   2   4  12 191.432 62.7547   2
   2   5 -15 16.5249 26.3969   2
   2   5 -14 76.5436 39.7373   2
   2   5 -13 533.239 94.0818   2
   2   5 -12 21.6625 37.7988   2
   2   5 -11 405.543 78.7093   2
   2   5 -10 291.801 64.0724   2
   2   5  -9 235.154 59.0749   2
   2   5  -8 240.739 57.7845   2
   2   5  -7 976.872 108.535   2
   2   5  -6 1835.98 145.245   2
   2   5  -5 444.679 72.7315   2
  -2   5   4 712.026 79.1468   2
   2   5  -4 658.665 85.3090   2
  -2   5   3 2271.11 135.126   2
   2   5  -3 2066.46 144.483   2
  -2   5   2 29.4440 22.7591   2
  -2   5   1 220.607 33.3976   4
  -2   5   1 216.685 39.8080   2
  -2   5   0 2431.45 102.911   4
  -2   5   0 2712.62 120.088   2
  -2   5  -1 1233.71 77.7854   4
  -2   5  -1 1193.45 73.1627   2
  -2   5  -2 596.695 45.4943   2
  -2   5  -3 1704.19 69.5370   2
   2   5   3 1561.22 121.361   2
  -2   5  -4 967.074 47.2069   2
   2   5   4 887.498 74.3006   4
   2   5   4 1040.91 101.441   2
   2   5   5 390.898 65.2949   2
   2   5   5 384.763 51.2476   4
  -2   5  -5 310.707 25.9177   2
   2   5   6 389.411 55.6949   4
   2   5   6 434.732 70.3241   2
  -2   5  -6 361.736 27.1265   2
   2   5   7 596.876 71.2619   4
  -2   5  -7 608.880 35.9059   2
   2   5   7 661.511 84.8518   2
  -2   5  -7 584.302 35.5725   2
  -2   5  -8 1350.68 59.8092   2
   2   5   8 1566.15 135.546   2
  -2   5  -8 1306.64 59.1212   2
   2   5   9 409.704 73.7959   2
  -2   5  -9 399.662 36.5917   2
   2   5  10 658.098 95.0021   2
   2   5  11 768.536 107.700   2
   2   5  12 29.6457 35.2013   2
   2   5  13 156.879 54.4712   2
   2   6 -14 52.6878 33.9825   2
   2   6 -13 324.724 79.9803   2
   2   6 -12 177.856 57.0058   2
   2   6 -11 756.414 108.789   2
   2   6 -10 268.163 65.8497   2
   2   6  -9 19.5685 29.1558   2
   2   6  -8 954.896 113.234   2
   2   6  -7 1803.72 155.505   2
   2   6  -6 576.385 91.1786   2
  -2   6   5 2404.66 159.769   2
   2   6  -5 2244.50 163.845   2
  -2   6   4 344.347 62.4759   2
   2   6  -4 279.285 62.2991   2
   2   6  -3 60.3118 33.9170   2
  -2   6   3 67.7217 32.2764   2
  -2   6   2 2539.48 143.825   2
   2   6  -2 2232.58 155.127   2
  -2   6   1 796.027 55.8731   4
  -2   6   1 870.994 80.5574   2
   2   6  -1 787.103 90.8427   2
  -2   6   0 456.275 43.4831   4
  -2   6   0 583.038 63.0833   2
   2   6   0 459.517 70.1412   2
  -2   6  -1 1290.36 86.8258   2
   2   6   1 1238.52 113.327   2
  -2   6  -2 1197.67 77.7619   2
   2   6   2 1156.66 112.543   2
   2   6   3 476.895 75.7299   2
  -2   6  -3 532.951 48.1227   2
  -2   6  -4 1008.01 61.2756   2
   2   6   4 979.901 103.980   2
   2   6   5 431.502 54.3748   4
   2   6   5 431.737 72.0563   2
  -2   6  -5 436.969 38.1789   2
   2   6   6 887.858 104.047   2
   2   6   6 895.665 78.8868   4
  -2   6  -6 922.467 52.3796   2
   2   6   7 208.194 41.8012   4
   2   6   7 325.620 66.1238   2
  -2   6  -7 234.271 26.9032   2
   2   6   8 310.845 67.3599   2
  -2   6  -8 198.835 25.2535   2
   2   6   9 548.286 88.5444   2
   2   6  10-4.20962 36.4424   2
   2   6  11-44.7434 42.0867   2
   2   6  12 357.994 80.9376   2
   2   6  13 134.268 42.6049   2
   2   7 -14 344.548 82.1749   2
   2   7 -13 405.361 84.8409   2
   2   7 -12-10.8259 28.0670   2
   2   7 -11 646.923 107.097   2
   2   7 -10 622.386 99.8425   2
   2   7  -9 88.8741 46.6059   2
   2   7  -8 99.6147 48.2805   2
   2   7  -7 749.503 102.827   2
   2   7  -6 310.050 67.0337   2
  -2   7   6 484.222 80.9909   2
  -2   7   5 37.2376 30.4409   2
   2   7  -5 33.5669 28.7822   2
  -2   7   4 850.292 98.3801   2
   2   7  -4 712.320 99.3097   2
   2   7  -3 487.838 82.0903   2
  -2   7   3 485.094 72.2742   2
  -2   7   2 248.327 30.9236   4
   2   7  -2 266.304 63.5906   2
  -2   7   2 249.635 50.3530   2
  -2   7   1 29.2437 13.6873   4
  -2   7   1 11.7643 20.3677   2
   2   7  -1 49.6723 33.4716   2
  -2   7   0 681.695 74.4008   2
   2   7   0 695.826 93.5677   2
  -2   7  -1 666.506 71.3755   2
   2   7   1 734.713 97.1808   2
  -2   7  -2 362.398 50.5891   2
   2   7   2 327.185 66.0291   2
  -2   7  -3 355.857 46.8451   2
   2   7   3 258.468 59.0652   2
  -2   7  -4 655.138 58.7659   2
   2   7   4 530.110 84.7075   2
  -2   7  -5 599.452 52.3061   2
   2   7   5 766.395 99.5624   2
   2   7   6 459.068 56.7835   4
   2   7   6 651.824 96.0505   2
  -2   7  -6 559.317 48.6264   2
   2   7   7 926.168 111.662   2
  -2   7  -7 767.733 55.1599   2
   2   7   8-12.5816 32.4841   2
   2   7   9 87.9971 41.7035   2
   2   7  10 946.987 122.746   2
   2   7  11-42.3268 35.8508   2
   2   7  12 87.8709 44.6720   2
   2   8 -13 98.6690 45.9778   2
   2   8 -12 832.575 116.688   2
   2   8 -11 89.3873 45.2412   2
   2   8 -10 741.799 112.869   2
   2   8  -9 1377.21 147.422   2
   2   8  -8 434.601 85.7373   2
  -2   8   7 42.5442 31.2719   2
   2   8  -7-19.2881 34.1227   2
  -2   8   6 608.462 94.5718   2
   2   8  -6 516.687 83.9667   2
  -2   8   5 312.110 65.6440   2
   2   8  -5 345.685 71.3209   2
   2   8  -4 277.548 61.7859   2
  -2   8   4 269.103 57.9927   2
  -2   8   3 495.574 40.3074   4
  -2   8   3 736.302 92.3529   2
   2   8  -3 629.327 93.2213   2
  -2   8   2 453.544 36.0658   4
  -2   8   2 568.637 79.7443   2
   2   8  -2 505.952 82.9889   2
  -2   8   1 345.967 60.7365   2
   2   8  -1 344.889 68.2481   2
  -2   8   0 123.891 39.3431   2
   2   8   0 107.797 46.8722   2
  -2   8  -1 558.126 70.5601   2
   2   8   1 655.435 100.426   2
  -2   8  -2 990.098 89.9233   2
   2   8   2 1018.81 118.544   2
  -2   8  -3 237.977 41.7448   2
   2   8   3 321.436 68.9882   2
   2   8   4 336.414 70.7916   2
  -2   8  -4 297.067 45.4908   2
  -2   8  -5 576.747 58.6096   2
   2   8   5 550.969 90.3258   2
   2   8   6 277.291 64.7357   2
   2   8   7 56.8655 41.2057   2
   2   8   8 595.743 99.6474   2
   2   8   9 442.100 93.2866   2
   2   8  10 68.8303 48.3498   2
   2   9 -11 198.229 63.4284   2
   2   9 -10 269.412 70.8470   2
   2   9  -9 15.6960 27.6633   2
   2   9  -8 36.3396 39.9845   2
   2   9  -7 295.196 75.7403   2
  -2   9   7 396.293 83.5389   2
  -2   9   6 259.618 62.5087   2
   2   9  -6 159.943 52.9146   2
  -2   9   5 67.0123 40.5432   2
   2   9  -5 131.259 51.9626   2
   2   9  -4 199.223 55.2697   2
  -2   9   4 275.668 62.8528   2
  -2   9   3 945.428 110.324   2
   2   9  -3 755.218 103.772   2
  -2   9   2 137.188 48.0472   2
   2   9  -2 180.925 59.4121   2
  -2   9   1 384.889 68.5491   2
   2   9  -1 394.622 78.2031   2
  -2   9   0 1486.68 125.414   2
   2   9   0 1744.52 161.212   2
   2   9   1 144.563 47.4641   2
  -2   9  -1 169.182 45.2032   2
   2   9   2 3.03259 23.8587   2
  -2   9  -2 43.7763 27.4044   2
   2   9   3 682.293 101.492   2
  -2   9  -3 743.211 79.8974   2
  -2   9  -4 721.635 75.4085   2
   2   9   4 699.928 109.511   2
   2   9   5 197.645 59.4986   2
   2   9   6 622.579 101.325   2
   2   9   7 113.363 50.1048   2
   2   9   8 103.817 40.3285   2
   2  10 -10 43.1453 43.0110   2
   2  10  -9 117.098 47.7212   2
  -2  10   8 601.687 105.008   2
   2  10  -8 679.933 107.303   2
  -2  10   7 103.123 45.9364   2
   2  10  -7 202.386 67.3226   2
  -2  10   6 183.640 59.5990   2
   2  10  -6 120.423 47.1271   2
  -2  10   5 467.850 90.2091   2
   2  10  -5 467.354 87.2774   2
   2  10  -4 36.1164 38.3484   2
  -2  10   4 137.059 51.9084   2
  -2  10   3 280.969 66.1600   2
   2  10  -3 286.645 70.5248   2
  -2  10   2 817.786 107.053   2
   2  10  -2 680.857 106.742   2
   2  10  -1 94.9347 50.1970   2
  -2  10   1 167.295 49.7853   2
   2  10   0 45.7999 36.4475   2
  -2  10   0-2.48953 19.0347   2
  -2  10  -1 664.340 87.7994   2
   2  10   1 626.057 105.454   2
  -2  10  -2 549.230 76.4760   2
   2  10   2 490.986 93.2359   2
   2  10   3 493.219 94.4241   2
   2  10   4 143.072 64.0592   2
   2  10   5-11.5295 29.4532   2
   2  10   6 601.031 110.326   2
   2  11  -7 88.2660 38.8470   2
  -2  11   6 120.465 47.7061   2
   2  11  -6 43.9579 42.3737   2
  -2  11   5 118.601 53.1315   2
   2  11  -5 53.7958 33.6936   2
  -2  11   4 121.597 46.9125   2
   2  11  -4 281.349 74.8031   2
   2  11  -3 223.384 64.0258   2
  -2  11   3 245.215 62.9694   2
   2  11  -2 106.550 43.5575   2
  -2  11   2 82.9545 40.1790   2
   2  11  -1 331.817 82.2409   2
  -2  11   1 504.254 87.0679   2
   2  11   0 67.8924 40.7890   2
  -2  11   0 134.728 47.4056   2
   2  11   1 135.171 59.7516   2
   2  11   2 167.716 65.1966   2
   2  11   3 122.989 49.7652   2
  -2  12   4 144.221 55.6377   2
  -2  12   3 3.18179 23.8062   2
  -2  12   2 375.598 75.6696   2
  -3  -8   3 459.771 53.4107   4
  -3  -8   2 403.988 48.4438   4
  -3  -8   1 282.065 42.1776   4
   3  -8  -1 252.864 44.7834   2
   3  -8   0 92.2484 28.9513   2
   3  -7  -2 431.142 57.7114   2
  -3  -7   2 392.393 51.4757   4
  -3  -7   1 851.300 73.9461   4
   3  -7  -1 1044.03 83.8440   2
  -3  -7   0 280.508 43.7532   4
   3  -7   0 258.349 41.7707   2
   3  -7   1 1000.14 72.9665   2
   3  -7   2 211.859 32.3799   2
   3  -7   3 413.018 36.5693   2
   3  -6  -3 331.195 51.7844   2
   3  -6  -2 50.0236 22.1621   2
  -3  -6   1 1622.71 101.443   4
   3  -6  -1 1892.05 108.887   2
  -3  -6   0 130.159 33.2596   4
  -3  -6   0 232.393 49.7682   1
   3  -6   0 168.099 30.9004   2
  -3  -6  -1 590.295 64.6729   4
   3  -6   1 646.392 53.5567   2
  -3  -6  -1 712.007 78.7642   1
   3  -6   2 1118.11 63.4198   2
   3  -6   3 985.105 43.2036   2
  -3  -6  -4 79.7260 24.6534   3
  -3  -5   6 1410.97 53.8931   1
  -3  -5   5 854.732 55.3476   1
   3  -5  -4 867.312 83.3987   2
   3  -5  -4 933.495 89.8510   3
  -3  -5   4 884.808 63.4870   1
   3  -5  -3 1141.06 90.2736   2
  -3  -5   3 1054.95 75.3551   1
   3  -5  -2 542.454 60.2515   2
  -3  -5   2 567.286 60.6833   1
  -3  -5   1 136.497 35.5367   1
  -3  -5   1 70.2957 26.9583   4
   3  -5  -1 88.8280 26.5408   2
  -3  -5   0 763.652 72.2371   4
  -3  -5   0 875.828 81.7610   1
   3  -5   0 992.484 66.9688   2
  -3  -5  -1 2054.94 120.215   4
  -3  -5  -1 1903.71 125.343   1
   3  -5   1 1960.50 81.2581   2
  -3  -5  -2 107.596 34.7030   4
  -3  -5  -2 86.5274 30.7542   1
   3  -5   2 101.201 16.7615   2
  -3  -5  -4 976.599 84.9256   3
   3  -5   5 256.122 49.1269   4
  -3  -5  -5 304.177 49.1962   3
  -3  -5  -6 678.157 73.3308   3
   3  -5  12 280.100 80.7581   1
   3  -5  13 79.5211 49.4381   1
  -3  -4  14 483.316 103.360   3
   3  -4  -6 268.852 50.7262   3
   3  -4  -5 1530.11 112.878   2
   3  -4  -5 1626.82 116.572   3
   3  -4  -4 620.702 69.5417   2
  -3  -4   4 478.995 38.7214   1
   3  -4  -4 709.894 74.5832   3
  -3  -4   3 125.730 38.1410   2
   3  -4  -3 143.873 34.2643   3
  -3  -4   3 151.864 27.0327   1
   3  -4  -3 164.927 37.1200   2
   3  -4  -2 694.360 64.2527   2
  -3  -4   2 737.461 63.3366   1
  -3  -4   2 672.996 78.8246   2
   3  -4  -1 857.079 63.1532   2
  -3  -4   1 940.826 76.7341   1
  -3  -4   1 867.813 88.4853   2
   3  -4   0 2201.98 91.2477   2
  -3  -4   0 2386.44 125.849   1
  -3  -4   0 2168.46 122.702   4
  -3  -4   0 2384.97 143.446   2
   3  -4   1 14.7682 11.4543   2
  -3  -4  -1 6.99753 18.2860   4
  -3  -4  -1 32.4532 25.6356   2
  -3  -4  -1 7.80034 23.3789   1
  -3  -4  -2 1954.14 124.570   1
  -3  -4  -2 1926.35 127.808   2
  -3  -4  -2 1858.55 119.211   4
   3  -4   2 1557.98 45.5370   2
  -3  -4  -3 2330.62 111.831   3
  -3  -4  -3 2322.54 138.574   1
  -3  -4  -3 2458.38 148.025   2
   3  -4   4 83.8702 30.0320   4
  -3  -4  -4 63.8648 24.7192   3
  -3  -4  -4 77.8958 30.8300   2
   3  -4   5 529.831 68.3884   4
  -3  -4  -5 585.246 63.8038   3
  -3  -4  -6 1471.96 102.726   3
  -3  -4  -7 592.066 68.0137   3
   3  -4  11 36.2911 40.9030   1
   3  -4  12 53.9268 40.7051   1
   3  -4  13 49.4902 46.6252   1
   3  -4  14 226.481 69.3489   3
  -3  -3  14 60.6104 47.2540   3
  -3  -3  13 736.075 114.089   3
  -3  -3  12 700.128 105.515   3
   3  -3  -7 276.205 51.0142   3
   3  -3  -6 796.159 84.8533   2
   3  -3  -6 855.731 84.7723   3
   3  -3  -5 600.688 71.2589   2
   3  -3  -5 631.840 69.2113   3
   3  -3  -4 159.746 34.5612   3
   3  -3  -4 228.835 41.1424   2
   3  -3  -3 2606.37 121.366   3
   3  -3  -3 2447.23 122.612   2
   3  -3  -2 645.609 59.1629   2
  -3  -3   2 612.051 73.4217   2
   3  -3  -1 407.352 44.0195   2
  -3  -3   1 479.470 64.4580   2
  -3  -3   0 2283.94 130.670   4
   3  -3   0 2234.17 88.1435   2
  -3  -3   0 2421.75 123.362   1
  -3  -3   0 2288.65 131.041   2
   3  -3   1 1817.97 66.4303   2
  -3  -3  -1 1669.80 109.985   4
  -3  -3  -1 2121.14 122.926   1
  -3  -3  -1 2020.42 122.419   2
  -3  -3  -2 2248.23 131.410   4
  -3  -3  -2 2392.50 138.131   1
  -3  -3  -2 2263.20 89.7495   3
  -3  -3  -2 2502.05 136.758   2
  -3  -3  -3 1602.48 115.960   4
  -3  -3  -3 1544.63 113.080   1
  -3  -3  -3 1469.85 77.5889   3
  -3  -3  -3 1695.38 114.683   2
   3  -3   4 2212.69 136.039   4
  -3  -3  -4 2170.71 141.652   1
  -3  -3  -4 2058.53 97.6986   3
  -3  -3  -4 2141.89 127.802   2
   3  -3   5 1078.16 96.0876   4
  -3  -3  -5 1104.93 78.8269   3
  -3  -3  -5 1139.52 98.0138   2
  -3  -3  -6 338.304 47.4789   3
  -3  -3  -6 377.548 58.4604   2
  -3  -3  -7 1213.46 102.931   2
   3  -3  10 52.6783 34.7160   1
   3  -3  11 534.651 97.7574   1
   3  -3  12 130.297 52.2878   3
   3  -3  12 149.405 67.2611   1
   3  -3  13 62.8570 45.9817   1
   3  -3  13 23.4098 32.4462   3
   3  -3  14 248.202 68.8415   3
   3  -3  14 249.980 78.4411   1
  -3  -2  15 879.969 132.628   3
  -3  -2  14 30.9036 35.4044   3
  -3  -2  13 526.375 96.0749   3
  -3  -2  12 544.066 91.8720   3
  -3  -2  11 808.134 106.107   3
  -3  -2  10 1724.23 145.839   3
  -3  -2   9 679.343 90.1164   3
   3  -2  -6 281.157 53.3259   2
   3  -2  -6 235.234 41.7466   3
   3  -2  -5 734.161 70.5069   3
   3  -2  -4 4112.77 149.087   3
   3  -2  -3 306.095 40.3547   3
   3  -2  -2 1443.82 77.4011   3
  -3  -2   1 4726.06 178.179   2
  -3  -2   0 1263.21 90.7277   2
  -3  -2   0 1280.06 98.7889   4
  -3  -2  -1 484.504 60.7514   4
  -3  -2  -1 492.702 30.6362   3
   3  -2   1 516.621 37.7762   2
  -3  -2  -1 548.338 60.4066   2
  -3  -2  -2 1330.40 103.262   4
  -3  -2  -2 1322.76 55.0683   3
  -3  -2  -2 1501.87 95.9678   2
   3  -2   2 1303.72 47.5957   2
  -3  -2  -3 393.247 60.6819   4
  -3  -2  -3 410.013 35.3462   3
  -3  -2  -3 428.812 54.9105   2
   3  -2   4 588.868 68.1409   4
  -3  -2  -4 549.612 62.9281   2
   3  -2   5 1746.23 122.284   4
  -3  -2  -5 1768.64 108.512   2
  -3  -2  -6 1599.46 104.330   2
  -3  -2  -7 253.324 45.0357   2
   3  -2   8-54.5840 51.4825   1
  -3  -2  -8 31.8724 13.7443   2
   3  -2   9 419.341 80.9219   1
  -3  -2  -9 481.625 63.2670   2
   3  -2  10 861.260 98.7535   3
   3  -2  10 775.747 111.587   1
   3  -2  11 317.586 69.1229   3
   3  -2  11 402.191 87.4178   1
   3  -2  12 565.288 104.684   1
   3  -2  12 569.596 92.7455   3
   3  -2  13 426.690 85.9759   3
   3  -2  13 317.386 86.1256   1
   3  -2  14 128.682 76.5436   1
   3  -2  14 40.7434 40.0517   3
   3  -2  15 107.963 48.3959   3
  -3  -1  15 18.9716 34.0655   3
  -3  -1  14 84.0413 47.9473   3
  -3  -1  13 2200.28 185.252   3
  -3  -1  12 75.8979 42.5945   3
  -3  -1  11 17.5358 37.3550   3
  -3  -1  10 259.225 59.2340   3
   3  -1 -10 309.129 42.6397   1
  -3  -1   9 426.456 70.9121   3
  -3  -1   8 620.976 83.1812   3
  -3  -1   7 1057.41 96.9342   3
  -3  -1   6 2544.58 137.551   3
  -3  -1   5 806.526 72.2546   3
  -3  -1   4 258.473 37.3682   3
  -3  -1   3 3644.48 115.716   3
  -3  -1   2 2351.57 76.6774   3
   3  -1  -2 2272.15 79.4661   3
   3  -1  -1 471.762 32.1553   3
  -3  -1   1 378.812 22.7432   3
   3  -1  -1 523.875 52.2741   2
  -3  -1   0 134.279 31.8619   2
   3  -1   0 89.3701 22.7570   2
   3  -1   0 89.6384 13.6974   3
  -3  -1  -1 3482.22 135.339   2
   3  -1   1 3466.85 106.876   2
  -3  -1  -2 706.129 59.3784   2
   3  -1   2 780.722 47.3967   2
  -3  -1  -3 991.905 72.0286   2
   3  -1   3 1006.72 88.5370   4
   3  -1   3 992.987 47.3326   2
   3  -1   4 1463.89 55.6096   2
   3  -1   4 1568.39 108.704   4
  -3  -1  -4 1486.51 89.7876   2
   3  -1   5 908.877 87.6380   4
  -3  -1  -5 884.341 69.4155   2
   3  -1   5 802.899 44.9741   2
   3  -1   6 1050.95 110.048   1
  -3  -1  -6 1056.50 77.2299   2
   3  -1   7 514.981 81.5166   1
   3  -1   7 594.084 68.9513   3
  -3  -1  -7 546.113 58.4052   2
   3  -1   8 2255.79 138.801   3
   3  -1   8 2371.73 176.442   1
  -3  -1  -8 2307.50 126.922   2
   3  -1   9 441.568 65.3731   3
   3  -1   9 657.782 104.569   1
  -3  -1  -9 514.628 62.5509   2
   3  -1  10 405.905 81.2306   1
   3  -1  10 331.062 61.4004   3
  -3  -1 -10 313.278 51.8905   2
   3  -1  11 369.831 69.8910   3
   3  -1  11 468.008 94.4066   1
   3  -1  12 398.987 89.8835   1
   3  -1  12 339.382 72.5888   3
   3  -1  13 37.5177 42.1376   3
   3  -1  13 103.698 64.5891   1
   3  -1  14 491.310 106.685   1
   3  -1  14 401.309 79.4470   3
   3  -1  15 226.954 60.4365   3
  -3   0  15 544.705 107.210   3
  -3   0  14 18.9437 35.4861   3
  -3   0  13 22.2822 35.5095   3
  -3   0  12 145.964 54.0291   3
  -3   0  11 3295.34 208.111   3
  -3   0  10-45.0963 37.3991   3
  -3   0   9-18.5716 29.0030   3
  -3   0   8 2382.77 151.104   3
   3   0  -8 1860.49 67.3270   1
  -3   0   7 296.703 54.4492   3
  -3   0   6 3191.72 153.207   3
  -3   0   5 4160.05 160.346   3
  -3   0   4 4117.96 140.782   3
  -3   0   3 2249.95 88.8445   3
   3   0  -2 3595.58 151.284   2
   3   0  -1 3025.19 128.528   2
   3   0   0 1051.48 71.6686   2
   3   0   1 386.865 43.8779   2
  -3   0  -2 531.336 45.6484   2
   3   0   2 516.850 46.6883   2
   3   0   3 2034.45 124.062   4
   3   0   3 1986.68 66.4307   3
  -3   0  -3 2018.52 85.7828   2
   3   0   3 2078.48 87.1354   2
   3   0   4-8.66397 23.2170   4
   3   0   4 5.89438 14.2735   2
  -3   0  -4-0.56603 10.8344   2
   3   0   4 5.95542 11.2622   3
   3   0   5 426.795 61.6180   4
   3   0   5 468.871 46.6530   3
  -3   0  -5 479.662 44.2029   2
   3   0   5 401.917 40.9055   2
   3   0   6 4114.37 218.771   1
   3   0   6 3856.60 131.073   2
   3   0   6 3835.28 145.793   3
  -3   0  -6 3764.93 126.688   2
   3   0   7 15.0647 21.5009   3
  -3   0  -7 23.6296 12.8419   2
   3   0   7 45.2575 21.0594   2
   3   0   7-25.9572 43.6610   1
   3   0   8 1104.21 95.1319   3
   3   0   8 1301.68 136.294   1
  -3   0  -8 1120.71 78.5248   2
   3   0   9 27.4461 25.6285   3
   3   0   9 146.725 58.3646   1
  -3   0  -9 96.1309 26.2955   2
   3   0  10 1040.67 105.615   3
   3   0  10 1187.35 136.564   1
  -3   0 -10 1047.29 83.7743   2
   3   0  11-25.6682 32.6109   3
   3   0  11 30.9830 53.6045   1
   3   0  12 619.139 93.8173   3
   3   0  12 809.462 119.837   1
   3   0  13 788.992 107.750   3
   3   0  14 20.2409 34.7749   3
   3   0  15 65.2888 37.5997   3
  -3   1  15-157.226 62.7223   3
  -3   1  14 179.309 60.5540   3
  -3   1  13 2193.87 192.401   3
  -3   1  12 153.638 52.2236   3
  -3   1  11-42.9051 38.3110   3
  -3   1  10 419.001 78.9044   3
  -3   1   9 350.069 69.4721   3
  -3   1   8 597.868 78.4268   3
  -3   1   7 1180.27 102.346   3
  -3   1   6 3000.45 147.066   3
  -3   1   5 872.322 74.2178   3
   3   1  -4 207.821 21.1958   1
   3   1  -4 247.474 54.6855   2
   3   1  -3 3596.36 98.9515   1
   3   1  -3 3829.90 169.723   2
   3   1  -2 2254.00 91.5207   1
   3   1  -2 2372.72 127.112   2
   3   1  -1 474.960 48.8756   1
   3   1  -1 537.920 59.5693   2
   3   1   0 140.372 31.5595   1
   3   1   0 201.559 38.4282   2
   3   1   1 3446.04 148.592   1
   3   1   1 3364.50 137.235   2
   3   1   2 802.261 82.1769   1
   3   1   2 879.646 68.5718   2
   3   1   3 1021.39 88.2660   4
   3   1   3 999.428 92.3942   1
   3   1   3 962.734 69.9217   2
   3   1   4 1648.26 111.641   4
  -3   1  -4 1554.81 57.1441   2
   3   1   4 1597.52 125.774   1
   3   1   4 1659.34 92.9671   2
   3   1   5 966.888 72.6482   2
   3   1   5 1109.39 97.3470   4
   3   1   5 1021.04 68.9028   3
  -3   1  -5 969.788 47.6507   2
   3   1   5 1079.83 110.854   1
   3   1   6 1063.41 79.8312   2
   3   1   6 1099.85 78.8719   3
   3   1   6 1259.21 124.685   1
  -3   1  -6 1141.57 56.7419   2
   3   1   7 487.460 57.0068   2
   3   1   7 478.152 58.3098   3
  -3   1  -7 444.052 38.8922   2
   3   1   7 693.657 97.7730   1
   3   1   8 2383.50 130.324   2
   3   1   8 2402.17 138.711   3
  -3   1  -8 2267.28 94.5407   2
   3   1   8 2494.68 183.431   1
   3   1   9 503.757 68.7005   3
   3   1   9 534.730 92.7396   1
  -3   1  -9 364.616 41.2362   2
   3   1   9 526.898 64.4047   2
   3   1  10 473.897 88.5173   1
   3   1  10 320.183 55.5958   3
   3   1  11 509.365 77.4285   3
   3   1  12 283.748 64.0632   3
   3   1  13-70.7931 37.2798   3
   3   1  14 441.643 86.7258   3
   3   1  15 135.279 47.3830   3
   3   2 -15 880.782 130.509   2
  -3   2  14-2.24514 33.3663   3
  -3   2  13 497.852 90.4298   3
  -3   2  12 780.136 109.802   3
  -3   2  11 848.831 109.556   3
  -3   2  10 1557.63 143.163   3
   3   2  -9 602.395 89.5312   2
  -3   2   9 727.200 95.5628   3
   3   2  -8 274.202 68.4953   2
  -3   2   8 330.481 61.6902   3
   3   2  -7 1793.11 142.321   2
   3   2  -6 264.367 57.3286   2
   3   2  -2 1138.36 97.1500   2
   3   2  -1 4421.18 181.246   2
  -3   2   0 1490.87 107.496   4
   3   2   0 1443.76 103.172   2
   3   2   0 1478.09 94.5762   1
  -3   2  -1 475.090 64.7167   4
   3   2   1 510.147 59.3934   2
   3   2   1 567.311 67.1657   1
  -3   2  -2 1480.18 109.293   4
   3   2   2 1441.05 96.7262   2
   3   2   2 1497.15 108.974   1
  -3   2  -3 346.760 57.5129   4
   3   2   3 484.168 55.8418   2
   3   2   3 538.273 74.8307   1
   3   2   4 508.607 75.9398   1
   3   2   4 484.698 65.3588   4
   3   2   4 503.895 59.8795   2
   3   2   5 1774.51 138.649   1
   3   2   5 1627.22 117.565   4
   3   2   5 1590.09 104.328   2
   3   2   6 1588.39 106.618   2
   3   2   7 271.715 50.2453   2
  -3   2  -8-2.26098 6.26100   2
   3   2   8 17.4457 27.4340   2
  -3   2  -9 422.913 35.3679   2
   3   2   9 456.228 65.9740   2
   3   2  10 676.722 84.5780   3
   3   2  10 729.716 85.1554   2
   3   2  11 222.700 55.8933   2
   3   2  11 425.631 74.8360   3
   3   2  12 630.212 92.9214   3
   3   2  13 285.059 67.9860   3
   3   3 -14 10.9375 38.3634   2
   3   3 -13 645.273 109.424   2
   3   3 -12 677.334 109.581   2
   3   3 -11 191.247 58.8293   2
   3   3 -10 467.812 81.7784   2
   3   3  -9 623.949 92.8867   2
   3   3  -8 296.914 67.7079   2
   3   3  -7 213.244 55.7907   2
   3   3  -6 754.944 94.1877   2
   3   3  -5 607.131 81.4496   2
   3   3  -1 404.591 61.3571   2
  -3   3   0 2120.51 123.391   4
   3   3   0 2223.73 132.253   2
  -3   3  -1 1776.50 115.505   4
   3   3   1 1844.89 122.174   2
  -3   3  -2 2083.76 126.117   4
   3   3   2 2060.87 126.746   2
  -3   3  -3 1380.59 109.683   4
   3   3   3 1406.57 106.492   2
   3   3   4 1894.36 122.533   4
   3   3   4 2102.61 129.683   2
   3   3   5 997.733 92.3238   4
   3   3   5 1174.46 97.5641   2
   3   3   6 406.039 60.9645   2
   3   3   7 1117.79 102.003   2
   3   3   8 802.632 90.8344   2
   3   3   9 111.069 37.1957   2
   3   3  10 177.205 45.4334   2
   3   3  11 449.030 75.7740   2
   3   3  12 160.587 49.7562   2
   3   4 -14 411.383 83.7266   2
   3   4 -13 64.3167 43.2263   2
   3   4 -12-6.69021 36.9309   2
   3   4 -11 1111.65 133.963   2
   3   4 -10 15.4525 31.3243   2
   3   4  -9 133.036 48.4297   2
   3   4  -8 1186.25 126.665   2
   3   4  -7 183.252 53.2978   2
   3   4  -6 242.895 60.0087   2
   3   4  -5 1337.43 126.700   2
   3   4  -4 434.871 70.4741   2
   3   4  -3 204.793 52.4171   2
   3   4  -2 669.546 84.9982   2
   3   4  -1 716.916 82.0091   2
  -3   4   0 2245.83 123.688   4
   3   4   0 2291.92 144.469   2
  -3   4  -1-12.1721 23.2095   4
   3   4   1-5.93758 27.2692   2
  -3   4  -2 1680.87 119.381   4
   3   4   2 1589.50 119.997   2
   3   4   3 2354.13 145.307   2
   3   4   4 71.5914 33.2637   2
   3   4   5 542.200 70.0147   4
   3   4   5 477.186 68.2715   2
   3   4   6 1362.22 116.511   2
   3   4   7 557.401 80.8191   2
   3   4   8-21.1031 24.6399   2
   3   4   9 1253.51 121.580   2
   3   4  10 446.250 75.0658   2
   3   4  11 14.6600 26.7703   2
   3   4  12 151.892 55.3508   2
   3   5 -14 72.5322 38.8429   2
   3   5 -13 104.827 43.2057   2
   3   5 -12 300.534 74.5926   2
   3   5 -11 11.8717 31.0481   2
   3   5 -10 396.616 82.8022   2
   3   5  -9 408.828 81.0567   2
   3   5  -8 120.690 51.2335   2
   3   5  -7 217.367 60.8021   2
   3   5  -6 2253.44 173.362   2
   3   5  -5 1148.85 122.181   2
   3   5  -4 852.526 107.162   2
   3   5  -3 1086.73 113.803   2
   3   5  -2 371.304 63.3970   2
  -3   5   1 120.516 31.4072   4
   3   5  -1 128.949 39.4164   2
  -3   5   0 977.734 81.2057   4
   3   5   0 939.265 99.0588   2
  -3   5  -1 1900.06 117.468   4
   3   5   1 2030.03 144.630   2
  -3   5  -2 125.477 38.5783   4
   3   5   2 180.938 49.5057   2
   3   5   3 210.404 50.8959   2
   3   5   4 820.140 98.9788   2
   3   5   5 294.803 52.1585   4
   3   5   5 215.377 51.0068   2
   3   5   6 668.560 88.6995   2
   3   5   7 513.686 79.1304   2
   3   5   8 704.728 92.6981   2
   3   5   9 673.372 93.8520   2
   3   5  10 299.344 68.1030   2
   3   5  11 253.531 67.2023   2
   3   5  12 444.139 84.6765   2
   3   5  13 94.0846 42.1247   2
   3   6 -13 166.367 65.6221   2
   3   6 -12 820.830 125.224   2
   3   6 -11 325.279 79.5272   2
   3   6 -10 379.856 83.7237   2
   3   6  -9 353.353 69.6139   2
   3   6  -8 378.320 79.8407   2
   3   6  -7 620.751 100.147   2
   3   6  -6 443.967 83.5111   2
   3   6  -5 47.8119 33.3343   2
   3   6  -4 2215.48 169.584   2
   3   6  -3 281.749 61.6655   2
   3   6  -2 55.1765 38.6180   2
  -3   6   1 1741.55 102.322   4
   3   6  -1 1943.40 149.139   2
  -3   6   0 79.2132 25.8811   4
   3   6   0 86.7104 40.4686   2
  -3   6  -1 647.528 68.5680   4
   3   6   1 685.110 92.0567   2
   3   6   2 1198.92 120.264   2
   3   6   3 1132.56 115.952   2
   3   6   4 94.0101 42.0260   2
   3   6   5 776.550 97.3163   2
   3   6   6 592.322 88.3857   2
   3   6   7 331.781 68.6985   2
   3   6   8 105.800 41.8818   2
   3   6   9 244.444 65.5266   2
   3   6  10 16.3188 25.2900   2
   3   6  11 88.2764 48.2491   2
   3   6  12 88.9270 42.7320   2
   3   7 -12 161.837 59.1506   2
   3   7 -11 121.630 65.4590   2
   3   7 -10 483.541 94.2142   2
   3   7  -9 478.496 94.3869   2
   3   7  -8 307.836 77.2305   2
   3   7  -7 36.6926 35.9969   2
   3   7  -6 2407.07 190.534   2
   3   7  -5 141.572 44.6213   2
   3   7  -4 54.1717 34.2936   2
   3   7  -3 442.779 77.8797   2
  -3   7   2 574.134 58.8074   4
   3   7  -2 485.677 83.5224   2
  -3   7   1 963.901 76.1205   4
   3   7  -1 1128.14 120.690   2
  -3   7   0 219.264 37.7643   4
   3   7   0 232.730 53.5717   2
   3   7   1 999.938 114.292   2
   3   7   2 82.3595 44.4741   2
   3   7   3 383.792 73.7136   2
   3   7   4 854.765 111.264   2
   3   7   5 550.852 89.2561   2
   3   7   6 153.672 49.8933   2
   3   7   7 256.576 60.4749   2
   3   7   8 994.149 124.188   2
   3   7   9 112.712 52.7637   2
   3   7  10 58.9269 37.4013   2
   3   7  11 374.249 83.3964   2
   3   8 -11 535.807 112.410   2
   3   8 -10 27.3287 31.8974   2
   3   8  -9 857.251 124.383   2
   3   8  -8 1552.34 164.388   2
   3   8  -7 221.277 70.4351   2
   3   8  -6 103.407 39.7529   2
   3   8  -5 739.572 107.028   2
   3   8  -4 558.736 92.1472   2
  -3   8   3 471.588 53.6119   4
   3   8  -3 422.832 83.8247   2
  -3   8   2 416.079 49.3172   4
   3   8  -2 393.294 80.0241   2
  -3   8   1 267.761 39.2824   4
   3   8  -1 399.671 79.2395   2
   3   8   0 133.577 46.8315   2
  -3   8  -1 21.4893 17.2462   2
   3   8   1 17.7895 24.5304   2
   3   8   2 355.297 77.1812   2
   3   8   3 1258.23 137.385   2
   3   8   4 253.299 64.2402   2
   3   8   5 268.036 71.4083   2
   3   8   6 423.215 80.0987   2
   3   8   7 30.3310 31.8575   2
   3   8   8 175.756 58.5773   2
   3   8   9 504.434 94.7469   2
   3   9  -9 107.849 51.0260   2
   3   9  -8 93.2920 58.7969   2
   3   9  -7 110.215 50.8509   2
   3   9  -6 147.954 56.2114   2
   3   9  -5 269.925 73.9624   2
   3   9  -4 248.447 68.3928   2
   3   9  -3 132.100 55.0451   2
   3   9  -2 687.035 102.168   2
  -3   9   1-2.18650 25.7215   2
   3   9  -1-5.30294 34.2106   2
  -3   9   0 277.438 58.1553   2
   3   9   0 225.462 62.5742   2
  -3   9  -1 1712.66 121.275   2
   3   9   1 1770.56 169.789   2
   3   9   2-17.7533 36.4804   2
   3   9   3 181.451 55.3054   2
   3   9   4 1054.12 135.280   2
   3   9   5 279.646 72.9310   2
   3   9   6 54.1498 44.9853   2
   3   9   7 582.407 103.638   2
   3  10  -7 261.088 79.3510   2
   3  10  -6 97.0935 61.0447   2
   3  10  -5 205.659 65.9258   2
   3  10  -4 276.309 77.2080   2
   3  10  -3 97.2697 51.0151   2
  -3  10   2 351.404 70.4411   2
   3  10  -2 334.206 78.2653   2
  -3  10   1 725.551 94.4602   2
   3  10  -1 558.905 99.5961   2
   3  10   0 4.94055 31.9290   2
   3  10   1 122.948 54.8848   2
   3  10   2 630.348 111.286   2
   3  10   3 171.390 60.0024   2
   3  10   4 134.368 60.0506   2
  -4  -8   4 285.517 55.1890   4
  -4  -8   3 606.984 72.7626   4
  -4  -8   2 164.407 40.7906   4
  -4  -8   1 115.943 31.3635   4
  -4  -8   0 304.414 55.0265   4
  -4  -7   3 27.7834 21.9862   4
  -4  -7   2 564.803 69.5230   4
  -4  -7   1 381.442 59.4188   4
  -4  -7   0 97.2165 33.1003   4
  -4  -7  -1 945.482 93.8374   4
   4  -6  -3 704.048 73.9552   2
  -4  -6   3 721.826 68.8266   1
  -4  -6   2 40.0065 23.2710   4
   4  -6  -2 45.8241 24.7043   2
  -4  -6   2 83.6631 32.0039   1
   4  -6  -1 161.265 33.2772   2
  -4  -6   1 184.210 45.1756   4
  -4  -6   1 155.456 39.4183   1
  -4  -6   0 419.695 63.5595   4
  -4  -6   0 401.932 60.1146   1
   4  -6   0 432.529 46.1682   2
  -4  -6  -1 377.464 62.2774   4
   4  -6   1 332.367 34.5465   2
  -4  -6  -2 23.9189 30.0255   4
   4  -6   2 8.00988 4.89014   2
  -4  -6  -3 669.057 70.2002   3
  -4  -6  -4 1023.61 83.2956   3
  -4  -5  13 114.099 46.8775   3
   4  -5  -4 1309.59 103.671   2
   4  -5  -3 1373.51 99.5866   2
   4  -5  -3 1510.55 108.385   3
   4  -5  -2 646.331 67.2754   2
   4  -5  -1 376.944 48.3679   2
  -4  -5   1 370.312 61.0775   4
  -4  -5   1 298.330 47.6851   1
  -4  -5   0 56.9958 25.4105   4
   4  -5   0 95.1804 23.9378   2
  -4  -5   0 96.9034 29.3380   1
  -4  -5  -1 791.394 83.4816   1
  -4  -5  -1 735.977 83.8490   4
   4  -5   1 739.074 47.7877   2
  -4  -5  -2 1850.71 136.048   4
  -4  -5  -3 122.806 34.3760   3
  -4  -5  -4 104.895 29.9235   3
  -4  -5  -5 337.368 48.9769   3
  -4  -4  13 407.980 86.9761   3
  -4  -4  12 117.001 60.5512   3
   4  -4  -5 141.922 37.3950   3
   4  -4  -4 955.370 88.9267   2
   4  -4  -4 955.525 84.9977   3
   4  -4  -3 221.872 39.7172   3
   4  -4  -3 232.258 42.8537   2
   4  -4  -2 672.287 66.2890   2
   4  -4  -2 587.838 62.0580   3
   4  -4  -1 1491.92 91.0597   2
  -4  -4   1 1442.21 118.128   4
   4  -4   0 738.286 58.2591   2
  -4  -4   0 698.163 82.0000   4
   4  -4   1 918.849 52.2889   2
  -4  -4  -1 1017.19 99.6290   4
   4  -4   1 940.598 54.4307   2
  -4  -4  -2 141.173 45.8404   4
  -4  -4  -2 150.470 27.3786   3
  -4  -4  -3 259.115 59.7392   4
  -4  -4  -3 205.600 32.2762   3
  -4  -4  -4 861.247 65.3525   3
  -4  -4  -5 87.1425 23.9035   3
   4  -4  11 153.720 68.8123   1
   4  -4  12 22.4085 29.7330   3
  -4  -3  14 84.0946 47.3119   3
  -4  -3  13 234.509 67.8322   3
  -4  -3  12 490.650 90.2965   3
  -4  -3  11 750.933 103.153   3
  -4  -3  10 176.459 52.4675   3
  -4  -3   9 277.583 61.1431   3
   4  -3  -6 252.500 46.5644   3
   4  -3  -5 597.939 65.5482   3
   4  -3  -4 896.088 85.6452   2
   4  -3  -4 906.880 78.1501   3
   4  -3  -3 450.480 57.7766   2
   4  -3  -3 393.478 48.5667   3
   4  -3  -2 1447.26 96.0424   2
   4  -3  -2 1497.95 88.8346   3
   4  -3  -1 971.240 72.7037   2
   4  -3  -1 990.534 67.3454   3
  -4  -3   1 1077.28 104.693   2
  -4  -3   0 1199.04 107.562   4
   4  -3   0 1370.77 76.6915   2
   4  -3   0 1252.36 76.9903   2
  -4  -3   0 1328.89 111.587   2
  -4  -3  -1 1041.04 100.225   4
   4  -3   1 1061.25 59.3322   2
  -4  -3  -1 919.756 47.5056   3
  -4  -3  -1 982.988 94.7425   2
   4  -3   1 913.555 55.4195   2
   4  -3   2 805.639 38.5011   2
  -4  -3  -2 1181.69 110.192   4
  -4  -3  -2 1003.18 50.8298   3
  -4  -3  -2 1201.53 103.647   2
   4  -3   2 922.690 41.9966   2
  -4  -3  -3 1240.88 118.911   4
  -4  -3  -3 1196.91 59.9945   3
  -4  -3  -3 1268.32 105.621   2
  -4  -3  -4 2488.37 149.087   2
  -4  -3  -5 673.809 79.2240   2
   4  -3   9 578.097 101.411   1
   4  -3  10-6.66662 46.8906   1
   4  -3  10 99.9479 44.7204   3
   4  -3  11 369.157 87.2974   1
   4  -3  11 383.457 71.8666   3
   4  -3  12 315.312 67.5208   3
   4  -3  12 368.889 93.1251   1
   4  -3  13 124.226 52.8705   3
  -4  -2  14 508.586 97.3317   3
  -4  -2  13 72.5799 49.3321   3
  -4  -2  12 250.924 64.3805   3
  -4  -2  11 583.741 90.3731   3
  -4  -2  10 617.994 91.1879   3
  -4  -2   9 1374.84 126.516   3
  -4  -2   8 982.869 100.240   3
  -4  -2   7 396.836 61.5831   3
  -4  -2   6 1700.76 115.662   3
  -4  -2   5 414.846 54.0069   3
   4  -2  -4 26.6064 19.2545   3
   4  -2  -3 1640.69 86.9317   3
   4  -2  -2 255.351 32.3487   3
   4  -2  -1 809.527 50.6470   3
   4  -2  -1 804.292 70.9507   2
  -4  -2   0 2237.56 147.458   4
   4  -2   0 2237.83 76.7836   3
  -4  -2   0 2198.71 137.295   2
   4  -2   0 2291.88 108.444   2
  -4  -2  -1 444.248 68.6600   4
  -4  -2  -1 540.739 66.8567   2
   4  -2   1 494.945 44.7091   2
  -4  -2  -2 13.5361 14.8099   2
  -4  -2  -2 39.5853 30.1124   4
   4  -2   2 8.98327 11.4811   2
  -4  -2  -3 766.906 92.1133   4
  -4  -2  -3 754.814 76.0823   2
   4  -2   3 543.080 31.1911   2
  -4  -2  -4 402.459 72.0385   4
  -4  -2  -4 334.129 52.7981   2
  -4  -2  -5 330.829 51.1322   2
  -4  -2  -6 1380.19 105.254   2
  -4  -2  -7 903.861 84.5334   2
   4  -2   8 103.642 44.4063   1
   4  -2   8 174.525 43.2632   3
  -4  -2  -8 155.341 37.5928   2
   4  -2   9 81.2116 51.4403   1
   4  -2   9 14.2375 21.9249   3
   4  -2  10 450.006 70.2453   3
   4  -2  10 424.053 93.0602   1
   4  -2  11 295.800 62.6077   3
   4  -2  11 294.170 86.7339   1
   4  -2  12 6.10952 52.3983   1
   4  -2  12-22.5107 28.5401   3
   4  -2  13 373.621 74.8663   3
  -4  -1  14 142.011 61.1066   3
  -4  -1  13 91.6247 44.1913   3
  -4  -1  12 702.375 104.567   3
  -4  -1  11 532.187 89.1098   3
  -4  -1  10 472.692 78.3193   3
  -4  -1   9 1288.43 122.928   3
  -4  -1   8 550.372 74.9566   3
  -4  -1   7 103.402 34.3819   3
  -4  -1   6 833.584 77.3613   3
  -4  -1   5 1515.16 95.1092   3
  -4  -1   4 563.886 51.4215   3
  -4  -1   3 1059.65 58.3179   3
  -4  -1   2 1866.15 56.8205   3
   4  -1  -2 2107.76 123.947   2
   4  -1  -1 803.914 72.5592   2
  -4  -1   0 497.540 71.8115   4
   4  -1   0 401.118 49.1632   2
  -4  -1  -1 534.538 74.1488   4
  -4  -1  -1 572.102 63.7813   2
   4  -1   1 633.218 57.2131   2
  -4  -1  -2 1499.13 126.773   4
  -4  -1  -2 1496.05 98.7338   2
   4  -1   2 1547.51 81.8226   2
  -4  -1  -3 522.967 78.2812   4
   4  -1   3 425.961 29.4980   3
  -4  -1  -3 576.206 59.8973   2
   4  -1   3 602.618 46.2167   2
  -4  -1  -4 892.481 104.812   4
   4  -1   4 720.109 46.5713   3
  -4  -1  -4 731.433 69.2799   2
   4  -1   4 812.574 48.9442   2
   4  -1   5 1226.14 57.7821   2
   4  -1   5 1282.29 71.7336   3
  -4  -1  -5 1199.10 87.1147   2
   4  -1   6 429.079 77.0803   1
   4  -1   6 506.508 37.5782   2
   4  -1   6 534.500 54.5885   3
  -4  -1  -6 558.851 61.6023   2
   4  -1   7 233.353 61.8620   1
   4  -1   7 241.941 42.4435   3
  -4  -1  -7 294.414 44.8284   2
   4  -1   8 769.495 76.9688   3
   4  -1   8 826.165 114.580   1
  -4  -1  -8 676.634 69.8206   2
   4  -1   9 574.569 74.7347   3
   4  -1   9 578.874 103.755   1
   4  -1  10 168.408 63.1482   1
   4  -1  10 118.117 40.4739   3
   4  -1  11 453.763 76.1324   3
   4  -1  11 629.741 115.507   1
   4  -1  12 75.1327 53.6397   1
   4  -1  12 226.069 63.0362   3
   4  -1  13 238.933 62.5624   3
  -4   0  14-55.3817 40.1050   3
  -4   0  13 121.879 53.2458   3
  -4   0  12 55.7349 26.0433   3
  -4   0  11 53.0472 29.6041   3
  -4   0  10 986.288 111.124   3
  -4   0   9 294.081 57.3463   3
  -4   0   8 423.924 66.9645   3
   4   0  -8 235.144 18.3709   1
  -4   0   7 735.261 81.4176   3
  -4   0   6 134.850 34.7019   3
  -4   0   5 547.873 57.4092   3
   4   0  -5 515.707 74.9784   2
  -4   0   4 1835.72 88.7184   3
   4   0  -4 1686.17 126.509   2
   4   0  -3 1973.38 130.942   2
   4   0  -2 19.4107 21.6590   2
   4   0  -1 2274.30 125.986   2
   4   0   0 1587.68 101.491   2
  -4   0  -1 824.171 90.5514   4
   4   0   1 877.877 72.6699   2
  -4   0  -2-5.38747 28.2061   4
   4   0   2-16.9350 19.9504   2
  -4   0  -3 1434.03 126.050   4
   4   0   3 1254.60 118.480   1
  -4   0  -3 1454.22 84.4226   2
   4   0   3 1423.66 84.2503   2
  -4   0  -4 1999.09 150.517   4
   4   0   4 1811.16 148.237   1
  -4   0  -4 1736.86 88.1576   2
   4   0   4 1862.94 94.5178   2
   4   0   5 102.969 24.1765   2
  -4   0  -5 57.8859 18.8510   2
   4   0   5 49.4566 16.5593   3
   4   0   5 79.0493 45.5074   1
   4   0   6 1077.66 70.3980   2
   4   0   6 1058.81 71.2735   3
   4   0   6 1157.24 130.822   1
  -4   0  -6 1011.14 70.6293   2
   4   0   7 317.820 45.9361   3
  -4   0  -7 322.941 42.9909   2
   4   0   7 311.761 40.4471   2
   4   0   7 349.439 78.1130   1
   4   0   8 201.025 33.5890   2
   4   0   8 132.599 58.6165   1
   4   0   8 215.079 42.3467   3
   4   0   9 170.836 41.4372   3
   4   0   9 177.126 61.6389   1
   4   0  10 173.964 46.1527   3
   4   0  10 205.115 84.0251   1
   4   0  11 341.223 64.9637   3
   4   0  11 502.833 103.382   1
   4   0  12 142.801 77.9582   1
   4   0  12-20.2969 26.2010   3
   4   0  13 91.6140 44.0314   3
  -4   1  14 96.4888 54.9563   3
  -4   1  13 103.117 47.5896   3
  -4   1  12 579.055 99.4391   3
  -4   1  11 474.451 85.8659   3
  -4   1  10 513.934 83.7958   3
  -4   1   9 1181.13 117.369   3
  -4   1   8 520.519 74.7424   3
   4   1  -8 459.870 80.1243   2
   4   1  -7 41.1394 30.0549   2
  -4   1   7 185.013 45.2467   3
   4   1  -6 778.195 96.8872   2
   4   1  -5 1327.02 118.280   2
   4   1  -5 1343.92 58.3986   1
   4   1  -4 411.107 67.4410   2
   4   1  -4 441.274 41.5119   1
   4   1  -3 934.576 66.0585   1
   4   1  -3 978.409 95.9402   2
   4   1  -2 2076.91 107.561   1
   4   1  -2 2228.86 135.414   2
   4   1  -1 878.053 77.2580   1
   4   1  -1 912.426 85.8844   2
  -4   1   0 340.096 60.9935   4
   4   1   0 397.807 55.9839   1
   4   1   0 462.279 61.1158   2
  -4   1  -1 645.935 80.5359   4
   4   1   1 707.233 80.4806   1
   4   1   1 655.551 70.3120   2
  -4   1  -2 1498.34 124.766   4
   4   1   2 1461.39 117.871   1
   4   1   2 1640.36 104.560   2
  -4   1  -3 589.278 84.2178   4
   4   1   3 645.133 63.4552   2
   4   1   3 617.409 86.5232   1
  -4   1  -4 837.376 102.258   4
   4   1   4 1020.89 114.879   1
   4   1   4 872.433 75.9399   2
   4   1   5 1490.66 143.053   1
   4   1   5 1347.78 92.2123   2
   4   1   6 536.492 58.9357   2
  -4   1  -6 515.955 37.3612   2
   4   1   6 717.071 104.829   1
   4   1   7 293.520 47.9433   2
  -4   1  -7 268.712 28.0168   2
   4   1   7 356.726 82.0315   1
   4   1   8 579.640 64.7610   2
   4   1   8 876.641 123.047   1
   4   1   9 774.355 117.869   1
   4   1   9 512.522 63.5541   2
   4   1   9 545.458 68.2571   3
   4   1  10 165.216 38.4884   2
   4   1  10 45.4707 26.0744   3
   4   1  10 256.568 75.6042   1
   4   1  11 462.166 73.3546   3
   4   1  12 213.915 51.3620   3
   4   2 -13 35.5910 37.8175   2
   4   2 -12 306.409 80.1104   2
   4   2 -11 613.411 104.125   2
   4   2 -10 609.085 100.069   2
   4   2  -9 1172.44 129.455   2
   4   2  -8 969.048 118.791   2
   4   2  -7 425.323 77.2768   2
   4   2  -6 1531.84 139.378   2
   4   2  -5 301.564 60.8782   2
   4   2  -4-12.7229 28.1985   2
   4   2  -3 1728.92 131.227   2
   4   2  -2 294.927 56.7991   2
   4   2  -1 800.781 85.7265   2
   4   2  -1 817.167 75.0036   1
  -4   2   0 2296.64 149.847   4
   4   2   0 2517.42 145.996   2
   4   2   0 2251.67 128.713   1
  -4   2  -1 502.949 72.0067   4
   4   2   1 447.285 61.5032   2
   4   2   1 596.447 74.0669   1
  -4   2  -2 9.45509 24.9323   4
   4   2   2-2.46397 33.3490   1
   4   2   2-2.42741 20.2418   2
  -4   2  -3 669.068 88.4416   4
   4   2   3 720.603 75.6159   2
   4   2   3 761.098 95.1663   1
   4   2   4 322.848 52.4261   2
   4   2   4 352.380 71.5841   1
   4   2   5 410.874 58.3485   2
   4   2   5 519.897 87.8364   1
   4   2   6 1510.60 141.448   1
   4   2   6 1481.32 107.678   2
   4   2   7 1150.10 97.8710   2
   4   2   8 210.335 44.5188   2
   4   2   9 42.9894 28.5080   2
   4   2  10 477.801 70.3684   2
   4   2  11 235.806 49.1132   2
   4   3 -13 250.940 71.3931   2
   4   3 -12 692.487 111.742   2
   4   3 -11 747.876 115.407   2
   4   3 -10 139.858 59.7930   2
   4   3  -9 248.850 65.5915   2
   4   3  -8 469.862 84.7396   2
   4   3  -7 949.495 113.843   2
   4   3  -6 271.148 64.0446   2
   4   3  -5 503.729 79.5517   2
   4   3  -4 855.100 101.199   2
   4   3  -3 455.790 73.8017   2
   4   3  -2 1377.85 120.134   2
  -4   3   1 1025.06 100.278   4
   4   3  -1 979.150 99.7774   2
  -4   3   0 1237.00 110.049   4
   4   3   0 1305.45 110.804   2
  -4   3  -1 823.333 91.9253   4
   4   3   1 887.936 92.3278   2
  -4   3  -2 1077.70 106.942   4
   4   3   2 1050.59 98.4849   2
  -4   3  -3 1218.36 117.160   4
   4   3   3 1095.27 100.855   2
   4   3   4 2402.33 150.094   2
   4   3   5 646.566 79.6580   2
   4   3   6 374.775 63.3939   2
   4   3   7 589.259 77.5119   2
   4   3   8 407.209 66.5234   2
   4   3   9 576.195 80.5899   2
   4   3  10 50.6408 26.0837   2
   4   3  11 399.700 69.0280   2
   4   3  12 338.857 62.7989   2
   4   4 -12 154.254 65.6042   2
   4   4 -11 54.5512 39.5495   2
   4   4 -10 1219.41 144.807   2
   4   4  -9 176.298 58.0656   2
   4   4  -8 9.33732 32.7675   2
   4   4  -7 1357.06 139.045   2
   4   4  -6 115.671 46.6061   2
   4   4  -5 121.795 47.6445   2
   4   4  -4 998.249 113.954   2
   4   4  -3 173.875 54.4907   2
   4   4  -2 561.139 85.6784   2
  -4   4   1 1406.74 115.354   4
   4   4  -1 1383.24 126.861   2
  -4   4   0 505.218 69.4843   4
   4   4   0 646.335 83.4527   2
  -4   4  -1 1082.22 103.119   4
   4   4   1 1069.88 107.286   2
  -4   4  -2 116.350 36.9617   4
   4   4   2 95.2944 34.1292   2
  -4   4  -3 152.972 50.5265   4
   4   4   3 131.658 44.6722   2
   4   4   4 840.262 95.7918   2
   4   4   5 96.0885 40.1732   2
   4   4   6 595.771 84.2008   2
   4   4   7 786.880 95.7123   2
   4   4   8 474.073 77.9552   2
   4   4   9 339.629 67.2433   2
   4   4  10 449.105 84.7951   2
   4   4  11 209.966 54.5952   2
   4   4  12-72.1582 36.5940   2
   4   5 -12 86.7123 44.8352   2
   4   5 -11 123.317 55.4719   2
   4   5 -10 20.8935 35.3948   2
   4   5  -9 287.675 71.3674   2
   4   5  -8 908.272 122.537   2
   4   5  -7 208.294 59.8473   2
   4   5  -6 712.706 109.388   2
   4   5  -5 746.829 107.442   2
   4   5  -4 1154.65 127.568   2
   4   5  -3 1351.31 132.529   2
   4   5  -2 616.362 89.8165   2
  -4   5   1 293.471 55.7329   4
   4   5  -1 315.122 64.4644   2
  -4   5   0 107.116 37.5125   4
   4   5   0 87.6112 39.9637   2
  -4   5  -1 868.714 91.4141   4
   4   5   1 890.083 101.828   2
  -4   5  -2 1675.72 133.143   4
   4   5   2 1457.72 130.962   2
   4   5   3 89.4219 44.0598   2
   4   5   4 110.153 41.1075   2
   4   5   5 229.449 57.9036   2
   4   5   6 496.455 80.3746   2
   4   5   7 359.844 70.2056   2
   4   5   8 445.657 81.1830   2
   4   5   9 537.877 90.6221   2
   4   5  10 178.055 55.8163   2
   4   5  11 131.396 39.1932   2
   4   5  12 129.879 47.0301   2
   4   6 -11 276.386 78.2241   2
   4   6 -10 184.377 59.6330   2
   4   6  -9 165.313 62.6234   2
   4   6  -8 355.982 88.0536   2
   4   6  -7 496.212 94.5445   2
   4   6  -6 887.991 120.352   2
   4   6  -5 40.9541 28.6114   2
   4   6  -4 372.310 75.4442   2
   4   6  -3 637.268 94.8188   2
  -4   6   2 61.5852 27.7818   4
   4   6  -2 20.4797 31.6491   2
  -4   6   1 152.415 38.7143   4
   4   6  -1 194.242 54.2583   2
  -4   6   0 452.046 63.9601   4
   4   6   0 432.145 79.6526   2
  -4   6  -1 362.486 60.0639   4
   4   6   1 461.711 78.7418   2
  -4   6  -2 14.3107 22.7638   4
   4   6   2 80.8378 40.3053   2
   4   6   3 644.183 93.8607   2
   4   6   4 976.043 116.524   2
   4   6   5 248.705 62.2106   2
   4   6   6 473.166 85.1302   2
   4   6   7 316.822 70.3777   2
   4   6   8 115.587 50.4348   2
   4   6   9-12.8313 31.5381   2
   4   6  10 283.132 73.7620   2
   4   6  11 89.0328 47.4946   2
   4   7 -10 56.5965 42.9024   2
   4   7  -9 308.338 90.1395   2
   4   7  -8 579.768 109.527   2
   4   7  -7-45.4003 44.4055   2
   4   7  -6 167.949 62.0071   2
   4   7  -5 1468.57 155.617   2
   4   7  -4 65.6117 37.6766   2
  -4   7   3 24.9275 19.0467   4
   4   7  -3 39.3929 34.2202   2
  -4   7   2 568.960 68.5442   4
   4   7  -2 511.381 88.9253   2
  -4   7   1 580.109 72.1393   4
   4   7  -1 472.897 86.3995   2
  -4   7   0 179.251 38.1725   4
   4   7   0 130.750 51.4225   2
  -4   7  -1 912.544 94.4213   4
   4   7   1 990.766 120.689   2
   4   7   2 410.061 83.0256   2
   4   7   3 234.285 65.0518   2
   4   7   4 254.362 67.6029   2
   4   7   5 410.903 81.3399   2
   4   7   6 626.553 103.330   2
   4   7   7 27.3747 33.3738   2
   4   7   8 222.482 71.0263   2
   4   7   9 275.499 73.7936   2
   4   7  10 195.369 64.8778   2
   4   8  -8 108.538 57.2901   2
   4   8  -7 703.736 117.394   2
   4   8  -6 325.358 83.0417   2
   4   8  -5 84.3150 41.5818   2
  -4   8   4 406.766 60.4167   4
   4   8  -4 454.632 95.6064   2
  -4   8   3 671.241 74.0903   4
   4   8  -3 621.902 105.111   2
  -4   8   2 180.750 38.4288   4
   4   8  -2 242.452 65.1346   2
  -4   8   1 137.604 36.7531   4
   4   8  -1 131.974 48.5182   2
  -4   8   0 342.753 56.8915   4
   4   8   0 352.450 77.1266   2
   4   8   1 56.3936 39.1696   2
   4   8   2 125.810 51.1001   2
   4   8   3 714.134 107.750   2
   4   8   4 398.177 81.0629   2
   4   8   5 35.3490 35.3134   2
   4   8   6 60.6381 38.1882   2
   4   8   7 193.106 55.5660   2
   4   9  -6 168.765 59.2287   2
   4   9  -5 165.734 64.4374   2
   4   9  -4 266.331 71.5952   2
   4   9  -3 156.666 60.5628   2
   4   9  -2 120.116 50.4370   2
   4   9  -1 426.837 88.5416   2
   4   9   0 31.7737 36.2311   2
   4   9   1 39.8385 40.4074   2
   4   9   2 1017.94 136.364   2
   4   9   3 73.1060 46.5036   2
   4   9   4-6.31503 38.1605   2
   4   9   5 932.326 132.108   2
  -5  -8   5 42.8286 22.7668   4
  -5  -8   4 3.45084 27.7151   4
  -5  -8   3 220.979 52.2298   4
  -5  -8   2 376.868 68.1902   4
  -5  -8   1-22.9143 29.5349   4
  -5  -8   0-2.10246 27.0844   4
  -5  -7   4 799.893 102.563   4
  -5  -7   3 68.0717 33.3828   4
  -5  -7   2 34.9847 23.2619   4
  -5  -7   1 1050.45 107.940   4
  -5  -7   0 105.542 39.7582   4
  -5  -7  -1 70.7914 34.9763   4
  -5  -6   3 285.569 60.6157   4
  -5  -6   2 144.763 51.2054   4
  -5  -6   1-21.7426 37.6275   4
  -5  -6   0 155.075 46.5416   4
  -5  -6  -1 829.122 99.5019   4
  -5  -6  -2 188.178 53.4692   4
  -5  -5  12 54.6145 37.4126   3
  -5  -5  11 379.632 77.5837   3
  -5  -5   2 603.916 85.0770   4
   5  -5  -2 954.309 77.0946   3
  -5  -5   1 596.454 85.8089   4
   5  -5  -1 724.349 68.2014   3
  -5  -5   0 335.589 66.3918   4
   5  -5   0 407.767 45.7467   2
  -5  -5  -1 315.864 65.9411   4
  -5  -5  -2 31.5288 29.0659   4
  -5  -5  -3 1563.56 144.281   4
  -5  -4  13 15.9929 23.9912   3
  -5  -4  12 179.303 58.1444   3
  -5  -4  11 83.8006 41.9067   3
  -5  -4  10 122.587 48.1098   3
  -5  -4   9 1132.46 120.203   3
   5  -4  -4 56.0872 20.8293   3
   5  -4  -3 568.962 65.4684   2
   5  -4  -3 420.713 50.0511   3
  -5  -4   2 982.723 110.530   4
   5  -4  -2 1075.28 84.8146   2
   5  -4  -2 862.582 70.8045   3
  -5  -4   1 40.3777 31.9182   4
   5  -4  -1 42.3980 19.3649   3
   5  -4  -1 36.7050 20.4212   2
   5  -4  -1 103.645 28.3910   2
  -5  -4   0 935.090 105.367   4
   5  -4   0 905.570 66.6590   2
   5  -4   0 778.689 62.4855   3
   5  -4   0 852.583 66.9337   2
  -5  -4  -1 387.279 70.1269   4
   5  -4   1 423.088 39.3870   2
  -5  -4  -2 53.0116 31.4566   4
  -5  -4  -3 34.7465 33.6250   4
  -5  -3  13 172.215 56.5226   3
  -5  -3  12 97.2912 44.1400   3
  -5  -3  11 412.383 80.1591   3
  -5  -3  10 362.662 73.3297   3
  -5  -3   9 220.047 53.7368   3
  -5  -3   8 154.085 45.0728   3
  -5  -3   7 414.403 62.8380   3
  -5  -3   6 435.508 58.9668   3
  -5  -3   5 23.1297 15.2644   3
  -5  -3   4 1358.22 84.1438   3
   5  -3  -4 1299.26 84.5612   3
   5  -3  -3 333.479 51.6417   2
  -5  -3   3 271.403 33.1635   3
   5  -3  -3 210.988 33.5549   3
   5  -3  -2 123.844 30.2948   2
   5  -3  -2 139.603 36.5684   2
   5  -3  -2 138.757 26.3872   3
  -5  -3   2 105.254 15.9769   3
  -5  -3   1 506.830 79.4067   4
   5  -3  -1 561.675 59.5207   2
   5  -3  -1 491.704 44.2054   3
   5  -3  -1 530.922 60.0655   2
  -5  -3   0 1195.29 118.564   4
   5  -3   0 1075.65 74.3264   2
   5  -3   0 1167.79 63.5642   3
   5  -3   0 1180.77 82.0845   2
   5  -3   1 666.863 52.1725   2
  -5  -3  -1 566.040 84.9352   4
   5  -3   1 629.694 45.5314   3
   5  -3   1 760.218 57.7312   2
   5  -3   2 286.732 28.4898   2
  -5  -3  -2 355.277 69.3007   4
   5  -3   2 318.448 29.5029   2
  -5  -3  -3 925.199 112.253   4
   5  -3   8 31.4540 42.6490   1
   5  -3   9-29.1255 48.4244   1
   5  -3  10 424.461 98.8717   1
  -5  -2  14 25.6009 29.6639   3
  -5  -2  13 367.785 81.5608   3
  -5  -2  12 142.609 51.3313   3
  -5  -2  11 52.9082 29.6435   3
  -5  -2  10 599.626 90.7250   3
  -5  -2   9 291.274 64.2492   3
  -5  -2   8 288.940 54.0551   3
  -5  -2   7 269.802 48.1395   3
  -5  -2   6 567.986 63.5742   3
  -5  -2   5 626.530 59.2222   3
  -5  -2   4 66.9468 19.3610   3
   5  -2  -3 55.4822 31.6424   2
  -5  -2   3 41.8045 11.0612   3
   5  -2  -2 1380.57 105.985   2
  -5  -2   1 233.929 60.5427   4
   5  -2  -1 330.499 50.3698   2
  -5  -2   0 557.705 82.6348   4
   5  -2   0 564.606 61.3479   2
  -5  -2  -1 755.152 98.0694   4
   5  -2   1 824.329 66.8093   2
  -5  -2  -2 453.684 79.0370   4
  -5  -2  -2 451.305 64.8255   2
   5  -2   2 544.846 47.3997   2
  -5  -2  -3-53.5905 37.7162   4
  -5  -2  -3-10.6678 25.7803   2
   5  -2   3-3.18460 4.45434   3
   5  -2   3 2.99425 10.5133   2
  -5  -2  -4 406.379 78.5696   4
  -5  -2  -4 379.959 57.4581   2
   5  -2   4 278.573 27.9484   3
  -5  -2  -5 432.132 59.5722   2
   5  -2   5 382.321 39.1882   3
   5  -2   6 264.484 37.7139   3
   5  -2   7 50.6429 45.4213   1
   5  -2   8 475.693 95.6426   1
   5  -2   9-3.22654 36.4500   1
   5  -2  10 156.840 68.1348   1
  -5  -1  14-12.2073 29.7833   3
  -5  -1  13 44.0040 35.8273   3
  -5  -1  12 10.3485 30.6361   3
  -5  -1  11 804.056 107.633   3
  -5  -1  10 485.026 80.5006   3
  -5  -1   9 560.914 80.9894   3
  -5  -1   8 2231.59 144.025   3
  -5  -1   7 429.595 58.1182   3
  -5  -1   6 58.8555 21.4752   3
   5  -1  -5 490.132 78.1206   2
  -5  -1   5 498.886 48.4335   3
   5  -1  -4 1331.18 119.523   2
   5  -1  -3 415.502 66.5290   2
   5  -1  -2 1546.91 115.369   2
  -5  -1   1 1037.32 113.952   4
   5  -1  -1 1072.07 91.6210   2
  -5  -1   0 129.056 46.8118   4
   5  -1   0 94.6522 26.1197   2
  -5  -1  -1 123.243 40.7757   4
   5  -1   1 242.012 42.6388   2
  -5  -1  -2 1270.30 130.379   4
   5  -1   2 1205.40 81.9004   2
  -5  -1  -3 1055.35 121.362   4
   5  -1   3 1041.31 70.2456   2
   5  -1   4 165.251 26.8991   2
   5  -1   4 41.6658 34.1001   1
  -5  -1  -4 171.588 59.8835   4
  -5  -1  -4 114.892 29.8720   2
   5  -1   5 279.580 30.7147   2
   5  -1   5 292.552 70.8174   1
  -5  -1  -5 320.262 48.8371   2
   5  -1   6 848.975 116.894   1
   5  -1   6 749.848 52.2810   3
   5  -1   7 175.198 63.9975   1
   5  -1   8 83.2174 53.4205   1
   5  -1   9 376.904 92.3918   1
   5  -1  10 738.450 133.592   1
  -5   0  14 65.7952 41.6117   3
  -5   0  13 103.800 57.0669   3
  -5   0  12 623.140 103.542   3
  -5   0  11 200.648 57.1138   3
  -5   0  10 77.5293 36.1446   3
  -5   0   9 412.972 70.8548   3
   5   0  -9 388.493 83.9679   2
   5   0  -8 345.265 80.6749   2
  -5   0   8 231.798 48.5641   3
   5   0  -7-21.5774 13.4167   1
   5   0  -7 43.3308 33.1423   2
  -5   0   7-24.0925 25.2297   3
   5   0  -6 1804.65 150.413   2
   5   0  -5-6.75088 29.9630   2
   5   0  -4 7.84477 22.5911   2
   5   0  -3 341.294 60.7454   2
   5   0  -2 92.2036 35.3387   2
  -5   0   1 45.4035 36.3830   4
   5   0  -1 61.0323 35.0143   2
  -5   0   0 458.869 76.3623   4
   5   0   0 395.373 64.1999   1
   5   0   0 486.629 68.3860   2
  -5   0  -1 1204.42 120.799   4
   5   0   1 1270.64 116.876   1
   5   0   1 1386.79 100.131   2
  -5   0  -2 727.431 100.439   4
   5   0   2 672.862 88.9809   1
   5   0   2 858.226 77.3830   2
  -5   0  -3-22.3280 30.6772   4
   5   0   3 37.0602 38.0449   1
   5   0   3 46.9162 23.8579   2
  -5   0  -4 3199.67 214.849   4
   5   0   4 2919.82 201.690   1
   5   0   4 2957.94 131.245   2
   5   0   5 928.456 120.399   1
   5   0   5 774.453 63.6772   2
   5   0   6 156.884 29.5217   2
   5   0   6 64.2978 49.7752   1
   5   0   7 332.283 86.0934   1
   5   0   8 545.831 107.569   1
   5   0   9 142.214 61.4372   1
   5   0  10 933.987 150.708   1
   5   1 -12 119.321 53.3082   2
   5   1 -11 638.018 111.421   2
   5   1 -10 317.521 76.8783   2
   5   1  -9 433.895 90.8549   2
   5   1  -8 1828.36 165.263   2
   5   1  -7 413.454 79.3819   2
   5   1  -6 59.3438 33.2170   2
   5   1  -5 298.518 65.9557   2
   5   1  -5 429.327 42.9463   1
   5   1  -4 1668.55 95.0969   1
   5   1  -4 1328.36 124.496   2
   5   1  -3 378.188 68.1649   2
   5   1  -3 362.452 49.4436   1
   5   1  -2 1531.52 106.574   1
   5   1  -2 1468.20 123.934   2
  -5   1   1 1175.83 121.885   4
   5   1  -1 1150.18 99.7610   1
   5   1  -1 1226.53 111.230   2
   5   1   0 78.5449 31.5595   2
   5   1   0 26.8588 26.2448   1
  -5   1  -1 166.473 50.9968   4
   5   1   1 200.571 44.0189   2
   5   1   1 110.262 42.7188   1
  -5   1  -2 1341.16 133.102   4
   5   1   2 1424.55 127.824   1
   5   1   2 1360.88 104.905   2
  -5   1  -3 1030.16 120.270   4
   5   1   3 1052.43 120.242   1
   5   1   3 968.763 85.5380   2
   5   1   4 223.652 45.0530   2
  -5   1  -4 207.644 66.8362   4
   5   1   4 208.238 61.5461   1
   5   1   5 379.217 53.8190   2
   5   1   5 476.571 91.1488   1
   5   1   6 851.264 77.5782   2
   5   1   6 946.416 127.328   1
   5   1   7 475.539 96.4445   1
   5   1   7 341.938 48.9925   2
   5   1   8 223.606 73.8660   1
   5   1   9 260.695 85.7817   1
   5   1  10 783.036 138.886   1
   5   2 -11 56.5402 45.7787   2
   5   2 -10 481.940 95.9621   2
   5   2  -9 410.149 89.0434   2
   5   2  -8 231.910 69.5698   2
   5   2  -7 167.626 53.4314   2
   5   2  -6 634.065 95.7150   2
   5   2  -5 526.699 86.2672   2
   5   2  -4 116.948 45.8998   2
   5   2  -3 31.3834 32.0144   2
   5   2  -2 1468.58 129.153   2
   5   2  -1 287.673 55.9779   1
  -5   2   1 153.338 50.7235   4
   5   2  -1 266.200 59.0768   2
  -5   2   0 617.342 86.2076   4
   5   2   0 641.265 80.3434   2
   5   2   0 664.639 81.1886   1
  -5   2  -1 745.593 97.5543   4
   5   2   1 794.130 87.9554   2
   5   2   1 851.810 98.1478   1
  -5   2  -2 470.003 82.5663   4
   5   2   2 463.099 77.4739   1
   5   2   2 472.940 68.2573   2
  -5   2  -3-12.9497 27.4825   4
   5   2   3 28.9070 41.0655   1
   5   2   3-2.54413 22.2798   2
   5   2   4 385.703 60.8581   2
   5   2   4 387.729 80.1708   1
  -5   2  -4 415.335 81.2755   4
   5   2   5 462.038 68.0244   2
   5   2   5 765.830 109.836   1
   5   2   6 288.941 73.1441   1
   5   2   6 275.147 57.1243   2
   5   2   7 148.369 40.3298   2
   5   2   8 462.221 68.4873   2
   5   3 -11 318.173 80.4980   2
   5   3 -10 325.414 80.1243   2
   5   3  -9 158.763 58.0221   2
   5   3  -8 277.621 69.7155   2
   5   3  -7 317.560 73.7262   2
   5   3  -6 439.284 79.4455   2
   5   3  -5 58.4745 37.1059   2
   5   3  -4 1155.35 126.405   2
   5   3  -3 272.273 64.9548   2
   5   3  -2 136.337 45.1203   2
  -5   3   1 366.233 69.8225   4
   5   3  -1 572.667 83.7948   2
  -5   3   0 1114.86 114.428   4
   5   3   0 1132.65 110.400   2
  -5   3  -1 738.998 95.9347   4
   5   3   1 707.529 87.3239   2
  -5   3  -2 282.404 62.9512   4
   5   3   2 424.327 73.1640   2
  -5   3  -3 994.736 120.944   4
   5   3   3 803.804 91.6208   2
   5   3   4 153.584 44.7122   2
   5   3   5 862.252 96.7994   2
   5   3   6 300.330 60.0053   2
   5   3   7 210.070 46.2790   2
   5   3   8 61.2191 27.3576   2
   5   3   9 118.753 40.9798   2
   5   4 -10 42.8727 42.1767   2
   5   4  -9 932.697 131.281   2
   5   4  -8 69.6766 43.3723   2
   5   4  -7 191.808 58.3236   2
   5   4  -6 946.043 124.850   2
   5   4  -5 176.228 55.5509   2
   5   4  -4 74.8888 48.5177   2
   5   4  -3 468.458 82.9488   2
  -5   4   2 913.156 105.770   4
   5   4  -2 832.122 105.515   2
  -5   4   1 44.9104 31.3992   4
   5   4  -1 43.9162 33.1614   2
  -5   4   0 736.173 92.3555   4
   5   4   0 975.868 108.658   2
  -5   4  -1 417.835 73.0998   4
   5   4   1 399.928 71.1610   2
  -5   4  -2 30.9119 36.9416   4
   5   4   2 25.5039 24.7515   2
  -5   4  -3 60.1474 35.7527   4
   5   4   3 20.8895 30.8863   2
   5   4   4 99.7096 46.5190   2
   5   4   5 606.464 89.0187   2
   5   4   6 20.6119 27.3059   2
   5   4   7 166.611 52.3708   2
   5   4   8 334.665 67.1433   2
   5   4   9 98.1882 40.8055   2
   5   4  10 48.7299 35.3307   2
   5   5 -10 116.080 55.2534   2
   5   5  -9 106.598 51.4412   2
   5   5  -8 682.314 114.556   2
   5   5  -7 560.622 101.892   2
   5   5  -6 79.2955 45.0787   2
   5   5  -5 664.044 106.251   2
   5   5  -4 193.346 56.7594   2
   5   5  -3 585.094 97.2603   2
  -5   5   2 708.295 92.2176   4
   5   5  -2 891.448 112.530   2
  -5   5   1 689.550 88.0188   4
   5   5  -1 765.454 100.376   2
  -5   5   0 403.462 72.6639   4
   5   5   0 540.439 90.2939   2
  -5   5  -1 336.477 66.2581   4
   5   5   1 374.267 75.7129   2
  -5   5  -2 33.4398 30.3938   4
   5   5   2 45.6173 35.6245   2
   5   5   3 1475.31 140.164   2
   5   5   4 98.4546 44.0913   2
   5   5   5 59.5227 36.6512   2
   5   5   6 509.918 88.3086   2
   5   5   7 256.036 63.5107   2
   5   5   8 123.949 49.3240   2
   5   5   9 326.157 70.7010   2
   5   5  10 141.492 49.7432   2
   5   6  -8 58.2997 36.7340   2
   5   6  -7 139.090 62.5400   2
   5   6  -6 358.310 81.0164   2
   5   6  -5 363.929 85.2529   2
   5   6  -4 1.38085 44.0645   2
  -5   6   3 202.294 55.3720   4
   5   6  -3 315.320 74.9442   2
  -5   6   2 120.518 43.0945   4
   5   6  -2 267.706 68.5830   2
  -5   6   1 2.20977 31.3027   4
   5   6  -1-28.0495 32.2593   2
  -5   6   0 74.7687 33.5692   4
   5   6   0 63.7669 40.4656   2
  -5   6  -1 686.563 91.6626   4
   5   6   1 757.087 106.446   2
  -5   6  -2 232.333 62.1847   4
   5   6   2 344.706 71.7981   2
   5   6   3 224.828 67.1051   2
   5   6   4 209.300 62.0027   2
   5   6   5 387.452 82.1279   2
   5   6   6 61.4662 41.8061   2
   5   6   7 139.754 56.7649   2
   5   6   8 321.536 74.8862   2
   5   6   9-44.6531 36.0561   2
   5   6  10 144.114 50.3102   2
   5   7  -7 475.827 101.434   2
   5   7  -6 24.7044 40.7512   2
   5   7  -5 70.2209 47.5227   2
  -5   7   4 780.406 102.991   4
   5   7  -4 816.256 122.649   2
  -5   7   3 70.4824 35.3627   4
   5   7  -3 73.8849 47.4857   2
  -5   7   2 94.7096 35.6669   4
   5   7  -2 138.639 52.8761   2
  -5   7   1 983.494 104.549   4
   5   7  -1 1093.77 133.196   2
  -5   7   0 213.943 47.9501   4
   5   7   0 293.952 71.8737   2
  -5   7  -1 24.9069 29.0288   4
   5   7   1 42.3104 45.6685   2
   5   7   2 422.010 85.3231   2
   5   7   3 439.106 87.5185   2
   5   7   4 168.958 56.8998   2
   5   7   5 115.365 51.9871   2
   5   7   6 228.960 69.5300   2
   5   7   7 45.4341 34.0285   2
   5   7   8 93.7475 43.3852   2
   5   8  -4 73.1542 49.0457   2
   5   8  -3 272.122 73.6707   2
   5   8  -2 383.820 85.5486   2
   5   8  -1 147.115 59.1200   2
   5   8   0 59.1083 38.4237   2
   5   8   1 553.818 98.5525   2
   5   8   2 41.9573 37.7033   2
   5   8   3 18.2594 30.5441   2
   5   8   4 353.785 84.2796   2
  -6  -7   5 68.2678 37.6231   4
  -6  -7   4 17.2552 29.9356   4
  -6  -7   3 267.807 67.3835   4
  -6  -7   2-8.89260 30.8497   4
  -6  -7   1-13.3373 30.9356   4
  -6  -7   0 532.981 89.3801   4
  -6  -7  -1-108.975 44.6037   4
  -6  -6   4 119.320 49.0214   4
  -6  -6   3 7.68645 32.6095   4
  -6  -6   2 148.072 48.8270   4
  -6  -6   1 61.8617 41.7704   4
  -6  -6   0 87.1349 40.9999   4
  -6  -6  -1 160.009 53.2101   4
  -6  -6  -2 541.636 95.3412   4
  -6  -5   3 198.230 69.9408   4
  -6  -5   2 94.9200 42.6008   4
  -6  -5   1 255.585 64.8833   4
  -6  -5   0 308.605 74.5410   4
  -6  -5  -1 159.925 53.2670   4
  -6  -5  -2 17.8984 38.1258   4
  -6  -5  -3 145.655 57.1875   4
   6  -4  -4 180.125 50.8219   2
  -6  -4   3 51.4722 38.0703   4
   6  -4  -3 40.6511 29.3454   2
  -6  -4   2 597.720 94.4341   4
   6  -4  -2 710.972 79.0519   2
  -6  -4   1 586.645 95.7796   4
  -6  -4   0 26.6253 30.7925   4
  -6  -4  -1 288.594 70.1581   4
  -6  -4  -2 299.338 69.8321   4
  -6  -4  -3 37.3437 42.6028   4
   6  -3  -5 80.1763 39.0542   2
   6  -3  -4 67.1173 35.0502   2
   6  -3  -3 1014.99 101.297   2
  -6  -3   2 152.100 48.7650   4
   6  -3  -2 152.783 40.1579   2
  -6  -3   1 22.8036 34.8446   4
   6  -3  -1 49.3323 26.1753   2
  -6  -3   0 520.455 86.3335   4
   6  -3   0 631.299 63.7632   2
  -6  -3  -1 250.696 65.0573   4
  -6  -3  -2 78.7161 42.8976   4
  -6  -3  -3 765.219 115.845   4
   6  -3   7 283.432 84.4706   1
   6  -2  -8 94.6671 48.9369   2
   6  -2  -7 232.266 63.9463   2
   6  -2  -6 312.717 67.3659   2
   6  -2  -5 456.987 77.8509   2
   6  -2  -4 159.160 46.7585   2
   6  -2  -3 115.261 41.9310   2
  -6  -2   2 407.338 76.7349   4
   6  -2  -2 426.321 65.6244   2
  -6  -2   1 273.870 69.4569   4
   6  -2  -1 327.145 55.5190   2
  -6  -2   0 63.3085 43.8724   4
   6  -2   0 118.247 36.6207   2
  -6  -2  -1 440.144 83.5042   4
   6  -2   1 461.611 53.5811   2
  -6  -2  -2 46.4748 37.4246   4
  -6  -2  -3 258.285 71.3977   4
  -6  -2  -4 24.2699 44.8126   4
   6  -2   5 291.940 78.6074   1
   6  -2   6 146.876 65.6199   1
   6  -2   7 103.967 52.9409   1
   6  -1 -10 390.345 90.0510   2
   6  -1  -9 143.164 58.5761   2
   6  -1  -8 154.420 56.5698   2
   6  -1  -7 952.834 118.369   2
   6  -1  -6 131.800 49.5376   2
   6  -1  -5 391.258 73.7028   2
   6  -1  -4 708.844 94.0146   2
   6  -1  -3 599.940 83.9920   2
  -6  -1   2 112.545 45.2432   4
   6  -1  -2 168.207 45.4208   2
  -6  -1   1 1160.39 127.338   4
   6  -1  -1 1047.89 102.318   2
  -6  -1   0 359.593 76.7661   4
   6  -1   0 465.832 66.8599   2
  -6  -1  -1 15.1455 27.0511   4
   6  -1   1 42.4610 16.7753   2
  -6  -1  -2 86.7364 40.0656   4
   6  -1   2 96.0388 42.4522   1
   6  -1   2 72.1814 26.4202   2
   6  -1   3 584.116 95.4714   1
  -6  -1  -3 754.421 112.913   4
   6  -1   4 187.843 64.5850   1
  -6  -1  -4 365.972 83.6231   4
   6  -1   5 24.7045 37.6417   1
   6  -1   6 85.2711 48.6806   1
   6  -1   7 257.694 82.5376   1
   6  -1   8 175.534 74.8969   1
   6   0 -10 71.1936 47.5272   2
   6   0  -9 252.672 69.2159   2
   6   0  -8 165.846 55.8115   2
   6   0  -7 103.412 43.8762   2
   6   0  -6 242.744 63.2606   2
   6   0  -5 1056.31 120.883   2
   6   0  -4 31.7111 23.2972   1
   6   0  -4 80.7240 42.2488   2
   6   0  -3 33.4750 19.9692   1
   6   0  -3 51.4242 27.9899   2
  -6   0   2 85.7135 43.5182   4
   6   0  -2 106.695 37.7323   1
   6   0  -2 81.6953 37.4906   2
  -6   0   1 47.8148 34.8985   4
   6   0  -1 22.0939 25.3892   1
   6   0  -1-4.29743 26.7779   2
  -6   0   0-3.74860 30.3887   4
   6   0   0 23.9347 31.5541   1
   6   0   0 20.5628 25.6320   2
  -6   0  -1 574.547 93.7076   4
   6   0   1 293.910 65.9407   1
   6   0   1 436.874 63.4862   2
  -6   0  -2 795.315 111.234   4
   6   0   2 594.291 93.7343   1
   6   0   2 735.766 75.7699   2
  -6   0  -3 123.915 51.2041   4
   6   0   3 77.6225 45.0550   1
   6   0   3 108.527 33.1448   2
  -6   0  -4 55.5684 46.8858   4
   6   0   4 11.3714 34.4037   1
   6   0   5 854.146 126.865   1
   6   0   6 243.909 78.7912   1
   6   0   7 5.21551 52.7321   1
   6   0   8 581.900 122.467   1
   6   1 -10 427.924 96.6702   2
   6   1  -9 117.524 56.7810   2
   6   1  -8 57.9824 43.7923   2
   6   1  -7 1075.30 131.238   2
   6   1  -6 128.233 49.2378   2
   6   1  -5 456.187 80.9837   2
   6   1  -4 661.717 95.3627   2
   6   1  -4 596.731 66.8353   1
   6   1  -3 627.908 91.5281   2
   6   1  -3 598.456 74.1319   1
  -6   1   2 85.6029 43.7154   4
   6   1  -2 74.4741 33.5925   1
   6   1  -2 23.6809 26.5455   2
  -6   1   1 1093.00 126.550   4
   6   1  -1 1141.63 110.869   1
   6   1  -1 1074.22 111.041   2
  -6   1   0 534.872 88.5083   4
   6   1   0 489.577 77.6076   1
   6   1   0 502.397 74.0097   2
  -6   1  -1 68.1188 41.7496   4
   6   1   1 75.7320 48.8940   1
   6   1   1 75.3660 33.6021   2
  -6   1  -2 129.298 55.6445   4
   6   1   2 121.496 52.8182   1
   6   1   2 87.3684 33.6109   2
  -6   1  -3 949.808 125.566   4
   6   1   3 852.062 117.754   1
   6   1   3 880.238 87.5458   2
   6   1   4 394.303 58.8379   2
  -6   1  -4 458.605 90.6285   4
   6   1   4 390.383 87.2725   1
   6   1   5 45.1417 59.6895   1
   6   1   6 195.721 74.1917   1
   6   1   7 402.280 98.5192   1
   6   1   8 44.3585 65.3029   1
   6   2  -9 247.928 70.8592   2
   6   2  -8 94.3512 51.7305   2
   6   2  -7 158.551 54.3587   2
   6   2  -6 304.681 80.8162   2
   6   2  -5 585.823 97.7878   2
   6   2  -4 217.147 56.4887   2
   6   2  -3 63.6613 43.1926   2
  -6   2   2 413.152 77.7295   4
   6   2  -2 377.201 73.6522   2
  -6   2   1 297.905 66.1108   4
   6   2  -1 261.667 62.5723   2
  -6   2   0 21.3093 30.0017   4
   6   2   0 1.47226 34.9091   2
  -6   2  -1 721.625 105.270   4
   6   2   1 621.343 84.0523   2
   6   2   1 678.795 93.9830   1
  -6   2  -2 115.274 44.8358   4
   6   2   2 201.884 59.3439   1
   6   2   2 80.3114 33.4155   2
  -6   2  -3 170.679 61.9910   4
   6   2   3 153.757 43.1071   2
   6   2   3 263.609 78.0159   1
   6   2   4 102.224 35.3043   2
  -6   2  -4 115.733 53.5335   4
   6   2   4 208.720 65.8426   1
   6   2   5 284.344 53.8613   2
   6   2   5 385.717 88.0610   1
   6   3  -9 224.034 72.0048   2
   6   3  -8 238.422 67.8057   2
   6   3  -7 748.175 115.987   2
   6   3  -6 226.504 65.4575   2
   6   3  -5 210.757 58.4996   2
   6   3  -4 58.1362 29.8558   2
  -6   3   3 782.778 113.141   4
   6   3  -3 1066.10 125.690   2
  -6   3   2 195.346 58.8847   4
   6   3  -2 176.596 53.4155   2
  -6   3   1 43.1067 38.1252   4
   6   3  -1 8.33443 28.0416   2
  -6   3   0 589.405 93.9578   4
   6   3   0 525.829 87.5496   2
  -6   3  -1 299.635 73.5851   4
   6   3   1 273.937 60.2763   2
  -6   3  -2-5.62946 34.4164   4
   6   3   2 46.8450 30.3535   2
  -6   3  -3 793.753 120.888   4
   6   3   3 734.076 94.0722   2
   6   3   4 275.311 58.9648   2
   6   3   5 135.654 50.7417   2
   6   3   6 280.983 56.7493   2
   6   4  -8 186.888 62.9983   2
   6   4  -7 57.7268 38.8229   2
   6   4  -6 352.045 86.5888   2
   6   4  -5 285.571 76.4150   2
   6   4  -4 173.011 61.9706   2
  -6   4   3-29.6217 40.1683   4
   6   4  -3-28.3109 35.2610   2
  -6   4   2 775.490 107.316   4
   6   4  -2 618.797 99.5687   2
  -6   4   1 570.343 89.8579   4
   6   4  -1 675.899 99.1507   2
  -6   4   0 104.295 36.4943   4
   6   4   0 40.3303 30.2725   2
  -6   4  -1 285.720 68.0190   4
   6   4   1 339.269 71.9000   2
  -6   4  -2 288.705 70.7409   4
   6   4   2 393.144 74.2515   2
  -6   4  -3-70.6630 44.5545   4
   6   4   3 52.6881 37.0648   2
   6   4   4 24.9345 31.8976   2
   6   4   5 852.154 107.610   2
   6   4   6 93.0880 40.0605   2
   6   4   7-6.70542 22.0774   2
   6   5  -7 692.460 121.884   2
   6   5  -6 297.052 81.4379   2
   6   5  -5 224.023 67.2911   2
  -6   5   4 447.288 87.8870   4
   6   5  -4 316.250 80.1897   2
  -6   5   3 147.018 55.5398   4
   6   5  -3 229.550 64.8890   2
  -6   5   2 66.5959 33.2081   4
   6   5  -2 121.595 50.1078   2
  -6   5   1 310.185 68.6403   4
   6   5  -1 324.444 77.2343   2
  -6   5   0 419.159 79.2781   4
   6   5   0 389.449 82.8210   2
  -6   5  -1 85.8125 42.7653   4
   6   5   1 134.845 51.9442   2
  -6   5  -2 82.7668 44.2854   4
   6   5   2 85.6788 45.0101   2
   6   5   3 196.921 58.7477   2
   6   5   4 728.027 106.044   2
   6   5   5 111.744 47.6674   2
   6   5   6 258.611 63.8395   2
   6   5   7 397.021 77.5284   2
   6   6  -5 81.7252 49.0517   2
  -6   6   4 105.096 46.6907   4
   6   6  -4 56.3364 43.2000   2
  -6   6   3 24.6744 28.0394   4
   6   6  -3 215.846 69.1281   2
  -6   6   2 132.585 49.4168   4
   6   6  -2 194.063 61.5674   2
  -6   6   1 58.2464 33.3391   4
   6   6  -1 141.857 56.8442   2
  -6   6   0 10.8648 29.0652   4
   6   6   0-0.35007 29.3960   2
  -6   6  -1 221.543 61.7168   4
   6   6   1 128.417 52.8176   2
  -6   6  -2 574.408 95.9993   4
   6   6   2 629.520 101.846   2
   6   6   3 37.2342 31.2373   2
   6   6   4 158.134 56.1880   2
   6   6   5 171.973 53.1269   2
   6   6   6 114.772 52.5101   2
   6   6   7 25.4769 27.3590   2
  -6   7   5 71.6059 37.1475   4
  -6   7   4 125.778 48.2637   4
  -6   7   3 239.563 56.7959   4
  -6   7   2 70.6106 38.5004   4
  -6   7   1-56.6720 35.9356   4
   6   7  -1-78.4742 46.9804   2
  -6   7   0 378.664 73.8067   4
   6   7   0 581.614 99.0907   2
  -6   7  -1 29.7575 25.1927   4
   6   7   1 107.938 50.6745   2
   6   7   2 29.3007 34.8583   2
   6   7   3 148.092 56.1210   2
   7  -4  -7 202.938 57.6719   2
  -7  -4   3 21.4513 43.1561   4
  -7  -4   2 160.849 58.2230   4
  -7  -4   1 224.012 64.0075   4
  -7  -4   0 182.122 60.1196   4
  -7  -4  -1 199.286 62.1581   4
   7  -3  -8 254.993 63.8860   2
   7  -3  -7 253.588 62.5912   2
   7  -3  -6 251.274 64.1422   2
   7  -3  -5 201.714 54.0298   2
  -7  -3   4-35.9314 45.0244   4
  -7  -3   3-32.2374 41.3882   4
  -7  -3   2 319.189 78.3132   4
  -7  -3   1 35.6590 39.6808   4
  -7  -3   0-21.3090 31.2017   4
  -7  -3  -1 312.402 83.5254   4
  -7  -3  -2 19.7431 35.9021   4
   7  -2  -8 164.520 58.2539   2
   7  -2  -7 306.694 68.6727   2
   7  -2  -6-17.4858 38.5866   2
   7  -2  -5 69.7226 38.6661   2
  -7  -2   4 214.150 72.0322   4
   7  -2  -4 308.532 64.4745   2
  -7  -2   3 62.0044 41.3705   4
   7  -2  -3 169.344 48.9159   2
  -7  -2   2 81.4442 51.1305   4
  -7  -2   1 282.466 73.5959   4
  -7  -2   0 45.7968 41.5120   4
  -7  -2  -1-44.2352 40.6859   4
  -7  -2  -2 166.712 63.8607   4
   7  -2   2 122.284 50.9141   1
   7  -2   3-35.6841 43.6650   1
   7  -2   4 31.5052 45.9937   1
   7  -1  -8 92.0473 46.0085   2
   7  -1  -7 199.962 56.5982   2
   7  -1  -6 164.527 55.5466   2
   7  -1  -5 152.667 46.7650   2
  -7  -1   4 102.691 56.6189   4
   7  -1  -4 71.1251 39.6202   2
  -7  -1   3 147.643 57.8733   4
   7  -1  -3 370.855 73.2216   2
   7  -1  -2 282.113 60.8916   1
  -7  -1   2 556.303 94.4209   4
   7  -1  -2 432.044 72.1777   2
   7  -1  -1 82.9723 43.5855   1
  -7  -1   1 82.4890 51.6556   4
   7  -1   0 305.373 71.2674   1
  -7  -1   0 212.776 62.9279   4
  -7  -1  -1 236.479 68.9779   4
   7  -1   1 241.523 68.3224   1
  -7  -1  -2 103.924 57.0844   4
   7  -1   2 91.6898 50.1163   1
  -7  -1  -3 221.813 75.5315   4
   7  -1   3 149.939 65.7747   1
   7  -1   4 89.9782 44.1580   1
   7  -1   5 411.035 97.2570   1
   7   0  -7 136.081 50.9818   2
   7   0  -6-19.5474 29.1732   2
   7   0  -5 276.310 69.1643   2
  -7   0   4 95.6466 49.8085   4
   7   0  -4 244.267 62.3269   2
  -7   0   3 100.976 59.1423   4
   7   0  -3 96.9925 40.2213   2
  -7   0   2 126.002 56.6897   4
   7   0  -2 143.654 44.4166   2
  -7   0   1 185.222 56.5661   4
   7   0  -1 108.629 40.0674   2
   7   0  -1 133.551 54.1180   1
  -7   0   0 445.564 91.4375   4
   7   0   0 608.311 95.8579   1
  -7   0  -1-16.2631 32.5847   4
   7   0   1 12.9960 30.5467   1
   7   0   2 103.902 51.8199   1
  -7   0  -2 51.3768 47.2541   4
   7   0   3 533.193 103.875   1
  -7   0  -3 581.096 110.280   4
   7   0   4 40.7463 41.3854   1
   7   0   5 30.6150 42.1546   1
   7   1  -7 150.532 57.9090   2
   7   1  -6 157.058 50.8211   2
   7   1  -5 140.036 52.6958   2
  -7   1   4 51.6924 40.4697   4
   7   1  -4 110.493 49.0243   2
  -7   1   3 264.724 72.9197   4
   7   1  -3 289.357 71.1519   2
  -7   1   2 465.956 93.2654   4
   7   1  -2 536.136 89.5784   2
   7   1  -1 124.985 49.1494   1
  -7   1   1 222.192 60.1170   4
   7   1  -1 66.6832 28.9742   2
  -7   1   0 252.047 68.0677   4
   7   1   0 318.461 62.3510   2
   7   1   0 319.790 71.6387   1
   7   1   1 395.502 83.0687   1
  -7   1  -1 263.954 69.3975   4
   7   1   2 172.290 66.5670   1
  -7   1  -2-37.9763 37.6809   4
  -7   1  -3 59.7223 56.6645   4
   7   1   3 273.859 72.6432   1
   7   1   4 214.108 74.4901   1
   7   1   5 353.992 93.4354   1
   7   2  -6 90.6767 44.5769   2
   7   2  -5 28.1684 33.1050   2
  -7   2   4 333.578 86.4753   4
   7   2  -4 349.321 79.8395   2
  -7   2   3 90.1017 49.0726   4
   7   2  -3 50.7641 37.2156   2
  -7   2   2 80.1967 52.0752   4
   7   2  -2 235.474 62.0560   2
  -7   2   1 188.629 58.2294   4
   7   2  -1 167.626 48.9295   2
  -7   2   0 105.199 47.4183   4
   7   2   0 42.3372 28.6364   2
  -7   2  -1-12.1435 28.0058   4
   7   2   1 15.1647 24.8331   2
  -7   2  -2 154.224 53.1988   4
   7   3  -5 142.724 58.0473   2
  -7   3   4-0.21009 34.1335   4
   7   3  -4-28.7007 31.6222   2
  -7   3   3 31.1858 41.2039   4
   7   3  -3 18.4796 31.5216   2
  -7   3   2 293.131 78.3717   4
   7   3  -2 244.135 62.7868   2
  -7   3   1 43.3624 37.5207   4
   7   3  -1 147.512 51.8024   2
  -7   3   0 57.9467 34.1245   4
   7   3   0 38.1111 26.7152   2
  -7   3  -1 317.582 77.1400   4
   7   3   1 376.606 71.1873   2
  -7   3  -2-35.7999 37.9715   4
   7   3   2-16.3392 22.1819   2
   7   4  -4 151.573 58.8086   2
  -7   4   3 93.2992 48.7341   4
   7   4  -3 121.103 55.7174   2
  -7   4   2 122.789 50.3824   4
   7   4  -2 148.642 54.5938   2
  -7   4   1 252.682 68.9037   4
   7   4  -1 83.4216 40.4408   2
  -7   4   0 33.2335 34.3128   4
   7   4   0 221.189 65.5254   2
  -7   4  -1-72.7794 45.0029   4
   7   4   1 43.6433 36.5767   2
   7   4   2 44.9937 30.8004   2
   7   4   3 492.826 82.1961   2
  -7   5   2 28.3629 37.4077   4
  -7   5   1 78.9265 36.1233   4
   7   5  -1 30.5318 41.2297   2
  -7   5   0 91.4664 52.5496   4
   7   5   0 268.972 71.2611   2
   7   5   1-18.4830 28.4821   2
   7   5   2 63.0913 40.6560   2
   7   5   3 48.5949 37.6135   2
   0   0   0    0.00    0.00   0
TITL ke11518-606 in P2(1)
REM P2(1) (#4 in standard setting)
CELL 0.71073   5.785408   9.297368  12.644285  90.0000  94.2174  90.0000
ZERR    2.00   0.000666   0.001073   0.001214   0.0000   0.0096   0.0000
LATT -1
SYMM -x, y+1/2,-z
SFAC C H N O Cl Fe
UNIT 34.00 24.00 2.00 2.00 2.00 2.00
TREF
HKLF 4
END
;
_shelx_hkl_checksum              31258
_shelx_res_file
;
TITL ke11518-606_a.res in P2(1)
    shelx.res
    created by SHELXL-2018/3 at 09:54:44 on 21-Jun-2019
CELL  0.71073   5.7854   9.2974  12.6443   90.000   94.217   90.000
ZERR     2.00   0.0007   0.0011   0.0012    0.000    0.010    0.000
LATT  -1
SYMM  - X, 1/2 + Y, - Z
SFAC  C    H    CL   FE   N    O
UNIT  34 24 2 2 2 2
MERG   2
SHEL 100 0.83
FMAP   2
PLAN    5
SIZE     0.036   0.057   0.180
ACTA
BOND
BOND   $H
CONF
LIST   4
WPDB  -2
L.S.  50
TEMP  -143.00
WGHT    0.054900
FVAR       1.47185
C1    1    0.384740    0.865169    0.387122    11.00000    0.01898    0.02011 =
         0.02556   -0.00115    0.00566    0.00135
AFIX  43
H1    2    0.247272    0.888213    0.344774    11.00000   -1.20000
AFIX   0
C2    1    0.405773    0.761218    0.468697    11.00000    0.02618    0.03129 =
         0.01542   -0.00493    0.01438   -0.00002
AFIX  43
H2    2    0.285423    0.701615    0.491262    11.00000   -1.20000
AFIX   0
C3    1    0.640718    0.762335    0.510818    11.00000    0.03545    0.03157 =
         0.01141    0.00153    0.00109    0.00507
AFIX  43
H3    2    0.703353    0.702801    0.566885    11.00000   -1.20000
AFIX   0
C4    1    0.766366    0.865347    0.456592    11.00000    0.02144    0.03064 =
         0.02168   -0.00240    0.00055   -0.00279
AFIX  43
H4    2    0.926355    0.887431    0.469155    11.00000   -1.20000
AFIX   0
C5    1    0.607880    0.929649    0.379675    11.00000    0.02501    0.01562 =
         0.02400   -0.00405    0.00637   -0.00034
C6    1    0.666213    1.036184    0.302640    11.00000    0.02258    0.02795 =
         0.02212   -0.00714   -0.00084    0.00229
C7    1    0.604930    1.165750    0.160146    11.00000    0.02636    0.01852 =
         0.02014   -0.00509    0.00964   -0.00066
C8    1    0.823832    1.192294    0.208335    11.00000    0.02172    0.01925 =
         0.01959   -0.00196    0.00421    0.00183
C9    1    0.967330    1.292105    0.162402    11.00000    0.02204    0.02740 =
         0.02208   -0.00802    0.00646    0.00278
AFIX  43
H9    2    1.118427    1.313830    0.192706    11.00000   -1.20000
AFIX   0
C10   1    0.876318    1.357000    0.070567    11.00000    0.03122    0.01435 =
         0.02407    0.00116    0.01072   -0.00286
C11   1    0.656891    1.329217    0.022901    11.00000    0.02962    0.03032 =
         0.01444   -0.00055    0.00400    0.00034
AFIX  43
H11   2    0.604232    1.378095   -0.040318    11.00000   -1.20000
AFIX   0
C12   1    0.513776    1.228875    0.068461    11.00000    0.02430    0.02909 =
         0.02268    0.00211   -0.00042    0.00764
AFIX  43
H12   2    0.363378    1.206041    0.037843    11.00000   -1.20000
AFIX   0
C13   1    0.538293    0.519428    0.291331    11.00000    0.02598    0.02685 =
         0.01893   -0.00241   -0.00027   -0.00808
AFIX  43
H13   2    0.413364    0.461252    0.310905    11.00000   -1.20000
AFIX   0
C14   1    0.525712    0.623355    0.210466    11.00000    0.02675    0.03443 =
         0.01955   -0.00802   -0.00287   -0.00224
AFIX  43
H14   2    0.391541    0.647201    0.166087    11.00000   -1.20000
AFIX   0
C15   1    0.748889    0.686727    0.206565    11.00000    0.03445    0.02869 =
         0.01807    0.00111    0.01531   -0.00578
AFIX  43
H15   2    0.790132    0.760485    0.159482    11.00000   -1.20000
AFIX   0
C16   1    0.897823    0.620068    0.285369    11.00000    0.02145    0.02854 =
         0.03338   -0.00885    0.00136    0.00368
AFIX  43
H16   2    1.057646    0.640494    0.300784    11.00000   -1.20000
AFIX   0
C17   1    0.763391    0.515596    0.338046    11.00000    0.03575    0.02753 =
         0.02892    0.00405    0.00418    0.00846
AFIX  43
H17   2    0.818626    0.454729    0.394737    11.00000   -1.20000
AFIX   0
CL1   3    1.045278    1.484120    0.009195    11.00000    0.03605    0.02842 =
         0.03540    0.00456    0.01221   -0.00301
FE1   4    0.626939    0.715532    0.353164    11.00000    0.02046    0.02237 =
         0.01564   -0.00011    0.00216   -0.00043
N1    5    0.857788    1.108389    0.300848    11.00000    0.02152    0.02567 =
         0.02172   -0.00060    0.00276   -0.00577
O1    6    0.500719    1.064657    0.220982    11.00000    0.02105    0.02673 =
         0.02259    0.00118    0.00065   -0.00146
HKLF 4
REM  ke11518-606_a.res in P2(1)
REM wR2 = 0.1142, GooF = S = 1.077, Restrained GooF = 1.076 for all data
REM R1 = 0.0467 for 1782 Fo > 4sig(Fo) and 0.0566 for all 2001 data
REM 190 parameters refined using 1 restraints
END
WGHT      0.0549      0.0000
REM Highest difference peak  1.022,  deepest hole -0.494,  1-sigma level  0.115
Q1    1   0.7600  0.7182  0.4036  11.00000  0.05    1.02
Q2    1   0.4969  0.7230  0.3012  11.00000  0.05    0.85
Q3    1   0.6206  0.5976  0.3446  11.00000  0.05    0.78
Q4    1   0.6278  0.8309  0.3530  11.00000  0.05    0.74
Q5    1   1.1993  1.5261  0.0674  11.00000  0.05    0.56
;
_shelx_res_checksum              35926
loop_
_symmetry_equiv_pos_as_xyz
'x, y, z'
'-x, y+1/2, -z'
loop_
_atom_site_type_symbol
_atom_site_label
_atom_site_fract_x
_atom_site_fract_y
_atom_site_fract_z
_atom_site_U_iso_or_equiv
_atom_site_adp_type
_atom_site_calc_flag
_atom_site_occupancy
C C1 0.3847(12) 0.8652(9) 0.3871(7) 0.0214(18) Uani d 1
H H1 0.247272 0.888213 0.344774 0.026 Uiso calc 1
C C2 0.4058(13) 0.7612(9) 0.4687(6) 0.024(2) Uani d 1
H H2 0.285423 0.701615 0.491262 0.028 Uiso calc 1
C C3 0.6407(14) 0.7623(9) 0.5108(7) 0.026(2) Uani d 1
H H3 0.703353 0.702801 0.566885 0.031 Uiso calc 1
C C4 0.7664(13) 0.8653(10) 0.4566(7) 0.0246(19) Uani d 1
H H4 0.926355 0.887431 0.469155 0.03 Uiso calc 1
C C5 0.6079(13) 0.9296(9) 0.3797(7) 0.0213(18) Uani d 1
C C6 0.6662(13) 1.0362(9) 0.3026(7) 0.0243(19) Uani d 1
C C7 0.6049(13) 1.1657(8) 0.1601(6) 0.0213(18) Uani d 1
C C8 0.8238(12) 1.1923(9) 0.2083(6) 0.0201(18) Uani d 1
C C9 0.9673(13) 1.2921(8) 0.1624(7) 0.0236(19) Uani d 1
H H9 1.118427 1.31383 0.192706 0.028 Uiso calc 1
C C10 0.8763(13) 1.3570(9) 0.0706(7) 0.0228(18) Uani d 1
C C11 0.6569(13) 1.3292(9) 0.0229(6) 0.0247(19) Uani d 1
H H11 0.604232 1.378095 -0.040318 0.03 Uiso calc 1
C C12 0.5138(12) 1.2289(11) 0.0685(6) 0.0255(18) Uani d 1
H H12 0.363378 1.206041 0.037843 0.031 Uiso calc 1
C C13 0.5383(13) 0.5194(9) 0.2913(6) 0.0240(19) Uani d 1
H H13 0.413364 0.461252 0.310905 0.029 Uiso calc 1
C C14 0.5257(15) 0.6234(9) 0.2105(7) 0.027(2) Uani d 1
H H14 0.391541 0.647201 0.166087 0.033 Uiso calc 1
C C15 0.7489(13) 0.6867(9) 0.2066(6) 0.026(2) Uani d 1
H H15 0.790132 0.760485 0.159482 0.032 Uiso calc 1
C C16 0.8978(15) 0.6201(9) 0.2854(7) 0.028(2) Uani d 1
H H16 1.057646 0.640494 0.300784 0.033 Uiso calc 1
C C17 0.7634(15) 0.5156(10) 0.3380(7) 0.031(2) Uani d 1
H H17 0.818626 0.454729 0.394737 0.037 Uiso calc 1
Cl Cl1 1.0453(4) 1.4841(2) 0.0092(2) 0.0328(6) Uani d 1
Fe Fe1 0.62694(17) 0.71553(12) 0.35316(8) 0.0194(3) Uani d 1
N N1 0.8578(11) 1.1084(7) 0.3008(5) 0.0229(16) Uani d 1
O O1 0.5007(9) 1.0647(6) 0.2210(4) 0.0235(13) Uani d 1
loop_
_atom_site_aniso_label
_atom_site_aniso_U_11
_atom_site_aniso_U_22
_atom_site_aniso_U_33
_atom_site_aniso_U_12
_atom_site_aniso_U_13
_atom_site_aniso_U_23
C1 0.019(4) 0.020(4) 0.026(5) 0.001(3) 0.006(3) -0.001(4)
C2 0.026(4) 0.031(5) 0.015(4) 0.000(3) 0.014(3) -0.005(4)
C3 0.035(5) 0.032(5) 0.011(4) 0.005(4) 0.001(3) 0.002(3)
C4 0.021(4) 0.031(5) 0.022(4) -0.003(4) 0.001(4) -0.002(4)
C5 0.025(4) 0.016(4) 0.024(5) 0.000(3) 0.006(3) -0.004(4)
C6 0.023(4) 0.028(5) 0.022(5) 0.002(4) -0.001(4) -0.007(4)
C7 0.026(4) 0.019(4) 0.020(4) -0.001(3) 0.010(3) -0.005(3)
C8 0.022(3) 0.019(5) 0.020(4) 0.002(3) 0.004(3) -0.002(4)
C9 0.022(4) 0.027(5) 0.022(5) 0.003(4) 0.006(3) -0.008(4)
C10 0.031(4) 0.014(4) 0.024(5) -0.003(4) 0.011(4) 0.001(4)
C11 0.030(4) 0.030(5) 0.014(4) 0.000(4) 0.004(3) -0.001(4)
C12 0.024(4) 0.029(5) 0.023(4) 0.008(4) 0.000(3) 0.002(5)
C13 0.026(4) 0.027(5) 0.019(5) -0.008(4) 0.000(3) -0.002(4)
C14 0.027(4) 0.034(5) 0.020(4) -0.002(4) -0.003(4) -0.008(4)
C15 0.034(4) 0.029(6) 0.018(4) -0.006(4) 0.015(3) 0.001(4)
C16 0.021(4) 0.029(5) 0.033(5) 0.004(3) 0.001(4) -0.009(4)
C17 0.036(5) 0.028(5) 0.029(5) 0.008(4) 0.004(4) 0.004(4)
Cl1 0.0360(13) 0.0284(13) 0.0354(13) -0.0030(10) 0.0122(11) 0.0046(11)
Fe1 0.0205(5) 0.0224(6) 0.0156(5) -0.0004(6) 0.0022(4) -0.0001(6)
N1 0.022(4) 0.026(4) 0.022(4) -0.006(3) 0.003(3) -0.001(3)
O1 0.021(3) 0.027(3) 0.023(3) -0.001(2) 0.001(2) 0.001(3)
loop_
_atom_type_symbol
_atom_type_description
_atom_type_scat_dispersion_real
_atom_type_scat_dispersion_imag
_atom_type_scat_source
C C 0.0033 0.0016 'International Tables Vol C Tables 4.2.6.8 and 6.1.1.4'
H H 0 0 'International Tables Vol C Tables 4.2.6.8 and 6.1.1.4'
Cl Cl 0.1484 0.1585 'International Tables Vol C Tables 4.2.6.8 and 6.1.1.4'
Fe Fe 0.3463 0.8444 'International Tables Vol C Tables 4.2.6.8 and 6.1.1.4'
N N 0.0061 0.0033 'International Tables Vol C Tables 4.2.6.8 and 6.1.1.4'
O O 0.0106 0.006 'International Tables Vol C Tables 4.2.6.8 and 6.1.1.4'
loop_
_exptl_crystal_face_index_h
_exptl_crystal_face_index_k
_exptl_crystal_face_index_l
_exptl_crystal_face_perp_dist
0 10 -12 0.0179
0 -10 12 0.0179
-8 -3 1 0.0796
8 3 -1 0.0796
0 -8 -14 0.0284
0 8 14 0.0284
loop_
_geom_angle_atom_site_label_1
_geom_angle_atom_site_label_2
_geom_angle_atom_site_label_3
_geom_angle
C2 C1 C5 107.7(7)
C2 C1 Fe1 70.4(4)
C5 C1 Fe1 68.6(4)
C2 C1 H1 126.1
C5 C1 H1 126.1
Fe1 C1 H1 126.4
C1 C2 C3 107.3(7)
C1 C2 Fe1 69.3(5)
C3 C2 Fe1 68.9(5)
C1 C2 H2 126.4
C3 C2 H2 126.4
Fe1 C2 H2 126.9
C4 C3 C2 109.6(7)
C4 C3 Fe1 69.7(5)
C2 C3 Fe1 70.4(4)
C4 C3 H3 125.2
C2 C3 H3 125.2
Fe1 C3 H3 126.3
C3 C4 C5 106.8(7)
C3 C4 Fe1 69.7(5)
C5 C4 Fe1 69.0(4)
C3 C4 H4 126.6
C5 C4 H4 126.6
Fe1 C4 H4 126.2
C4 C5 C1 108.6(7)
C4 C5 C6 125.4(7)
C1 C5 C6 125.9(7)
C4 C5 Fe1 70.0(5)
C1 C5 Fe1 70.1(5)
C6 C5 Fe1 123.0(6)
N1 C6 O1 115.7(7)
N1 C6 C5 127.4(7)
O1 C6 C5 116.8(7)
C12 C7 O1 127.3(7)
C12 C7 C8 125.3(8)
O1 C7 C8 107.4(6)
C7 C8 C9 119.1(7)
C7 C8 N1 109.5(7)
C9 C8 N1 131.4(7)
C10 C9 C8 116.0(7)
C10 C9 H9 122
C8 C9 H9 122
C9 C10 C11 124.4(8)
C9 C10 Cl1 118.5(6)
C11 C10 Cl1 117.1(6)
C10 C11 C12 119.7(7)
C10 C11 H11 120.2
C12 C11 H11 120.2
C7 C12 C11 115.6(7)
C7 C12 H12 122.2
C11 C12 H12 122.2
C17 C13 C14 108.9(7)
C17 C13 Fe1 70.0(5)
C14 C13 Fe1 70.2(4)
C17 C13 H13 125.6
C14 C13 H13 125.6
Fe1 C13 H13 125.8
C13 C14 C15 108.1(7)
C13 C14 Fe1 69.5(4)
C15 C14 Fe1 69.8(4)
C13 C14 H14 125.9
C15 C14 H14 125.9
Fe1 C14 H14 126.3
C16 C15 C14 107.6(8)
C16 C15 Fe1 69.6(5)
C14 C15 Fe1 69.5(5)
C16 C15 H15 126.2
C14 C15 H15 126.2
Fe1 C15 H15 126.3
C15 C16 C17 107.5(7)
C15 C16 Fe1 70.0(5)
C17 C16 Fe1 69.0(5)
C15 C16 H16 126.3
C17 C16 H16 126.3
Fe1 C16 H16 126.3
C13 C17 C16 107.9(7)
C13 C17 Fe1 70.0(5)
C16 C17 Fe1 69.7(5)
C13 C17 H17 126
C16 C17 H17 126
Fe1 C17 H17 125.8
C5 Fe1 C17 160.2(3)
C5 Fe1 C13 158.5(3)
C17 Fe1 C13 40.0(3)
C5 Fe1 C4 40.9(3)
C17 Fe1 C4 123.2(3)
C13 Fe1 C4 159.5(3)
C5 Fe1 C3 68.0(3)
C17 Fe1 C3 107.4(3)
C13 Fe1 C3 123.9(3)
C4 Fe1 C3 40.5(3)
C5 Fe1 C1 41.3(3)
C17 Fe1 C1 156.8(3)
C13 Fe1 C1 122.3(3)
C4 Fe1 C1 69.2(3)
C3 Fe1 C1 68.1(3)
C5 Fe1 C16 123.3(3)
C17 Fe1 C16 41.3(4)
C13 Fe1 C16 68.2(3)
C4 Fe1 C16 106.7(3)
C3 Fe1 C16 121.8(3)
C1 Fe1 C16 160.6(3)
C5 Fe1 C14 122.9(3)
C17 Fe1 C14 67.8(3)
C13 Fe1 C14 40.3(3)
C4 Fe1 C14 158.1(3)
C3 Fe1 C14 160.4(3)
C1 Fe1 C14 108.3(3)
C16 Fe1 C14 68.1(3)
C5 Fe1 C15 107.8(3)
C17 Fe1 C15 68.5(4)
C13 Fe1 C15 68.2(3)
C4 Fe1 C15 121.6(3)
C3 Fe1 C15 157.3(3)
C1 Fe1 C15 124.5(3)
C16 Fe1 C15 40.4(3)
C14 Fe1 C15 40.7(3)
C5 Fe1 C2 68.6(3)
C17 Fe1 C2 121.4(4)
C13 Fe1 C2 107.8(3)
C4 Fe1 C2 68.9(3)
C3 Fe1 C2 40.7(3)
C1 Fe1 C2 40.3(3)
C16 Fe1 C2 157.6(3)
C14 Fe1 C2 124.1(3)
C15 Fe1 C2 160.7(3)
C6 N1 C8 103.5(6)
C7 O1 C6 103.9(6)
loop_
_geom_bond_atom_site_label_1
_geom_bond_atom_site_label_2
_geom_bond_distance
C1 C2 1.412(12)
C1 C5 1.433(11)
C1 Fe1 2.042(8)
C1 H1 0.95
C2 C3 1.423(10)
C2 Fe1 2.056(8)
C2 H2 0.95
C3 C4 1.410(12)
C3 Fe1 2.036(8)
C3 H3 0.95
C4 C5 1.419(11)
C4 Fe1 2.036(8)
C4 H4 0.95
C5 C6 1.446(12)
C5 Fe1 2.023(8)
C6 N1 1.297(10)
C6 O1 1.381(9)
C7 C12 1.370(11)
C7 O1 1.381(9)
C7 C8 1.387(10)
C8 C9 1.400(12)
C8 N1 1.408(10)
C9 C10 1.378(11)
C9 H9 0.95
C10 C11 1.389(10)
C10 Cl1 1.751(8)
C11 C12 1.399(12)
C11 H11 0.95
C12 H12 0.95
C13 C17 1.390(11)
C13 C14 1.405(11)
C13 Fe1 2.035(8)
C13 H13 0.95
C14 C15 1.423(11)
C14 Fe1 2.044(8)
C14 H14 0.95
C15 C16 1.412(11)
C15 Fe1 2.049(8)
C15 H15 0.95
C16 C17 1.438(13)
C16 Fe1 2.044(9)
C16 H16 0.95
C17 Fe1 2.034(9)
C17 H17 0.95
loop_
_geom_torsion_atom_site_label_1
_geom_torsion_atom_site_label_2
_geom_torsion_atom_site_label_3
_geom_torsion_atom_site_label_4
_geom_torsion
C5 C1 C2 C3 0.0(9)
Fe1 C1 C2 C3 58.7(6)
C5 C1 C2 Fe1 -58.7(6)
C1 C2 C3 C4 -0.1(9)
Fe1 C2 C3 C4 58.9(6)
C1 C2 C3 Fe1 -58.9(6)
C2 C3 C4 C5 0.1(9)
Fe1 C3 C4 C5 59.4(6)
C2 C3 C4 Fe1 -59.3(6)
C3 C4 C5 C1 -0.1(9)
Fe1 C4 C5 C1 59.7(6)
C3 C4 C5 C6 -176.7(8)
Fe1 C4 C5 C6 -116.9(9)
C3 C4 C5 Fe1 -59.8(6)
C2 C1 C5 C4 0.0(9)
Fe1 C1 C5 C4 -59.7(6)
C2 C1 C5 C6 176.6(8)
Fe1 C1 C5 C6 116.9(9)
C2 C1 C5 Fe1 59.7(6)
C4 C5 C6 N1 -12.4(14)
C1 C5 C6 N1 171.6(8)
Fe1 C5 C6 N1 -100.2(9)
C4 C5 C6 O1 167.2(8)
C1 C5 C6 O1 -8.8(12)
Fe1 C5 C6 O1 79.4(9)
C12 C7 C8 C9 0.7(12)
O1 C7 C8 C9 -179.8(7)
C12 C7 C8 N1 180.0(8)
O1 C7 C8 N1 -0.5(8)
C7 C8 C9 C10 -0.1(11)
N1 C8 C9 C10 -179.2(8)
C8 C9 C10 C11 0.0(13)
C8 C9 C10 Cl1 179.5(6)
C9 C10 C11 C12 -0.3(13)
Cl1 C10 C11 C12 -179.9(7)
O1 C7 C12 C11 179.6(8)
C8 C7 C12 C11 -1.0(13)
C10 C11 C12 C7 0.8(12)
C17 C13 C14 C15 -0.2(10)
Fe1 C13 C14 C15 59.3(6)
C17 C13 C14 Fe1 -59.5(6)
C13 C14 C15 C16 0.3(9)
Fe1 C14 C15 C16 59.4(6)
C13 C14 C15 Fe1 -59.1(6)
C14 C15 C16 C17 -0.3(9)
Fe1 C15 C16 C17 59.0(6)
C14 C15 C16 Fe1 -59.3(6)
C14 C13 C17 C16 0.0(10)
Fe1 C13 C17 C16 -59.7(6)
C14 C13 C17 Fe1 59.6(6)
C15 C16 C17 C13 0.2(9)
Fe1 C16 C17 C13 59.9(6)
C15 C16 C17 Fe1 -59.7(6)
O1 C6 N1 C8 -1.3(9)
C5 C6 N1 C8 178.3(8)
C7 C8 N1 C6 1.1(9)
C9 C8 N1 C6 -179.7(9)
C12 C7 O1 C6 179.3(8)
C8 C7 O1 C6 -0.2(8)
N1 C6 O1 C7 1.0(9)
C5 C6 O1 C7 -178.7(7)

_cod_database_fobs_code 1552238
