#------------------------------------------------------------------------------
#$Date: 2022-04-26 17:29:04 +0300 (Tue, 26 Apr 2022) $
#$Revision: 274689 $
#$URL: file:///home/coder/svn-repositories/cod/cif/1/55/22/1552276.cif $
#------------------------------------------------------------------------------
#
# This file is available in the Crystallography Open Database (COD),
# http://www.crystallography.net/. The original data for this entry
# were provided by IUCr Journals, http://journals.iucr.org/.
#
# The file may be used within the scientific community so long as
# proper attribution is given to the journal article from which the
# data were obtained.
#
data_1552276
loop_
_publ_author_name
'Krishnan, G. Anantha'
'Kumar, C. Udhaya'
'Mohandas, T. '
'Pillai, M. Velayutham'
'Sakthivel, P.'
_publ_section_title
;
 Allyl 6-amino-5-cyano-2-methyl-4-phenyl-4<i>H</i>-pyran-3-carboxylate
;
_journal_coden_ASTM              IUCRBK
_journal_coeditor_code           BV4022
_journal_issue                   1
_journal_name_full               IUCrData
_journal_page_first              x190054
_journal_paper_doi               10.1107/S2414314619000543
_journal_volume                  4
_journal_year                    2019
_chemical_formula_iupac          'C17 H16 N2 O3'
_chemical_formula_moiety         'C17 H16 N2 O3'
_chemical_formula_sum            'C17 H16 N2 O3'
_chemical_formula_weight         296.32
_chemical_name_systematic
;
Allyl 6-amino-5-cyano-2-methyl-4-phenyl-4<i>H</i>-pyran-3-carboxylate
;
_space_group_crystal_system      triclinic
_space_group_IT_number           2
_space_group_name_Hall           '-P 1'
_space_group_name_H-M_alt        'P -1'
_atom_sites_solution_hydrogens   mixed
_atom_sites_solution_primary     direct
_atom_sites_solution_secondary   difmap
_cell_angle_alpha                108.184(4)
_cell_angle_beta                 103.004(4)
_cell_angle_gamma                105.089(2)
_cell_formula_units_Z            2
_cell_length_a                   8.2151(5)
_cell_length_b                   9.2850(5)
_cell_length_c                   11.6086(7)
_cell_measurement_reflns_used    4207
_cell_measurement_temperature    293(2)
_cell_measurement_theta_max      23.43
_cell_measurement_theta_min      2.47
_cell_volume                     765.64(8)
_computing_cell_refinement
;
APEX2 and SAINT (Bruker, 2008)
;
_computing_data_collection
;
APEX2 (Bruker, 2008)
;
_computing_data_reduction
;
SAINT and XPREP (Bruker, 2008)
;
_computing_molecular_graphics
;
ORTEP-3 for Windows (Farrugia, 2012)
;
_computing_publication_material
;
SHELXL97 (Sheldrick, 2008) and  PLATON (Spek, 2009)
;
_computing_structure_refinement
;
<i>SHELXL2018/3</i> (Sheldrick, 2015)
;
_computing_structure_solution
;
SHELXS (Sheldrick, 2008)
;
_diffrn_ambient_temperature      293(2)
_diffrn_measured_fraction_theta_full 0.999
_diffrn_measured_fraction_theta_max 0.996
_diffrn_measurement_device_type  'Bruker Kappa APEXII CCD'
_diffrn_measurement_method       '\w and \f scan'
_diffrn_radiation_type           MoK\a
_diffrn_radiation_wavelength     0.71073
_diffrn_reflns_av_R_equivalents  0.053
_diffrn_reflns_av_unetI/netI     0.0452
_diffrn_reflns_limit_h_max       10
_diffrn_reflns_limit_h_min       -10
_diffrn_reflns_limit_k_max       12
_diffrn_reflns_limit_k_min       -12
_diffrn_reflns_limit_l_max       15
_diffrn_reflns_limit_l_min       -15
_diffrn_reflns_number            3789
_diffrn_reflns_theta_full        25.242
_diffrn_reflns_theta_max         28.284
_diffrn_reflns_theta_min         2.472
_exptl_absorpt_coefficient_mu    0.089
_exptl_absorpt_correction_T_max  0.960
_exptl_absorpt_correction_T_min  0.956
_exptl_absorpt_correction_type   multi-scan
_exptl_absorpt_process_details
;
(SADABS; Bruker, 2008)
;
_exptl_crystal_colour            ' orange'
_exptl_crystal_density_diffrn    1.285
_exptl_crystal_density_method    'Not Measured'
_exptl_crystal_description       ' BLOCK'
_exptl_crystal_F_000             312
_exptl_crystal_size_max          .20
_exptl_crystal_size_mid          .20
_exptl_crystal_size_min          .15
_refine_diff_density_max         0.206
_refine_diff_density_min         -0.278
_refine_ls_extinction_coef       0.028(6)
_refine_ls_extinction_expression Fc^*^=kFc[1+0.001xFc^2^\l^3^/sin(2\q)]^-1/4^
_refine_ls_extinction_method
;
SHELXL-2018/3 (Sheldrick 2018)
;
_refine_ls_goodness_of_fit_ref   1.019
_refine_ls_hydrogen_treatment    mixed
_refine_ls_matrix_type           full
_refine_ls_number_parameters     237
_refine_ls_number_reflns         3789
_refine_ls_number_restraints     79
_refine_ls_restrained_S_all      1.051
_refine_ls_R_factor_all          0.1006
_refine_ls_R_factor_gt           0.0520
_refine_ls_shift/su_max          0.000
_refine_ls_shift/su_mean         0.000
_refine_ls_structure_factor_coef Fsqd
_refine_ls_weighting_details
'w=1/[\s^2^(Fo^2^)+(0.0710P)^2^+0.1156P] where P=(Fo^2^+2Fc^2^)/3'
_refine_ls_weighting_scheme      calc
_refine_ls_wR_factor_gt          0.1313
_refine_ls_wR_factor_ref         0.1601
_reflns_number_gt                2207
_reflns_number_total             3789
_reflns_threshold_expression     'I > 2\s(I)'
_cod_data_source_file            bv4022sup1.cif
_cod_data_source_block           I
_cod_database_code               1552276
_cod_database_fobs_code          1552276
_shelx_space_group_comment
;
The symmetry employed for this shelxl refinement is uniquely defined
by the following loop, which should always be used as a source of
symmetry information in preference to the above space-group names.
They are only intended as comments.
;
_shelx_hkl_file
;
   1   0   0   44516     787
   2   0   0  293055    4528
   3   0   0    2109      62
   4   0   0    8259     174
   5   0   0    8689     210
   6   0   0    8953     236
   7   0   0      -4      65
   8   0   0     272     103
   9   0   0     463     143
 -10   1   0      28     396
  -9   1   0    1277     224
  -8   1   0    1959     214
  -7   1   0   29545     844
  -6   1   0    2700     126
  -5   1   0     -25      47
  -4   1   0    1025      48
  -3   1   0   11097     204
  -2   1   0   54098     966
  -1   1   0  154325    2507
   0   1   0   20182     566
   1   1   0   93296    1850
   2   1   0   25618     441
   3   1   0   47155     736
   4   1   0   89166    1752
   5   1   0   21445     502
   6   1   0     466      83
   7   1   0     -44     106
   8   1   0     174     111
   9   1   0     559     129
 -10   2   0     220     148
  -9   2   0      64     140
  -8   2   0     513     112
  -7   2   0     823     109
  -6   2   0    2625     112
  -5   2   0   17054     361
  -4   2   0   36842     712
  -3   2   0  126056    2226
  -2   2   0  189677    3146
  -1   2   0  203253    3582
   0   2   0   44930     845
   1   2   0   30068     577
   2   2   0    6262     156
   3   2   0   46846     850
   4   2   0    2569     101
   5   2   0      34      44
   6   2   0     -71      78
   7   2   0    1138     153
   8   2   0     -17     220
   9   2   0     400     325
 -10   3   0       9     161
  -9   3   0    3218     232
  -8   3   0     575     109
  -7   3   0    2896     141
  -6   3   0   12425     329
  -5   3   0    2630     143
  -4   3   0     373      41
  -3   3   0   35464     729
  -2   3   0     120      28
  -1   3   0   50651     913
   0   3   0    6370     161
   1   3   0   10130     251
   2   3   0    1390      92
   3   3   0   60727    1227
   4   3   0     647      63
   5   3   0    1126      84
   6   3   0     476      97
   7   3   0     413     193
   8   3   0      62     175
 -10   4   0      13     316
  -9   4   0     387     156
  -8   4   0     -82      82
  -7   4   0    2899     222
  -6   4   0    1583     116
  -5   4   0    4275     224
  -4   4   0   20268     451
  -3   4   0    3776     102
  -2   4   0   35059     783
  -1   4   0   11848     407
   0   4   0    3387     151
   1   4   0     -10      32
   2   4   0    6009     217
   3   4   0     644      64
   4   4   0     920      85
   5   4   0     153      73
   6   4   0     171     112
   7   4   0     -82     151
   8   4   0      11     142
 -10   5   0     335     146
  -9   5   0     470     142
  -8   5   0     882     215
  -7   5   0     596     124
  -6   5   0    1439     154
  -5   5   0    2751     183
  -4   5   0    8394     267
  -3   5   0     210      45
  -2   5   0   29146     730
  -1   5   0     141      76
   0   5   0   33209     885
   1   5   0    2436     127
   2   5   0    3750     256
   3   5   0    1123     110
   4   5   0     531     146
   5   5   0    1181     164
   6   5   0      39     122
   7   5   0     553     186
 -10   6   0     340     159
  -9   6   0    1516     203
  -8   6   0     408     166
  -7   6   0    4821     302
  -6   6   0    2534     210
  -5   6   0     378     109
  -4   6   0    4967     144
  -3   6   0     658      75
  -2   6   0     334      89
  -1   6   0      57      58
   0   6   0   15787     414
   1   6   0     696     112
   2   6   0     367     146
   3   6   0    1834     206
   4   6   0    6149     316
   5   6   0      44     121
   6   6   0      17     122
 -10   7   0      96     160
  -9   7   0      65     155
  -8   7   0     352     170
  -7   7   0    9459     447
  -6   7   0     569     108
  -5   7   0     -13      81
  -4   7   0    5587     205
  -3   7   0   11015     352
  -2   7   0    2815     152
  -1   7   0   12448     337
   0   7   0     114      91
   1   7   0     457     112
   2   7   0     -21      95
   3   7   0    4238     422
   4   7   0    2142     266
   5   7   0    1052     293
  -9   8   0      53     217
  -8   8   0     154     155
  -7   8   0     212     113
  -6   8   0    -113     113
  -5   8   0     470     106
  -4   8   0    3910     205
  -3   8   0    3056     184
  -2   8   0   16076     478
  -1   8   0    4734     296
   0   8   0     594     171
   1   8   0    2120     223
   2   8   0    -201     201
   3   8   0    2392     455
   4   8   0     179     170
  -9   9   0    1141     277
  -8   9   0     267     360
  -7   9   0    1129     205
  -6   9   0    2597     258
  -5   9   0     110     127
  -4   9   0    4975     280
  -3   9   0     179     136
  -2   9   0     961     152
  -1   9   0    4596     282
   0   9   0    -104     104
   1   9   0      74     310
   2   9   0      72     296
   3   9   0      30     228
  -8  10   0     461     232
  -7  10   0     168     184
  -6  10   0     476     216
  -5  10   0     331     176
  -4  10   0     488     184
  -3  10   0     275     146
  -2  10   0    1783     198
  -1  10   0     705     166
   0  10   0     121     132
   1  10   0     331     385
  -7  11   0     294     212
  -6  11   0     374     228
  -5  11   0     -24     150
  -4  11   0    -157     176
  -3  11   0    -229     229
  -2  11   0     128     167
  -1  11   0      11     195
   0 -11   1     -69     295
   1 -11   1     259     141
   2 -11   1      82     159
   3 -11   1     957     302
   4 -11   1    2680     297
   5 -11   1      34     158
   6 -11   1     174     202
   7 -11   1    -246     246
  -2 -10   1     253     234
  -1 -10   1      37     190
   0 -10   1    1578     232
   1 -10   1     102     142
   2 -10   1    2474     268
   3 -10   1     229     138
   4 -10   1     460     155
   5 -10   1     637     168
   6 -10   1      93     136
   7 -10   1     203     171
   8 -10   1    -162     192
  -3  -9   1      99     308
  -2  -9   1    -172     293
  -1  -9   1     176     151
   0  -9   1    1033     167
   1  -9   1    1189     162
   2  -9   1    8665     383
   3  -9   1       2     104
   4  -9   1    4828     241
   5  -9   1     514     137
   6  -9   1     715     183
   7  -9   1     417     221
   8  -9   1     -26     187
   9  -9   1      63     210
  -5  -8   1     -28     209
  -4  -8   1     461     186
  -3  -8   1     787     268
  -2  -8   1    1713     385
  -1  -8   1    2935     248
   0  -8   1    4705     258
   1  -8   1      31     110
   2  -8   1    2261     146
   3  -8   1   29331     782
   4  -8   1     781     102
   5  -8   1     297     100
   6  -8   1    2533     195
   7  -8   1    2663     256
   8  -8   1     279     174
   9  -8   1    -174     271
  -6  -7   1     -94     153
  -5  -7   1     426     152
  -4  -7   1    1577     267
  -3  -7   1      93     156
  -2  -7   1      30     114
  -1  -7   1    2897     223
   0  -7   1    1338     138
   1  -7   1     498      72
   2  -7   1    2692     150
   3  -7   1    3976     189
   4  -7   1     529      81
   5  -7   1    2040     164
   6  -7   1    1084     132
   7  -7   1    5866     341
   8  -7   1     668     219
   9  -7   1    -155     199
  10  -7   1     -27     156
  -6  -6   1     274     129
  -5  -6   1     866     146
  -4  -6   1     845     160
  -3  -6   1     736     142
  -2  -6   1     848     146
  -1  -6   1       1      85
   0  -6   1    5032     227
   1  -6   1    1197     146
   2  -6   1   14115     402
   3  -6   1      10      62
   4  -6   1    1211      80
   5  -6   1     839      98
   6  -6   1    1745     136
   7  -6   1     142      90
   8  -6   1     271     166
   9  -6   1     235     144
  10  -6   1      33     156
  -7  -5   1     262     158
  -6  -5   1     280     116
  -5  -5   1      23      99
  -4  -5   1    2423     152
  -3  -5   1    2335     153
  -2  -5   1     624      97
  -1  -5   1     650      86
   0  -5   1    2835     153
   1  -5   1       1      43
   2  -5   1   11479     305
   3  -5   1     456      51
   4  -5   1   19816     474
   5  -5   1     -13      65
   6  -5   1    1222     129
   7  -5   1      51      91
   8  -5   1     107     126
   9  -5   1      95     126
  10  -5   1     -25     160
  -8  -4   1    -122     286
  -7  -4   1     193     128
  -6  -4   1     937     141
  -5  -4   1     462      88
  -4  -4   1    2527     102
  -3  -4   1    4690     234
  -2  -4   1    7495     272
  -1  -4   1    6713     235
   0  -4   1   81160    2075
   1  -4   1    2526      95
   2  -4   1    1217      74
   3  -4   1   11771     251
   4  -4   1    1844      97
   5  -4   1    3881     152
   6  -4   1    1104      90
   7  -4   1     813      96
   8  -4   1    1825     164
   9  -4   1    2340     211
  10  -4   1    -128     128
  -8  -3   1     152     113
  -7  -3   1    1642     174
  -6  -3   1    1348     128
  -5  -3   1     102      47
  -4  -3   1    1016      60
  -3  -3   1   27585     921
  -2  -3   1    3871     115
  -1  -3   1    1918      76
   0  -3   1     965      51
   1  -3   1   11958     213
   2  -3   1   27866     454
   3  -3   1   68599    1228
   4  -3   1   14492     311
   5  -3   1    3076     115
   6  -3   1     836     102
   7  -3   1      63      53
   8  -3   1     154     102
   9  -3   1     -24     155
  10  -3   1     394     179
  -9  -2   1    -228     228
  -8  -2   1      32      97
  -7  -2   1     707     125
  -6  -2   1     214      73
  -5  -2   1   18105     421
  -4  -2   1    2515     103
  -3  -2   1    8129     196
  -2  -2   1     167      36
  -1  -2   1  100313    1873
   0  -2   1   39380     618
   1  -2   1   20571     325
   2  -2   1   28499     460
   3  -2   1   93937    1466
   4  -2   1     522      48
   5  -2   1      74      37
   6  -2   1     195      61
   7  -2   1   44042    1198
   8  -2   1    1756     235
   9  -2   1     127     149
  10  -2   1      41     161
  -9  -1   1     -63     155
  -8  -1   1     529     178
  -7  -1   1     -13      68
  -6  -1   1      -2      35
  -5  -1   1   11532     324
  -4  -1   1   61383    1214
  -3  -1   1   59216    1044
  -2  -1   1   97248    1794
  -1  -1   1   59117    1162
   0  -1   1  265997    6997
   1  -1   1  328634    5968
   2  -1   1  107352    1931
   3  -1   1   23748     388
   4  -1   1   23226     443
   5  -1   1    7064     196
   6  -1   1   37480     904
   7  -1   1   17717     633
   8  -1   1    4987     346
   9  -1   1     919     189
 -10   0   1     132     229
  -9   0   1      35      99
  -8   0   1      94     102
  -7   0   1      88      79
  -6   0   1    6969     198
  -5   0   1    1774      91
  -4   0   1     126      30
  -3   0   1   17239     297
  -2   0   1   31737     537
   1   0   1  116780    1717
   2   0   1   19851     319
   3   0   1     560      32
   4   0   1    2966      96
   5   0   1      83      39
   6   0   1   10968     282
   7   0   1     324     113
   8   0   1     271     122
   9   0   1    -136     136
 -10   1   1    1835     361
  -9   1   1     143     131
  -8   1   1     -20      87
  -7   1   1    2847     251
  -6   1   1   19208     383
  -5   1   1      78      31
  -4   1   1     862      43
  -3   1   1   20178     396
  -2   1   1   42397     837
  -1   1   1   18123     331
   1   1   1  137113    2137
   2   1   1     150      28
   3   1   1    3608     105
   4   1   1    2935      96
   5   1   1    4604     156
   6   1   1    5320     268
   7   1   1     879     133
   8   1   1      43     108
   9   1   1     296     233
 -10   2   1      75     160
  -9   2   1     368     114
  -8   2   1     731     171
  -7   2   1   31383     810
  -6   2   1   23382     520
  -5   2   1   11334     287
  -4   2   1    2289     162
  -3   2   1    1175      48
  -2   2   1  316310    5152
  -1   2   1   41420     838
   0   2   1   18656     353
   1   2   1   69141    1177
   2   2   1    3788     101
   3   2   1    5288     124
   4   2   1    1376     114
   5   2   1    3898     165
   6   2   1      70     100
   7   2   1     -13     101
   8   2   1     176     139
 -10   3   1     -54     124
  -9   3   1     106      93
  -8   3   1     801     114
  -7   3   1   20464     564
  -6   3   1   14686     464
  -5   3   1    2393      85
  -4   3   1    6940     265
  -3   3   1   12776     306
  -2   3   1    1157      52
  -1   3   1   12555     273
   0   3   1    6326     159
   1   3   1     350      41
   2   3   1   26491     558
   3   3   1     827      62
   4   3   1      89      55
   5   3   1     806     116
   6   3   1     326     104
   7   3   1    -111     111
   8   3   1     261     176
 -10   4   1      83     126
  -9   4   1      37      90
  -8   4   1    2293     179
  -7   4   1    5428     290
  -6   4   1    2166     149
  -5   4   1    4080     219
  -4   4   1    2911     116
  -3   4   1   13965     318
  -2   4   1    6589     208
  -1   4   1      87      52
   0   4   1    1903      96
   1   4   1       5      41
   2   4   1      27      46
   3   4   1      45      45
   4   4   1    2168     139
   5   4   1     148      96
   6   4   1    -110     111
   7   4   1    1039     203
 -10   5   1      69     130
  -9   5   1    2194     199
  -8   5   1    1661     189
  -7   5   1     434     111
  -6   5   1     -69      69
  -5   5   1    1384     118
  -4   5   1   10006     279
  -3   5   1     732      72
  -2   5   1    6394     227
  -1   5   1     581      93
   0   5   1   60310    1559
   1   5   1      92      56
   2   5   1    6143     240
   3   5   1    3474     186
   4   5   1      76     100
   5   5   1     353     134
   6   5   1     956     181
   7   5   1      40     166
 -10   6   1     234     158
  -9   6   1     630     171
  -8   6   1     194     166
  -7   6   1    9537     430
  -6   6   1     311     115
  -5   6   1      77      56
  -4   6   1    2754     125
  -3   6   1    2639     177
  -2   6   1     519      96
  -1   6   1    5556     238
   0   6   1    5437     219
   1   6   1     221     112
   2   6   1     137     127
   3   6   1    2328     249
   4   6   1    1240     250
   5   6   1     339     154
   6   6   1     203     167
 -10   7   1     -28     176
  -9   7   1    -129     148
  -8   7   1      16     153
  -7   7   1      -2     101
  -6   7   1    1177     188
  -5   7   1    1424     122
  -4   7   1   20347     571
  -3   7   1    6966     266
  -2   7   1   15807     526
  -1   7   1    4502     234
   0   7   1    2547     206
   1   7   1    1333     149
   2   7   1    -165     177
   3   7   1    2844     384
   4   7   1     192     163
   5   7   1     262     155
  -9   8   1     648     226
  -8   8   1     -73     168
  -7   8   1     919     182
  -6   8   1    1530     193
  -5   8   1     494     131
  -4   8   1     227      82
  -3   8   1    2314     167
  -2   8   1    1528     134
  -1   8   1     996     149
   0   8   1    1548     171
   1   8   1    3035     314
   2   8   1    -253     253
   3   8   1     189     403
   4   8   1     331     189
  -9   9   1    1208     287
  -8   9   1     643     221
  -7   9   1    1279     229
  -6   9   1    2872     268
  -5   9   1     151     121
  -4   9   1     180     134
  -3   9   1    3512     290
  -2   9   1     -69     112
  -1   9   1     224     193
   0   9   1    -116     119
   1   9   1     346     204
   2   9   1      64     240
  -8  10   1      95     182
  -7  10   1     143     160
  -6  10   1     157     163
  -5  10   1     -30     123
  -4  10   1     974     198
  -3  10   1     318     168
  -2  10   1     843     209
  -1  10   1     455     169
   0  10   1     176     161
   1  10   1     596     273
  -6  11   1     -15     147
  -5  11   1     735     212
  -4  11   1     819     210
  -3  11   1    -135     145
  -2  11   1      -4     184
  -1  11   1     416     611
   2 -12   2    -167     167
   3 -12   2     766     231
   4 -12   2    1748     275
   5 -12   2      71     247
  -1 -11   2     395     298
   0 -11   2    -143     163
   1 -11   2     298     153
   2 -11   2      93     142
   3 -11   2      11     173
   4 -11   2     997     205
   5 -11   2    1016     209
   6 -11   2     382     212
   7 -11   2     -49     176
  -2 -10   2    -113     190
  -1 -10   2     302     200
   0 -10   2     364     159
   1 -10   2    1113     174
   2 -10   2     -30     135
   3 -10   2     145     141
   4 -10   2    1029     175
   5 -10   2     855     193
   6 -10   2     490     167
   7 -10   2     382     171
   8 -10   2    -191     191
  -4  -9   2     140     215
  -3  -9   2    1118     242
  -2  -9   2     238     181
  -1  -9   2    6216     531
   0  -9   2     838     180
   1  -9   2      44     120
   2  -9   2   10855     577
   3  -9   2    1574     148
   4  -9   2    1435     177
   5  -9   2     507     118
   6  -9   2    1060     158
   7  -9   2    -153     206
   8  -9   2     189     222
   9  -9   2    1424     430
  -5  -8   2     853     168
  -4  -8   2     237     158
  -3  -8   2     386     185
  -2  -8   2     481     178
  -1  -8   2       4     133
   0  -8   2    1436     145
   1  -8   2      96     114
   2  -8   2    2110     138
   3  -8   2    3952     235
   4  -8   2    6236     254
   5  -8   2     127     110
   6  -8   2    1357     154
   7  -8   2    4566     401
   8  -8   2     -72     169
   9  -8   2     856     233
  -6  -7   2     306     166
  -5  -7   2      -4     117
  -4  -7   2    1135     189
  -3  -7   2   11405     687
  -2  -7   2     -85      85
  -1  -7   2   12348     497
   0  -7   2    1291     139
   1  -7   2      93      44
   2  -7   2    3889     183
   3  -7   2    9933     304
   4  -7   2    3847     159
   5  -7   2     403      61
   6  -7   2     243      89
   7  -7   2     -57     106
   8  -7   2     164     117
   9  -7   2      29     181
  -7  -6   2      57     271
  -6  -6   2     146     114
  -5  -6   2    1734     287
  -4  -6   2   16699     731
  -3  -6   2   21244     833
  -2  -6   2     897     158
  -1  -6   2    3283     235
   0  -6   2    5412     234
   1  -6   2    3422     149
   2  -6   2   21961     539
   3  -6   2    1302      91
   4  -6   2    6404     210
   5  -6   2     194      51
   6  -6   2     -71      71
   7  -6   2    3045     218
   8  -6   2     -40     126
   9  -6   2     -89     136
  10  -6   2      73     178
  -7  -5   2     -77     120
  -6  -5   2     369     165
  -5  -5   2     365     104
  -4  -5   2    6231     283
  -3  -5   2    1304      93
  -2  -5   2      96      64
  -1  -5   2    1402     115
   0  -5   2   54100    1287
   1  -5   2    7978     229
   2  -5   2    2151     102
   3  -5   2     333      53
   4  -5   2   11780     318
   5  -5   2    1580     116
   6  -5   2    1334     185
   7  -5   2    5846     276
   8  -5   2     239     124
   9  -5   2    1098     186
  10  -5   2    -163     163
  -8  -4   2      33     338
  -7  -4   2    1005     222
  -6  -4   2     -37      66
  -5  -4   2    2292     151
  -4  -4   2     120      41
  -3  -4   2      37      50
  -2  -4   2    1836      95
  -1  -4   2    2979     129
   0  -4   2  170857    3387
   1  -4   2    4901     128
   2  -4   2  146806    2625
   3  -4   2    2987     117
   4  -4   2    4948     158
   5  -4   2     -40      40
   6  -4   2    1840     109
   7  -4   2     409      83
   8  -4   2       3      89
   9  -4   2     536     186
  10  -4   2     630     214
  -9  -3   2    -109     234
  -8  -3   2     -20     135
  -7  -3   2    4723     263
  -6  -3   2      59      59
  -5  -3   2     -19      33
  -4  -3   2    1679      80
  -3  -3   2    1846      90
  -2  -3   2     989      54
  -1  -3   2   27641     486
   0  -3   2     667      35
   1  -3   2   37447     578
   2  -3   2   15648     273
   3  -3   2   20780     406
   4  -3   2     893      54
   5  -3   2    7518     205
   6  -3   2     868     112
   7  -3   2    7815     286
   8  -3   2    2173     182
   9  -3   2    1491     598
  10  -3   2     109     159
  -9  -2   2     292     189
  -8  -2   2     -82     134
  -7  -2   2    2029     179
  -6  -2   2     993      81
  -5  -2   2      55      30
  -4  -2   2   11521     245
  -3  -2   2   44222     947
  -2  -2   2  265147    5331
  -1  -2   2  233860    4505
   0  -2   2   15323     290
   1  -2   2   14420     235
   2  -2   2    1200      41
   3  -2   2   21134     405
   4  -2   2    2816     102
   5  -2   2     109      60
   6  -2   2     159      57
   7  -2   2   10448     380
   8  -2   2     303     143
   9  -2   2      48     143
 -10  -1   2     889     307
  -9  -1   2     -87     178
  -8  -1   2      39      90
  -7  -1   2     256      74
  -6  -1   2    1168      61
  -5  -1   2      10      18
  -4  -1   2     430      40
  -3  -1   2   75562    1408
  -2  -1   2  294007    5095
  -1  -1   2   57636     979
   0  -1   2     642      23
   1  -1   2  176636    2950
   2  -1   2  130345    2045
   3  -1   2   25541     477
   4  -1   2    4674     145
   5  -1   2   10147     241
   6  -1   2    5671     195
   7  -1   2      54     161
   8  -1   2     469     254
   9  -1   2    -135     144
 -10   0   2    2356     395
  -9   0   2    2599     377
  -8   0   2     -11      78
  -7   0   2     375      80
  -6   0   2    2577      90
  -5   0   2    8167     196
  -4   0   2  115910    2041
  -3   0   2   10306     196
  -2   0   2  206414    4131
  -1   0   2    8243     143
   0   0   2  124571    1852
   1   0   2  320920    5486
   2   0   2    6259     134
   3   0   2   10572     245
   4   0   2    7747     188
   5   0   2    7151     197
   6   0   2     611      96
   7   0   2    1838     175
   8   0   2    1124     197
   9   0   2    -121     175
 -10   1   2    3019     441
  -9   1   2     224      91
  -8   1   2      59      83
  -7   1   2    1940     133
  -6   1   2   42063     875
  -5   1   2   19835     438
  -4   1   2    1503      95
  -3   1   2   11380     265
  -2   1   2   51240     959
   0   1   2 1211594   25914
   1   1   2   52403     861
   2   1   2   54106    1170
   3   1   2    5852     190
   4   1   2    7390     220
   5   1   2    1141     104
   6   1   2     117      92
   7   1   2     130     109
   8   1   2     -12     123
 -10   2   2     147     200
  -9   2   2    1226     148
  -8   2   2    2426     163
  -7   2   2   50950    1149
  -6   2   2     281      59
  -5   2   2   22865     498
  -4   2   2    4916     148
  -3   2   2    3492     101
  -2   2   2     521      38
  -1   2   2   87449    1569
   0   2   2   87756    1498
   1   2   2      89      29
   2   2   2    1284      69
   3   2   2   13926     365
   4   2   2   24455     647
   5   2   2    2564     157
   6   2   2     131     115
   7   2   2     202     126
   8   2   2     -24     139
 -10   3   2     350     131
  -9   3   2     723     126
  -8   3   2     664     107
  -7   3   2    6692     226
  -6   3   2      61      68
  -5   3   2   28083     641
  -4   3   2    4855     161
  -3   3   2   84200    1959
  -2   3   2   19021     497
  -1   3   2   45502     936
   0   3   2    3547     124
   1   3   2    6181     201
   2   3   2    5302     141
   3   3   2    7252     229
   4   3   2     368      79
   5   3   2     296     129
   6   3   2     -95      95
   7   3   2      89     128
 -10   4   2     973     172
  -9   4   2    1070     143
  -8   4   2     -33     106
  -7   4   2      -4      77
  -6   4   2    5925     245
  -5   4   2     884      86
  -4   4   2    8636     248
  -3   4   2     536      54
  -2   4   2    1536      98
  -1   4   2   18769     612
   0   4   2   18189     473
   1   4   2    7730     274
   2   4   2     804      70
   3   4   2    8394     292
   4   4   2     668     117
   5   4   2     -48     130
   6   4   2    1003     182
   7   4   2     776     226
 -10   5   2      -5     133
  -9   5   2    3133     237
  -8   5   2    -128     128
  -7   5   2     -24     114
  -6   5   2     562     165
  -5   5   2     748     101
  -4   5   2    1885      98
  -3   5   2    9745     291
  -2   5   2     147      69
  -1   5   2    1381     114
   0   5   2    1303     106
   1   5   2    4298     215
   2   5   2    2140     229
   3   5   2    2385     160
   4   5   2     296     130
   5   5   2     115     144
   6   5   2    -122     122
 -10   6   2     159     151
  -9   6   2    1098     182
  -8   6   2      84     129
  -7   6   2     117     131
  -6   6   2     461     143
  -5   6   2      33      99
  -4   6   2    6704     228
  -3   6   2    6976     271
  -2   6   2    2217     159
  -1   6   2     132      68
   0   6   2    2509     154
   1   6   2      81      99
   2   6   2     482     211
   3   6   2     342     113
   4   6   2     657     160
   5   6   2     490     192
 -10   7   2     -29     140
  -9   7   2      43     130
  -8   7   2      35     155
  -7   7   2    2682     240
  -6   7   2    1383     184
  -5   7   2      62      94
  -4   7   2    6449     275
  -3   7   2   18357     586
  -2   7   2    9562     370
  -1   7   2     -10      96
   0   7   2     407     181
   1   7   2    1320     176
   2   7   2     -26     125
   3   7   2    -125     125
   4   7   2     664     273
  -9   8   2     372     161
  -8   8   2     130     189
  -7   8   2    3031     278
  -6   8   2     207     131
  -5   8   2     -94      94
  -4   8   2      49     111
  -3   8   2      36     119
  -2   8   2      59     115
  -1   8   2     731     141
   0   8   2     308     150
   1   8   2     710     213
   2   8   2       5     279
   3   8   2     -74     167
  -9   9   2     188     186
  -8   9   2     -15     157
  -7   9   2     375     166
  -6   9   2     575     173
  -5   9   2     -31     100
  -4   9   2    1543     270
  -3   9   2    2523     261
  -2   9   2    1021     265
  -1   9   2     217     130
   0   9   2     122     134
   1   9   2     491     178
   2   9   2     242     578
  -8  10   2    -364     364
  -7  10   2     212     265
  -6  10   2    1743     250
  -5  10   2      21     168
  -4  10   2    2879     295
  -3  10   2     148     178
  -2  10   2    -136     162
  -1  10   2     156     174
   0  10   2      61     267
  -5  11   2       3     195
  -4  11   2     311     233
  -3  11   2      -3     173
   2 -12   3     436     311
   3 -12   3     223     179
   4 -12   3      24     198
   5 -12   3     -80     218
  -1 -11   3      89     214
   0 -11   3     135     205
   1 -11   3      48     150
   2 -11   3      43     134
   3 -11   3     -64     154
   4 -11   3     -13     169
   5 -11   3     726     302
   6 -11   3     990     230
   7 -11   3     206     216
  -3 -10   3     609     191
  -2 -10   3    3116     422
  -1 -10   3     306     186
   0 -10   3      60     140
   1 -10   3     153     125
   2 -10   3     988     165
   3 -10   3    1277     233
   4 -10   3    1427     291
   5 -10   3     973     158
   6 -10   3     -61     142
   7 -10   3     733     190
   8 -10   3    -174     174
  -4  -9   3     162     153
  -3  -9   3     650     174
  -2  -9   3     312     190
  -1  -9   3     563     185
   0  -9   3    3363     272
   1  -9   3     594     165
   2  -9   3    3112     233
   3  -9   3    3207     180
   4  -9   3      17      88
   5  -9   3     -96     106
   6  -9   3      31     107
   7  -9   3    -104     104
   8  -9   3     -46     180
   9  -9   3     948     264
  -5  -8   3     691     170
  -4  -8   3     -27     138
  -3  -8   3     623     257
  -2  -8   3    1052     188
  -1  -8   3    1805     251
   0  -8   3     -85      85
   1  -8   3    1309     146
   2  -8   3    3983     195
   3  -8   3   11116     323
   4  -8   3   21375     525
   5  -8   3    1693     154
   6  -8   3    2619     187
   7  -8   3     497     117
   8  -8   3    -124     124
   9  -8   3     368     211
  -6  -7   3     -50     122
  -5  -7   3     980     199
  -4  -7   3     -30     177
  -3  -7   3   18289     692
  -2  -7   3    2260     200
  -1  -7   3    2616     212
   0  -7   3     455      97
   1  -7   3     368      69
   2  -7   3      -9      59
   3  -7   3   34399     762
   4  -7   3     645      84
   5  -7   3    2330     135
   6  -7   3     212     104
   7  -7   3    2921     225
   8  -7   3      95     133
   9  -7   3    -162     162
  -7  -6   3    -191     229
  -6  -6   3     -50     153
  -5  -6   3     743     159
  -4  -6   3   12741     636
  -3  -6   3    1435     147
  -2  -6   3     525      93
  -1  -6   3    2660     164
   0  -6   3    1766     136
   1  -6   3      31      59
   2  -6   3    2040     102
   3  -6   3   21502     498
   4  -6   3    3606     157
   5  -6   3     135      61
   6  -6   3     387      97
   7  -6   3    9314     381
   8  -6   3     123     141
   9  -6   3     661     301
  -8  -5   3     -24     266
  -7  -5   3      27     208
  -6  -5   3      52      88
  -5  -5   3      26      80
  -4  -5   3    4371     226
  -3  -5   3    3894     187
  -2  -5   3      15      27
  -1  -5   3    7817     321
   0  -5   3  118874    2219
   1  -5   3     221      46
   2  -5   3     672      60
   3  -5   3    1673     107
   4  -5   3      35      53
   5  -5   3     159      55
   6  -5   3   12690     507
   7  -5   3    1618     184
   8  -5   3    1250     168
   9  -5   3     521     294
  -8  -4   3     -97     234
  -7  -4   3    2722     195
  -6  -4   3     203      90
  -5  -4   3     577      86
  -4  -4   3     103      37
  -3  -4   3    1433      97
  -2  -4   3    1216      85
  -1  -4   3    7005     194
   0  -4   3   11649     256
   1  -4   3   10910     224
   2  -4   3    5838     171
   3  -4   3     948      75
   4  -4   3    2404      98
   5  -4   3   11625     313
   6  -4   3     690      86
   7  -4   3     -17      90
   8  -4   3     310     133
   9  -4   3     108     171
  -9  -3   3     244     248
  -8  -3   3    -146     146
  -7  -3   3     -39      66
  -6  -3   3    1322     104
  -5  -3   3     178      41
  -4  -3   3    4141     143
  -3  -3   3   56819    1456
  -2  -3   3    6323     162
  -1  -3   3    6389     147
   0  -3   3    9180     177
   1  -3   3   15829     267
   2  -3   3    1973      74
   3  -3   3   20524     475
   4  -3   3    4668     166
   5  -3   3     750     104
   6  -3   3    2061     169
   7  -3   3    1920     141
   8  -3   3     187     161
   9  -3   3     103     163
  -9  -2   3    -109     154
  -8  -2   3     -14     139
  -7  -2   3    1948     188
  -6  -2   3     866      73
  -5  -2   3   17168     435
  -4  -2   3   22012     540
  -3  -2   3   26779     762
  -2  -2   3     -16      16
  -1  -2   3   31226     521
   0  -2   3   19206     295
   1  -2   3      38      19
   2  -2   3   45348     722
   3  -2   3   38526     754
   4  -2   3   11413     320
   5  -2   3     -51      51
   6  -2   3    3044     157
   7  -2   3    1355     214
   8  -2   3     222     245
   9  -2   3    -112     200
 -10  -1   3     478     279
  -9  -1   3     -85     279
  -8  -1   3     194     113
  -7  -1   3     505     125
  -6  -1   3    1782     151
  -5  -1   3   17344     531
  -4  -1   3  110295    3095
  -3  -1   3  181861    4517
  -2  -1   3    2002      57
  -1  -1   3  218110    3153
   0  -1   3   75415    1189
   1  -1   3   14891     254
   2  -1   3   16703     372
   3  -1   3   77238    1538
   4  -1   3    2411      95
   5  -1   3    3906     138
   6  -1   3     303      67
   7  -1   3   10459     527
   8  -1   3      55     138
   9  -1   3     384     226
 -10   0   3     737     455
  -9   0   3    1012     539
  -8   0   3     -44      44
  -7   0   3    1354      85
  -6   0   3      40      67
  -5   0   3   18894     484
  -4   0   3  114007    2586
  -3   0   3   10798     239
  -2   0   3   21567     450
  -1   0   3     487      26
   0   0   3  416747    6505
   1   0   3   28321     448
   2   0   3    6709     188
   3   0   3   30530     638
   4   0   3    3169     124
   5   0   3    1366     101
   6   0   3   11394     407
   7   0   3    5371     297
   8   0   3     931     191
   9   0   3      85     172
 -10   1   3     306     185
  -9   1   3     209     118
  -8   1   3     173      71
  -7   1   3    8895     269
  -6   1   3     680      62
  -5   1   3     312      47
  -4   1   3   17175     392
  -3   1   3    4821     127
  -2   1   3  163639    2796
  -1   1   3   27298     458
   0   1   3  507227    8123
   1   1   3    5495     132
   2   1   3     282      42
   3   1   3     111      40
   4   1   3    2096     154
   5   1   3     444     104
   6   1   3    4094     235
   7   1   3      30     116
   8   1   3      51     169
 -10   2   3     525     178
  -9   2   3    2874     187
  -8   2   3    1603     188
  -7   2   3    7807     261
  -6   2   3   14242     366
  -5   2   3     433      47
  -4   2   3     404      49
  -3   2   3   19757     426
  -2   2   3     268      31
  -1   2   3  118139    2013
   0   2   3    3540     119
   1   2   3    5994     168
   2   2   3     -21      42
   3   2   3   12941     388
   4   2   3    2606     177
   5   2   3     608     116
   6   2   3     253     128
   7   2   3    -106     129
   8   2   3      79     176
 -10   3   3      -1      98
  -9   3   3     213      97
  -8   3   3    1633     150
  -7   3   3    8244     311
  -6   3   3     564      60
  -5   3   3   11609     297
  -4   3   3    5380     175
  -3   3   3     407      52
  -2   3   3  143373    2712
  -1   3   3    5291     172
   0   3   3   11129     315
   1   3   3   33748     821
   2   3   3    1240      84
   3   3   3    1854     137
   4   3   3    2758     264
   5   3   3     -14     124
   6   3   3     229     140
   7   3   3     878     203
 -10   4   3     167     108
  -9   4   3    2273     203
  -8   4   3    3788     289
  -7   4   3   11085     403
  -6   4   3    7875     259
  -5   4   3    1155     123
  -4   4   3    1561     206
  -3   4   3   15450     466
  -2   4   3    3895     209
  -1   4   3    2095     161
   0   4   3     -21      77
   1   4   3     120      49
   2   4   3     333      63
   3   4   3    1822     143
   4   4   3    2064     161
   5   4   3     513     156
   6   4   3      93     165
 -10   5   3     286     138
  -9   5   3     156     135
  -8   5   3     183     154
  -7   5   3     860     127
  -6   5   3    1895     198
  -5   5   3   18368     741
  -4   5   3     826      97
  -3   5   3    2087     125
  -2   5   3    9254     381
  -1   5   3    1308     205
   0   5   3     225      94
   1   5   3      31      78
   2   5   3      -1      84
   3   5   3      66      84
   4   5   3     488     144
   5   5   3     977     212
   6   5   3     163     166
 -10   6   3      25     117
  -9   6   3    1190     194
  -8   6   3    2669     238
  -7   6   3    4034     285
  -6   6   3    7869     381
  -5   6   3    2441     240
  -4   6   3    1943     149
  -3   6   3    5251     232
  -2   6   3    2700     175
  -1   6   3     981     146
   0   6   3    7523     354
   1   6   3     -73      90
   2   6   3     586     124
   3   6   3     801     175
   4   6   3     620     332
   5   6   3     138     183
 -10   7   3      64     189
  -9   7   3     402     172
  -8   7   3    -114     131
  -7   7   3    4787     359
  -6   7   3     708     146
  -5   7   3    5554     325
  -4   7   3    3121     253
  -3   7   3     608     114
  -2   7   3     502     117
  -1   7   3      33     104
   0   7   3    -102     102
   1   7   3     832     196
   2   7   3     -18     116
   3   7   3     232     184
   4   7   3     279     208
  -9   8   3       0     184
  -8   8   3      34     158
  -7   8   3      98     201
  -6   8   3     127     111
  -5   8   3     125     116
  -4   8   3    2078     236
  -3   8   3    3141     270
  -2   8   3     893     147
  -1   8   3      33     120
   0   8   3    -109     109
   1   8   3     735     224
   2   8   3     -67     154
   3   8   3     977     249
  -8   9   3    -140     206
  -7   9   3      72     210
  -6   9   3    1482     207
  -5   9   3     644     213
  -4   9   3     849     180
  -3   9   3     395     156
  -2   9   3     725     178
  -1   9   3      16     152
   0   9   3    -129     148
   1   9   3    -312     312
  -7  10   3    -208     273
  -6  10   3     427     289
  -5  10   3      26     169
  -4  10   3     -43     170
  -3  10   3    1997     276
  -2  10   3    -161     161
  -1  10   3     -47     458
   1 -12   4     262     229
   2 -12   4     240     199
   3 -12   4     580     191
   4 -12   4    1322     243
   5 -12   4     243     238
  -1 -11   4     137     216
   0 -11   4    1029     267
   1 -11   4     860     205
   2 -11   4     -17     124
   3 -11   4     492     170
   4 -11   4    1210     207
   5 -11   4     102     175
   6 -11   4    1095     373
   7 -11   4     172     210
  -3 -10   4     200     172
  -2 -10   4     -52     154
  -1 -10   4    1064     243
   0 -10   4      87     242
   1 -10   4     -45     150
   2 -10   4      53     113
   3 -10   4     -17     109
   4 -10   4    1615     199
   5 -10   4    1533     221
   6 -10   4     401     158
   7 -10   4     864     207
   8 -10   4     311     254
  -4  -9   4      55     163
  -3  -9   4     578     171
  -2  -9   4     280     354
  -1  -9   4     827     218
   0  -9   4    3647     285
   1  -9   4      23     126
   2  -9   4     121     100
   3  -9   4     138      83
   4  -9   4    4981     215
   5  -9   4    1650     163
   6  -9   4      85     106
   7  -9   4     329     120
   8  -9   4     -96     152
  -5  -8   4    -128     148
  -4  -8   4    1372     201
  -3  -8   4      -8     117
  -2  -8   4     413     164
  -1  -8   4    7676     375
   0  -8   4     557     135
   1  -8   4    2712     148
   2  -8   4    8374     264
   3  -8   4   19203     483
   4  -8   4    3277     219
   5  -8   4    1426     147
   6  -8   4     -44      95
   7  -8   4      66      95
   8  -8   4     154     149
   9  -8   4     969     244
  -6  -7   4    1420     243
  -5  -7   4    1057     265
  -4  -7   4     204     104
  -3  -7   4     316     130
  -2  -7   4      88      90
  -1  -7   4    1686     169
   0  -7   4    5422     252
   1  -7   4    3014     145
   2  -7   4    4083     166
   3  -7   4   13620     364
   4  -7   4    5735     219
   5  -7   4      88      92
   6  -7   4     803     132
   7  -7   4    5871     340
   8  -7   4     -57     178
   9  -7   4     221     300
  -7  -6   4       3     292
  -6  -6   4     346     131
  -5  -6   4      24     150
  -4  -6   4    1687     179
  -3  -6   4   13924     608
  -2  -6   4    2589     150
  -1  -6   4   19570     702
   0  -6   4   20244     581
   1  -6   4     988      76
   2  -6   4   15082     373
   3  -6   4     305      72
   4  -6   4     591      88
   5  -6   4     250      75
   6  -6   4    6311     237
   7  -6   4    1526     174
   8  -6   4     718     154
   9  -6   4     -38     231
  -8  -5   4     -75     180
  -7  -5   4     -89     169
  -6  -5   4      31     130
  -5  -5   4    1320     133
  -4  -5   4   10204     347
  -3  -5   4    4937     171
  -2  -5   4    1514      81
  -1  -5   4     239      45
   0  -5   4   13891     326
   1  -5   4   30896     674
   2  -5   4    6459     208
   3  -5   4    5496     191
   4  -5   4    3270     154
   5  -5   4    1204     114
   6  -5   4      90      76
   7  -5   4    2550     227
   8  -5   4     151     210
   9  -5   4     150     171
  -8  -4   4     -78     220
  -7  -4   4    -119     120
  -6  -4   4    2060     129
  -5  -4   4     692      80
  -4  -4   4   22857     638
  -3  -4   4   13536     374
  -2  -4   4    2087      87
  -1  -4   4     147      37
   0  -4   4   36728     685
   1  -4   4    2410      87
   2  -4   4     617      63
   3  -4   4    6349     225
   4  -4   4      49      64
   5  -4   4      32      68
   6  -4   4    1305     225
   7  -4   4     231     114
   8  -4   4     114     178
   9  -4   4    -104     162
  -9  -3   4     117     218
  -8  -3   4       5     188
  -7  -3   4    4917     299
  -6  -3   4    2378     172
  -5  -3   4    2986     132
  -4  -3   4   12422     464
  -3  -3   4   40564     886
  -2  -3   4    9853     231
  -1  -3   4    3056      90
   0  -3   4   68994    1238
   1  -3   4   13991     297
   2  -3   4   17142     364
   3  -3   4    8668     239
   4  -3   4   10418     321
   5  -3   4     205      79
   6  -3   4     959     107
   7  -3   4     173     144
   8  -3   4     868     197
   9  -3   4     183     185
  -9  -2   4     -57     154
  -8  -2   4     -33      98
  -7  -2   4    4039     402
  -6  -2   4    4500     368
  -5  -2   4    3678     429
  -4  -2   4   10679     584
  -3  -2   4   88498    1880
  -2  -2   4    5583     131
  -1  -2   4   26097     387
   0  -2   4   58649     895
   1  -2   4     310      32
   2  -2   4     395      58
   3  -2   4   65494    1543
   4  -2   4    3514     128
   5  -2   4     607      84
   6  -2   4    1070     169
   7  -2   4    3280     293
   8  -2   4     -38     230
   9  -2   4      13     253
 -10  -1   4     105     229
  -9  -1   4     -34     165
  -8  -1   4      -8     118
  -7  -1   4     173      93
  -6  -1   4     159      94
  -5  -1   4    2029     169
  -4  -1   4     118      35
  -3  -1   4   20102     362
  -2  -1   4    5676     122
  -1  -1   4    8128     142
   0  -1   4   35876     579
   1  -1   4    2632      95
   2  -1   4    5820     182
   3  -1   4    1904     128
   4  -1   4     211      48
   5  -1   4     570      67
   6  -1   4     481      97
   7  -1   4    9795     507
   8  -1   4      -7     178
 -10   0   4     326     255
  -9   0   4      58     118
  -8   0   4     883     162
  -7   0   4    2569     200
  -6   0   4     -66      66
  -5   0   4    9812     264
  -4   0   4    1874      75
  -3   0   4    9845     246
  -2   0   4    2967      74
  -1   0   4   37097     549
   0   0   4   27755     442
   1   0   4   20129     398
   2   0   4    2724     130
   3   0   4     827      82
   4   0   4    4982     198
   5   0   4    2709     186
   6   0   4   11747     671
   7   0   4     680     224
   8   0   4     518     214
 -10   1   4    2180     265
  -9   1   4     733     191
  -8   1   4     103     106
  -7   1   4    1492      88
  -6   1   4   20099     454
  -5   1   4     400      42
  -4   1   4   32184     715
  -3   1   4    5127     133
  -2   1   4   52726     902
  -1   1   4   52149     825
   0   1   4    6566     159
   1   1   4   51140    1051
   2   1   4     789      45
   3   1   4    1540      91
   4   1   4     248     103
   5   1   4     309      94
   6   1   4     368     133
   7   1   4      23     165
   8   1   4     398     199
 -10   2   4     828     166
  -9   2   4     105      82
  -8   2   4       3      58
  -7   2   4     102      87
  -6   2   4   23679     602
  -5   2   4    4806     153
  -4   2   4    4096     134
  -3   2   4    4231     132
  -2   2   4   45843     835
  -1   2   4   39811     818
   0   2   4  121109    2432
   1   2   4   26953     591
   2   2   4     420      82
   3   2   4    3187     209
   4   2   4    9410     442
   5   2   4    1970     205
   6   2   4     317     165
   7   2   4     486     213
 -10   3   4    -132     132
  -9   3   4     262     132
  -8   3   4     327      99
  -7   3   4   41367    1248
  -6   3   4     -30      41
  -5   3   4    1422      59
  -4   3   4    4118     146
  -3   3   4    6823     191
  -2   3   4   22188     565
  -1   3   4      61      51
   0   3   4     451      82
   1   3   4    3971     157
   2   3   4     980     105
   3   3   4    2760     173
   4   3   4     174     113
   5   3   4    3647     312
   6   3   4      32     132
   7   3   4    -168     240
 -10   4   4     137     104
  -9   4   4     -96      96
  -8   4   4    3725     266
  -7   4   4    5241     338
  -6   4   4    5401     201
  -5   4   4     -23      44
  -4   4   4    5041     185
  -3   4   4   18102     541
  -2   4   4    2696     131
  -1   4   4   15327     537
   0   4   4    1522     145
   1   4   4      -6      58
   2   4   4      36      83
   3   4   4     148      93
   4   4   4     420     122
   5   4   4     310     322
   6   4   4     -52     158
 -10   5   4     -44     111
  -9   5   4    2001     229
  -8   5   4      67     132
  -7   5   4       3     124
  -6   5   4    4881     277
  -5   5   4    5728     342
  -4   5   4    2239     306
  -3   5   4     215      49
  -2   5   4    -111     111
  -1   5   4    4735     266
   0   5   4    4434     256
   1   5   4     198      76
   2   5   4    2670     202
   3   5   4    2417     214
   4   5   4     139     142
   5   5   4    -145     150
 -10   6   4     458     167
  -9   6   4     981     193
  -8   6   4    2532     259
  -7   6   4    2295     232
  -6   6   4    -100     100
  -5   6   4   12297     501
  -4   6   4   17496     645
  -3   6   4     564     108
  -2   6   4      33     139
  -1   6   4    1989     202
   0   6   4    1978     188
   1   6   4    2849     247
   2   6   4    1751     185
   3   6   4     307     155
   4   6   4     220     190
 -10   7   4     133     171
  -9   7   4     119     152
  -8   7   4      20     124
  -7   7   4     959     176
  -6   7   4       6     128
  -5   7   4     -50     107
  -4   7   4     451     140
  -3   7   4      59     101
  -2   7   4    1204     146
  -1   7   4     -41     128
   0   7   4      -2     113
   1   7   4      43     138
   2   7   4     166     129
   3   7   4     463     167
  -9   8   4     427     226
  -8   8   4     973     205
  -7   8   4     524     208
  -6   8   4     285     168
  -5   8   4     152     142
  -4   8   4      11     151
  -3   8   4     416     210
  -2   8   4    1184     291
  -1   8   4      36     108
   0   8   4     142     169
   1   8   4     313     165
   2   8   4    -175     197
  -8   9   4     278     182
  -7   9   4      83     195
  -6   9   4     121     231
  -5   9   4     194     161
  -4   9   4    -109     136
  -3   9   4    1910     254
  -2   9   4     516     197
  -1   9   4     -50     377
   0   9   4     112     234
  -6  10   4     802     225
  -5  10   4     -85     136
  -4  10   4     161     193
  -3  10   4      64     175
  -2  10   4     928     258
   1 -12   5     553     193
   2 -12   5      -5     369
   3 -12   5    2212     248
   4 -12   5     465     192
   5 -12   5     133     210
  -2 -11   5    -170     170
  -1 -11   5       7     179
   0 -11   5     106     201
   1 -11   5     -57     144
   2 -11   5     722     175
   3 -11   5    1128     197
   4 -11   5     505     176
   5 -11   5    -116     165
   6 -11   5     -63     163
  -3 -10   5     110     147
  -2 -10   5    -100     157
  -1 -10   5     -11     150
   0 -10   5     209     202
   1 -10   5    1139     182
   2 -10   5    1107     168
   3 -10   5     -79      79
   4 -10   5    1078     162
   5 -10   5     283     123
   6 -10   5     714     148
   7 -10   5      58     121
  -5  -9   5     -44     139
  -4  -9   5     330     218
  -3  -9   5     241     155
  -2  -9   5     711     217
  -1  -9   5     502     198
   0  -9   5      20     180
   1  -9   5    1097     250
   2  -9   5     428     106
   3  -9   5      69      73
   4  -9   5     151      91
   5  -9   5    2017     194
   6  -9   5     181     119
   7  -9   5     328     118
   8  -9   5     293     178
  -6  -8   5     329     224
  -5  -8   5     -71     115
  -4  -8   5     208     130
  -3  -8   5    2550     261
  -2  -8   5     116     160
  -1  -8   5     -94      94
   0  -8   5    5131     268
   1  -8   5      49      72
   2  -8   5   11055     322
   3  -8   5    3175     169
   4  -8   5    1965     152
   5  -8   5      96     104
   6  -8   5    1088     153
   7  -8   5     338     128
   8  -8   5     177     156
  -6  -7   5    1537     277
  -5  -7   5    1565     200
  -4  -7   5     223     110
  -3  -7   5    5299     304
  -2  -7   5     116      81
  -1  -7   5    1132     116
   0  -7   5     108      59
   1  -7   5      13      74
   2  -7   5    6838     225
   3  -7   5    4365     219
   4  -7   5    7123     257
   5  -7   5    4160     201
   6  -7   5     661     123
   7  -7   5    1071     163
   8  -7   5     212     138
   9  -7   5      45     231
  -7  -6   5     312     331
  -6  -6   5    -105     105
  -5  -6   5    3443     302
  -4  -6   5    4332     266
  -3  -6   5   52226    1274
  -2  -6   5    1944     100
  -1  -6   5    4252     153
   0  -6   5    1987     108
   1  -6   5    3200     136
   2  -6   5     178      59
   3  -6   5   32916     855
   4  -6   5    8588     263
   5  -6   5      50      75
   6  -6   5     528     103
   7  -6   5    4494     311
   8  -6   5     -15     118
   9  -6   5    -107     228
  -8  -5   5     311     257
  -7  -5   5     107     220
  -6  -5   5    1819     227
  -5  -5   5    3885     204
  -4  -5   5   37930    1056
  -3  -5   5   12337     363
  -2  -5   5     243      50
  -1  -5   5    2179      97
   0  -5   5   47369     927
   1  -5   5    6933     231
   2  -5   5    1407      86
   3  -5   5     614      62
   4  -5   5    1108     117
   5  -5   5    6061     248
   6  -5   5     455     114
   7  -5   5    1917     200
   8  -5   5     286     183
   9  -5   5      62     189
  -9  -4   5     -90     261
  -8  -4   5    -113     192
  -7  -4   5     341     146
  -6  -4   5    2803     269
  -5  -4   5    5917     215
  -4  -4   5   11809     302
  -3  -4   5      19      36
  -2  -4   5    3482     121
  -1  -4   5    3965     125
   0  -4   5  150304    2680
   1  -4   5      57      49
   2  -4   5    5518     173
   3  -4   5     431      63
   4  -4   5    4570     197
   5  -4   5    1610     194
   6  -4   5    1473     145
   7  -4   5     -34     140
   8  -4   5     -66     154
   9  -4   5     161     252
  -9  -3   5    -171     291
  -8  -3   5    -115     115
  -7  -3   5    2457     266
  -6  -3   5    5141     369
  -5  -3   5    2779     184
  -4  -3   5    2793     110
  -3  -3   5   12519     308
  -2  -3   5   15417     352
  -1  -3   5   10281     234
   0  -3   5   26634     460
   1  -3   5   24235     564
   2  -3   5    8115     260
   3  -3   5   12106     403
   4  -3   5     901     108
   5  -3   5       2      61
   6  -3   5     872     346
   7  -3   5       9     172
   8  -3   5     -49     143
   9  -3   5     333     247
  -9  -2   5    -162     162
  -8  -2   5     303     127
  -7  -2   5     127     184
  -6  -2   5     572     273
  -5  -2   5    5056     520
  -4  -2   5    1678      66
  -3  -2   5   22323     482
  -2  -2   5    1981      72
  -1  -2   5   12181     221
   0  -2   5   12386     267
   1  -2   5   16988     362
   2  -2   5     112      42
   3  -2   5    1593      81
   4  -2   5    3716     198
   5  -2   5     -41     217
   6  -2   5     -94      94
   7  -2   5     384     168
   8  -2   5     303     279
 -10  -1   5       0     260
  -9  -1   5     -13     155
  -8  -1   5     132     136
  -7  -1   5     420     126
  -6  -1   5    5430     300
  -5  -1   5    1674     156
  -4  -1   5    1045      60
  -3  -1   5   58275    1106
  -2  -1   5    1697      58
  -1  -1   5    6135     142
   0  -1   5    3235     109
   1  -1   5   62770    2116
   2  -1   5    3152     143
   3  -1   5    3163     160
   4  -1   5     212      52
   5  -1   5     285     112
   6  -1   5      87     164
   7  -1   5     120     206
   8  -1   5     289     403
 -10   0   5    3119     437
  -9   0   5     355     127
  -8   0   5     -79      79
  -7   0   5     359     108
  -6   0   5    1145      95
  -5   0   5    1280      54
  -4   0   5   16202     345
  -3   0   5    7907     201
  -2   0   5    8508     204
  -1   0   5     227      31
   0   0   5   17507     349
   1   0   5   20676     466
   2   0   5      67      58
   3   0   5    5568     191
   4   0   5    2362     174
   5   0   5     917     111
   6   0   5    -169     240
   7   0   5    2815     325
   8   0   5       8     191
 -10   1   5     965     206
  -9   1   5      96     128
  -8   1   5     689     112
  -7   1   5    1372      90
  -6   1   5     510      55
  -5   1   5    5296     158
  -4   1   5   89241    1670
  -3   1   5   16433     329
  -2   1   5    4243     103
  -1   1   5    3231     115
   0   1   5  134663    2698
   1   1   5    8446     233
   2   1   5     560      61
   3   1   5     111      88
   4   1   5    1607     184
   5   1   5    1962     171
   6   1   5    1208     218
   7   1   5    -119     189
 -10   2   5     346     151
  -9   2   5     260     127
  -8   2   5     354      89
  -7   2   5    6400     272
  -6   2   5    3087     114
  -5   2   5     187      63
  -4   2   5   15434     354
  -3   2   5    4314     153
  -2   2   5    9485     223
  -1   2   5   15749     338
   0   2   5   76814    1676
   1   2   5   10279     278
   2   2   5    1962     102
   3   2   5    2858     183
   4   2   5    3460     258
   5   2   5      60     162
   6   2   5    -104     144
   7   2   5      50     196
 -10   3   5     659     166
  -9   3   5    1745     203
  -8   3   5     -55      91
  -7   3   5   28136     902
  -6   3   5    3022     123
  -5   3   5    1607     108
  -4   3   5      61      49
  -3   3   5    7933     224
  -2   3   5      -1      46
  -1   3   5   28293     613
   0   3   5     732      86
   1   3   5     762     128
   2   3   5    4243     166
   3   3   5     120      96
   4   3   5     338     120
   5   3   5      62     152
   6   3   5      53     193
 -10   4   5     588     142
  -9   4   5    1352     172
  -8   4   5      34     115
  -7   4   5   13372     611
  -6   4   5    2587     218
  -5   4   5   10238     315
  -4   4   5     626      82
  -3   4   5     111      41
  -2   4   5    7149     224
  -1   4   5    2820     153
   0   4   5    2064     159
   1   4   5    2994     167
   2   4   5    2384     178
   3   4   5    3509     212
   4   4   5    -109     109
   5   4   5     307     324
 -10   5   5     306     144
  -9   5   5    1624     285
  -8   5   5     130     135
  -7   5   5    1659     223
  -6   5   5    9782     422
  -5   5   5    2788     210
  -4   5   5    3116     194
  -3   5   5    2077     107
  -2   5   5    2498     163
  -1   5   5    3921     256
   0   5   5    1460     148
   1   5   5     420     122
   2   5   5     753     141
   3   5   5     161     127
   4   5   5      76     124
 -10   6   5     369     175
  -9   6   5     -61     145
  -8   6   5    -129     129
  -7   6   5    1911     288
  -6   6   5    1775     190
  -5   6   5     848     125
  -4   6   5    1055     166
  -3   6   5     556     150
  -2   6   5      96     123
  -1   6   5    1225     167
   0   6   5     -83      98
   1   6   5      12     128
   2   6   5     209     131
   3   6   5    -161     161
   4   6   5     689     481
  -9   7   5     106     158
  -8   7   5    1390     214
  -7   7   5     563     186
  -6   7   5    1072     171
  -5   7   5       0     114
  -4   7   5     394     146
  -3   7   5     737     178
  -2   7   5     495     151
  -1   7   5     245     130
   0   7   5      24     179
   1   7   5      21     135
   2   7   5     -20     150
  -9   8   5     330     229
  -8   8   5     -72     144
  -7   8   5     438     161
  -6   8   5    -205     263
  -5   8   5    -119     119
  -4   8   5      42     155
  -3   8   5    1107     209
  -2   8   5    1624     232
  -1   8   5     -28     196
   0   8   5     195     171
   1   8   5     116     188
  -7   9   5     125     169
  -6   9   5     885     238
  -5   9   5     132     171
  -4   9   5     625     214
  -3   9   5     359     197
  -2   9   5     -63     216
  -1   9   5      64     250
   1 -12   6     -20     220
   2 -12   6     -73     208
   3 -12   6    1679     286
   4 -12   6    -165     165
  -2 -11   6     507     198
  -1 -11   6     -94     138
   0 -11   6    -109     145
   1 -11   6     119     160
   2 -11   6     686     168
   3 -11   6     446     252
   4 -11   6    -133     133
   5 -11   6     -18     141
   6 -11   6      62     154
  -3 -10   6     653     223
  -2 -10   6    -123     123
  -1 -10   6     494     156
   0 -10   6     679     161
   1 -10   6     -48     133
   2 -10   6     -94      94
   3 -10   6      45     108
   4 -10   6    -117     152
   5 -10   6     546     328
   6 -10   6     421     145
   7 -10   6      20     134
  -5  -9   6     149     150
  -4  -9   6      64     145
  -3  -9   6     113     133
  -2  -9   6     528     167
  -1  -9   6     -31     169
   0  -9   6    1237     138
   1  -9   6    1194     151
   2  -9   6     521     105
   3  -9   6      86      88
   4  -9   6    2166     169
   5  -9   6    2306     196
   6  -9   6      -5     118
   7  -9   6     881     157
   8  -9   6     413     187
  -6  -8   6     -14     166
  -5  -8   6      42     109
  -4  -8   6     234     136
  -3  -8   6    2417     233
  -2  -8   6    2957     372
  -1  -8   6     135      89
   0  -8   6    4984     226
   1  -8   6     733      89
   2  -8   6    2596     146
   3  -8   6     157      73
   4  -8   6    4009     212
   5  -8   6     -31      90
   6  -8   6     -98      98
   7  -8   6    -111     111
   8  -8   6    -139     139
  -7  -7   6     918     247
  -6  -7   6    -147     173
  -5  -7   6      97     276
  -4  -7   6    1216     164
  -3  -7   6     979     144
  -2  -7   6    1934     138
  -1  -7   6    8430     285
   0  -7   6    1041      95
   1  -7   6     873      89
   2  -7   6   14548     379
   3  -7   6   41859     913
   4  -7   6   11670     396
   5  -7   6    1148     139
   6  -7   6     315     126
   7  -7   6       8     107
   8  -7   6     -28     147
  -7  -6   6      98     187
  -6  -6   6     -35     177
  -5  -6   6    9711     456
  -4  -6   6    6007     312
  -3  -6   6   11304     401
  -2  -6   6    1845     103
  -1  -6   6    2309     113
   0  -6   6    1195      90
   1  -6   6     106      70
   2  -6   6   19118     489
   3  -6   6   38360     893
   4  -6   6    4264     217
   5  -6   6    2481     176
   6  -6   6    1240     138
   7  -6   6    5694     367
   8  -6   6     530     526
  -8  -5   6      57     170
  -7  -5   6       9     149
  -6  -5   6     418     135
  -5  -5   6     235      77
  -4  -5   6   27261     900
  -3  -5   6    3579     145
  -2  -5   6     290      57
  -1  -5   6    8676     242
   0  -5   6   20484     507
   1  -5   6    7374     232
   2  -5   6     -29      56
   3  -5   6      -4      63
   4  -5   6    2283     139
   5  -5   6    1100     125
   6  -5   6    1996     174
   7  -5   6     497     198
   8  -5   6     930     305
  -9  -4   6     645     268
  -8  -4   6     138     206
  -7  -4   6    2569     334
  -6  -4   6    3316     247
  -5  -4   6    7834     324
  -4  -4   6   12282     292
  -3  -4   6      25      38
  -2  -4   6    1682      95
  -1  -4   6    5435     167
   0  -4   6    2357     100
   1  -4   6   15255     361
   2  -4   6    2357     135
   3  -4   6      38      69
   4  -4   6    1163     143
   5  -4   6     256     109
   6  -4   6    3518     261
   7  -4   6      25     159
   8  -4   6      -9     162
  -9  -3   6      63     184
  -8  -3   6     228     152
  -7  -3   6      75     171
  -6  -3   6    8017     453
  -5  -3   6    8038     435
  -4  -3   6     117      19
  -3  -3   6     230      39
  -2  -3   6   33160     746
  -1  -3   6    1021      84
   0  -3   6    1076      75
   1  -3   6   23485     519
   2  -3   6     599      99
   3  -3   6     -81      96
   4  -3   6     887     122
   5  -3   6     -68      97
   6  -3   6     264     227
   7  -3   6      30     146
   8  -3   6     126     221
  -9  -2   6     288     251
  -8  -2   6     209     147
  -7  -2   6    2036     366
  -6  -2   6     185     105
  -5  -2   6     -63      69
  -4  -2   6      98      26
  -3  -2   6    6749     187
  -2  -2   6     373      45
  -1  -2   6     166      58
   0  -2   6    4048     116
   1  -2   6    3740     126
   2  -2   6     643     129
   3  -2   6    5656     228
   4  -2   6     766      77
   5  -2   6     111      92
   6  -2   6     143     109
   7  -2   6     -41     260
   8  -2   6     323     292
 -10  -1   6     403     351
  -9  -1   6     129     132
  -8  -1   6     162     109
  -7  -1   6    6070     301
  -6  -1   6    4778     283
  -5  -1   6    2731     125
  -4  -1   6   13602     380
  -3  -1   6   10594     245
  -2  -1   6   16795     305
  -1  -1   6   13596     321
   0  -1   6    5247     169
   1  -1   6     932     110
   2  -1   6    2060     123
   3  -1   6    9359     282
   4  -1   6    1451     137
   5  -1   6      -2     101
   6  -1   6     700     168
   7  -1   6    2561     387
   8  -1   6     487     286
 -10   0   6     476     176
  -9   0   6      66     109
  -8   0   6    3962     272
  -7   0   6     777     106
  -6   0   6    4016     130
  -5   0   6   12964     281
  -4   0   6   23158     481
  -3   0   6   17484     352
  -2   0   6   10250     224
  -1   0   6    8472     205
   0   0   6   11476     264
   1   0   6      -3      46
   2   0   6      85      48
   3   0   6    2591     115
   4   0   6     233      87
   5   0   6      55     101
   6   0   6    1240     381
   7   0   6    2315     311
 -10   1   6     -94     109
  -9   1   6     403     127
  -8   1   6    1789     152
  -7   1   6    1393     106
  -6   1   6    1438      86
  -5   1   6     991      69
  -4   1   6    6204     167
  -3   1   6   18439     352
  -2   1   6    1659      65
  -1   1   6    1180      68
   0   1   6   59237    1312
   1   1   6     887      84
   2   1   6    2442     122
   3   1   6    7316     318
   4   1   6      22     185
   5   1   6     520     169
   6   1   6    2112     305
   7   1   6      34     214
 -10   2   6     363     170
  -9   2   6      91     123
  -8   2   6      49     136
  -7   2   6    1849     140
  -6   2   6    3659     128
  -5   2   6     952      66
  -4   2   6   16374     377
  -3   2   6   17906     387
  -2   2   6   44026     858
  -1   2   6   10149     274
   0   2   6     684      86
   1   2   6   20284     587
   2   2   6     629      68
   3   2   6    4348     259
   4   2   6     236     231
   5   2   6      98     183
   6   2   6     354     208
 -10   3   6     308     133
  -9   3   6     636     125
  -8   3   6    -110     110
  -7   3   6    1922     170
  -6   3   6   30042     951
  -5   3   6    1283     106
  -4   3   6      33      62
  -3   3   6    1786      97
  -2   3   6    5549     175
  -1   3   6      41      65
   0   3   6    1603     120
   1   3   6   12594     396
   2   3   6     -19      86
   3   3   6    2621     196
   4   3   6      36     110
   5   3   6     171     199
 -10   4   6     687     153
  -9   4   6     448     134
  -8   4   6      67     133
  -7   4   6    5615     364
  -6   4   6   16081     515
  -5   4   6    4142     209
  -4   4   6    3473     173
  -3   4   6    3749     150
  -2   4   6    9139     275
  -1   4   6     431      76
   0   4   6    1020     125
   1   4   6      11     100
   2   4   6     185     110
   3   4   6     297     151
   4   4   6     128     158
   5   4   6    -197     331
 -10   5   6     389     147
  -9   5   6    -103     103
  -8   5   6    1642     280
  -7   5   6    3720     322
  -6   5   6     157     114
  -5   5   6    2829     178
  -4   5   6     136      78
  -3   5   6    2482     178
  -2   5   6    1488     140
  -1   5   6    2161     188
   0   5   6    1652     179
   1   5   6     233     130
   2   5   6     410     144
   3   5   6     167     145
   4   5   6    -171     171
 -10   6   6    -247     416
  -9   6   6     157     164
  -8   6   6     819     202
  -7   6   6      17     126
  -6   6   6     383     126
  -5   6   6      75      92
  -4   6   6    1318     156
  -3   6   6     806     133
  -2   6   6    -119     119
  -1   6   6     -99      99
   0   6   6     226     133
   1   6   6     128     118
   2   6   6     108     126
   3   6   6      73     166
  -9   7   6     -21     153
  -8   7   6    1116     240
  -7   7   6     594     209
  -6   7   6     197     176
  -5   7   6     144     110
  -4   7   6     550     172
  -3   7   6     -96      96
  -2   7   6      39     162
  -1   7   6     494     169
   0   7   6     181     150
   1   7   6     354     152
  -8   8   6      88     170
  -7   8   6    1100     292
  -6   8   6    -102     146
  -5   8   6     837     197
  -4   8   6    2040     527
  -3   8   6     -37     143
  -2   8   6     109     241
  -1   8   6    -165     165
   0   8   6     -92     148
  -6   9   6      29     209
  -5   9   6      89     227
  -4   9   6     -83     175
  -3   9   6     -97     184
   1 -12   7     370     165
   2 -12   7     -67     233
   3 -12   7      65     174
  -2 -11   7      84     153
  -1 -11   7     107     147
   0 -11   7    -135     135
   1 -11   7    -134     134
   2 -11   7     408     146
   3 -11   7    2063     247
   4 -11   7     783     311
   5 -11   7    -153     153
   6 -11   7      60     140
  -3 -10   7     306     182
  -2 -10   7       1     138
  -1 -10   7     262     236
   0 -10   7    1252     191
   1 -10   7      45      94
   2 -10   7     -11      96
   3 -10   7      58     126
   4 -10   7    1407     193
   5 -10   7     -71     102
   6 -10   7     124     144
   7 -10   7    -125     125
  -5  -9   7    -123     233
  -4  -9   7     120     371
  -3  -9   7     405     149
  -2  -9   7      -2     114
  -1  -9   7      76     106
   0  -9   7      78     130
   1  -9   7     306     119
   2  -9   7     122      77
   3  -9   7      16      99
   4  -9   7     653     133
   5  -9   7     248     127
   6  -9   7    1776     203
   7  -9   7     445     145
  -6  -8   7     137     219
  -5  -8   7     -58     133
  -4  -8   7     451     165
  -3  -8   7      60     157
  -2  -8   7    5185     256
  -1  -8   7    2964     181
   0  -8   7     762     108
   1  -8   7     508      86
   2  -8   7    3865     179
   3  -8   7      70     105
   4  -8   7     854     138
   5  -8   7    1221     139
   6  -8   7     -94     109
   7  -8   7     -33     145
   8  -8   7      47     244
  -7  -7   7     359     217
  -6  -7   7     480     204
  -5  -7   7     142     118
  -4  -7   7     194     236
  -3  -7   7    2094     168
  -2  -7   7    2491     156
  -1  -7   7    2981     171
   0  -7   7    1602     129
   1  -7   7     269      68
   2  -7   7      66      69
   3  -7   7   36803     948
   4  -7   7     216     120
   5  -7   7    2504     211
   6  -7   7    -129     129
   7  -7   7     -33     181
   8  -7   7    -142     240
  -7  -6   7     539     205
  -6  -6   7      68     186
  -5  -6   7     858     138
  -4  -6   7     879     137
  -3  -6   7   10099     348
  -2  -6   7    1252      98
  -1  -6   7     -58      58
   0  -6   7     814     122
   1  -6   7    3250     154
   2  -6   7    1479     122
   3  -6   7    4075     248
   4  -6   7    7784     345
   5  -6   7     480     142
   6  -6   7      66     117
   7  -6   7     198     196
   8  -6   7    1584     343
  -8  -5   7    2448     327
  -7  -5   7     874     399
  -6  -5   7     458     138
  -5  -5   7    1649     149
  -4  -5   7   17284     501
  -3  -5   7   41259     883
  -2  -5   7     447      69
  -1  -5   7    1731     113
   0  -5   7     634      99
   1  -5   7   20833     564
   2  -5   7     537     100
   3  -5   7      99      68
   4  -5   7    1487     164
   5  -5   7     314     105
   6  -5   7     310     139
   7  -5   7     625     210
   8  -5   7     106     259
  -9  -4   7     810     299
  -8  -4   7    1129     225
  -7  -4   7     503     152
  -6  -4   7     672     176
  -5  -4   7     206      43
  -4  -4   7   35783     719
  -3  -4   7     114      48
  -2  -4   7    3253     141
  -1  -4   7    3299     126
   0  -4   7   43628     988
   1  -4   7    5124     206
   2  -4   7    2137     167
   3  -4   7      62      90
   4  -4   7     169     100
   5  -4   7     440     119
   6  -4   7      24     104
   7  -4   7     404     214
   8  -4   7     -16     231
  -9  -3   7     294     123
  -8  -3   7     108     102
  -7  -3   7     131     108
  -6  -3   7      91     124
  -5  -3   7    3410     114
  -4  -3   7    3372     125
  -3  -3   7      21      41
  -2  -3   7      -4      39
  -1  -3   7    2069      92
   0  -3   7   24634     584
   1  -3   7     266      55
   2  -3   7     -28      56
   3  -3   7      40      81
   4  -3   7     193      95
   5  -3   7     993     182
   6  -3   7      79     157
   7  -3   7      -2     222
   8  -3   7     378     279
  -9  -2   7     189     110
  -8  -2   7     307     102
  -7  -2   7    1007     170
  -6  -2   7     -75      93
  -5  -2   7    5832     191
  -4  -2   7      81      31
  -3  -2   7    3527     120
  -2  -2   7    1023      64
  -1  -2   7   27913    1291
   0  -2   7   11020     275
   1  -2   7    8200     299
   2  -2   7    1772     117
   3  -2   7    8464     346
   4  -2   7     -83      87
   5  -2   7     -94      94
   6  -2   7     170     164
   7  -2   7     151     422
 -10  -1   7      79     238
  -9  -1   7     166     155
  -8  -1   7      23      96
  -7  -1   7    1449     143
  -6  -1   7      57      89
  -5  -1   7    3126     117
  -4  -1   7     306      53
  -3  -1   7     646      46
  -2  -1   7     -36      43
  -1  -1   7   15418     393
   0  -1   7      33      43
   1  -1   7    3353     167
   2  -1   7      17      82
   3  -1   7    4543     203
   4  -1   7     656     111
   5  -1   7     956     188
   6  -1   7     477     260
   7  -1   7     871     232
 -10   0   7     111     152
  -9   0   7     161     115
  -8   0   7     123      83
  -7   0   7      99     105
  -6   0   7    2381     106
  -5   0   7     557      60
  -4   0   7    7031     180
  -3   0   7    6966     185
  -2   0   7    1016      93
  -1   0   7    5939     173
   0   0   7    2312      99
   1   0   7    2505     108
   2   0   7    1187      75
   3   0   7    2711     183
   4   0   7     310     121
   5   0   7     396     170
   6   0   7     250     192
   7   0   7     255     246
 -10   1   7    1095     201
  -9   1   7     -97      97
  -8   1   7      29      97
  -7   1   7     883      85
  -6   1   7    5086     205
  -5   1   7    6795     191
  -4   1   7    8259     201
  -3   1   7     421      48
  -2   1   7      47      36
  -1   1   7     912      81
   0   1   7    3363     157
   1   1   7   33204     742
   2   1   7    2258     148
   3   1   7      63     119
   4   1   7    4034     317
   5   1   7     444     214
   6   1   7     457     235
 -10   2   7    1456     221
  -9   2   7    1021     197
  -8   2   7     576     110
  -7   2   7     188      87
  -6   2   7   14383     406
  -5   2   7     215      52
  -4   2   7    8237     228
  -3   2   7    3612     136
  -2   2   7    2558     113
  -1   2   7      66      57
   0   2   7   11690     484
   1   2   7    1382     110
   2   2   7    1555     140
   3   2   7       0     111
   4   2   7     606     161
   5   2   7     359     171
 -10   3   7     413     169
  -9   3   7    2272     205
  -8   3   7     417     146
  -7   3   7    4258     312
  -6   3   7     827     109
  -5   3   7     154      70
  -4   3   7    1527     123
  -3   3   7    1776     100
  -2   3   7     348      70
  -1   3   7    5078     210
   0   3   7    4871     211
   1   3   7    1903     138
   2   3   7     710     119
   3   3   7     157     124
   4   3   7     975     233
   5   3   7    -180     180
 -10   4   7      -3     163
  -9   4   7    2686     257
  -8   4   7    1056     188
  -7   4   7    8564     476
  -6   4   7     983     143
  -5   4   7     209      85
  -4   4   7    1396     122
  -3   4   7     522      90
  -2   4   7     134     109
  -1   4   7    3835     196
   0   4   7      80      93
   1   4   7     221     125
   2   4   7     -41      97
   3   4   7     791     159
   4   4   7     364     265
 -10   5   7     659     160
  -9   5   7     -29     157
  -8   5   7    2559     285
  -7   5   7     100     188
  -6   5   7     293     129
  -5   5   7    1465     147
  -4   5   7     252      94
  -3   5   7     969     120
  -2   5   7     170     121
  -1   5   7    1781     175
   0   5   7     -80     141
   1   5   7    -111     111
   2   5   7     255     129
   3   5   7     451     221
  -9   6   7     361     378
  -8   6   7     -92     148
  -7   6   7     117     175
  -6   6   7     470     217
  -5   6   7    1694     202
  -4   6   7      28     123
  -3   6   7    2749     254
  -2   6   7     117     126
  -1   6   7     653     159
   0   6   7     634     180
   1   6   7    -132     132
   2   6   7     540     167
  -8   7   7     140     192
  -7   7   7     712     223
  -6   7   7    -108     146
  -5   7   7     276     162
  -4   7   7     437     161
  -3   7   7    -115     115
  -2   7   7    -104     104
  -1   7   7    -121     169
   0   7   7    -114     180
  -7   8   7      26     275
  -6   8   7    1221     345
  -5   8   7     203     149
  -4   8   7     641     208
  -3   8   7     268     192
  -2   8   7     565     191
   2 -12   8     215     245
  -2 -11   8     121     158
  -1 -11   8      -4     157
   0 -11   8      12     140
   1 -11   8      63     125
   2 -11   8      43     125
   3 -11   8    3334     294
   4 -11   8     -63     157
   5 -11   8     602     197
  -3 -10   8     245     160
  -2 -10   8      15     151
  -1 -10   8     -56     137
   0 -10   8     148     112
   1 -10   8      27      96
   2 -10   8     497     142
   3 -10   8     -81     113
   4 -10   8      35     119
   5 -10   8     328     148
   6 -10   8      81     154
  -5  -9   8     468     237
  -4  -9   8    -139     139
  -3  -9   8     150     129
  -2  -9   8     184     140
  -1  -9   8      63     175
   0  -9   8    3892     217
   1  -9   8      11      96
   2  -9   8     621     102
   3  -9   8      34     103
   4  -9   8    -114     114
   5  -9   8    -122     171
   6  -9   8     647     189
   7  -9   8     -64     142
  -6  -8   8     433     318
  -5  -8   8     274     151
  -4  -8   8     367     137
  -3  -8   8     762     147
  -2  -8   8     281     104
  -1  -8   8     625     121
   0  -8   8    -124     124
   1  -8   8     153      71
   2  -8   8     923     106
   3  -8   8     514     155
   4  -8   8      96     145
   5  -8   8    1121     174
   6  -8   8     172     161
   7  -8   8     194     218
  -7  -7   8     407     235
  -6  -7   8     617     192
  -5  -7   8      49     105
  -4  -7   8       4     106
  -3  -7   8    4359     227
  -2  -7   8     561     111
  -1  -7   8    1516     126
   0  -7   8   17759     531
   1  -7   8     911     109
   2  -7   8     853     108
   3  -7   8    1421     170
   4  -7   8   12046     474
   5  -7   8     264     129
   6  -7   8      16     146
   7  -7   8     -65     187
  -7  -6   8    5989     416
  -6  -6   8    2698     298
  -5  -6   8     -72      72
  -4  -6   8     489      90
  -3  -6   8   14917     462
  -2  -6   8    2439     143
  -1  -6   8     -56      72
   0  -6   8     787      98
   1  -6   8    1691     134
   2  -6   8    2077     188
   3  -6   8   24616     769
   4  -6   8    1898     193
   5  -6   8    3313     243
   6  -6   8     298     129
   7  -6   8     373     286
  -8  -5   8    1534     252
  -7  -5   8     282     147
  -6  -5   8    1596     223
  -5  -5   8   10283     517
  -4  -5   8   23999     659
  -3  -5   8   45429    1139
  -2  -5   8    2621     140
  -1  -5   8    4618     200
   0  -5   8      23      58
   1  -5   8     802     124
   2  -5   8    1689     172
   3  -5   8    8253     359
   4  -5   8     704     149
   5  -5   8      64     118
   6  -5   8     -24     163
   7  -5   8    2442     455
  -8  -4   8     529     149
  -7  -4   8      51     113
  -6  -4   8    3580     279
  -5  -4   8    3325     158
  -4  -4   8   22784     713
  -3  -4   8    3226     143
  -2  -4   8     344      65
  -1  -4   8    6660     228
   0  -4   8   14658     429
   1  -4   8     188      78
   2  -4   8     977     123
   3  -4   8     102     102
   4  -4   8     -64      90
   5  -4   8       2     128
   6  -4   8    1631     217
   7  -4   8      88     207
  -9  -3   8     159     116
  -8  -3   8     366     119
  -7  -3   8    1674     225
  -6  -3   8    4105     334
  -5  -3   8     244      58
  -4  -3   8    4927     190
  -3  -3   8    3630     143
  -2  -3   8    1977     104
  -1  -3   8    2915     197
   0  -3   8   14245     378
   1  -3   8     969      81
   2  -3   8     190      67
   3  -3   8     -56     173
   4  -3   8     570     133
   5  -3   8     118     124
   6  -3   8    1370     210
   7  -3   8      91     201
  -9  -2   8    1281     169
  -8  -2   8     240     120
  -7  -2   8    1429     179
  -6  -2   8    8646     372
  -5  -2   8    2134     136
  -4  -2   8    1941      87
  -3  -2   8     465      53
  -2  -2   8    6050     225
  -1  -2   8    2918     175
   0  -2   8      -7      60
   1  -2   8     238      73
   2  -2   8      32      62
   3  -2   8    1622     170
   4  -2   8     264     125
   5  -2   8     808     174
   6  -2   8     299     184
   7  -2   8     -77     253
 -10  -1   8      80     212
  -9  -1   8     133     171
  -8  -1   8      69     105
  -7  -1   8    5146     287
  -6  -1   8     305      71
  -5  -1   8    7481     373
  -4  -1   8    3108     115
  -3  -1   8    3318     149
  -2  -1   8    1144      96
  -1  -1   8     461      82
   0  -1   8     376      59
   1  -1   8    2427     152
   2  -1   8       9      71
   3  -1   8    1104     152
   4  -1   8     587     148
   5  -1   8      55     147
   6  -1   8     296     234
 -10   0   8     140     152
  -9   0   8     -50     167
  -8   0   8     -80      86
  -7   0   8    2974     221
  -6   0   8    5662     200
  -5   0   8     164      47
  -4   0   8   17109     385
  -3   0   8    7094     231
  -2   0   8     169      68
  -1   0   8    5167     164
   0   0   8     262      64
   1   0   8   19803     534
   2   0   8    1976     178
   3   0   8     445     125
   4   0   8     110     126
   5   0   8      47     122
   6   0   8     -94     187
 -10   1   8    1525     216
  -9   1   8      63     167
  -8   1   8      93      81
  -7   1   8     553      89
  -6   1   8     -57      59
  -5   1   8    1515     102
  -4   1   8    4734     149
  -3   1   8     331      53
  -2   1   8      52      66
  -1   1   8    8722     341
   0   1   8   11499     399
   1   1   8      57      64
   2   1   8     988     154
   3   1   8      37     113
   4   1   8     537     180
   5   1   8     147     199
 -10   2   8     395     168
  -9   2   8      27     186
  -8   2   8    6592     326
  -7   2   8    4931     245
  -6   2   8     187     106
  -5   2   8     144      83
  -4   2   8    2350     119
  -3   2   8    3520     147
  -2   2   8     334      78
  -1   2   8    1749     126
   0   2   8    8865     301
   1   2   8     392      92
   2   2   8      25     117
   3   2   8     426     154
   4   2   8      30     145
   5   2   8       4     209
 -10   3   8     725     199
  -9   3   8     219     147
  -8   3   8    1822     209
  -7   3   8      70     151
  -6   3   8    1560     138
  -5   3   8     261      85
  -4   3   8    4204     200
  -3   3   8    1990     123
  -2   3   8    5426     222
  -1   3   8    4087     202
   0   3   8    1101     145
   1   3   8    1321     171
   2   3   8     214     123
   3   3   8     -61     146
   4   3   8     384     287
 -10   4   8      59     149
  -9   4   8    1025     186
  -8   4   8    1469     237
  -7   4   8      43     146
  -6   4   8    4152     229
  -5   4   8    1284     130
  -4   4   8    2009     149
  -3   4   8      74      88
  -2   4   8     178      96
  -1   4   8    1139     128
   0   4   8     188     160
   1   4   8     543     154
   2   4   8     -63     115
   3   4   8     181     169
  -9   5   8    -152     152
  -8   5   8      47     150
  -7   5   8    3660     338
  -6   5   8     549     140
  -5   5   8     169      90
  -4   5   8     768     121
  -3   5   8    1893     204
  -2   5   8    1449     167
  -1   5   8     356     135
   0   5   8     581     161
   1   5   8     163     131
   2   5   8      32     150
  -9   6   8     524     212
  -8   6   8     496     199
  -7   6   8    -146     146
  -6   6   8     236     187
  -5   6   8     333     151
  -4   6   8      73     124
  -3   6   8    1041     213
  -2   6   8      -8     114
  -1   6   8     -19     133
   0   6   8      43     163
   1   6   8     376     171
  -8   7   8     -39     455
  -7   7   8     126     268
  -6   7   8    1697     367
  -5   7   8       3     157
  -4   7   8     174     140
  -3   7   8     198     135
  -2   7   8    -141     141
  -1   7   8     140     160
  -5   8   8      53     344
  -4   8   8     300     187
  -1 -11   9    -171     171
   0 -11   9     -29     116
   1 -11   9      47     126
   2 -11   9     186     170
   3 -11   9     658     209
   4 -11   9    1262     254
  -3 -10   9     324     283
  -2 -10   9     345     216
  -1 -10   9     -18     131
   0 -10   9    -101     101
   1 -10   9      53     159
   2 -10   9     467     146
   3 -10   9    1040     197
   4 -10   9     178     141
   5 -10   9      83     159
  -4  -9   9    2329     259
  -3  -9   9     740     170
  -2  -9   9     -66      97
  -1  -9   9     197     119
   0  -9   9     640     121
   1  -9   9    1997     164
   2  -9   9     490     128
   3  -9   9     161     118
   4  -9   9     292     119
   5  -9   9     190     252
   6  -9   9      83     160
  -6  -8   9     222     151
  -5  -8   9     200     125
  -4  -8   9      89     116
  -3  -8   9     403     112
  -2  -8   9    1385     157
  -1  -8   9      -5      98
   0  -8   9    2405     173
   1  -8   9    4592     217
   2  -8   9      99     126
   3  -8   9     130     136
   4  -8   9    1124     171
   5  -8   9      32     140
   6  -8   9    1266     224
  -6  -7   9     665     204
  -5  -7   9      60     103
  -4  -7   9     187      98
  -3  -7   9      94      93
  -2  -7   9    4187     223
  -1  -7   9    9172     426
   0  -7   9    1570     148
   1  -7   9    3557     196
   2  -7   9      47     111
   3  -7   9    4180     279
   4  -7   9    3083     353
   5  -7   9     -47     120
   6  -7   9     420     179
   7  -7   9     151     200
  -7  -6   9     714     174
  -6  -6   9      -7     156
  -5  -6   9     816     130
  -4  -6   9     115      94
  -3  -6   9      96      96
  -2  -6   9    1569     137
  -1  -6   9     151      84
   0  -6   9    1108     119
   1  -6   9    4636     299
   2  -6   9    1525     180
   3  -6   9   20971     700
   4  -6   9      40     125
   5  -6   9    2142     250
   6  -6   9      81     133
   7  -6   9      14     279
  -8  -5   9     506     254
  -7  -5   9    1069     286
  -6  -5   9     -96     141
  -5  -5   9    2610     186
  -4  -5   9    3155     192
  -3  -5   9    7301     334
  -2  -5   9    4763     212
  -1  -5   9     450      89
   0  -5   9    2924     178
   1  -5   9    5597     279
   2  -5   9    4783     273
   3  -5   9    1437     183
   4  -5   9     580     146
   5  -5   9     111     128
   6  -5   9     133     173
   7  -5   9     795     344
  -8  -4   9     647     263
  -7  -4   9     884     191
  -6  -4   9    1291     206
  -5  -4   9     -64      74
  -4  -4   9    4578     340
  -3  -4   9    3022     170
  -2  -4   9    7650     288
  -1  -4   9       3     193
   0  -4   9    1316     108
   1  -4   9    9083     393
   2  -4   9       0     116
   3  -4   9     359     126
   4  -4   9     952     212
   5  -4   9      -3     144
   6  -4   9     315     246
   7  -4   9     -87     344
  -9  -3   9     195     127
  -8  -3   9     463     166
  -7  -3   9     649     175
  -6  -3   9     215     115
  -5  -3   9    2548     165
  -4  -3   9   19411     615
  -3  -3   9    3214     139
  -2  -3   9     -31      65
  -1  -3   9     615     101
   0  -3   9    9131     274
   1  -3   9    2313     153
   2  -3   9     870     140
   3  -3   9    1040     165
   4  -3   9     247     134
   5  -3   9    -100     144
   6  -3   9     -32     130
  -9  -2   9     187     123
  -8  -2   9     158     113
  -7  -2   9     257     135
  -6  -2   9    6030     243
  -5  -2   9    3583     183
  -4  -2   9     157      49
  -3  -2   9     564      82
  -2  -2   9     464     111
  -1  -2   9    3570     290
   0  -2   9    9803     338
   1  -2   9    4046     181
   2  -2   9     413      97
   3  -2   9     563     144
   4  -2   9     229     227
   5  -2   9     232     144
   6  -2   9     -34     188
  -9  -1   9      -2     144
  -8  -1   9     -96     103
  -7  -1   9      65      91
  -6  -1   9    1726     147
  -5  -1   9     832     102
  -4  -1   9     -40      43
  -3  -1   9    2291     139
  -2  -1   9     652     100
  -1  -1   9     575     100
   0  -1   9     915      78
   1  -1   9     267      77
   2  -1   9     543     112
   3  -1   9    1372     175
   4  -1   9      26     127
   5  -1   9      24     152
   6  -1   9     473     210
 -10   0   9    -104     297
  -9   0   9      19     139
  -8   0   9      88     113
  -7   0   9     797      99
  -6   0   9      33      63
  -5   0   9     -44      68
  -4   0   9    4782     193
  -3   0   9    4621     208
  -2   0   9    1219     118
  -1   0   9   20849     532
   0   0   9    6691     250
   1   0   9     163      92
   2   0   9     615     134
   3   0   9     298     119
   4   0   9     199     134
   5   0   9     536     220
 -10   1   9     532     188
  -9   1   9    -133     133
  -8   1   9    1847     172
  -7   1   9     580     102
  -6   1   9      44      72
  -5   1   9    2015     135
  -4   1   9    2016     133
  -3   1   9    1221     112
  -2   1   9     901     126
  -1   1   9     -67      67
   0   1   9     146      75
   1   1   9    1138     136
   2   1   9      19     103
   3   1   9     410     141
   4   1   9      58     161
   5   1   9     579     292
 -10   2   9    2252     302
  -9   2   9     171     165
  -8   2   9    -135     135
  -7   2   9     -23      81
  -6   2   9    3568     207
  -5   2   9    3056     214
  -4   2   9    1766     134
  -3   2   9      90      84
  -2   2   9    1126     107
  -1   2   9     434      90
   0   2   9     714     108
   1   2   9    2013     190
   2   2   9     153     167
   3   2   9      95     162
   4   2   9     -52     248
  -9   3   9     653     155
  -8   3   9      68     135
  -7   3   9    -109     109
  -6   3   9    4592     345
  -5   3   9     135      90
  -4   3   9     -78      78
  -3   3   9    4602     233
  -2   3   9     222      93
  -1   3   9     717     116
   0   3   9    1904     202
   1   3   9      69     103
   2   3   9      36     140
   3   3   9     -29     206
  -9   4   9     339     165
  -8   4   9    -175     175
  -7   4   9    1062     213
  -6   4   9     882     205
  -5   4   9      42      91
  -4   4   9     171      97
  -3   4   9      -8      87
  -2   4   9     534     115
  -1   4   9    1590     147
   0   4   9     121     155
   1   4   9    1299     224
   2   4   9    -149     149
  -9   5   9      89     202
  -8   5   9     468     218
  -7   5   9    3614     349
  -6   5   9    1315     196
  -5   5   9     167     128
  -4   5   9     -36     110
  -3   5   9     128     110
  -2   5   9      79     142
  -1   5   9      43     135
   0   5   9     -43     167
   1   5   9     243     200
  -8   6   9     158     190
  -7   6   9     -10     247
  -6   6   9     207     201
  -5   6   9     635     290
  -4   6   9     566     168
  -3   6   9      78     122
  -2   6   9      19     159
  -1   6   9     318     168
  -6   7   9     438     207
  -5   7   9     114     196
  -4   7   9     112     173
  -3   7   9      20     194
  -1 -11  10     236     260
   0 -11  10     665     189
   1 -11  10     -16     160
   2 -11  10      99     159
   3 -11  10     912     222
  -3 -10  10    1775     259
  -2 -10  10     456     187
  -1 -10  10     -73     128
   0 -10  10      29     103
   1 -10  10      68     136
   2 -10  10      82     129
   3 -10  10    1882     234
   4 -10  10     -48     123
   5 -10  10     442     338
  -4  -9  10    2147     251
  -3  -9  10    -117     123
  -2  -9  10    1788     212
  -1  -9  10    1594     175
   0  -9  10    -107     107
   1  -9  10      79     117
   2  -9  10      96     116
   3  -9  10     428     159
   4  -9  10    -105     140
   5  -9  10     249     161
  -5  -8  10    -105     191
  -4  -8  10     140     116
  -3  -8  10      40     126
  -2  -8  10      57     105
  -1  -8  10    1212     148
   0  -8  10      15     119
   1  -8  10     -85      98
   2  -8  10     310     156
   3  -8  10     399     137
   4  -8  10      41     146
   5  -8  10      98     134
   6  -8  10     450     219
  -6  -7  10     -61     202
  -5  -7  10      10     108
  -4  -7  10      39      88
  -3  -7  10      73      94
  -2  -7  10    3078     203
  -1  -7  10     187      99
   0  -7  10     -93      93
   1  -7  10    2263     202
   2  -7  10     519     153
   3  -7  10     376     154
   4  -7  10     437     173
   5  -7  10    -138     138
   6  -7  10     348     199
  -7  -6  10    1499     278
  -6  -6  10    1866     292
  -5  -6  10     218     113
  -4  -6  10     140      98
  -3  -6  10    6464     512
  -2  -6  10     531     127
  -1  -6  10     411     111
   0  -6  10     580     152
   1  -6  10    1835     321
   2  -6  10      77     123
   3  -6  10    1422     254
   4  -6  10    3729     312
   5  -6  10     220     154
   6  -6  10     216     191
  -8  -5  10     562     262
  -7  -5  10    2674     676
  -6  -5  10     102     215
  -5  -5  10    1621     196
  -4  -5  10     -21     116
  -3  -5  10   18180     803
  -2  -5  10    2055     196
  -1  -5  10    1187     233
   0  -5  10     691     153
   1  -5  10     916     154
   2  -5  10     490     150
   3  -5  10    7048     357
   4  -5  10     756     178
   5  -5  10     648     196
   6  -5  10    -132     132
  -8  -4  10    1294     299
  -7  -4  10     279     211
  -6  -4  10      70     181
  -5  -4  10    9365     476
  -4  -4  10   15794     933
  -3  -4  10   19214    1011
  -2  -4  10    1948     188
  -1  -4  10     -38     111
   0  -4  10    -146     146
   1  -4  10    8726     427
   2  -4  10    1218     192
   3  -4  10      45     127
   4  -4  10    1706     200
   5  -4  10     -91     142
   6  -4  10     190     151
  -9  -3  10     260     183
  -8  -3  10      47     178
  -7  -3  10     512     197
  -6  -3  10     -61     134
  -5  -3  10     149     148
  -4  -3  10   17202     806
  -3  -3  10     834     130
  -2  -3  10     -79      79
  -1  -3  10    1019     134
   0  -3  10   11874     558
   1  -3  10      50     159
   2  -3  10     -38     151
   3  -3  10     -92     110
   4  -3  10      19     144
   5  -3  10     112     171
   6  -3  10    -172     185
  -9  -2  10    -172     172
  -8  -2  10     187     147
  -7  -2  10     710     189
  -6  -2  10    2768     210
  -5  -2  10     -67      99
  -4  -2  10    1260     146
  -3  -2  10     548     107
  -2  -2  10     536     162
  -1  -2  10     -56      99
   0  -2  10     390     111
   1  -2  10     230      97
   2  -2  10    1236     170
   3  -2  10     364     139
   4  -2  10     -24     237
   5  -2  10    -142     156
  -9  -1  10      76     307
  -8  -1  10     122     147
  -7  -1  10     -73      73
  -6  -1  10    2779     246
  -5  -1  10    3496     225
  -4  -1  10    1785     166
  -3  -1  10    4054     207
  -2  -1  10    3136     219
  -1  -1  10    5291     265
   0  -1  10    3395     221
   1  -1  10     127      86
   2  -1  10    -117     117
   3  -1  10     917     194
   4  -1  10      85     174
   5  -1  10     619     235
  -9   0  10     506     223
  -8   0  10      -5     117
  -7   0  10     726     170
  -6   0  10     336      97
  -5   0  10    1326     123
  -4   0  10     699      98
  -3   0  10    6474     285
  -2   0  10    4418     222
  -1   0  10     442     117
   0   0  10    1396     208
   1   0  10     522     188
   2   0  10      18     111
   3   0  10     165     170
   4   0  10     284     162
  -9   1  10    1234     233
  -8   1  10     328     120
  -7   1  10    1362     132
  -6   1  10      60      85
  -5   1  10      42     100
  -4   1  10     976     116
  -3   1  10      82      94
  -2   1  10     349     105
  -1   1  10     393     108
   0   1  10     -22      98
   1   1  10    3064     392
   2   1  10      35     128
   3   1  10      28     200
   4   1  10     237     188
  -9   2  10     188     182
  -8   2  10     228     137
  -7   2  10    1029     121
  -6   2  10    3876     228
  -5   2  10     -93     104
  -4   2  10      56     117
  -3   2  10     868     130
  -2   2  10     136      98
  -1   2  10     -83      83
   0   2  10     974     182
   1   2  10     779     224
   2   2  10     -88     267
   3   2  10      58     215
  -9   3  10     -63     134
  -8   3  10      11     123
  -7   3  10     100     171
  -6   3  10    -101     101
  -5   3  10     107      88
  -4   3  10     630     188
  -3   3  10     560     148
  -2   3  10     101     107
  -1   3  10      22     108
   0   3  10    2680     253
   1   3  10      94     197
   2   3  10    -239     239
  -8   4  10      68     122
  -7   4  10    1934     222
  -6   4  10     -52     117
  -5   4  10     184     123
  -4   4  10     578     128
  -3   4  10     -98      98
  -2   4  10    -104     104
  -1   4  10     377     181
   0   4  10      -4     163
   1   4  10    -159     159
  -8   5  10      96     174
  -7   5  10    -194     194
  -6   5  10    1009     308
  -5   5  10     732     183
  -4   5  10     259     131
  -3   5  10    -135     135
  -2   5  10      59     164
  -1   5  10     -52     158
   0   5  10      74     181
  -6   6  10    -201     255
  -5   6  10     328     161
  -4   6  10      56     133
  -3   6  10      32     192
  -2   6  10      59     220
   1 -11  11       0     299
  -2 -10  11     -40     136
  -1 -10  11     884     177
   0 -10  11     204     171
   1 -10  11      48     215
   2 -10  11     -79     168
   3 -10  11     834     210
  -4  -9  11     204     152
  -3  -9  11     852     167
  -2  -9  11     421     146
  -1  -9  11     752     158
   0  -9  11     204     174
   1  -9  11    -149     225
   2  -9  11    -140     140
   3  -9  11     395     165
   4  -9  11     -93     140
  -5  -8  11     160     228
  -4  -8  11     591     221
  -3  -8  11     225     126
  -2  -8  11     329     136
  -1  -8  11      75     140
   0  -8  11    3997     368
   1  -8  11      26     133
   2  -8  11     -60     140
   3  -8  11     284     139
   4  -8  11     232     173
   5  -8  11     255     195
  -6  -7  11    -171     199
  -5  -7  11     -47     127
  -4  -7  11    -103     104
  -3  -7  11    -129     131
  -2  -7  11     -34     123
  -1  -7  11     329     172
   0  -7  11    1347     199
   1  -7  11     208     133
   2  -7  11     151     135
   3  -7  11     295     154
   4  -7  11    1732     222
   5  -7  11     -17     157
  -7  -6  11     293     331
  -6  -6  11     995     281
  -5  -6  11     401     155
  -4  -6  11    1364     231
  -3  -6  11    2495     285
  -2  -6  11    2767     300
  -1  -6  11    2580     248
   0  -6  11     601     168
   1  -6  11     273     132
   2  -6  11     593     160
   3  -6  11    2441     233
   4  -6  11    2212     234
   5  -6  11      17     145
  -7  -5  11     686     275
  -6  -5  11    -195     211
  -5  -5  11     -47      93
  -4  -5  11     162     155
  -3  -5  11     347     175
  -2  -5  11     807     186
  -1  -5  11    -128     148
   0  -5  11    1115     191
   1  -5  11      36     114
   2  -5  11     108     141
   3  -5  11    9531     499
   4  -5  11     107     142
   5  -5  11     300     194
  -8  -4  11     217     286
  -7  -4  11     528     494
  -6  -4  11     147     218
  -5  -4  11    2383     242
  -4  -4  11    9857     523
  -3  -4  11      15     156
  -2  -4  11     393     126
  -1  -4  11     463     139
   0  -4  11     -31     102
   1  -4  11    1210     230
   2  -4  11     569     157
   3  -4  11     -62     137
   4  -4  11     429     172
   5  -4  11     424     178
  -8  -3  11    1506     390
  -7  -3  11    -161     161
  -6  -3  11    1871     183
  -5  -3  11     -84     122
  -4  -3  11     241     128
  -3  -3  11    3022     247
  -2  -3  11     543     129
  -1  -3  11      20      86
   0  -3  11       7      91
   1  -3  11    1324     198
   2  -3  11     565     138
   3  -3  11      84     136
   4  -3  11      80     188
   5  -3  11     -22     206
  -8  -2  11     835     224
  -7  -2  11    -135     135
  -6  -2  11    2663     220
  -5  -2  11    1144     152
  -4  -2  11    4336     282
  -3  -2  11    6839     338
  -2  -2  11    4801     266
  -1  -2  11     110      99
   0  -2  11     275     112
   1  -2  11     -96      96
   2  -2  11     447     144
   3  -2  11     697     179
   4  -2  11      70     137
  -9  -1  11     358     230
  -8  -1  11     264     154
  -7  -1  11      29      97
  -6  -1  11     708     134
  -5  -1  11     353     114
  -4  -1  11      79     108
  -3  -1  11     257     123
  -2  -1  11    4496     260
  -1  -1  11     -29     126
   0  -1  11    2448     212
   1  -1  11     355     186
   2  -1  11    -147     147
   3  -1  11     241     132
   4  -1  11     381     180
  -9   0  11      97     218
  -8   0  11     -35     152
  -7   0  11    1115     169
  -6   0  11      68     100
  -5   0  11     575     114
  -4   0  11     397     101
  -3   0  11     822     108
  -2   0  11     907     139
  -1   0  11    1657     198
   0   0  11     315     144
   1   0  11     583     189
   2   0  11     124     145
   3   0  11     -30     145
  -9   1  11      99     222
  -8   1  11     552     153
  -7   1  11     656     150
  -6   1  11     265     113
  -5   1  11     326     122
  -4   1  11     432     123
  -3   1  11      44      86
  -2   1  11      38      90
  -1   1  11     625     214
   0   1  11     366     157
   1   1  11     291     169
   2   1  11       8     157
   3   1  11      -8     172
  -9   2  11      45     214
  -8   2  11     680     159
  -7   2  11     -56     117
  -6   2  11    -106     106
  -5   2  11    1457     274
  -4   2  11     124     122
  -3   2  11     -60     124
  -2   2  11      20      95
  -1   2  11     137     120
   0   2  11    1564     235
   1   2  11     -77     159
   2   2  11     -15     201
  -8   3  11     195     148
  -7   3  11     248     134
  -6   3  11     -96      99
  -5   3  11    -108     108
  -4   3  11     320     137
  -3   3  11      73     101
  -2   3  11     250     154
  -1   3  11      68     127
   0   3  11     -10     144
   1   3  11     472     271
  -8   4  11     182     455
  -7   4  11    -130     130
  -6   4  11    1214     222
  -5   4  11    -122     122
  -4   4  11    -112     112
  -3   4  11    1323     176
  -2   4  11     265     153
  -1   4  11     380     163
   0   4  11     202     220
  -6   5  11     318     215
  -5   5  11     489     157
  -4   5  11     389     163
  -3   5  11     202     212
  -2   5  11      24     205
  -1 -10  12     370     180
   0 -10  12     156     175
   1 -10  12     490     226
   2 -10  12    -138     178
  -3  -9  12     601     166
  -2  -9  12     -23     121
  -1  -9  12     256     175
   0  -9  12     107     153
   1  -9  12    -192     192
   2  -9  12     259     187
   3  -9  12      75     220
  -4  -8  12    2480     263
  -3  -8  12     174     135
  -2  -8  12    -173     173
  -1  -8  12     -60     213
   0  -8  12     416     204
   1  -8  12     -69     148
   2  -8  12     308     171
   3  -8  12    -117     153
   4  -8  12     322     190
  -5  -7  12     599     285
  -4  -7  12     -51     166
  -3  -7  12    -154     154
  -2  -7  12     -35     185
  -1  -7  12     134     197
   0  -7  12    -175     249
   1  -7  12    -168     168
   2  -7  12     184     147
   3  -7  12     342     161
   4  -7  12      36     154
  -6  -6  12    -154     253
  -5  -6  12     769     183
  -4  -6  12     254     237
  -3  -6  12       7     168
  -2  -6  12    2183     296
  -1  -6  12    1224     457
   0  -6  12     289     163
   1  -6  12     330     140
   2  -6  12      97     151
   3  -6  12    1443     387
   4  -6  12     271     166
  -7  -5  12    -136     331
  -6  -5  12      72     253
  -5  -5  12     -65     138
  -4  -5  12     -90     187
  -3  -5  12    1309     236
  -2  -5  12     636     205
  -1  -5  12    1869     222
   0  -5  12     134     173
   1  -5  12    1802     208
   2  -5  12    -133     133
   3  -5  12    1431     201
   4  -5  12    1620     239
  -7  -4  12    1766     546
  -6  -4  12      76     228
  -5  -4  12     492     206
  -4  -4  12    1458     398
  -3  -4  12    7766     482
  -2  -4  12    3903     338
  -1  -4  12     174     142
   0  -4  12    1974     228
   1  -4  12    1961     215
   2  -4  12     577     167
   3  -4  12     663     192
   4  -4  12     -68     178
  -8  -3  12     702     416
  -7  -3  12     479     233
  -6  -3  12     447     226
  -5  -3  12      60     122
  -4  -3  12   14036     589
  -3  -3  12    3243     274
  -2  -3  12    4294     313
  -1  -3  12      98     159
   0  -3  12      82     115
   1  -3  12    2127     232
   2  -3  12    -116     139
   3  -3  12      71     169
   4  -3  12     355     190
  -8  -2  12    -137     189
  -7  -2  12     -13     197
  -6  -2  12     321     142
  -5  -2  12      68     121
  -4  -2  12     289     145
  -3  -2  12    1945     220
  -2  -2  12     905     154
  -1  -2  12     748     140
   0  -2  12    2911     230
   1  -2  12     -29     180
   2  -2  12     181     156
   3  -2  12     225     159
  -8  -1  12     496     202
  -7  -1  12     133     114
  -6  -1  12     -49     113
  -5  -1  12    1220     189
  -4  -1  12    2756     224
  -3  -1  12     895     153
  -2  -1  12     278     112
  -1  -1  12    1222     161
   0  -1  12     700     160
   1  -1  12      62     187
   2  -1  12     444     172
   3  -1  12      22     164
  -8   0  12     290     212
  -7   0  12     284     127
  -6   0  12     536     154
  -5   0  12     494     156
  -4   0  12     266     137
  -3   0  12     187     115
  -2   0  12     186     100
  -1   0  12    1792     220
   0   0  12     123     182
   1   0  12     128     166
   2   0  12    -112     163
  -8   1  12     824     190
  -7   1  12    -154     154
  -6   1  12     485     125
  -5   1  12     255     117
  -4   1  12     625     148
  -3   1  12     -43     122
  -2   1  12     244     126
  -1   1  12     482     178
   0   1  12      73     176
   1   1  12     -67     177
   2   1  12     215     208
  -8   2  12     -33     158
  -7   2  12     109     131
  -6   2  12     -52     121
  -5   2  12     -33     123
  -4   2  12    -114     114
  -3   2  12     164     199
  -2   2  12     137     117
  -1   2  12    -166     261
   0   2  12      82     293
   1   2  12     717     235
  -7   3  12      68     150
  -6   3  12    2105     281
  -5   3  12     174     140
  -4   3  12     -14     136
  -3   3  12     395     195
  -2   3  12     920     253
  -1   3  12     145     236
  -6   4  12     494     198
  -5   4  12      66     236
  -4   4  12    -111     111
  -3   4  12     356     232
  -2  -9  13     263     171
  -1  -9  13    -160     160
   0  -9  13    -222     222
   1  -9  13     157     230
   2  -9  13      86     206
  -4  -8  13     595     206
  -3  -8  13    -140     140
  -2  -8  13    -170     193
  -1  -8  13      37     205
   0  -8  13      42     257
   1  -8  13     194     362
   2  -8  13     177     175
   3  -8  13     170     170
  -5  -7  13     496     339
  -4  -7  13     205     186
  -3  -7  13    -142     174
  -2  -7  13     -73     200
  -1  -7  13     444     273
   0  -7  13     377     266
   1  -7  13    -166     167
   2  -7  13     120     146
   3  -7  13      14     214
  -6  -6  13    -221     240
  -5  -6  13     363     158
  -4  -6  13     170     193
  -3  -6  13    -108     272
  -2  -6  13     258     190
  -1  -6  13     -11     175
   0  -6  13     810     455
   1  -6  13     428     191
   2  -6  13    -146     146
   3  -6  13    -157     161
  -6  -5  13     223     309
  -5  -5  13     180     146
  -4  -5  13      96     163
  -3  -5  13    3409     346
  -2  -5  13      90     191
  -1  -5  13     854     223
   0  -5  13      32     131
   1  -5  13    1348     228
   2  -5  13       9     164
   3  -5  13     543     195
  -7  -4  13    -245     370
  -6  -4  13    -124     244
  -5  -4  13     359     265
  -4  -4  13    1209     231
  -3  -4  13    6050     847
  -2  -4  13     257     186
  -1  -4  13     163     189
   0  -4  13     698     193
   1  -4  13      45     152
   2  -4  13    -128     128
   3  -4  13     835     199
  -7  -3  13    1066     481
  -6  -3  13     122     134
  -5  -3  13    1832     221
  -4  -3  13    2278     251
  -3  -3  13    1553     210
  -2  -3  13      60     135
  -1  -3  13       2     126
   0  -3  13     -73     119
   1  -3  13     128     159
   2  -3  13     272     169
   3  -3  13    -121     191
  -7  -2  13     428     291
  -6  -2  13    1854     247
  -5  -2  13     422     163
  -4  -2  13    1168     296
  -3  -2  13      -4     128
  -2  -2  13    1377     227
  -1  -2  13     -58     121
   0  -2  13     286     167
   1  -2  13      66     149
   2  -2  13     104     191
  -7  -1  13      22     143
  -6  -1  13     502     156
  -5  -1  13      68     151
  -4  -1  13     468     182
  -3  -1  13      62     135
  -2  -1  13    -101     137
  -1  -1  13     545     148
   0  -1  13     -45     172
   1  -1  13    -173     173
   2  -1  13    -233     233
  -7   0  13     340     176
  -6   0  13     168     137
  -5   0  13     122     143
  -4   0  13    -111     111
  -3   0  13      17     134
  -2   0  13     269     163
  -1   0  13       7     147
   0   0  13     494     204
   1   0  13     129     215
  -7   1  13    1749     228
  -6   1  13     -31     115
  -5   1  13      72     119
  -4   1  13     177     134
  -3   1  13      24     236
  -2   1  13     420     242
  -1   1  13    -243     266
   0   1  13    -150     262
  -6   2  13     116     132
  -5   2  13     448     177
  -4   2  13      73     166
  -3   2  13    -151     151
  -2   2  13     342     180
  -1   2  13     -27     205
  -5   3  13       2     193
  -4   3  13     125     210
  -2  -8  14      53     222
  -1  -8  14      36     240
   0  -8  14     -35     216
   1  -8  14     611     468
  -4  -7  14    2084     304
  -3  -7  14     -65     227
  -2  -7  14     578     230
  -1  -7  14      52     236
   0  -7  14     447     287
   1  -7  14    -266     266
  -5  -6  14     164     201
  -4  -6  14      26     193
  -3  -6  14    -193     226
  -2  -6  14    -188     188
  -1  -6  14    -118     264
   0  -6  14     -22     280
   1  -6  14    -203     203
   2  -6  14     176     174
  -5  -5  14     400     178
  -4  -5  14     606     240
  -3  -5  14     541     235
  -2  -5  14     470     241
  -1  -5  14     -32     237
   0  -5  14    -121     278
   1  -5  14      -6     185
   2  -5  14     -57     159
  -6  -4  14    1142     383
  -5  -4  14     192     182
  -4  -4  14      38     444
  -3  -4  14      80     196
  -2  -4  14     203     206
  -1  -4  14     859     242
   0  -4  14     -98     193
   1  -4  14    1505     256
   2  -4  14    -183     183
  -6  -3  14    2037     274
  -5  -3  14    1540     336
  -4  -3  14     249     249
  -3  -3  14     723     197
  -2  -3  14     567     203
  -1  -3  14     -61     180
   0  -3  14     560     190
   1  -3  14     478     250
  -6  -2  14     -98     182
  -5  -2  14     311     224
  -4  -2  14    1800     281
  -3  -2  14     346     263
  -2  -2  14     408     155
  -1  -2  14       3     155
   0  -2  14    -113     143
   1  -2  14     111     281
  -6  -1  14      61     154
  -5  -1  14     241     158
  -4  -1  14     -39     227
  -3  -1  14     196     261
  -2  -1  14     317     169
  -1  -1  14     193     189
   0  -1  14    1437     363
  -6   0  14     159     162
  -5   0  14     -54     150
  -4   0  14    -143     146
  -3   0  14      76     167
  -2   0  14     112     164
  -1   0  14     259     325
  -5   1  14      36     161
  -4   1  14     915     219
  -3   1  14     437     194
  -2   1  14     160     231
  -3  -6  15      65     343
  -2  -6  15     195     230
  -1  -6  15     311     246
  -4  -5  15     208     217
  -3  -5  15     425     244
  -2  -5  15     938     254
  -1  -5  15      40     205
   0  -5  15     330     209
  -4  -4  15     -71     191
  -3  -4  15    2054     311
  -2  -4  15     455     245
  -1  -4  15     -60     216
   0  -4  15      94     191
  -4  -3  15     269     215
  -3  -3  15    1313     357
  -2  -3  15      21     219
  -1  -3  15     231     214
  -4  -2  15    2484     797
  -3  -2  15     -19     205
  -2  -2  15      57     331
  -4  -1  15      52     416
  -3  -1  15     232     198
;
_shelx_hkl_checksum              54693
_shelx_res_file
;
TITL 1NEW_a.res in P-1
    shelx.res
    created by SHELXL-2018/3 at 11:18:53 on 13-Sep-2018
CELL  0.71073   8.2151   9.2850  11.6086  108.184  103.004  105.089
ZERR     2.00   0.0005   0.0005   0.0007    0.004    0.004    0.002
LATT   1
SFAC  C    H    N    O
UNIT  34   32   4    6
L.S.   20
ACTA
BOND $H
CONF
htab
EQIV $1 -x, -y+1, -z+1
HTAB N1 N2_$1
EQIV $2 x-1, y, z
HTAB N1 O2_$2
HTAB C13 O3
simu .01 c15a > c17b
delu .01 c15a > c17b
dfix 1.4 .005 c15a c16a c15b c16b
dfix 1.25 .005 c16a c17a c16b c17b
OMIT    -1   0   1
OMIT    -1   1   2
OMIT     0   1   1
WGHT    0.071000    0.115600
EXTI    0.028281
FVAR       9.99402   0.27958
O1    4    0.132267    0.887873    0.322789    11.00000    0.04444    0.06167 =
         0.06947    0.04213    0.02597    0.02660
O2    4    0.723947    0.924520    0.361616    11.00000    0.04580    0.06562 =
         0.11762    0.03746    0.03107    0.02502
O3    4    0.621476    1.069479    0.265478    11.00000    0.05165    0.09129 =
         0.08299    0.05306    0.02728    0.01019
N1    3   -0.049189    0.733133    0.386975    11.00000    0.05086    0.06816 =
         0.08311    0.04830    0.03689    0.03013
H1N1  2   -0.080291    0.662717    0.415736    11.00000    0.05716
H1N2  2   -0.109408    0.796735    0.376362    11.00000    0.06775
N2    3    0.193624    0.485533    0.482362    11.00000    0.07400    0.07413 =
         0.09876    0.05849    0.04764    0.03772
C1    1    0.364425    0.595441    0.215565    11.00000    0.04683    0.04543 =
         0.05962    0.02371    0.02928    0.01794
C2    1    0.447457    0.485180    0.218574    11.00000    0.08163    0.05991 =
         0.09128    0.03841    0.04646    0.03841
AFIX  43
H2A   2    0.523004    0.495812    0.296026    11.00000   -1.20000
AFIX   0
C3    1    0.417381    0.357127    0.104359    11.00000    0.12742    0.05893 =
         0.12683    0.03619    0.07764    0.05284
AFIX  43
H3A   2    0.472222    0.281595    0.106231    11.00000   -1.20000
AFIX   0
C4    1    0.308257    0.341462   -0.010204    11.00000    0.12318    0.06099 =
         0.08978    0.00930    0.06581    0.01826
AFIX  43
H4A   2    0.290072    0.256420   -0.085936    11.00000   -1.20000
AFIX   0
C5    1    0.227078    0.449864   -0.012938    11.00000    0.09387    0.08463 =
         0.06269    0.00729    0.02830    0.02066
AFIX  43
H5A   2    0.152576    0.439516   -0.090676    11.00000   -1.20000
AFIX   0
C6    1    0.254281    0.575329    0.098792    11.00000    0.07522    0.07306 =
         0.05867    0.01651    0.02264    0.03288
AFIX  43
H6A   2    0.196780    0.648748    0.095559    11.00000   -1.20000
AFIX   0
C7    1    0.389694    0.733455    0.338752    11.00000    0.04004    0.04742 =
         0.04646    0.02284    0.01546    0.01992
AFIX  13
H7A   2    0.494936    0.744799    0.405599    11.00000   -1.20000
AFIX   0
C8    1    0.422225    0.893171    0.323887    11.00000    0.04207    0.04312 =
         0.04289    0.01852    0.01647    0.01402
C9    1    0.298854    0.961817    0.316963    11.00000    0.04540    0.04893 =
         0.04899    0.02525    0.01901    0.01791
C10   1    0.107404    0.766972    0.367046    11.00000    0.04412    0.04757 =
         0.04643    0.02362    0.01916    0.01742
C11   1    0.230836    0.697318    0.384001    11.00000    0.04727    0.04402 =
         0.04602    0.02290    0.02081    0.02012
C12   1    0.206673    0.579093    0.436929    11.00000    0.04961    0.05165 =
         0.05955    0.02849    0.02730    0.02460
C13   1    0.303336    1.116850    0.303912    11.00000    0.06748    0.06343 =
         0.08765    0.04668    0.03330    0.03190
AFIX 137
H13A  2    0.425021    1.184266    0.324493    11.00000   -1.50000
H13B  2    0.251375    1.171848    0.361704    11.00000   -1.50000
H13C  2    0.236508    1.094610    0.217107    11.00000   -1.50000
AFIX   0
C14   1    0.603100    0.963613    0.319847    11.00000    0.04582    0.04395 =
         0.05120    0.01345    0.01936    0.01309
PART   1
C15A  1    0.813934    1.136277    0.270691    21.00000    0.05651    0.10905 =
         0.09381    0.06080    0.03022    0.00985
AFIX  23
H15A  2    0.885611    1.222435    0.354245    21.00000   -1.20000
H15B  2    0.864085    1.051113    0.257234    21.00000   -1.20000
AFIX   0
C16A  1    0.815004    1.196511    0.173876    21.00000    0.07641    0.10964 =
         0.10530    0.06893    0.02723    0.00095
AFIX  43
H16A  2    0.885497    1.304306    0.198254    21.00000   -1.20000
AFIX   0
C17A  1    0.728058    1.115549    0.057584    21.00000    0.19096    0.14365 =
         0.11073    0.06710    0.03455    0.04978
AFIX  93
H17A  2    0.656193    1.007380    0.029871    21.00000   -1.20000
H17B  2    0.734994    1.163255   -0.001548    21.00000   -1.20000
AFIX   0
PART   2
same .005 c15a > c17a
C15B  1    0.794216    1.152603    0.264094   -21.00000    0.05958    0.11841 =
         0.08429    0.04719    0.02853   -0.00602
AFIX  23
H15C  2    0.824470    1.268629    0.307193   -21.00000   -1.20000
H15D  2    0.882796    1.122081    0.311836   -21.00000   -1.20000
AFIX   0
C16B  1    0.801419    1.117750    0.139836   -21.00000    0.09315    0.09834 =
         0.09565    0.02673    0.04851    0.00726
AFIX  43
H16B  2    0.721066    1.016544    0.079943   -21.00000   -1.20000
AFIX   0
C17B  1    0.894159    1.195915    0.094928   -21.00000    0.09489    0.17527 =
         0.09909    0.08465    0.04167    0.01781
AFIX  93
H17C  2    0.978344    1.298620    0.147859   -21.00000   -1.20000
H17D  2    0.880257    1.152447    0.007964   -21.00000   -1.20000
PART   0
AFIX   0
HKLF 4
REM  1NEW_a.res in P-1
REM wR2 = 0.1601, GooF = S = 1.019, Restrained GooF = 1.051 for all data
REM R1 = 0.0520 for 2207 Fo > 4sig(Fo) and 0.1006 for all 3789 data
REM 237 parameters refined using 79 restraints
END
WGHT      0.0733      0.1084
REM Instructions for potential hydrogen bonds
HTAB N1 N2_$1
HTAB N1 O2_$2
HTAB C13 O3
REM Highest difference peak  0.206,  deepest hole -0.278,  1-sigma level  0.038
Q1    1   0.6298  1.0594  0.0227  11.00000  0.05    0.21
Q2    1   0.8437  1.0845  0.0499  11.00000  0.05    0.19
Q3    1   0.3004  0.7211  0.3637  11.00000  0.05    0.18
Q4    1   0.5282  1.0805  0.2343  11.00000  0.05    0.18
Q5    1   0.4016  0.8177  0.3219  11.00000  0.05    0.18
Q6    1   0.2248  0.7772  0.4331  11.00000  0.05    0.18
Q7    1   0.8039  1.2667  0.0945  11.00000  0.05    0.16
Q8    1   0.3798  1.1297  0.2353  11.00000  0.05    0.15
Q9    1   0.2250  0.6636  0.4079  11.00000  0.05    0.15
Q10   1   0.8052  1.0776  0.2384  11.00000  0.05    0.14
Q11   1   0.6538  0.8585  0.2808  11.00000  0.05    0.14
Q12   1   0.3915  0.9525  0.3608  11.00000  0.05    0.14
Q13   1   0.5016  0.3796  0.1665  11.00000  0.05    0.14
Q14   1   0.8401  1.0030  0.1735  11.00000  0.05    0.14
Q15   1   0.1515  0.6938  0.3469  11.00000  0.05    0.14
Q16   1   0.4811  0.9233  0.2968  11.00000  0.05    0.13
Q17   1   0.1503  1.1080  0.2630  11.00000  0.05    0.13
Q18   1   0.8744  0.9741  0.0269  11.00000  0.05    0.12
Q19   1   0.1303  0.4321  0.5218  11.00000  0.05    0.12
Q20   1   0.8231  1.2627  0.2218  11.00000  0.05    0.12
;
_shelx_res_checksum              16215
loop_
_space_group_symop_operation_xyz
'x, y, z'
'-x, -y, -z'
loop_
_atom_site_type_symbol
_atom_site_label
_atom_site_fract_x
_atom_site_fract_y
_atom_site_fract_z
_atom_site_U_iso_or_equiv
_atom_site_adp_type
_atom_site_calc_flag
_atom_site_occupancy
_atom_site_disorder_assembly
_atom_site_disorder_group
O O1 0.13227(16) 0.88787(15) 0.32279(13) 0.0513(4) Uani d 1 . .
O O2 0.72395(18) 0.92452(18) 0.36162(17) 0.0742(5) Uani d 1 . .
O O3 0.62148(18) 1.06948(19) 0.26548(15) 0.0728(5) Uani d 1 . .
N N1 -0.0492(2) 0.7331(2) 0.38698(18) 0.0580(5) Uani d 1 . .
H H1N1 -0.080(3) 0.663(3) 0.4157(19) 0.057(6) Uiso d 1 . .
H H1N2 -0.109(3) 0.797(3) 0.376(2) 0.068(6) Uiso d 1 . .
N N2 0.1936(2) 0.4855(2) 0.48236(19) 0.0700(6) Uani d 1 . .
C C1 0.3644(2) 0.5954(2) 0.21556(18) 0.0474(4) Uani d 1 . .
C C2 0.4475(3) 0.4852(3) 0.2186(2) 0.0693(6) Uani d 1 . .
H H2A 0.523004 0.495812 0.296026 0.083 Uiso calc 1 . .
C C3 0.4174(4) 0.3571(3) 0.1044(3) 0.0938(9) Uani d 1 . .
H H3A 0.472222 0.281595 0.106231 0.113 Uiso calc 1 . .
C C4 0.3083(5) 0.3415(3) -0.0102(3) 0.0942(9) Uani d 1 . .
H H4A 0.290072 0.256420 -0.085936 0.113 Uiso calc 1 . .
C C5 0.2271(4) 0.4499(3) -0.0129(2) 0.0881(8) Uani d 1 . .
H H5A 0.152576 0.439516 -0.090676 0.106 Uiso calc 1 . .
C C6 0.2543(3) 0.5753(3) 0.0988(2) 0.0700(6) Uani d 1 . .
H H6A 0.196780 0.648748 0.095559 0.084 Uiso calc 1 . .
C C7 0.3897(2) 0.7335(2) 0.33875(16) 0.0424(4) Uani d 1 . .
H H7A 0.494936 0.744799 0.405599 0.051 Uiso calc 1 . .
C C8 0.4222(2) 0.8932(2) 0.32389(16) 0.0421(4) Uani d 1 . .
C C9 0.2989(2) 0.9618(2) 0.31696(17) 0.0454(4) Uani d 1 . .
C C10 0.1074(2) 0.7670(2) 0.36705(16) 0.0437(4) Uani d 1 . .
C C11 0.2308(2) 0.6973(2) 0.38400(16) 0.0426(4) Uani d 1 . .
C C12 0.2067(2) 0.5791(2) 0.43693(18) 0.0488(4) Uani d 1 . .
C C13 0.3033(3) 1.1169(3) 0.3039(2) 0.0652(6) Uani d 1 . .
H H13A 0.425021 1.184266 0.324493 0.098 Uiso calc 1 . .
H H13B 0.251375 1.171848 0.361704 0.098 Uiso calc 1 . .
H H13C 0.236508 1.094610 0.217107 0.098 Uiso calc 1 . .
C C14 0.6031(2) 0.9636(2) 0.31985(18) 0.0484(4) Uani d 1 . .
C C15A 0.814(5) 1.136(3) 0.2707(18) 0.084(3) Uani d 0.280(7) A 1
H H15A 0.885611 1.222435 0.354245 0.101 Uiso calc 0.280(7) A 1
H H15B 0.864085 1.051113 0.257234 0.101 Uiso calc 0.280(7) A 1
C C16A 0.8150(18) 1.1965(15) 0.1739(11) 0.098(3) Uani d 0.280(7) A 1
H H16A 0.885497 1.304306 0.198254 0.117 Uiso calc 0.280(7) A 1
C C17A 0.728(2) 1.1155(18) 0.0576(11) 0.149(5) Uani d 0.280(7) A 1
H H17A 0.656193 1.007380 0.029871 0.179 Uiso calc 0.280(7) A 1
H H17B 0.734994 1.163255 -0.001548 0.179 Uiso calc 0.280(7) A 1
C C15B 0.7942(19) 1.1526(13) 0.2641(6) 0.093(2) Uani d 0.720(7) A 2
H H15C 0.824470 1.268629 0.307193 0.111 Uiso calc 0.720(7) A 2
H H15D 0.882796 1.122081 0.311836 0.111 Uiso calc 0.720(7) A 2
C C16B 0.8014(7) 1.1178(6) 0.1398(4) 0.1014(17) Uani d 0.720(7) A 2
H H16B 0.721066 1.016544 0.079943 0.122 Uiso calc 0.720(7) A 2
C C17B 0.8942(6) 1.1959(7) 0.0949(5) 0.1199(19) Uani d 0.720(7) A 2
H H17C 0.978344 1.298620 0.147859 0.144 Uiso calc 0.720(7) A 2
H H17D 0.880257 1.152447 0.007964 0.144 Uiso calc 0.720(7) A 2
loop_
_atom_site_aniso_label
_atom_site_aniso_U_11
_atom_site_aniso_U_22
_atom_site_aniso_U_33
_atom_site_aniso_U_12
_atom_site_aniso_U_13
_atom_site_aniso_U_23
O1 0.0444(7) 0.0617(8) 0.0695(9) 0.0266(6) 0.0260(6) 0.0421(7)
O2 0.0458(8) 0.0656(9) 0.1176(13) 0.0250(7) 0.0311(8) 0.0375(9)
O3 0.0517(8) 0.0913(11) 0.0830(10) 0.0102(7) 0.0273(7) 0.0531(9)
N1 0.0509(10) 0.0682(12) 0.0831(13) 0.0301(9) 0.0369(9) 0.0483(10)
N2 0.0740(12) 0.0741(12) 0.0988(15) 0.0377(10) 0.0476(11) 0.0585(12)
C1 0.0468(10) 0.0454(10) 0.0596(11) 0.0179(8) 0.0293(9) 0.0237(9)
C2 0.0816(15) 0.0599(13) 0.0913(16) 0.0384(12) 0.0465(13) 0.0384(12)
C3 0.127(2) 0.0589(15) 0.127(3) 0.0528(16) 0.078(2) 0.0362(16)
C4 0.123(2) 0.0610(16) 0.090(2) 0.0183(16) 0.0658(19) 0.0093(14)
C5 0.0939(19) 0.0846(18) 0.0627(15) 0.0207(15) 0.0283(13) 0.0073(13)
C6 0.0752(14) 0.0731(15) 0.0587(13) 0.0329(12) 0.0226(11) 0.0165(11)
C7 0.0400(9) 0.0474(10) 0.0465(10) 0.0199(7) 0.0155(7) 0.0228(8)
C8 0.0421(9) 0.0431(9) 0.0429(9) 0.0140(7) 0.0165(7) 0.0185(8)
C9 0.0454(10) 0.0489(10) 0.0490(10) 0.0179(8) 0.0190(8) 0.0252(8)
C10 0.0441(10) 0.0476(10) 0.0464(10) 0.0174(8) 0.0192(8) 0.0236(8)
C11 0.0473(10) 0.0440(9) 0.0460(10) 0.0201(8) 0.0208(8) 0.0229(8)
C12 0.0496(10) 0.0516(11) 0.0595(11) 0.0246(8) 0.0273(9) 0.0285(9)
C13 0.0675(13) 0.0634(13) 0.0876(16) 0.0319(11) 0.0333(12) 0.0467(12)
C14 0.0458(10) 0.0440(10) 0.0512(10) 0.0131(8) 0.0194(8) 0.0135(8)
C15A 0.057(5) 0.109(5) 0.094(5) 0.010(4) 0.030(4) 0.061(4)
C16A 0.076(4) 0.110(5) 0.105(5) 0.001(5) 0.027(4) 0.069(4)
C17A 0.191(10) 0.144(8) 0.111(6) 0.050(8) 0.035(8) 0.067(7)
C15B 0.060(4) 0.118(3) 0.084(2) -0.006(3) 0.029(2) 0.047(2)
C16B 0.093(3) 0.098(3) 0.096(3) 0.007(3) 0.049(2) 0.027(3)
C17B 0.095(3) 0.175(5) 0.099(3) 0.018(3) 0.042(2) 0.085(3)
loop_
_atom_type_symbol
_atom_type_description
_atom_type_scat_dispersion_real
_atom_type_scat_dispersion_imag
_atom_type_scat_source
C C 0.0033 0.0016 'International Tables Vol C Tables 4.2.6.8 and 6.1.1.4'
H H 0.0000 0.0000 'International Tables Vol C Tables 4.2.6.8 and 6.1.1.4'
N N 0.0061 0.0033 'International Tables Vol C Tables 4.2.6.8 and 6.1.1.4'
O O 0.0106 0.0060 'International Tables Vol C Tables 4.2.6.8 and 6.1.1.4'
loop_
_geom_angle_atom_site_label_1
_geom_angle_atom_site_label_2
_geom_angle_atom_site_label_3
_geom_angle_site_symmetry_1
_geom_angle_site_symmetry_3
_geom_angle
C10 O1 C9 . . 119.93(13)
C14 O3 C15B . . 120.1(4)
C14 O3 C15A . . 110.7(7)
C10 N1 H1N1 . . 120.4(14)
C10 N1 H1N2 . . 116.0(14)
H1N1 N1 H1N2 . . 123(2)
C2 C1 C6 . . 118.3(2)
C2 C1 C7 . . 120.80(19)
C6 C1 C7 . . 120.86(16)
C1 C2 C3 . . 119.4(2)
C1 C2 H2A . . 120.3
C3 C2 H2A . . 120.3
C4 C3 C2 . . 120.8(2)
C4 C3 H3A . . 119.6
C2 C3 H3A . . 119.6
C5 C4 C3 . . 119.7(2)
C5 C4 H4A . . 120.1
C3 C4 H4A . . 120.1
C4 C5 C6 . . 120.1(3)
C4 C5 H5A . . 120.0
C6 C5 H5A . . 120.0
C5 C6 C1 . . 121.7(2)
C5 C6 H6A . . 119.1
C1 C6 H6A . . 119.1
C8 C7 C11 . . 109.31(13)
C8 C7 C1 . . 112.26(14)
C11 C7 C1 . . 111.41(14)
C8 C7 H7A . . 107.9
C11 C7 H7A . . 107.9
C1 C7 H7A . . 107.9
C9 C8 C14 . . 124.63(16)
C9 C8 C7 . . 122.28(15)
C14 C8 C7 . . 113.08(15)
C8 C9 O1 . . 120.91(15)
C8 C9 C13 . . 131.04(17)
O1 C9 C13 . . 108.05(15)
N1 C10 C11 . . 128.55(17)
N1 C10 O1 . . 110.40(15)
C11 C10 O1 . . 121.05(15)
C10 C11 C12 . . 119.89(15)
C10 C11 C7 . . 121.69(15)
C12 C11 C7 . . 118.27(14)
N2 C12 C11 . . 177.5(2)
C9 C13 H13A . . 109.5
C9 C13 H13B . . 109.5
H13A C13 H13B . . 109.5
C9 C13 H13C . . 109.5
H13A C13 H13C . . 109.5
H13B C13 H13C . . 109.5
O2 C14 O3 . . 122.49(17)
O2 C14 C8 . . 121.74(17)
O3 C14 C8 . . 115.75(16)
C16A C15A O3 . . 108(2)
C16A C15A H15A . . 110.1
O3 C15A H15A . . 110.1
C16A C15A H15B . . 110.1
O3 C15A H15B . . 110.1
H15A C15A H15B . . 108.4
C17A C16A C15A . . 124.5(11)
C17A C16A H16A . . 117.7
C15A C16A H16A . . 117.7
C16A C17A H17A . . 120.0
C16A C17A H17B . . 120.0
H17A C17A H17B . . 120.0
C16B C15B O3 . . 112.7(8)
C16B C15B H15C . . 109.1
O3 C15B H15C . . 109.1
C16B C15B H15D . . 109.1
O3 C15B H15D . . 109.1
H15C C15B H15D . . 107.8
C17B C16B C15B . . 131.9(8)
C17B C16B H16B . . 114.0
C15B C16B H16B . . 114.0
C16B C17B H17C . . 120.0
C16B C17B H17D . . 120.0
H17C C17B H17D . . 120.0
loop_
_geom_bond_atom_site_label_1
_geom_bond_atom_site_label_2
_geom_bond_site_symmetry_2
_geom_bond_distance
O1 C10 . 1.361(2)
O1 C9 . 1.389(2)
O2 C14 . 1.197(2)
O3 C14 . 1.319(2)
O3 C15B . 1.434(13)
O3 C15A . 1.52(4)
N1 C10 . 1.333(2)
N1 H1N1 . 0.83(2)
N1 H1N2 . 0.88(2)
N2 C12 . 1.143(2)
C1 C2 . 1.375(3)
C1 C6 . 1.376(3)
C1 C7 . 1.521(2)
C2 C3 . 1.396(4)
C2 H2A . 0.9300
C3 C4 . 1.367(4)
C3 H3A . 0.9300
C4 C5 . 1.349(4)
C4 H4A . 0.9300
C5 C6 . 1.371(3)
C5 H5A . 0.9300
C6 H6A . 0.9300
C7 C8 . 1.508(2)
C7 C11 . 1.511(2)
C7 H7A . 0.9800
C8 C9 . 1.331(2)
C8 C14 . 1.477(2)
C9 C13 . 1.486(2)
C10 C11 . 1.348(2)
C11 C12 . 1.409(2)
C13 H13A . 0.9600
C13 H13B . 0.9600
C13 H13C . 0.9600
C15A C16A . 1.404(4)
C15A H15A . 0.9700
C15A H15B . 0.9700
C16A C17A . 1.245(4)
C16A H16A . 0.9300
C17A H17A . 0.9300
C17A H17B . 0.9300
C15B C16B . 1.395(4)
C15B H15C . 0.9700
C15B H15D . 0.9700
C16B C17B . 1.227(3)
C16B H16B . 0.9300
C17B H17C . 0.9300
C17B H17D . 0.9300
loop_
_geom_hbond_atom_site_label_D
_geom_hbond_atom_site_label_H
_geom_hbond_atom_site_label_A
_geom_hbond_site_symmetry_A
_geom_hbond_distance_DH
_geom_hbond_distance_HA
_geom_hbond_distance_DA
_geom_hbond_angle_DHA
_geom_hbond_publ_flag
N1 H1N1 N2 2_566 0.83(2) 2.24(2) 3.051(2) 166.0(19) yes
N1 H1N2 O2 1_455 0.88(2) 2.04(2) 2.919(2) 171(2) yes
C13 H13A O3 . 0.96 2.27 2.868(3) 119.7 yes
loop_
_geom_torsion_atom_site_label_1
_geom_torsion_atom_site_label_2
_geom_torsion_atom_site_label_3
_geom_torsion_atom_site_label_4
_geom_torsion_site_symmetry_1
_geom_torsion_site_symmetry_2
_geom_torsion_site_symmetry_3
_geom_torsion_site_symmetry_4
_geom_torsion
C6 C1 C2 C3 . . . . -0.2(3)
C7 C1 C2 C3 . . . . 178.11(18)
C1 C2 C3 C4 . . . . 0.8(4)
C2 C3 C4 C5 . . . . -0.7(4)
C3 C4 C5 C6 . . . . 0.1(4)
C4 C5 C6 C1 . . . . 0.4(4)
C2 C1 C6 C5 . . . . -0.4(3)
C7 C1 C6 C5 . . . . -178.71(19)
C2 C1 C7 C8 . . . . 135.66(18)
C6 C1 C7 C8 . . . . -46.0(2)
C2 C1 C7 C11 . . . . -101.37(19)
C6 C1 C7 C11 . . . . 76.9(2)
C11 C7 C8 C9 . . . . -17.1(2)
C1 C7 C8 C9 . . . . 106.99(19)
C11 C7 C8 C14 . . . . 162.07(14)
C1 C7 C8 C14 . . . . -73.79(18)
C14 C8 C9 O1 . . . . -179.35(15)
C7 C8 C9 O1 . . . . -0.2(3)
C14 C8 C9 C13 . . . . 0.1(3)
C7 C8 C9 C13 . . . . 179.25(19)
C10 O1 C9 C8 . . . . 16.3(2)
C10 O1 C9 C13 . . . . -163.28(16)
C9 O1 C10 N1 . . . . 168.74(16)
C9 O1 C10 C11 . . . . -11.9(2)
N1 C10 C11 C12 . . . . -4.5(3)
O1 C10 C11 C12 . . . . 176.32(16)
N1 C10 C11 C7 . . . . 171.01(18)
O1 C10 C11 C7 . . . . -8.2(3)
C8 C7 C11 C10 . . . . 21.4(2)
C1 C7 C11 C10 . . . . -103.26(19)
C8 C7 C11 C12 . . . . -163.08(15)
C1 C7 C11 C12 . . . . 72.3(2)
C15B O3 C14 O2 . . . . -5.2(5)
C15A O3 C14 O2 . . . . -2.7(9)
C15B O3 C14 C8 . . . . 176.0(4)
C15A O3 C14 C8 . . . . 178.4(9)
C9 C8 C14 O2 . . . . 158.52(19)
C7 C8 C14 O2 . . . . -20.7(2)
C9 C8 C14 O3 . . . . -22.6(3)
C7 C8 C14 O3 . . . . 158.17(15)
C14 O3 C15A C16A . . . . 158.0(12)
O3 C15A C16A C17A . . . . -56(3)
C14 O3 C15B C16B . . . . 117.5(6)
O3 C15B C16B C17B . . . . 152.6(7)
loop_
_cod_changelog_entry_id
_cod_changelog_entry_author
_cod_changelog_entry_date
_cod_changelog_entry_text
1 'Vaitkus, Antanas' 2022-04-26T17:25:00+03:00
'Updated bibliographic information.'
