#------------------------------------------------------------------------------
#$Date: 2019-11-04 17:31:25 +0200 (Mon, 04 Nov 2019) $
#$Revision: 223165 $
#$URL: file:///home/coder/svn-repositories/cod/cif/1/55/27/1552732.cif $
#------------------------------------------------------------------------------
#
# This file is available in the Crystallography Open Database (COD),
# http://www.crystallography.net/
#
# All data on this site have been placed in the public domain by the
# contributors.
#
data_1552732
loop_
_publ_author_name
'Durka, Krzysztof'
'G\'orski, Bartosz'
'B\/locki, Krzysztof'
'Urban, Mateusz'
'Wo\'zniak, Krzysztof'
'Barbasiewicz, Micha\/l'
'Luli\'nski, Sergiusz'
_publ_section_title
;
 Experimental and Theoretical Insights into Molecular and Solid-State
 Properties of Isomeric Bis(salicylaldehydes).
;
_journal_issue                   40
_journal_name_full               'The journal of physical chemistry. A'
_journal_page_first              8674
_journal_page_last               8689
_journal_paper_doi               10.1021/acs.jpca.9b07360
_journal_volume                  123
_journal_year                    2019
_chemical_formula_moiety         'C8 H6 O4'
_chemical_formula_sum            'C8 H6 O4'
_chemical_formula_weight         166.13
_chemical_melting_point          245
_chemical_name_common            2,5-dihydroxyterephthalaldehyde
_chemical_name_systematic
;
 2,5-dihydroxybenzene-1,4-dicarbaaldehyde
;
_space_group_crystal_system      monoclinic
_space_group_IT_number           14
_space_group_name_Hall           '-P 2yn'
_space_group_name_H-M_alt        'P 1 21/n 1'
_atom_sites_solution_hydrogens   mixed
_audit_creation_method           SHELXL-2013
_cell_angle_alpha                90
_cell_angle_beta                 93.399(4)
_cell_angle_gamma                90
_cell_formula_units_Z            2
_cell_length_a                   3.7157(2)
_cell_length_b                   5.5117(2)
_cell_length_c                   16.3825(6)
_cell_measurement_reflns_used    1924
_cell_measurement_temperature    100(2)
_cell_measurement_theta_max      76.1470
_cell_measurement_theta_min      2.7090
_cell_volume                     334.92(3)
_computing_cell_refinement
;
CrysAlisPro, Agilent Technologies,
Version 1.171.37.33 (release 27-03-2014 CrysAlis171 .NET)
(compiled Mar 27 2014,17:12:48)
;
_computing_data_collection
;
CrysAlisPro, Agilent Technologies,
Version 1.171.37.33 (release 27-03-2014 CrysAlis171 .NET)
(compiled Mar 27 2014,17:12:48)
;
_computing_data_reduction
;
CrysAlisPro, Agilent Technologies,
Version 1.171.37.33 (release 27-03-2014 CrysAlis171 .NET)
(compiled Mar 27 2014,17:12:48)
;
_diffrn_ambient_environment      air
_diffrn_ambient_temperature      100(2)
_diffrn_detector                 'CCD plate'
_diffrn_detector_area_resol_mean 5.2195
_diffrn_detector_type            Atlas
_diffrn_measured_fraction_theta_full 1.000
_diffrn_measured_fraction_theta_max 0.993
_diffrn_measurement_device       'four-circle diffractometer'
_diffrn_measurement_device_type  'SuperNova, Dual, Cu at zero, Atlas'
_diffrn_radiation_monochromator  mirror
_diffrn_radiation_probe          x-ray
_diffrn_radiation_type           'Cu K\a'
_diffrn_radiation_wavelength     1.54184
_diffrn_reflns_av_R_equivalents  0.0208
_diffrn_reflns_av_unetI/netI     0.0147
_diffrn_reflns_Laue_measured_fraction_full 1.000
_diffrn_reflns_Laue_measured_fraction_max 0.993
_diffrn_reflns_limit_h_max       4
_diffrn_reflns_limit_h_min       -4
_diffrn_reflns_limit_k_max       6
_diffrn_reflns_limit_k_min       -6
_diffrn_reflns_limit_l_max       20
_diffrn_reflns_limit_l_min       -20
_diffrn_reflns_number            2878
_diffrn_reflns_point_group_measured_fraction_full 1.000
_diffrn_reflns_point_group_measured_fraction_max 0.993
_diffrn_reflns_theta_full        67.679
_diffrn_reflns_theta_max         76.558
_diffrn_reflns_theta_min         5.410
_diffrn_source                   'sealed X-ray tube'
_diffrn_source_type              'SuperNova (Cu) X-ray Source'
_exptl_absorpt_coefficient_mu    1.158
_exptl_absorpt_correction_T_max  0.988
_exptl_absorpt_correction_T_min  0.979
_exptl_absorpt_correction_type   gaussian
_exptl_absorpt_process_details
;
CrysAlisPro, Agilent Technologies,
Version 1.171.37.33 (release 27-03-2014 CrysAlis171 .NET)
(compiled Mar 27 2014,17:12:48)
Numerical absorption correction based on gaussian integration over
			a multifaceted crystal model
Empirical absorption correction using spherical harmonics,
 implemented in SCALE3 ABSPACK scaling algorithm.
;
_exptl_crystal_colour            yellow
_exptl_crystal_density_diffrn    1.647
_exptl_crystal_description       block
_exptl_crystal_F_000             172
_exptl_crystal_size_max          0.1430
_exptl_crystal_size_mid          0.1281
_exptl_crystal_size_min          0.0775
_refine_diff_density_max         0.287
_refine_diff_density_min         -0.155
_refine_diff_density_rms         0.048
_refine_ls_extinction_method     none
_refine_ls_goodness_of_fit_ref   1.036
_refine_ls_hydrogen_treatment    mixed
_refine_ls_matrix_type           full
_refine_ls_number_parameters     59
_refine_ls_number_reflns         700
_refine_ls_number_restraints     0
_refine_ls_restrained_S_all      1.036
_refine_ls_R_factor_all          0.0349
_refine_ls_R_factor_gt           0.0329
_refine_ls_shift/su_max          0.001
_refine_ls_shift/su_mean         0.000
_refine_ls_structure_factor_coef Fsqd
_refine_ls_weighting_details
'w=1/[\s^2^(Fo^2^)+(0.0593P)^2^+0.1165P] where P=(Fo^2^+2Fc^2^)/3'
_refine_ls_weighting_scheme      calc
_refine_ls_wR_factor_gt          0.0911
_refine_ls_wR_factor_ref         0.0936
_reflns_Friedel_coverage         0.000
_reflns_number_gt                654
_reflns_number_total             700
_reflns_threshold_expression     'I > 2\s(I)'
_cod_data_source_file            jp9b07360_si_002.cif
_cod_data_source_block           1
_cod_original_sg_symbol_H-M      'P 21/n'
_cod_database_code               1552732
_shelx_space_group_comment
;
The symmetry employed for this shelxl refinement is uniquely defined
by the following loop, which should always be used as a source of
symmetry information in preference to the above space-group names.
They are only intended as comments.
;
_shelxl_version_number           2013-4
_shelx_res_file
;
TITL 2 in P2(1)/n
CELL  1.54178   3.7157   5.5117  16.3825   90.000   93.399   90.000
ZERR     2.00   0.0002   0.0002   0.0006    0.000    0.004    0.000
LATT   1
SYMM  1/2 - X, 1/2 + Y, 1/2 - Z
SFAC  C    H     O
UNIT  16   12     8
MERG   2
FMAP   2
PLAN   20
ACTA
BOND   $H
L.S.  14
TEMP  -173.00
WGHT    0.059300    0.116500
FVAR       0.42865
MOLE    1
O1    3    0.107570    0.527234    0.777579    11.00000    0.03240    0.01904 =
         0.01298   -0.00110    0.00492   -0.00048
O2    3    0.283267    0.180037    0.890036    11.00000    0.02406    0.01409 =
         0.01236   -0.00112    0.00415    0.00206
C2    1   -0.011754    0.564057    0.917918    11.00000    0.01484    0.01340 =
         0.01138    0.00008    0.00043   -0.00337
C1    1   -0.154196    0.720839    0.975107    11.00000    0.01461    0.01181 =
         0.01425    0.00054    0.00067   -0.00154
AFIX  43
H1    2   -0.259118    0.870420    0.957393    11.00000   -1.20000
AFIX   0
C3    1    0.143428    0.340288    0.942736    11.00000    0.01468    0.01238 =
         0.01287   -0.00205    0.00189   -0.00256
C4    1   -0.023350    0.643296    0.832465    11.00000    0.02073    0.01447 =
         0.01325    0.00082    0.00063   -0.00256
AFIX  43
H4    2   -0.138662    0.792898    0.818758    11.00000   -1.20000
AFIX   0
H2    2    0.263440    0.236089    0.841790    11.00000    0.04261
HKLF    4

REM  2 in P2(1)/n
REM R1 =  0.0329 for     654 Fo > 4sig(Fo)  and  0.0349 for all     700 data
REM     59 parameters refined using      0 restraints

END

WGHT      0.0558      0.1204

REM Highest difference peak  0.287,  deepest hole -0.155,  1-sigma level  0.048
Q1    1  -0.0162  0.5938  0.8790  11.00000  0.05    0.29
Q2    1   0.1557  0.3149  0.9835  11.00000  0.05    0.26
Q3    1   0.0202  0.4444  0.9242  11.00000  0.05    0.24
Q4    1  -0.0643  0.6434  0.9450  11.00000  0.05    0.22
Q5    1   0.2338  0.2666  0.9143  11.00000  0.05    0.15
Q6    1   0.0653  0.5799  0.7227  11.00000  0.05    0.14
Q7    1  -0.1986  0.5272  0.7779  11.00000  0.05    0.13
Q8    1   0.6540  0.1269  0.8994  11.00000  0.05    0.12
Q9    1   0.0798  0.6319  0.7341  11.00000  0.05    0.12
Q10   1  -0.2691  0.7958  0.8258  11.00000  0.05    0.11
Q11   1   0.4855  0.1004  0.9175  11.00000  0.05    0.11
Q12   1   0.2001  0.4402  0.8136  11.00000  0.05    0.11
Q13   1  -0.1234  0.8827  0.8504  11.00000  0.05    0.10
Q14   1  -0.2183  0.9259  0.7399  11.00000  0.05    0.09
Q15   1   0.3433  0.0046  0.8611  11.00000  0.05    0.09
Q16   1   0.2846 -0.0189  0.9429  11.00000  0.05    0.09
Q17   1  -0.0437  0.1907  0.8783  11.00000  0.05    0.09
Q18   1  -0.0933  0.6162  0.7613  11.00000  0.05    0.09
Q19   1  -0.2399  1.0321  0.8369  11.00000  0.05    0.09
Q20   1  -0.4134  1.1076  0.9740  11.00000  0.05    0.08
;
_shelx_res_checksum              689
_shelx_hkl_file
;
   0   0  -1    0.00    0.01
   0   0  -2   32.37    0.57
   0   0   2   36.02    0.57
   0   0   3   -0.01    0.04
   0   0  -3   -0.03    0.04
   0   0   4    5.48    0.25
   0   0  -4    4.90    0.25
   0   0  -5    0.00    0.06
   0   0   5    0.05    0.06
   0   0   6   84.65    1.35
   0   0   6   81.01    1.46
   0   0  -6   82.47    1.20
   0   0  -6   79.43    1.48
   0   0  -7   -0.04    0.04
   0   0   7   -0.07    0.07
   0   0   8    6.58    0.36
   0   0  -8    6.81    0.30
   0   0  -9    0.03    0.04
   0   0   9    0.05    0.07
   0   0  10    4.49    0.35
   0   0 -10    4.58    0.29
   0   0  11    0.01    0.06
   0   0 -11   -0.01    0.05
   0   0 -12    0.08    0.05
   0   0  12    0.17    0.10
   0   0 -13   -0.01    0.07
   0   0 -14    3.05    0.29
   0   0  15    0.02    0.04
   0   0 -15   -0.07    0.08
   0   0 -15    0.10    0.06
   0   0 -15    0.05    0.04
   0   0 -15    0.07    0.07
   0   0  16   21.67    0.51
   0   0 -16   21.46    0.67
   0   0 -16   20.52    0.45
   0   0  17   -0.05    0.04
   0   0 -17   -0.03    0.07
   0   0 -17   -0.01    0.03
   0   0  18   33.36    0.59
   0   0 -18   31.91    0.53
   0   0 -18   31.72    0.73
   0   0 -19    0.04    0.05
   0   0  19    0.03    0.03
   0   0 -20   19.89    0.40
   0  -1   0    0.03    0.06
   0  -1   0    0.00    0.03
   0  -1   0    0.03    0.03
   0   1   0    0.01    0.02
   0   1   0    0.03    0.06
   0   1   1  145.54    1.79
   0  -1  -1  142.68    1.79
   0   1   1  147.37    2.15
   0   1   1  140.77    1.85
   0  -1   1  147.53    1.76
   0   1  -1  145.33    2.02
   0   1   2   10.88    0.31
   0   1  -2   10.21    0.36
   0  -1  -3   23.04    0.75
   0   1   3   23.48    0.70
   0   1   3   22.35    0.53
   0  -1  -4   78.19    1.62
   0   1   4   75.24    1.48
   0   1  -5   72.05    1.28
   0  -1  -5   69.79    1.07
   0   1   5   71.63    1.21
   0  -1   5   72.63    1.21
   0   1  -5   71.10    1.07
   0   1   5   72.45    1.49
   0  -1  -5   68.53    1.63
   0   1   6  122.34    2.17
   0   1  -6  113.62    1.62
   0  -1  -6  113.39    1.52
   0  -1  -6  118.55    2.35
   0  -1  -6  115.60    1.80
   0   1   6  118.25    1.79
   0  -1   6  114.90    1.78
   0   1  -6  114.66    1.86
   0  -1  -7  169.41    2.18
   0   1  -7  169.90    2.28
   0  -1  -7  169.17    2.47
   0   1   7  171.62    2.47
   0  -1   7  170.23    2.48
   0  -1  -8   72.74    1.17
   0   1  -8   72.07    1.26
   0   1  -8   68.23    1.22
   0   1   8   73.00    1.42
   0  -1   8   69.80    1.41
   0  -1  -9    0.63    0.10
   0   1  -9    0.70    0.12
   0   1  -9    0.68    0.11
   0  -1   9    0.64    0.14
   0   1   9    0.73    0.15
   0  -1  10    1.42    0.21
   0   1 -10    1.73    0.19
   0   1  10    1.83    0.23
   0  -1 -10    1.57    0.16
   0  -1  11    9.30    0.54
   0   1 -11    9.36    0.46
   0   1  11    8.75    0.50
   0  -1  12    0.75    0.17
   0   1 -12    0.37    0.10
   0  -1  13   65.67    1.65
   0   1 -13   63.31    1.45
   0   1 -14   54.69    1.35
   0   1 -15    1.67    0.18
   0   1 -15    1.65    0.12
   0   1 -15    1.21    0.19
   0   1 -15    1.75    0.18
   0  -1  15    1.66    0.14
   0  -1 -15    1.54    0.18
   0   1 -16   15.47    0.54
   0   1 -16   15.58    0.53
   0  -1 -16   14.94    0.54
   0  -1  16   15.21    0.43
   0   1 -16   15.19    0.39
   0  -1  17    0.04    0.04
   0   1 -17    0.05    0.07
   0  -1 -17   -0.04    0.07
   0   1 -17    0.02    0.06
   0   1 -17    0.05    0.03
   0  -1 -18    0.84    0.12
   0   1 -18    0.82    0.11
   0  -1  18    0.94    0.09
   0   1 -18    0.79    0.07
   0  -1 -19    1.73    0.14
   0   1 -19    1.54    0.12
   0  -1  19    1.80    0.10
   0   1 -19    1.75    0.09
   0   1 -20    6.57    0.15
   0  -1 -20    6.88    0.21
   0  -1  20    6.92    0.17
   0  -2   0   17.00    0.52
   0  -2   0   19.20    0.76
   0  -2   0   18.45    0.55
   0   2   0   17.77    0.50
   0   2   0   17.40    0.74
   0  -2   0   17.88    0.55
   0  -2  -1  183.22    2.52
   0  -2   1  183.41    2.29
   0  -2  -1  174.74    2.44
   0  -2   1  172.53    2.43
   0  -2   1  174.56    2.49
   0  -2  -1  186.55    3.04
   0   2  -1  179.94    2.89
   0   2   1  169.35    2.40
   0   2   1  182.03    3.03
   0  -2  -1  173.11    2.39
   0  -2  -2  178.61    2.45
   0  -2  -2  176.26    2.49
   0   2   2  174.63    2.55
   0  -2   2  183.45    2.42
   0  -2   2  179.95    2.49
   0  -2  -2  187.16    2.61
   0  -2   2  194.21    2.36
   0   2  -2  164.13    2.83
   0   2   3   13.50    0.55
   0   2   3   14.20    0.46
   0  -2  -3   12.75    0.45
   0  -2  -3   12.45    0.51
   0  -2   3   13.42    0.46
   0  -2   3   13.37    0.45
   0   2  -3   14.12    0.62
   0  -2  -4   37.35    0.68
   0  -2   4   35.93    0.82
   0  -2  -4   35.51    0.95
   0  -2  -4   35.95    0.83
   0   2   4   37.53    0.87
   0   2  -4   39.04    0.70
   0  -2  -5   37.29    0.83
   0   2  -5   38.37    0.74
   0  -2   5   37.71    0.90
   0  -2  -5   38.23    0.73
   0  -2  -5   36.63    1.00
   0  -2   5   36.96    0.83
   0   2   5   36.40    0.90
   0  -2   6   65.76    1.32
   0   2   6   65.27    1.34
   0   2  -6   66.98    1.14
   0  -2  -7   35.07    1.06
   0   2  -7   36.29    0.81
   0   2   7   36.72    0.99
   0  -2   7   36.71    0.97
   0  -2  -8    5.80    0.43
   0   2   8    6.02    0.40
   0  -2   8    5.14    0.37
   0   2  -8    5.45    0.30
   0   2  -9    1.74    0.18
   0   2   9    2.07    0.25
   0  -2   9    1.92    0.23
   0  -2  -9    2.06    0.27
   0   2 -10    0.54    0.12
   0  -2  10    0.67    0.16
   0   2 -10    0.85    0.15
   0  -2  11   11.93    0.64
   0   2 -11   11.66    0.54
   0   2 -11   11.38    0.53
   0  -2  12    1.93    0.26
   0   2 -12    2.16    0.24
   0   2 -13   44.08    1.19
   0  -2  13   45.03    1.36
   0   2 -14   59.81    0.96
   0  -2  14   54.42    1.52
   0  -2  14   58.10    1.01
   0   2 -14   57.92    1.14
   0  -2 -14   57.57    1.22
   0   2 -14   55.51    1.38
   0   2 -15    6.60    0.25
   0  -2  15    6.45    0.27
   0   2 -15    6.22    0.32
   0  -2 -15    6.84    0.37
   0  -2  16    4.57    0.22
   0  -2 -16    4.29    0.28
   0   2 -16    4.75    0.20
   0   2 -16    4.80    0.27
   0   2 -17    6.70    0.22
   0  -2 -17    6.55    0.31
   0  -2  17    6.44    0.24
   0   2 -17    7.07    0.30
   0  -2  18    0.04    0.03
   0   2 -18    0.01    0.03
   0  -2 -18    0.06    0.05
   0  -2 -19    4.04    0.18
   0   2 -19    4.07    0.13
   0  -2  19    4.03    0.14
   0  -3   0   -0.03    0.08
   0  -3   0    0.02    0.06
   0  -3   1    0.06    0.07
   0  -3   1   -0.02    0.07
   0  -3  -1    0.09    0.07
   0  -3  -1    0.08    0.08
   0  -3  -2   42.64    1.15
   0  -3   2   41.93    1.14
   0  -3  -3   40.72    1.11
   0  -3  -3   42.24    1.23
   0  -3   3   40.89    1.10
   0  -3   4    2.93    0.28
   0  -3  -4    3.01    0.33
   0   3   4    2.93    0.28
   0  -3  -4    2.23    0.25
   0   3   5   24.70    0.85
   0  -3  -5   22.88    0.96
   0  -3  -5   23.36    0.80
   0  -3   5   22.81    0.78
   0  -3   5   25.18    0.83
   0  -3   6    2.48    0.26
   0   3   6    2.40    0.27
   0  -3  -6    2.14    0.31
   0  -3   7   19.41    0.77
   0   3   7   18.51    0.77
   0  -3  -7   17.95    0.90
   0  -3  -8   43.40    1.46
   0   3   8   46.16    1.31
   0  -3   8   46.69    1.29
   0   3  -9  187.95    2.75
   0  -3   9  185.14    3.13
   0  -3 -10    7.00    0.58
   0   3 -10    6.03    0.42
   0  -3  10    7.07    0.50
   0   3 -10    6.54    0.40
   0  -3  11    0.30    0.12
   0   3 -11    0.42    0.13
   0   3 -11    0.33    0.09
   0  -3  12    7.18    0.52
   0   3 -12    6.82    0.46
   0  -3 -12    7.57    0.38
   0   3 -12    8.20    0.27
   0  -3  12    7.87    0.36
   0   3 -12    7.20    0.37
   0   3 -12    6.83    0.42
   0  -3  13    0.17    0.05
   0  -3 -13    0.15    0.08
   0   3 -13   -0.07    0.06
   0  -3  13    0.15    0.08
   0   3 -13    0.13    0.05
   0  -3 -14    3.68    0.26
   0  -3  14    3.73    0.23
   0   3 -14    3.56    0.25
   0  -3  14    3.86    0.20
   0   3 -14    3.92    0.18
   0   3 -14    4.09    0.25
   0   3 -15    2.74    0.19
   0  -3  15    2.48    0.17
   0  -3  15    2.34    0.15
   0  -3 -15    2.40    0.21
   0   3 -15    2.67    0.14
   0   3 -15    2.36    0.19
   0   3 -16    0.91    0.11
   0  -3  16    0.86    0.09
   0   3 -16    1.05    0.08
   0  -3 -16    1.08    0.13
   0   3 -16    1.16    0.11
   0  -3 -17    0.26    0.07
   0  -3  17    0.39    0.05
   0   3 -17    0.27    0.05
   0   3 -17    0.36    0.05
   0  -3 -18    0.07    0.04
   0   3 -18    0.06    0.02
   0  -3  18    0.06    0.02
   0  -4   0   -0.02    0.10
   0  -4   0    0.02    0.08
   0  -4   1    0.62    0.17
   0  -4  -1    0.98    0.20
   0  -4  -1    1.21    0.23
   0  -4   2    3.83    0.39
   0  -4  -2    4.13    0.43
   0  -4  -2    3.53    0.38
   0  -4  -3    5.52    0.46
   0  -4  -3    6.75    0.56
   0  -4   3    5.25    0.45
   0  -4  -4   34.30    1.18
   0   4   4   37.69    1.22
   0  -4   4   34.40    1.18
   0  -4  -4   35.50    1.37
   0   4   5   43.16    1.32
   0  -4  -5   42.13    1.53
   0  -4  -5   39.77    1.27
   0  -4   5   39.03    1.25
   0   4   6    0.81    0.18
   0  -4  -6    0.82    0.23
   0  -4  -7    0.37    0.18
   0  -4  -8   12.77    0.85
   0  -4  -9   17.98    0.47
   0  -4  -9   18.16    0.58
   0  -4  -9   17.00    0.57
   0  -4   9   18.25    0.59
   0  -4  -9   16.37    0.96
   0  -4 -10    6.07    0.32
   0  -4  10    5.95    0.33
   0  -4 -10    5.97    0.25
   0   4 -10    5.39    0.32
   0  -4 -10    5.44    0.31
   0  -4 -11   31.57    0.78
   0   4 -11   30.21    0.81
   0  -4  11   32.64    0.80
   0  -4 -11   30.73    0.77
   0   4 -12    6.77    0.34
   0  -4  12    6.72    0.33
   0  -4 -12    6.82    0.33
   0   4 -13   24.18    0.65
   0  -4 -13   25.56    0.64
   0  -4  13   24.63    0.63
   0   4 -14    2.87    0.19
   0  -4  14    2.67    0.18
   0  -4 -14    2.88    0.19
   0  -4 -15   10.66    0.33
   0   4 -15    9.43    0.31
   0   4  15   10.09    0.23
   0  -4  15   10.12    0.31
   0  -4 -16   10.62    0.28
   0  -4  16    9.77    0.25
   0  -5   0    0.02    0.09
   0  -5   0   -0.07    0.08
   0  -5   0    0.02    0.09
   0  -5   0    0.01    0.07
   0  -5  -1    0.17    0.11
   0  -5  -1    0.07    0.05
   0  -5   1    0.21    0.10
   0  -5   1    0.20    0.09
   0  -5   1    0.19    0.07
   0  -5  -1    0.17    0.12
   0  -5   1    0.07    0.08
   0  -5   2   21.13    0.73
   0  -5  -2   20.12    1.03
   0  -5   2   22.94    0.65
   0  -5  -2   22.14    0.66
   0  -5   2   20.94    0.71
   0   5   2   21.17    0.98
   0  -5  -2   21.53    0.74
   0  -5   3   12.84    0.55
   0   5   3   11.92    0.72
   0  -5  -3   11.64    0.53
   0  -5  -3   12.02    0.48
   0  -5   3   12.77    0.54
   0  -5  -3   12.03    0.80
   0  -5  -4   40.50    1.54
   0  -5   4   40.25    1.02
   0  -5  -4   39.37    1.02
   0  -5  -4   40.78    0.95
   0  -5   4   41.02    1.03
   0  -5   5   38.86    0.99
   0  -5  -5   35.86    0.95
   0  -5   5   36.38    0.85
   0  -5   5   35.35    0.93
   0  -5  -5   36.81    0.89
   0  -5  -6   10.94    0.46
   0  -5   6   11.13    0.44
   0  -5   6   12.18    0.52
   0  -5  -7    1.33    0.16
   0  -5   7    1.67    0.19
   0  -5   7    1.58    0.17
   0  -5   8   25.67    0.74
   0  -5   8   26.85    0.53
   0  -5   8   25.10    0.68
   0  -5  -8   23.99    0.68
   0  -5   9    0.17    0.05
   0   5  -9    0.14    0.09
   0  -5   9    0.19    0.07
   0  -5  -9    0.36    0.09
   0  -5   9    0.24    0.08
   0  -5  10   11.31    0.41
   0  -5  10   10.86    0.40
   0  -5 -10   10.96    0.40
   0   5 -10   10.63    0.41
   0  -5  10   11.14    0.30
   0  -5  11   12.92    0.42
   0  -5 -11   13.17    0.40
   0   5 -11   13.36    0.44
   0  -5  11   13.52    0.32
   0  -5  12    0.76    0.10
   0  -5 -12    0.84    0.09
   0   5 -12    0.72    0.10
   0  -5  12    0.89    0.07
   0  -5  13    1.47    0.08
   0  -5  13    1.70    0.12
   0   5 -13    1.44    0.11
   0  -5  14    0.02    0.01
   0  -5  14   -0.01    0.03
   0  -6   0   18.85    0.53
   0  -6   0   18.39    0.56
   0  -6   1    7.75    0.32
   0  -6  -1    7.41    0.33
   0  -6   2    1.88    0.18
   0  -6  -2    2.13    0.18
   0  -6  -3    4.02    0.24
   0  -6   3    3.78    0.26
   0  -6   4    1.96    0.19
   0  -6  -4    1.98    0.17
   0  -6  -5   21.21    0.56
   0  -6   5   19.84    0.58
   0  -6  -6    0.41    0.08
   0  -6   6    0.40    0.09
   0   6  -7    3.46    0.20
   0  -6   7    3.57    0.18
   0  -6   7    3.61    0.22
   0  -6  -7    3.85    0.21
   0  -6  -8    0.10    0.05
   0  -6   8    0.03    0.05
   0  -6   8    0.09    0.04
   0   6  -8    0.05    0.06
   0  -6   9    0.31    0.06
   0  -6  -9    0.26    0.06
   0   6  -9    0.29    0.06
   0  -6   9    0.20    0.05
   0   6 -10    0.96    0.08
   0  -6 -10    0.98    0.07
   0  -6  10    0.99    0.07
   1   0 -20   -0.03    0.04
   1   0 -19   23.01    0.50
   1   0 -19   23.58    0.55
  -1   0  19   24.00    0.41
   1   0 -18   -0.11    0.07
  -1   0  18    0.05    0.03
   1   0 -18   -0.04    0.06
   1   0 -17   22.63    0.44
   1   0 -17   22.25    0.63
  -1   0  17   23.27    0.50
   1   0 -17   23.64    0.66
   1   0 -16    0.00    0.03
   1   0 -16    0.04    0.07
  -1   0  16   -0.03    0.04
   1   0 -16   -0.07    0.09
  -1   0  15    0.42    0.11
  -1   0  15    0.48    0.08
   1   0 -15    0.32    0.05
   1   0 -15    0.35    0.11
   1   0 -15    0.24    0.08
  -1   0  14    0.03    0.11
   1   0 -14   -0.05    0.06
  -1   0  13  107.20    2.39
   1   0 -13  111.42    1.98
   1   0 -12    0.05    0.07
  -1   0  12   -0.04    0.09
   1   0 -11    9.51    0.45
  -1   0  11    9.04    0.57
  -1   0  10   -0.03    0.09
   1   0 -10    0.05    0.05
   1   0  -9    0.45    0.10
  -1   0   9    0.42    0.14
   1   0  -9    0.49    0.10
   1   0  -8    0.00    0.05
   1   0  -8   -0.02    0.05
  -1   0   8    0.02    0.07
  -1   0   7    7.16    0.40
   1   0  -7    7.21    0.32
   1   0  -7    6.89    0.30
   1   0  -6    0.00    0.04
   1   0  -6   -0.04    0.04
  -1   0   6    0.12    0.08
  -1   0   6   -0.02    0.04
   1   0  -5   35.68    0.69
   1   0  -5   37.09    0.72
  -1   0   5   37.24    0.78
  -1   0   4    0.03    0.05
  -1   0   4    0.00    0.01
   1   0  -4    0.02    0.04
   1   0  -4    0.00    0.03
  -1   0   4    0.00    0.06
  -1   0   3   87.16    1.37
   1   0  -3   88.05    1.24
  -1   0   3   90.52    1.23
  -1   0   2   -0.06    0.08
  -1   0   2    0.01    0.04
  -1   0   2    0.03    0.04
  -1   0   1   34.09    0.70
   1   0  -1   32.06    0.68
  -1   0   1   32.97    0.78
  -1   0   1   34.19    0.75
  -1   0   0    0.08    0.06
   1   0   0    0.09    0.05
   1   0   0   -0.04    0.04
   1   0   1 1000.00   11.08
  -1   0  -1  989.61   11.31
  -1   0  -2    0.03    0.07
  -1   0  -2    0.01    0.05
   1   0   2    0.00    0.05
   1   0   3   -0.03    0.04
  -1   0  -3    0.03    0.07
  -1   0  -3    0.01    0.04
   1   0   3    0.07    0.06
   1   0   3    0.13    0.06
   1   0   4   -0.03    0.04
  -1   0  -4    0.02    0.03
   1   0   4   -0.01    0.04
   1   0   4    0.05    0.06
  -1   0  -4    0.04    0.05
   1   0   5   67.36    1.40
   1   0   5   62.35    1.13
  -1   0  -5   61.43    1.05
  -1   0  -5   65.41    1.14
  -1   0  -6    0.03    0.05
  -1   0  -6    0.07    0.07
  -1   0  -7  374.51    4.69
  -1   0  -7  381.22    4.58
  -1   0  -8   -0.03    0.05
  -1   0  -8    0.04    0.06
  -1   0  -9   39.20    0.98
  -1   0  -9   38.37    0.93
  -1   0 -10   -0.03    0.08
  -1   0 -10    0.06    0.05
  -1   0 -11    0.26    0.10
   1   0  12    0.11    0.09
  -1   0 -12   -0.07    0.06
  -1   0 -13    2.31    0.26
   1   0  13    2.08    0.28
  -1   0 -14   -0.02    0.04
  -1   0 -14    0.00    0.04
  -1   0 -14   -0.04    0.07
   1   0  14    0.01    0.08
  -1   0 -15   37.24    0.72
  -1   0 -15   37.73    0.69
  -1   0 -15   36.00    0.88
  -1   0 -16    0.04    0.04
   1   0  16   -0.01    0.03
  -1   0 -16    0.02    0.06
  -1   0 -17   19.50    0.40
   1   0  17   20.54    0.44
  -1   0 -18   -0.01    0.02
   1   0  18    0.02    0.03
   1   0  19    2.44    0.10
   1  -1 -20   11.99    0.27
   1   1 -20   11.41    0.28
  -1  -1  20   11.31    0.22
  -1   1  19    0.03    0.02
   1   1 -19    0.06    0.05
  -1  -1  19    0.00    0.03
   1  -1 -19    0.03    0.05
   1   1 -19    0.02    0.05
   1  -1 -19   -0.02    0.04
   1   1 -18    3.13    0.20
   1  -1 -18    2.94    0.18
   1   1 -18    3.07    0.14
  -1  -1  18    3.36    0.16
   1  -1 -18    3.24    0.20
   1   1 -18    3.03    0.21
  -1  -1  17    6.76    0.25
   1   1 -17    6.80    0.34
   1   1 -17    6.91    0.23
   1  -1 -17    7.13    0.34
   1  -1 -17    6.47    0.31
   1   1 -17    6.95    0.34
   1   1 -16    8.77    0.41
  -1  -1  16    9.44    0.32
   1   1 -16    9.71    0.44
   1   1 -16    9.33    0.29
   1  -1 -16    9.61    0.42
   1  -1 -16    8.99    0.40
   1  -1 -15   23.55    0.71
  -1  -1  15   24.01    0.56
   1   1 -15   23.93    0.51
   1   1 -15   22.20    0.70
   1   1 -15   23.99    0.74
   1  -1 -15   23.15    0.69
  -1  -1  14    6.91    0.28
  -1   1  14    5.73    0.49
  -1  -1  14    6.09    0.51
   1   1 -14    5.83    0.40
   1  -1 -14    6.67    0.36
  -1  -1  13   88.06    2.10
  -1   1  13   91.00    2.14
   1   1 -13   88.42    1.77
  -1   1  12   56.88    1.59
  -1  -1  12   56.29    1.58
   1   1 -12   54.06    1.28
  -1   1  11    1.06    0.23
   1   1 -11    1.02    0.16
  -1  -1  11    1.23    0.23
   1  -1 -10    0.46    0.10
  -1   1  10    0.68    0.18
   1   1 -10    0.49    0.11
  -1  -1  10    0.54    0.16
  -1  -1   9    1.31    0.21
   1   1  -9    1.19    0.15
   1  -1  -9    1.34    0.17
  -1   1   9    1.30    0.22
   1   1  -8    2.38    0.20
   1  -1  -8    2.48    0.21
  -1  -1   8    2.30    0.25
  -1   1   8    1.95    0.24
  -1   1   7    0.15    0.08
  -1  -1   7    0.18    0.11
   1   1  -7    0.11    0.06
   1  -1  -7    0.15    0.07
  -1  -1   6  229.60    3.23
   1  -1  -6  232.89    3.03
   1   1  -6  237.98    2.87
   1   1  -6  238.09    3.00
  -1   1   6  223.68    3.29
   1  -1  -6  231.92    2.84
   1  -1  -5    2.17    0.17
  -1   1   5    2.17    0.22
  -1   1   5    2.11    0.17
  -1  -1   5    2.13    0.19
   1   1  -5    2.33    0.14
   1  -1  -5    2.17    0.14
  -1   1   4   15.57    0.49
   1   1  -4   16.30    0.44
  -1  -1   4   15.60    0.49
   1  -1  -4   15.57    0.45
  -1   1   4   15.69    0.54
   1   1  -3    0.08    0.04
  -1  -1   3    0.20    0.10
   1  -1  -3    0.12    0.05
  -1   1   3    0.10    0.05
   1   1  -3    0.13    0.03
  -1  -1   3    0.09    0.05
  -1  -1   3    0.01    0.05
  -1   1   3    0.15    0.06
   1  -1  -2    6.51    0.26
  -1  -1   2    6.22    0.35
  -1   1   2    6.25    0.29
  -1  -1   2    6.74    0.26
   1   1  -2    6.63    0.29
   1   1  -2    7.22    0.25
  -1   1   2    6.39    0.30
  -1  -1   2    6.54    0.39
   1  -1  -1  108.70    1.32
  -1  -1   1  110.04    1.53
   1   1  -1  111.30    1.75
  -1  -1   1  110.87    1.82
  -1   1   1  113.01    1.69
   1  -1  -1  112.91    1.53
  -1   1   1  113.52    1.60
   1   1  -1  108.50    1.87
   1   1  -1  111.82    1.48
  -1  -1   1  116.17    1.89
  -1  -1   0  502.64    6.15
  -1   1   0  501.38    5.63
  -1   1   0  509.89    5.91
  -1  -1   0  511.68    6.13
   1   1   0  490.38    6.10
   1  -1   0  507.02    5.70
   1   1   0  498.61    6.15
  -1  -1   0  515.70    6.12
   1   1   0  503.89    5.64
   1   1   0  515.70    6.10
  -1  -1   0  503.75    5.71
  -1  -1  -1  732.60    8.55
   1  -1   1  711.61    8.10
   1   1   1  732.95    8.81
   1   1   1  745.30    8.49
  -1  -1  -1  738.13    8.54
   1   1   1  742.57    8.68
   1   1   1  731.03    8.58
  -1   1  -1  718.50    8.30
  -1  -1  -1  735.08    8.72
  -1  -1  -1  721.89    8.12
   1   1   2   17.40    0.64
   1  -1   2   17.04    0.45
  -1  -1  -2   18.05    0.72
   1   1   2   17.50    0.70
   1   1   2   17.32    0.61
  -1  -1  -2   15.93    0.59
  -1   1  -2   17.84    0.45
  -1   1  -2   17.40    0.53
  -1  -1  -2   17.23    0.48
  -1  -1  -2   17.59    0.47
  -1   1  -3    7.41    0.33
   1   1   3    7.29    0.46
  -1  -1  -3    6.81    0.29
  -1   1  -3    7.16    0.29
  -1  -1  -3    7.14    0.31
   1  -1   3    6.77    0.29
  -1   1  -3    6.57    0.25
   1  -1   3    7.05    0.25
  -1   1  -4    2.26    0.19
   1   1   4    1.89    0.24
   1  -1   4    2.18    0.18
  -1  -1  -4    2.17    0.18
  -1   1  -4    2.23    0.18
  -1   1  -4    2.40    0.16
  -1  -1  -4    2.05    0.17
  -1   1  -5   56.70    1.07
   1   1   5   52.27    1.38
  -1  -1  -5   52.39    1.04
  -1   1  -5   53.38    0.96
   1  -1   5   53.93    1.04
  -1  -1  -6    6.51    0.33
  -1   1  -6    6.69    0.30
   1  -1   6    6.85    0.35
  -1   1  -6    6.48    0.34
  -1   1  -7    7.36    0.38
  -1  -1  -7    7.56    0.37
  -1   1  -7    7.14    0.34
   1  -1   7    6.96    0.38
  -1  -1  -8   25.41    0.75
  -1   1  -8   25.06    0.71
   1  -1   8   24.56    0.78
  -1   1  -8   23.86    0.75
   1  -1   9    2.69    0.26
  -1   1  -9    3.05    0.25
  -1   1  -9    2.67    0.25
   1  -1  10    1.84    0.23
  -1   1 -10    1.61    0.20
  -1   1 -10    1.90    0.21
  -1   1 -11    0.71    0.15
  -1   1 -11    1.16    0.18
   1  -1  11    1.01    0.19
   1  -1  12    8.22    0.53
  -1   1 -12    8.58    0.50
  -1   1 -12    8.43    0.48
   1  -1  13    0.57    0.16
  -1   1 -13    0.77    0.16
   1   1  13    0.38    0.12
   1  -1  14    5.75    0.46
  -1  -1 -14    6.46    0.34
   1   1  14    6.28    0.47
  -1  -1 -14    6.16    0.26
  -1   1 -14    6.06    0.27
  -1   1 -14    6.12    0.43
  -1   1 -14    6.41    0.34
  -1   1 -14    6.06    0.25
  -1   1 -15    0.14    0.05
   1  -1  15    0.06    0.05
  -1   1 -15    0.06    0.05
  -1  -1 -15    0.03    0.04
  -1   1 -16    7.19    0.25
  -1  -1 -16    8.20    0.35
   1  -1  16    7.75    0.28
  -1   1 -16    7.85    0.36
  -1  -1 -16    7.80    0.26
  -1   1 -17    0.37    0.05
  -1  -1 -17    0.28    0.07
   1  -1  17    0.55    0.07
  -1   1 -17    0.50    0.10
   1  -1  18    4.10    0.16
  -1   1 -18    3.84    0.14
  -1   1 -19    5.21    0.14
   1  -1  19    5.49    0.16
   1   2 -19    0.73    0.07
  -1  -2  19    0.84    0.06
   1  -2 -19    0.84    0.07
   1   2 -19    0.76    0.08
  -1   2  19    0.67    0.05
  -1   2  18    3.02    0.13
   1  -2 -18    3.02    0.16
  -1  -2  18    2.97    0.14
   1  -2 -18    3.16    0.18
   1   2 -18    2.76    0.17
   1   2 -18    3.15    0.18
   1   2 -17    0.58    0.07
   1  -2 -17    0.58    0.10
  -1  -2  17    0.62    0.08
   1  -2 -17    0.47    0.08
   1   2 -17    0.54    0.11
   1   2 -17    0.64    0.12
   1   2 -16    0.36    0.06
   1   2 -16    0.42    0.11
  -1  -2  16    0.35    0.07
   1  -2 -16    0.47    0.10
   1  -2 -16    0.28    0.08
   1   2 -16    0.22    0.08
   1  -2 -15   23.65    0.67
   1  -2 -15   23.27    0.67
   1   2 -15   22.69    0.69
  -1  -2  15   23.03    0.54
   1   2 -15   23.78    0.51
   1   2 -14   10.01    0.45
   1  -2 -14   10.41    0.45
  -1  -2  14    9.86    0.35
   1   2 -14   10.52    0.32
   1  -2 -14   10.50    0.45
  -1   2  13   11.61    0.72
  -1  -2  13   12.67    0.73
   1   2 -13   11.89    0.58
   1  -2 -13   11.96    0.48
   1   2 -13   13.70    0.37
  -1   2  12    0.72    0.20
  -1  -2  12    0.93    0.19
   1   2 -12    1.10    0.18
   1   2 -11    3.79    0.31
  -1   2  11    4.03    0.40
  -1  -2  11    3.42    0.37
   1  -2 -10    7.63    0.43
  -1   2  10    7.57    0.55
   1   2 -10    8.05    0.44
  -1  -2  10    7.97    0.54
   1  -2  -9    9.54    0.46
  -1   2   9   10.55    0.62
   1   2  -9   10.49    0.48
  -1  -2   9    9.84    0.58
  -1   2   8   30.70    1.05
  -1  -2   8   31.58    1.01
   1  -2  -8   30.76    1.06
   1   2  -8   30.79    0.82
   1  -2  -8   30.98    0.84
  -1   2   7  146.53    2.60
  -1  -2   7  146.74    2.48
   1   2  -7  151.93    2.24
   1  -2  -7  148.54    2.67
   1  -2  -7  149.11    2.27
  -1   2   6    2.22    0.26
   1  -2  -6    2.23    0.20
  -1  -2   6    2.22    0.24
   1   2  -6    2.18    0.19
   1  -2  -6    2.02    0.26
   1  -2  -5   46.87    1.00
   1   2  -5   51.41    0.99
  -1   2   5   46.51    1.20
  -1  -2   5   49.56    1.12
  -1   2   5   51.66    1.09
   1  -2  -5   52.19    1.17
   1  -2  -4   92.69    1.69
   1  -2  -4   89.60    1.49
   1   2  -4   91.72    1.44
  -1   2   4   90.90    1.72
  -1  -2   4   90.62    1.58
  -1  -2   4   95.47    1.45
  -1   2   4   94.38    1.63
   1   2  -3   12.50    0.40
   1  -2  -3   11.72    0.41
  -1  -2   3   11.36    0.43
  -1   2   3   11.19    0.48
  -1  -2   3   11.15    0.39
  -1   2   3   10.99    0.49
  -1   2   2    0.75    0.12
  -1  -2   2    0.96    0.12
   1   2  -2    1.09    0.11
   1  -2  -2    0.94    0.11
  -1  -2   2    0.88    0.11
   1   2  -1    1.25    0.11
   1  -2  -1    1.13    0.12
  -1  -2   1    1.13    0.12
   1   2  -1    1.17    0.19
  -1  -2   1    1.05    0.13
  -1   2   1    0.98    0.16
   1  -2   0    7.68    0.50
   1  -2   0    7.25    0.30
  -1   2   0    8.01    0.29
   1   2   0    8.53    0.29
  -1  -2   0    6.63    0.32
   1   2   1    3.57    0.18
   1  -2   1    3.56    0.21
  -1   2  -1    3.72    0.21
  -1  -2  -1    3.13    0.23
   1  -2   2   81.72    1.34
  -1  -2  -2   81.81    1.45
   1  -2   3  175.07    2.63
  -1  -2  -3  170.04    2.48
   1  -2   3  170.43    2.37
  -1   2  -3  174.79    2.40
   1  -2   4    0.58    0.13
  -1   2  -4    0.65    0.11
   1  -2   4    0.66    0.11
  -1   2  -4    0.62    0.08
   1  -2   5    8.31    0.42
  -1   2  -5    7.31    0.31
   1  -2   5    7.31    0.36
  -1   2  -5    7.82    0.39
  -1   2  -6   12.89    0.45
   1  -2   6   11.84    0.49
  -1   2  -6   13.05    0.53
  -1   2  -7    4.00    0.31
   1  -2   7    4.60    0.31
  -1   2  -7    4.74    0.28
   1  -2   8   25.15    0.80
  -1   2  -8   25.20    0.74
  -1   2  -8   23.84    0.81
  -1   2  -9   58.71    1.40
   1  -2   9   58.21    1.36
  -1   2  -9   59.22    1.27
   1  -2  10   44.00    1.21
  -1   2 -10   44.51    1.23
  -1   2 -10   45.70    1.13
   1  -2  11    0.12    0.08
  -1   2 -11    0.09    0.08
  -1   2 -11    0.29    0.11
   1  -2  12    2.24    0.27
  -1   2 -12    2.75    0.30
  -1   2 -12    2.36    0.26
  -1   2 -13   17.13    0.44
   1  -2  13   15.09    0.72
   1  -2  13   16.66    0.46
  -1  -2 -13   16.12    0.56
  -1   2 -13   15.13    0.67
   1  -2  13   16.16    0.51
  -1  -2 -13   15.81    0.45
  -1   2 -13   14.52    0.70
  -1   2 -14   57.69    0.94
  -1   2 -14   57.13    1.14
   1  -2  14   58.21    1.06
  -1  -2 -14   56.09    0.97
  -1  -2 -14   56.18    1.15
   1  -2  14   56.97    0.98
   1  -2  15   18.72    0.47
  -1  -2 -15   19.71    0.59
  -1   2 -15   18.74    0.46
  -1   2 -15   19.38    0.58
  -1   2 -15   19.78    0.45
  -1  -2 -15   19.77    0.47
   1  -2  16    2.56    0.15
  -1  -2 -16    2.77    0.15
  -1   2 -16    2.33    0.19
  -1  -2 -16    2.53    0.19
  -1   2 -16    2.77    0.14
  -1   2 -17   -0.01    0.03
   1  -2  17   -0.01    0.03
  -1  -2 -17   -0.07    0.06
  -1   2 -17   -0.02    0.06
  -1  -2 -18    0.73    0.08
   1  -2  18    0.72    0.06
  -1   2 -18    0.87    0.06
  -1   2 -18    0.77    0.09
  -1   2 -19   -0.01    0.01
   1  -2  19    0.00    0.02
  -1   3  18    2.34    0.09
   1   3 -18    2.23    0.12
   1   3 -18    2.05    0.10
  -1  -3  18    2.26    0.08
  -1  -3  17    1.93    0.10
  -1   3  17    2.16    0.11
   1   3 -17    2.08    0.14
   1  -3 -17    2.08    0.13
   1   3 -17    1.90    0.14
  -1  -3  17    2.29    0.10
   1   3 -16    0.05    0.06
  -1   3  16    0.02    0.03
   1  -3 -16    0.05    0.05
   1   3 -16    0.06    0.06
  -1  -3  16    0.09    0.04
   1   3 -15    0.06    0.03
   1  -3 -15   -0.03    0.06
  -1  -3  15    0.10    0.04
   1   3 -14    0.57    0.12
   1   3 -14    0.50    0.07
   1  -3 -14    0.36    0.10
  -1  -3  14    0.43    0.07
   1  -3 -14    0.42    0.10
   1   3 -13    0.50    0.07
  -1  -3  13    0.34    0.06
   1  -3 -13    0.41    0.10
   1  -3 -12   28.35    0.77
  -1   3  12   26.44    1.11
  -1  -3  12   29.01    1.11
  -1  -3  12   28.00    0.60
   1   3 -12   26.21    0.87
  -1  -3  12   28.60    0.73
   1   3 -12   27.24    0.78
   1   3 -12   28.63    0.57
   1  -3 -11   13.67    0.81
  -1   3  11   14.09    0.80
   1   3 -11   13.76    0.61
  -1  -3  11   15.41    0.80
   1   3 -10    9.09    0.47
   1  -3 -10    9.44    0.67
  -1   3  10    9.38    0.65
  -1  -3  10    9.72    0.63
   1  -3  -9    0.50    0.12
  -1   3   9    0.60    0.19
  -1  -3   9    0.58    0.16
   1  -3  -9    0.66    0.20
   1   3  -9    0.51    0.12
   1  -3  -8   45.92    1.11
  -1   3   8   45.25    1.43
   1  -3  -8   42.32    1.46
  -1  -3   8   45.93    1.34
   1   3  -8   47.53    1.11
   1  -3  -7    1.97    0.21
   1  -3  -7    1.92    0.30
  -1  -3   7    2.59    0.29
  -1   3   7    2.17    0.30
   1   3  -7    2.52    0.23
  -1  -3   6    1.58    0.22
  -1   3   6    1.58    0.25
   1  -3  -6    1.27    0.25
   1  -3  -6    1.49    0.18
   1  -3  -6    1.36    0.21
   1  -3  -5    6.60    0.45
  -1   3   5    6.40    0.48
  -1  -3   5    6.85    0.43
   1  -3  -5    6.76    0.53
   1  -3  -5    7.64    0.38
  -1   3   4   33.02    1.08
  -1  -3   4   34.20    0.97
   1  -3  -4   33.61    1.19
  -1   3   4   36.26    1.05
   1  -3  -4   35.18    1.10
   1  -3  -3    0.05    0.10
   1  -3  -3    0.12    0.13
  -1   3   3   -0.07    0.08
  -1   3   3    0.07    0.09
   1  -3  -2  105.89    2.18
  -1   3   2  107.36    2.04
   1  -3  -1   70.32    1.64
  -1  -3   1   71.01    1.36
   1  -3   0    7.03    0.48
   1  -3   0    8.20    0.50
  -1  -3   0    7.53    0.40
   1  -3   1    1.61    0.25
   1  -3   1    1.56    0.22
   1  -3   2    0.25    0.12
   1  -3   3    0.09    0.09
   1  -3   4    1.06    0.19
  -1   3  -4    0.94    0.15
  -1   3  -5    2.36    0.24
   1  -3   5    2.46    0.28
  -1   3  -6   57.41    1.36
  -1   3  -7    7.09    0.45
  -1   3  -8    5.62    0.42
  -1   3  -9   39.01    1.18
  -1   3 -10   71.46    1.70
  -1  -3 -11    3.69    0.27
  -1   3 -11    4.11    0.27
  -1   3 -11    3.48    0.35
  -1  -3 -11    4.24    0.23
  -1  -3 -11    4.19    0.28
   1  -3  11    4.07    0.26
  -1   3 -12    8.31    0.28
  -1  -3 -12    6.99    0.37
   1  -3  12    8.24    0.37
   1  -3  12    8.46    0.30
  -1  -3 -12    8.09    0.31
  -1  -3 -12    7.98    0.39
  -1   3 -12    7.49    0.36
  -1   3 -13    1.00    0.09
   1  -3  13    0.91    0.13
  -1  -3 -13    0.95    0.11
   1  -3  13    1.06    0.10
  -1  -3 -13    0.79    0.14
  -1   3 -13    1.04    0.14
  -1   3 -14   42.38    0.70
   1  -3  14   41.11    0.84
  -1  -3 -14   42.43    0.76
  -1  -3 -14   39.14    0.88
   1  -3  14   41.44    0.73
  -1   3 -14   39.09    0.86
  -1   3 -15   17.28    0.36
   1  -3  15   16.01    0.38
  -1   3 -15   16.17    0.38
  -1  -3 -15   17.07    0.50
   1  -3  15   16.46    0.45
  -1   3 -15   16.37    0.48
  -1  -3 -16   11.05    0.35
   1  -3  16   11.81    0.32
  -1  -3 -16   11.99    0.27
   1  -3  16   11.36    0.28
  -1   3 -16   11.51    0.36
  -1   3 -16   12.08    0.27
  -1   3 -17    0.05    0.02
   1  -3  17    0.03    0.02
  -1  -3 -17    0.03    0.04
  -1   3 -17    0.05    0.04
  -1   4  16    0.00    0.02
   1   4 -16    0.05    0.04
  -1  -4  16   -0.01    0.02
   1   4 -15    2.54    0.15
   1   4 -15    2.42    0.17
  -1   4  15    2.28    0.10
  -1  -4  15    2.51    0.14
  -1  -4  15    2.31    0.11
  -1   4  14    7.93    0.23
   1   4 -14    7.78    0.33
  -1  -4  14    8.23    0.24
  -1  -4  14    7.77    0.29
  -1  -4  13    1.08    0.13
  -1   4  13    0.94    0.08
   1   4 -13    1.05    0.14
  -1  -4  12    6.84    0.33
  -1   4  12    7.33    0.25
   1   4 -12    7.10    0.36
  -1   4  11    1.32    0.11
   1   4 -11    1.42    0.17
  -1  -4  11    1.52    0.17
   1  -4 -11    1.32    0.16
  -1   4  10   20.48    0.46
   1   4 -10   19.50    0.64
   1  -4 -10   18.91    0.63
  -1  -4  10   19.90    0.62
   1  -4  -9   43.35    1.58
  -1   4   9   42.35    1.45
  -1  -4   9   44.65    1.00
   1  -4  -9   42.44    1.02
   1   4  -9   44.36    1.03
   1  -4  -8   78.34    2.23
  -1   4   8   81.71    2.11
  -1  -4   8   81.01    1.54
  -1  -4   8   85.66    1.52
   1   4  -8   86.32    1.54
   1  -4  -8   81.49    1.54
  -1   4   7   -0.01    0.10
   1  -4  -7    0.12    0.12
  -1   4   6    7.22    0.57
   1  -4  -6    7.04    0.62
  -1   4   5    8.82    0.62
   1  -4  -5    7.84    0.63
   1  -4  -5    7.58    0.55
  -1   4   4   94.08    2.19
   1  -4  -4   90.21    2.28
   1  -4  -4   86.87    2.07
  -1   4   3   32.58    1.20
   1  -4  -3   33.86    1.29
  -1   4   3   33.67    1.16
   1  -4  -3   29.57    1.14
  -1   4   2   18.16    0.87
   1  -4  -2   17.23    0.88
  -1   4   2   17.39    0.83
   1  -4  -2   16.38    0.84
   1  -4  -1    4.37    0.42
  -1   4   1    4.23    0.41
   1  -4  -1    4.14    0.42
   1  -4   0    0.19    0.12
  -1   4   0    0.28    0.12
   1  -4   1    0.28    0.12
   1  -4   2    8.28    0.59
  -1   4  -3    3.86    0.32
   1  -4   3    3.70    0.39
  -1   4  -4   12.71    0.60
   1  -4   4   11.85    0.69
   1  -4   5    0.25    0.11
  -1   4  -5    0.28    0.12
  -1   4  -6   -0.12    0.13
  -1   4  -6    0.29    0.13
  -1   4  -7    9.75    0.57
  -1   4  -7    9.64    0.65
  -1   4  -8    6.35    0.46
  -1  -4  -8    6.77    0.36
  -1  -4  -8    7.04    0.38
   1  -4   8    6.36    0.33
  -1  -4  -8    7.19    0.30
   1  -4   8    6.63    0.37
  -1   4  -8    6.04    0.32
  -1  -4  -9   17.71    0.48
  -1  -4  -9   15.67    0.57
  -1   4  -9   15.85    0.53
  -1  -4  -9   17.07    0.58
   1  -4   9   16.96    0.58
   1  -4   9   16.52    0.55
  -1  -4 -10    8.25    0.40
   1  -4  10    8.34    0.38
  -1  -4 -10    8.59    0.40
  -1   4 -10    7.89    0.36
  -1  -4 -10    8.87    0.33
  -1  -4 -11    9.67    0.33
  -1  -4 -11    8.48    0.39
   1  -4  11    9.63    0.39
  -1   4 -11    9.26    0.38
  -1  -4 -11    9.85    0.41
  -1  -4 -12    4.44    0.27
  -1  -4 -12    4.91    0.28
  -1  -4 -12    5.22    0.22
  -1   4 -12    4.74    0.26
   1  -4  12    5.02    0.27
   1  -4  13    1.10    0.12
  -1   4 -13    1.12    0.12
  -1  -4 -13    1.08    0.09
  -1  -4 -13    1.06    0.14
   1  -4  14    6.01    0.25
  -1  -4 -14    6.59    0.20
  -1   4 -14    6.40    0.25
  -1  -4 -15    0.74    0.05
   1  -4  15    0.80    0.08
  -1   4 -15    0.81    0.08
   1   5 -13    5.33    0.21
  -1  -5  13    4.99    0.19
  -1  -5  13    5.08    0.15
   1   5 -12    3.15    0.18
  -1  -5  12    2.97    0.17
  -1  -5  12    2.84    0.13
   1   5 -11    1.03    0.13
  -1  -5  11    1.10    0.12
  -1  -5  11    0.94    0.08
  -1  -5  10    3.93    0.24
   1   5 -10    4.19    0.25
  -1  -5  10    3.91    0.18
   1  -5  -9    0.11    0.04
   1   5  -9    0.26    0.09
  -1  -5   9    0.12    0.07
  -1  -5   9    0.13    0.05
   1  -5  -8    4.73    0.25
  -1  -5   8    4.95    0.21
  -1  -5   8    4.69    0.30
   1  -5  -8    4.83    0.29
  -1  -5   8    4.66    0.28
   1   5  -8    4.76    0.29
   1  -5  -7   18.04    0.60
   1  -5  -7   17.75    0.54
  -1  -5   7   18.31    0.58
  -1  -5   7   18.02    0.62
  -1  -5   7   17.99    0.44
   1   5  -7   18.75    0.59
   1  -5  -6    6.16    0.32
   1  -5  -6    6.25    0.35
   1  -5  -6    6.03    0.34
  -1  -5   6    5.86    0.24
  -1  -5   6    5.90    0.36
  -1  -5   6    5.94    0.33
   1  -5  -5   18.88    0.58
  -1  -5   5   18.89    0.60
  -1  -5   5   19.03    0.67
   1  -5  -5   19.00    0.63
   1  -5  -5   18.85    0.65
  -1  -5   5   18.62    0.46
   1  -5  -4   18.69    0.59
  -1  -5   4   18.51    0.60
   1  -5  -4   19.23    0.64
  -1  -5   4   19.03    0.68
   1  -5  -4   18.64    0.67
  -1  -5   4   18.04    0.46
   1  -5  -3    0.04    0.07
  -1  -5   3    0.12    0.06
  -1  -5   3    0.08    0.10
   1  -5  -3   -0.01    0.08
  -1  -5   3    0.04    0.04
  -1  -5   2    4.25    0.32
   1  -5  -2    4.17    0.27
   1  -5  -2    4.08    0.31
  -1  -5   2    3.75    0.20
  -1   5   2    4.10    0.25
   1  -5  -1   13.20    0.50
  -1  -5   1   12.82    0.55
   1  -5  -1   13.36    0.57
  -1  -5   1   12.37    0.37
   1  -5  -1   12.44    0.77
  -1   5   1   13.24    0.46
   1  -5   0    4.15    0.32
   1  -5   0    4.07    0.29
  -1   5   0    4.19    0.44
   1  -5   0    4.41    0.28
  -1  -5   0    4.02    0.30
   1  -5   0    3.16    0.38
  -1   5   0    4.01    0.25
   1  -5   1    1.11    0.15
  -1  -5  -1    0.76    0.15
   1  -5   1    0.91    0.15
   1  -5   1    0.91    0.15
  -1   5  -1    0.81    0.12
   1  -5   2    4.53    0.32
  -1  -5  -2    5.02    0.30
   1  -5   2    5.26    0.30
   1  -5   2    4.92    0.33
  -1   5  -2    4.64    0.26
   1  -5   3   15.26    0.52
   1  -5   3   13.77    0.56
  -1  -5  -3   14.76    0.53
   1  -5   3   13.27    0.55
  -1   5  -3   13.73    0.47
  -1  -5  -4    0.27    0.09
   1  -5   4    0.41    0.10
   1  -5   4    0.27    0.09
   1  -5   4    0.30    0.10
  -1   5  -4    0.20    0.07
  -1  -5  -5   56.66    1.18
  -1  -5  -5   59.83    1.00
   1  -5   5   59.83    1.11
   1  -5   5   58.40    1.24
  -1   5  -5   55.11    1.08
  -1  -5  -6    5.33    0.32
  -1  -5  -6    5.73    0.25
   1  -5   6    5.39    0.28
   1  -5   6    5.08    0.33
   1  -5   6    5.37    0.28
  -1   5  -6    5.04    0.27
  -1  -5  -7    1.25    0.16
   1  -5   7    1.21    0.13
  -1   5  -7    1.04    0.13
  -1  -5  -7    1.14    0.12
   1  -5   7    1.13    0.16
   1  -5   8    0.25    0.07
  -1   5  -8    0.10    0.06
  -1  -5  -8    0.24    0.09
  -1  -5  -8    0.28    0.07
   1  -5   8    0.12    0.07
  -1  -5  -9    2.63    0.21
  -1   5  -9    2.65    0.18
   1  -5   9    2.88    0.21
  -1  -5  -9    3.29    0.17
   1  -5   9    3.06    0.20
  -1   5  -9    2.68    0.19
  -1  -5 -10    3.58    0.22
   1  -5  10    4.31    0.23
  -1  -5 -10    4.40    0.19
   1  -5  10    3.81    0.21
  -1   5 -10    4.01    0.21
  -1  -5 -11    3.96    0.21
   1  -5  11    3.91    0.20
  -1   5 -11    3.72    0.19
   1  -5  12   36.88    0.66
  -1   5 -12   38.90    0.64
   1  -5  13    4.15    0.16
  -1  -6   9    3.93    0.12
  -1  -6   9    4.14    0.16
   1  -6  -8    4.25    0.17
   1   6  -8    4.62    0.19
  -1  -6   8    4.01    0.18
  -1  -6   8    4.20    0.14
  -1   6   8    4.43    0.16
   1  -6  -7    0.48    0.07
  -1  -6   7    0.59    0.06
   1   6  -7    0.63    0.09
  -1   6   7    0.43    0.06
  -1  -6   7    0.58    0.08
  -1  -6   6    0.30    0.06
   1  -6  -6    0.22    0.06
   1   6  -6    0.37    0.08
   1  -6  -6    0.33    0.07
  -1  -6   6    0.24    0.04
  -1   6   6    0.29    0.06
   1   6  -5    0.04    0.05
  -1  -6   5    0.05    0.04
   1  -6  -5    0.00    0.05
   1  -6  -5    0.00    0.06
  -1  -6   5    0.08    0.03
  -1   6   5    0.03    0.04
   1  -6  -4    0.64    0.10
   1   6  -4    0.78    0.10
   1  -6  -4    0.94    0.13
  -1   6   4    0.67    0.08
  -1  -6   4    0.63    0.06
   1  -6  -3   18.95    0.51
   1  -6  -3   18.58    0.56
  -1   6   3   19.99    0.47
   1  -6  -2    3.13    0.23
   1  -6  -2    3.15    0.20
  -1   6   2    3.23    0.18
   1  -6  -1    7.93    0.37
   1  -6  -1    8.27    0.33
  -1   6   1    8.30    0.29
   1  -6   0    1.96    0.16
   1  -6   0    2.08    0.19
   1  -6   0    1.88    0.16
  -1   6   0    1.75    0.13
   1  -6   1    5.17    0.27
   1  -6   1    5.07    0.29
  -1   6  -1    5.41    0.23
   1  -6   1    5.44    0.26
   1  -6   2    8.47    0.32
  -1  -6  -2    8.67    0.32
   1  -6   2    7.48    0.34
   1  -6   2    8.39    0.36
  -1   6  -2    8.41    0.30
   1  -6   3    3.33    0.19
  -1  -6  -3    3.59    0.20
   1  -6   3    3.10    0.21
   1  -6   3    3.38    0.22
  -1   6  -3    2.98    0.17
  -1  -6  -4   14.92    0.43
   1  -6   4   15.00    0.40
  -1   6  -4   14.93    0.39
   1  -6   5   20.24    0.44
  -1  -6  -5   19.68    0.49
  -1   6  -5   19.91    0.44
  -1  -6  -6   19.06    0.47
   1  -6   6   18.27    0.49
  -1   6  -6   18.42    0.40
  -1  -6  -7    0.88    0.10
   1  -6   7    1.01    0.11
  -1   6  -7    0.86    0.09
  -1  -6  -8    6.01    0.22
   1  -6   8    5.99    0.22
   2   0 -19    0.04    0.03
   2   0 -18    2.72    0.15
  -2   0  18    2.95    0.12
   2   0 -18    2.48    0.16
  -2   0  17    0.01    0.03
   2   0 -17   -0.01    0.05
   2   0 -17    0.07    0.06
  -2   0  16    0.17    0.05
   2   0 -16    0.09    0.07
   2   0 -16    0.11    0.09
   2   0 -15   -0.07    0.08
   2   0 -15    0.02    0.07
   2   0 -15    0.03    0.06
  -2   0  15    0.01    0.04
   2   0 -14   41.54    0.98
  -2   0  14   42.17    0.78
   2   0 -14   40.70    0.99
   2   0 -14   43.44    0.97
  -2   0  13   -0.12    0.09
   2   0 -13   -0.17    0.10
   2   0 -13   -0.10    0.10
  -2   0  13    0.04    0.04
  -2   0  12  241.88    4.09
   2   0 -12  238.73    3.46
   2   0 -11   -0.10    0.08
  -2   0  11   -0.08    0.13
   2   0 -11    0.07    0.06
   2   0 -10    6.69    0.40
  -2   0  10    5.95    0.50
   2   0 -10    6.05    0.38
   2   0  -9    0.01    0.05
  -2   0   9   -0.10    0.10
   2   0  -9    0.14    0.07
   2   0  -8    0.00    0.04
  -2   0   8   -0.09    0.11
   2   0  -8   -0.03    0.07
   2   0  -7    0.03    0.06
   2   0  -7    0.05    0.06
  -2   0   7   -0.04    0.07
  -2   0   7    0.03    0.09
   2   0  -6   34.11    0.86
   2   0  -6   31.89    0.82
  -2   0   6   31.84    0.97
  -2   0   6   32.11    1.01
   2   0  -5    0.07    0.06
   2   0  -5   -0.04    0.06
  -2   0   5    0.00    0.07
  -2   0   5    0.05    0.09
   2   0  -4   10.52    0.43
   2   0  -4   10.43    0.43
  -2   0   4   10.92    0.55
   2   0  -3    0.04    0.05
   2   0  -3    0.04    0.05
  -2   0   3   -0.07    0.08
   2   0  -2   13.56    0.48
   2   0  -2   13.28    0.47
  -2   0   2   14.20    0.61
  -2   0   1   -0.01    0.05
   2   0  -1    0.01    0.04
  -2   0   1    0.06    0.07
  -2   0   1    0.00    0.06
   2   0  -1    0.01    0.05
  -2   0   0   -0.01    0.05
   2   0   0    0.06    0.05
  -2   0   0    0.00    0.06
  -2   0   0    0.03    0.05
  -2   0  -1    0.01    0.04
  -2   0  -1    0.01    0.07
   2   0   2   31.87    0.80
  -2   0  -2   29.89    0.84
  -2   0  -2   30.78    0.90
  -2   0  -2   33.06    0.80
  -2   0  -3    0.17    0.05
   2   0   3   -0.01    0.05
  -2   0  -3    0.03    0.06
  -2   0  -3    0.03    0.06
  -2   0  -4    0.39    0.09
   2   0   4    0.42    0.11
  -2   0  -4    0.39    0.11
   2   0   5    0.09    0.08
  -2   0  -5    0.06    0.08
   2   0   6   49.51    1.19
  -2   0  -6   48.34    1.25
   2   0   7    0.11    0.08
  -2   0  -7    0.13    0.08
  -2   0  -8  112.70    2.21
   2   0   8  115.21    2.15
   2   0   9    0.02    0.08
  -2   0  -9   -0.07    0.11
   2   0  10    2.73    0.31
  -2   0 -10    2.56    0.31
   2   0  11    0.01    0.09
  -2   0 -11    0.08    0.08
   2   0  12    3.95    0.37
  -2   0 -12    3.84    0.20
  -2   0 -12    4.19    0.23
  -2   0 -12    3.43    0.35
  -2   0 -13    0.04    0.04
  -2   0 -13   -0.05    0.06
  -2   0 -14    0.66    0.08
  -2   0 -14    0.72    0.10
  -2   0 -15    0.04    0.03
  -2   0 -15   -0.03    0.04
  -2   0 -16    9.63    0.24
  -2   0 -16   10.11    0.28
   2   0  16   10.30    0.27
  -2   0 -17    0.00    0.02
  -2   0 -17    0.01    0.03
   2   0  17   -0.02    0.03
   2   1 -18    0.92    0.09
   2   1 -18    0.93    0.10
  -2  -1  18    0.92    0.07
   2  -1 -18    0.87    0.09
   2  -1 -17    7.31    0.30
   2   1 -17    7.39    0.30
  -2  -1  17    7.45    0.23
   2   1 -17    7.40    0.30
   2  -1 -16   13.02    0.45
   2   1 -16   13.68    0.47
   2   1 -16   14.14    0.46
  -2  -1  16   13.41    0.36
  -2   1  15    7.39    0.24
   2   1 -15    7.13    0.36
   2  -1 -15    7.30    0.36
   2   1 -15    7.11    0.35
  -2  -1  15    6.90    0.27
   2  -1 -15    7.08    0.34
   2   1 -15    6.65    0.34
  -2   1  14    0.45    0.06
   2  -1 -14    0.45    0.12
   2   1 -14    0.35    0.10
   2   1 -14    0.57    0.13
   2  -1 -14    0.43    0.11
  -2  -1  14    0.45    0.08
  -2   1  13   33.93    0.65
   2  -1 -13   34.99    0.89
   2   1 -13   32.89    0.87
  -2  -1  13   33.38    0.70
   2  -1 -13   33.08    0.90
   2   1 -13   31.54    0.89
   2  -1 -12    1.19    0.17
   2  -1 -12    1.07    0.18
  -2   1  12    1.10    0.23
  -2  -1  12    1.61    0.27
   2   1 -12    1.06    0.18
   2  -1 -12    1.37    0.17
   2   1 -12    1.10    0.15
  -2  -1  12    1.25    0.12
   2   1 -12    1.00    0.16
   2  -1 -11    2.51    0.27
  -2   1  11    2.49    0.33
  -2  -1  11    2.76    0.35
   2   1 -11    2.15    0.24
   2  -1 -10    2.79    0.28
  -2   1  10    3.00    0.37
  -2  -1  10    2.61    0.34
   2   1 -10    2.50    0.26
   2  -1  -9    1.74    0.22
  -2  -1   9    1.49    0.25
   2   1  -9    1.49    0.20
  -2   1   9    1.23    0.24
   2  -1  -8    0.78    0.15
  -2   1   8    0.61    0.16
  -2  -1   8    0.72    0.17
   2   1  -8    0.80    0.14
   2  -1  -7    0.05    0.06
  -2   1   7    0.00    0.08
   2   1  -7    0.07    0.07
  -2  -1   7    0.01    0.09
  -2   1   7    0.12    0.08
   2  -1  -6   52.41    1.21
  -2   1   6   55.12    1.36
   2   1  -6   52.77    1.18
  -2   1   6   52.86    1.36
  -2  -1   5   66.04    1.38
   2  -1  -5   66.12    1.35
   2   1  -5   63.83    1.31
  -2   1   5   66.93    1.50
  -2   1   5   64.86    1.51
   2  -1  -4   16.20    0.52
   2   1  -4   16.59    0.58
   2  -1  -4   17.43    0.60
  -2   1   4   17.03    0.66
  -2   1   4   16.09    0.69
  -2  -1   4   15.70    0.60
   2  -1  -3    1.61    0.15
   2   1  -3    1.29    0.15
   2  -1  -3    1.65    0.18
  -2   1   3    1.42    0.22
  -2  -1   3    1.32    0.17
   2  -1  -2   11.08    0.46
  -2   1   2   10.91    0.56
   2  -1  -2   10.69    0.40
   2   1  -2   10.53    0.43
  -2  -1   2   10.85    0.47
  -2  -1   1   -0.04    0.05
   2   1  -1   -0.02    0.05
  -2   1   1    0.05    0.08
   2  -1  -1    0.02    0.05
  -2  -1   1    0.01    0.07
   2  -1  -1    0.02    0.04
   2  -1   0   33.36    0.84
  -2  -1   0   31.78    0.96
  -2   1   0   34.44    0.80
  -2   1   0   32.30    0.99
   2   1   0   30.62    0.79
  -2  -1   0   31.72    0.86
  -2   1   0   35.04    0.78
   2  -1   1  162.08    2.42
  -2  -1  -1  160.32    2.60
  -2   1  -1  166.38    2.38
  -2   1  -1  159.83    2.67
   2   1   1  162.91    2.37
  -2  -1  -1  159.12    2.45
   2  -1   2  230.30    3.22
  -2   1  -2  228.00    3.43
  -2   1  -2  229.28    3.18
  -2  -1  -2  233.70    3.23
   2  -1   3   51.18    1.16
  -2   1  -3   50.23    1.15
  -2  -1  -3   47.63    1.20
  -2  -1  -3   49.85    1.15
   2  -1   4   15.46    0.61
  -2   1  -4   16.42    0.67
  -2   1  -4   15.60    0.62
  -2  -1  -4   14.39    0.63
  -2  -1  -4   14.84    0.59
   2  -1   5    2.23    0.24
  -2   1  -5    2.05    0.23
  -2  -1  -5    1.82    0.24
  -2  -1  -5    2.26    0.23
   2  -1   6    2.04    0.25
  -2  -1  -6    1.61    0.24
  -2   1  -6    2.33    0.26
   2   1   7   18.36    0.68
   2  -1   7   17.33    0.73
  -2   1  -7   17.20    0.74
  -2  -1  -7   16.90    0.75
   2  -1   8   35.75    1.11
  -2   1  -8   35.02    1.12
  -2  -1  -8   34.68    1.12
   2   1   9    0.06    0.07
   2  -1   9    0.14    0.10
  -2   1  -9    0.23    0.13
  -2  -1  -9    0.16    0.12
   2   1  10   27.37    0.95
   2  -1  10   25.92    0.98
  -2   1 -10   25.45    0.98
  -2  -1 -10   24.76    0.97
   2  -1  11   10.78    0.63
  -2   1 -11    9.59    0.34
  -2  -1 -11   10.30    0.37
  -2   1 -11    9.60    0.59
   2  -1  11   10.29    0.40
  -2   1 -11   10.24    0.38
  -2  -1 -11    8.73    0.56
  -2   1 -12    1.04    0.11
  -2  -1 -12    1.26    0.13
  -2   1 -12    1.03    0.12
   2  -1  12    1.05    0.13
  -2   1 -12    0.96    0.13
  -2   1 -13    2.10    0.15
   2  -1  13    1.82    0.16
  -2  -1 -13    2.04    0.16
  -2   1 -13    2.03    0.17
  -2   1 -13    1.92    0.17
  -2   1 -14    0.10    0.05
   2  -1  14    0.15    0.06
  -2  -1 -14    0.14    0.06
  -2   1 -14    0.06    0.05
  -2   1 -14    0.25    0.07
  -2   1 -15    2.50    0.14
  -2  -1 -15    2.32    0.15
  -2   1 -15    2.50    0.15
  -2   1 -15    2.58    0.18
  -2   1 -16    8.52    0.23
  -2  -1 -16    8.86    0.26
  -2   1 -16    9.12    0.26
   2  -1  16    9.07    0.26
  -2   1 -16    9.02    0.30
  -2   1 -17    5.29    0.16
  -2   1 -17    5.05    0.15
   2  -1  17    5.43    0.17
   2   2 -18    0.49    0.06
  -2  -2  18    0.46    0.04
   2   2 -18    0.45    0.06
  -2   2  17    1.36    0.08
   2   2 -17    1.59    0.13
  -2  -2  17    1.41    0.09
   2   2 -17    1.52    0.13
   2  -2 -17    1.33    0.12
   2   2 -16    0.40    0.10
   2  -2 -16    0.38    0.08
  -2   2  16    0.35    0.05
   2   2 -16    0.40    0.08
  -2  -2  16    0.46    0.07
  -2   2  15    5.02    0.20
  -2  -2  15    4.99    0.21
   2  -2 -15    5.26    0.27
   2   2 -15    4.77    0.27
   2   2 -15    4.88    0.28
   2  -2 -15    5.03    0.28
  -2   2  14   17.83    0.42
   2  -2 -14   18.27    0.57
   2   2 -14   18.35    0.58
  -2  -2  14   17.50    0.45
   2  -2 -14   16.93    0.56
   2   2 -14   17.39    0.58
  -2   2  13    4.27    0.21
   2   2 -13    4.53    0.29
  -2  -2  13    4.36    0.22
   2  -2 -13    4.08    0.29
   2   2 -13    4.13    0.29
   2  -2 -13    4.31    0.28
  -2   2  12    1.82    0.14
   2   2 -12    2.04    0.21
  -2  -2  12    1.87    0.15
   2  -2 -12    1.71    0.19
   2  -2 -12    1.61    0.20
   2   2 -12    1.68    0.21
   2  -2 -11   32.20    1.03
  -2   2  11   33.60    1.28
  -2  -2  11   35.14    1.23
   2   2 -11   34.51    1.04
  -2   2  11   37.13    0.71
   2  -2 -11   36.78    0.91
   2   2 -11   36.98    0.92
  -2  -2  11   37.27    0.75
   2  -2 -11   35.72    0.95
   2   2 -11   35.07    0.96
   2  -2 -10   12.45    0.61
  -2   2  10   12.36    0.76
  -2  -2  10   14.14    0.75
   2   2 -10   13.79    0.63
   2   2  -9    1.14    0.17
   2  -2  -9    0.91    0.17
  -2   2   9    0.87    0.22
  -2  -2   9    1.08    0.22
   2  -2  -9    0.94    0.22
   2  -2  -8    9.20    0.50
  -2   2   8    7.96    0.58
   2   2  -8    9.12    0.49
  -2  -2   8    9.48    0.57
   2  -2  -7   25.90    0.86
  -2   2   7   26.45    1.04
   2   2  -7   25.35    0.82
  -2  -2   7   26.54    0.88
   2  -2  -6   63.34    1.42
   2   2  -6   59.33    1.33
  -2   2   6   65.27    1.67
  -2   2   6   65.10    1.57
  -2  -2   6   63.71    1.43
   2  -2  -5   10.24    0.51
   2   2  -5   11.34    0.51
  -2   2   5   10.57    0.61
  -2   2   5   10.72    0.60
  -2  -2   5   11.75    0.55
  -2  -2   4    0.46    0.13
   2  -2  -4    0.44    0.12
   2   2  -4    0.65    0.12
  -2   2   4    0.54    0.15
  -2   2   4    0.69    0.17
   2  -2  -3    5.87    0.37
   2   2  -3    6.51    0.37
  -2   2   3    6.50    0.44
  -2   2   3    5.86    0.45
  -2  -2   3    5.55    0.38
  -2  -2   2    0.55    0.13
   2  -2  -2    0.46    0.12
   2   2  -2    0.78    0.13
  -2   2   2    0.97    0.18
  -2   2   2    0.75    0.17
   2   2  -1   13.54    0.52
   2  -2  -1   13.30    0.55
  -2   2   1   13.75    0.68
  -2  -2   1   12.82    0.57
   2  -2   0   64.45    1.37
  -2   2   0   66.93    1.62
  -2  -2   0   64.81    1.44
   2   2   0   68.00    1.31
   2  -2   1   71.73    1.48
  -2   2  -1   74.65    1.74
  -2  -2  -1   70.07    1.53
   2   2   1   75.98    1.40
   2  -2   2   31.08    0.90
  -2   2  -2   31.55    1.07
  -2   2  -2   32.81    0.89
   2   2   2   34.24    0.87
  -2  -2  -2   30.47    0.96
   2  -2   3    2.11    0.23
  -2   2  -3    1.60    0.25
  -2   2  -3    2.00    0.21
   2   2   3    2.31    0.21
  -2  -2  -3    2.41    0.26
   2  -2   4   21.60    0.77
  -2   2  -4   22.36    0.88
  -2   2  -4   22.15    0.78
   2   2   4   22.54    0.72
  -2  -2  -4   20.27    0.80
   2  -2   5    1.88    0.23
  -2   2  -5    2.02    0.27
  -2   2  -5    2.17    0.26
   2  -2   6    0.08    0.07
  -2   2  -6    0.10    0.09
   2  -2   7   15.82    0.71
  -2   2  -7   15.15    0.71
   2  -2   8    0.35    0.14
  -2   2  -8    0.23    0.12
   2  -2   9   22.73    0.90
  -2   2  -9   22.01    0.91
   2  -2  10   64.68    1.60
  -2   2 -10   64.96    1.02
  -2   2 -10   65.68    1.65
   2  -2  10   67.71    1.17
  -2  -2 -10   65.85    1.06
  -2  -2 -10   62.40    1.12
  -2   2 -10   63.35    1.18
  -2   2 -11   26.89    0.59
   2  -2  11   28.62    0.71
  -2  -2 -11   27.83    0.64
  -2   2 -11   27.30    0.73
  -2   2 -12    1.30    0.11
   2  -2  12    1.26    0.14
  -2  -2 -12    1.37    0.13
  -2   2 -12    1.24    0.15
  -2   2 -13    0.12    0.04
   2  -2  13    0.26    0.08
  -2  -2 -13    0.16    0.06
  -2   2 -13    0.18    0.06
  -2   2 -13    0.22    0.07
  -2   2 -14   10.39    0.29
   2  -2  14   10.16    0.34
  -2  -2 -14    9.65    0.31
  -2   2 -14    9.59    0.32
  -2   2 -14   10.06    0.37
  -2   2 -15    4.82    0.18
  -2  -2 -15    5.15    0.20
  -2   2 -15    4.95    0.20
   2  -2  15    4.85    0.21
   2  -2  15    4.66    0.19
  -2   2 -15    4.72    0.23
  -2   2 -16    1.53    0.08
  -2  -2 -16    1.56    0.10
   2  -2  16    1.43    0.09
  -2   2 -16    1.33    0.09
   2  -2  16    1.45    0.09
  -2   2 -16    1.25    0.10
  -2  -2 -17    2.76    0.10
   2  -2  17    2.82    0.10
  -2   2 -17    2.67    0.09
   2   3 -16    0.36    0.07
   2   3 -16    0.32    0.06
  -2   3  16    0.30    0.04
  -2  -3  16    0.29    0.04
  -2   3  15    2.60    0.12
   2   3 -15    2.78    0.18
  -2  -3  15    2.56    0.12
   2  -3 -15    2.67    0.16
   2   3 -15    2.55    0.16
  -2   3  14    8.08    0.25
   2   3 -14    8.27    0.34
  -2  -3  14    8.13    0.25
   2  -3 -14    7.62    0.32
   2   3 -14    7.52    0.33
  -2   3  13    1.02    0.10
   2  -3 -13    1.16    0.15
   2   3 -13    1.28    0.15
  -2  -3  13    1.07    0.10
   2  -3 -13    1.22    0.15
   2   3 -13    1.04    0.15
  -2   3  12    2.25    0.15
   2  -3 -12    2.22    0.20
   2   3 -12    2.26    0.20
  -2  -3  12    2.23    0.15
   2  -3 -12    2.49    0.22
   2   3 -12    2.11    0.21
  -2   3  11   13.69    0.38
   2  -3 -11   14.10    0.52
   2   3 -11   13.89    0.51
  -2  -3  11   13.92    0.40
   2  -3 -11   13.00    0.53
  -2  -3  11   14.12    0.37
  -2   3  10    3.46    0.19
   2  -3 -10    3.69    0.27
   2   3 -10    3.34    0.25
  -2  -3  10    3.22    0.25
   2  -3 -10    3.31    0.28
  -2  -3  10    3.66    0.19
   2  -3  -9    5.63    0.40
  -2   3   9    5.49    0.51
   2  -3  -9    5.11    0.52
   2   3  -9    5.95    0.40
  -2   3   9    6.20    0.26
   2  -3  -9    6.41    0.35
  -2  -3   9    5.70    0.33
   2  -3  -9    6.47    0.38
  -2  -3   9    6.48    0.25
   2  -3  -8    0.56    0.13
  -2   3   8    0.62    0.18
   2  -3  -8    0.55    0.17
   2   3  -8    0.59    0.13
   2  -3  -7   12.91    0.62
  -2   3   7   14.77    0.83
   2   3  -7   13.89    0.60
   2  -3  -7   13.14    0.84
   2  -3  -6    9.10    0.61
   2  -3  -6    9.14    0.51
  -2   3   6    9.18    0.64
   2   3  -6    9.14    0.48
   2  -3  -6    8.10    0.65
   2  -3  -5    3.03    0.35
   2  -3  -5    2.60    0.27
  -2   3   5    2.04    0.30
   2   3  -5    3.15    0.28
  -2   3   5    2.35    0.31
   2  -3  -4   25.24    1.06
   2  -3  -4   26.85    0.89
  -2   3   4   27.80    1.09
   2   3  -4   28.86    0.86
  -2   3   4   26.97    1.04
  -2  -3   4   28.62    0.94
   2  -3  -3  120.12    2.16
  -2   3   3  120.86    2.47
  -2   3   3  118.04    2.47
  -2  -3   3  120.66    2.23
   2  -3  -2    5.82    0.51
   2  -3  -2    5.35    0.37
  -2   3   2    5.24    0.45
  -2   3   2    6.10    0.50
  -2  -3   2    5.46    0.41
   2  -3  -1   17.94    0.90
   2  -3  -1   18.54    0.71
  -2   3   1   20.04    0.86
  -2   3   1   18.57    0.88
  -2  -3   1   18.26    0.77
   2  -3   0    7.01    0.56
   2  -3   0    7.13    0.43
  -2   3   0    7.12    0.55
  -2  -3   0    7.78    0.50
  -2  -3  -1    0.15    0.10
   2  -3   1    0.00    0.09
   2  -3   1    0.05    0.08
  -2   3  -1    0.10    0.13
   2  -3   2    7.14    0.56
   2  -3   2    7.47    0.45
  -2   3  -2    6.63    0.53
  -2  -3  -2    7.14    0.49
   2  -3   3    2.01    0.29
   2  -3   3    2.00    0.24
  -2   3  -3    1.59    0.27
   2  -3   4    8.76    0.61
   2  -3   4    7.86    0.48
  -2   3  -4    8.94    0.51
  -2   3  -4    7.52    0.58
   2  -3   5    4.39    0.42
   2  -3   5    4.18    0.35
  -2   3  -5    5.07    0.46
  -2   3  -5    4.85    0.39
   2  -3   6    0.19    0.09
  -2   3  -6    0.28    0.12
  -2   3  -6    0.17    0.08
   2  -3   7    5.57    0.42
  -2   3  -7    5.89    0.46
   2  -3   8    2.35    0.27
  -2  -3  -8    2.65    0.24
  -2   3  -8    2.68    0.30
   2  -3   8    2.65    0.23
   2  -3   8    2.43    0.20
  -2  -3  -8    2.73    0.18
  -2  -3  -8    2.34    0.19
  -2   3  -8    2.51    0.21
   2  -3   9    0.92    0.13
  -2  -3  -9    0.91    0.11
   2  -3   9    0.73    0.12
  -2  -3  -9    0.83    0.12
  -2   3  -9    0.63    0.12
   2  -3  10    5.03    0.28
  -2  -3 -10    4.98    0.25
  -2  -3 -10    4.48    0.26
  -2   3 -10    4.83    0.29
  -2   3 -11    0.04    0.03
   2  -3  11    0.02    0.06
  -2  -3 -11   -0.04    0.05
  -2   3 -11    0.03    0.06
  -2   3 -12    1.62    0.11
   2  -3  12    1.33    0.13
  -2  -3 -12    1.28    0.12
   2  -3  12    1.53    0.11
  -2   3 -12    1.28    0.14
  -2   3 -13   13.97    0.31
  -2  -3 -13   14.29    0.38
   2  -3  13   13.59    0.33
   2  -3  13   12.97    0.40
  -2   3 -13   13.22    0.41
  -2   3 -14    8.89    0.22
   2  -3  14    8.56    0.29
  -2  -3 -14    9.65    0.28
  -2   3 -14    8.63    0.26
   2  -3  14    8.89    0.23
  -2   3 -14    8.78    0.30
  -2   3 -15   40.75    0.55
   2  -3  15   40.26    0.65
  -2   3 -15   40.43    0.61
   2  -3  15   39.75    0.56
  -2   3 -15   40.43    0.68
   2   4 -14    0.28    0.06
  -2   4  14    0.33    0.04
   2  -4 -14    0.18    0.04
   2   4 -14    0.23    0.05
  -2  -4  14    0.28    0.03
  -2   4  13    1.00    0.07
   2   4 -13    1.21    0.11
   2  -4 -13    0.95    0.10
   2   4 -13    0.94    0.11
  -2  -4  13    1.10    0.07
   2   4 -12    0.14    0.05
  -2   4  12    0.18    0.04
  -2  -4  12    0.15    0.06
   2  -4 -12    0.09    0.06
   2   4 -12    0.17    0.06
  -2  -4  12    0.16    0.04
   2   4 -11   -0.01    0.06
  -2   4  11    0.03    0.03
  -2  -4  11    0.00    0.05
   2  -4 -11   -0.03    0.06
   2   4 -11   -0.08    0.09
  -2  -4  11    0.06    0.04
   2   4 -10    0.08    0.07
  -2   4  10    0.12    0.04
  -2  -4  10    0.14    0.07
   2  -4 -10    0.31    0.10
  -2  -4  10    0.13    0.05
  -2   4   9    0.31    0.06
  -2  -4   9    0.23    0.07
   2  -4  -9    0.32    0.11
  -2  -4   9    0.25    0.06
  -2   4   8   21.27    0.48
  -2  -4   8   20.89    0.65
   2  -4  -8   21.85    0.68
  -2  -4   8   22.61    0.52
  -2   4   7   40.04    0.72
  -2  -4   7   39.44    0.96
   2  -4  -7   40.38    0.98
   2  -4  -7   38.03    0.95
  -2  -4   7   41.21    0.77
  -2   4   6    5.57    0.23
  -2  -4   6    5.66    0.35
   2  -4  -6    6.05    0.35
   2  -4  -6    5.13    0.34
  -2  -4   6    5.52    0.25
   2  -4  -5    6.33    0.58
  -2   4   5    6.16    0.24
  -2  -4   5    6.46    0.37
   2  -4  -5    6.07    0.35
   2  -4  -5    5.53    0.35
  -2  -4   5    7.09    0.28
   2  -4  -5    5.48    0.49
  -2   4   4   23.34    1.05
   2  -4  -4   22.23    1.10
  -2   4   4   21.85    0.97
   2  -4  -4   22.96    0.63
  -2  -4   4   22.79    0.73
   2  -4  -4   24.05    0.72
   2  -4  -4   24.04    0.76
  -2  -4   4   23.73    0.56
   2  -4  -4   21.37    1.01
   2  -4  -3   23.00    1.07
  -2   4   3   23.96    1.07
   2  -4  -3   24.08    1.14
  -2   4   3   26.29    1.09
   2  -4  -3   25.49    0.67
  -2  -4   3   24.26    0.74
   2  -4  -3   25.93    0.74
   2  -4  -3   25.50    0.80
  -2  -4   3   25.86    0.60
   2  -4  -2    0.27    0.13
  -2   4   2    0.09    0.08
   2  -4  -2    0.21    0.13
  -2   4   2    0.27    0.14
   2  -4  -2    0.26    0.07
  -2  -4   2    0.10    0.08
   2  -4  -2    0.40    0.11
   2  -4  -2    0.05    0.08
  -2  -4   2    0.24    0.06
   2  -4  -1   51.33    1.67
  -2   4   1   54.18    1.62
   2  -4  -1   53.70    1.69
  -2   4   1   55.73    1.67
   2  -4  -1   55.27    1.10
  -2  -4   1   51.05    1.15
   2  -4  -1   57.20    1.25
  -2  -4   1   54.91    0.98
  -2   4   1   56.91    1.08
   2  -4   0    2.35    0.34
  -2   4   0    2.04    0.29
  -2   4   0    2.31    0.33
   2  -4   0    2.53    0.20
   2  -4   0    2.55    0.24
  -2  -4   0    2.38    0.17
   2  -4   0    2.70    0.23
  -2   4   0    2.52    0.20
   2  -4   1    3.46    0.42
  -2   4  -1    3.39    0.40
   2  -4   1    3.99    0.26
   2  -4   1    3.42    0.26
   2  -4   1    3.37    0.28
  -2  -4  -1    3.21    0.20
  -2   4  -1    3.68    0.24
   2  -4   2    0.18    0.09
  -2   4  -2    0.25    0.14
   2  -4   2    0.26    0.09
   2  -4   2    0.11    0.07
   2  -4   2    0.07    0.08
  -2  -4  -2    0.16    0.06
  -2   4  -2    0.13    0.06
  -2   4  -3   14.61    0.84
   2  -4   3   14.60    0.56
   2  -4   3   14.87    0.56
  -2  -4  -3   14.33    0.44
  -2   4  -3   14.52    0.50
   2  -4   3   13.24    0.79
  -2  -4  -4   12.27    0.48
   2  -4   4   12.47    0.52
  -2  -4  -4   13.21    0.39
  -2  -4  -4   11.67    0.40
  -2   4  -4   11.61    0.45
   2  -4   4   11.24    0.70
  -2  -4  -5    0.03    0.07
   2  -4   5    0.00    0.07
  -2  -4  -5    0.16    0.06
  -2  -4  -5   -0.03    0.05
  -2   4  -5    0.00    0.05
  -2  -4  -6   13.72    0.52
   2  -4   6   14.14    0.54
   2  -4   6   14.67    0.47
  -2  -4  -6   14.46    0.42
  -2  -4  -6   12.98    0.42
  -2   4  -6   13.61    0.48
  -2  -4  -7    7.70    0.39
   2  -4   7    8.09    0.40
   2  -4   7    8.12    0.35
  -2  -4  -7    7.99    0.30
  -2  -4  -7    7.15    0.31
  -2   4  -7    7.45    0.35
  -2  -4  -8    5.82    0.33
   2  -4   8    5.70    0.28
   2  -4   8    5.88    0.32
  -2  -4  -8    6.21    0.26
  -2  -4  -8    5.25    0.26
  -2   4  -8    5.74    0.30
   2  -4   9    6.60    0.32
   2  -4   9    6.18    0.29
  -2  -4  -9    6.45    0.26
  -2  -4  -9    5.50    0.25
  -2   4  -9    5.96    0.30
   2  -4  10    1.70    0.14
   2  -4  10    1.71    0.15
  -2  -4 -10    1.55    0.12
  -2  -4 -10    1.34    0.12
   2  -4  10    1.55    0.14
  -2   4 -10    1.84    0.16
   2  -4  11   22.11    0.53
  -2   4 -11   22.69    0.55
   2  -4  12   10.30    0.32
  -2  -4 -12   11.00    0.28
  -2   4 -12   10.76    0.33
   2  -4  13    4.06    0.17
  -2  -4 -13    3.99    0.14
  -2   4 -13    4.08    0.15
  -2   4 -13    4.23    0.18
   2   5 -11    0.00    0.04
  -2  -5  11    0.02    0.02
  -2   5  11   -0.07    0.03
   2   5 -10    8.37    0.30
  -2  -5  10    8.23    0.22
  -2  -5   9   16.85    0.46
   2  -5  -9   17.14    0.46
  -2  -5   9   17.14    0.37
  -2  -5   8   26.41    0.64
   2  -5  -8   26.88    0.64
  -2  -5   8   26.63    0.51
  -2  -5   7    7.39    0.33
   2  -5  -7    7.95    0.34
   2  -5  -7    7.74    0.32
  -2  -5   7    7.74    0.26
  -2  -5   6    0.50    0.11
   2  -5  -6    0.44    0.10
   2  -5  -6    0.56    0.11
  -2  -5   6    0.59    0.08
  -2   5   6    0.55    0.09
   2  -5  -5    2.54    0.17
  -2  -5   5    2.42    0.21
   2  -5  -5    2.76    0.21
   2  -5  -5    2.24    0.20
  -2  -5   5    2.57    0.16
  -2   5   5    2.61    0.18
   2  -5  -4    7.24    0.31
   2  -5  -4    7.72    0.35
   2  -5  -4    7.14    0.37
  -2  -5   4    7.21    0.27
  -2   5   4    7.23    0.31
   2  -5  -3    0.95    0.12
   2  -5  -3    0.84    0.14
  -2  -5   3    1.01    0.11
  -2   5   3    0.89    0.12
   2  -5  -2   11.67    0.42
  -2  -5   2   11.69    0.36
   2  -5  -2   12.00    0.49
  -2   5   2   11.68    0.41
   2  -5  -1    6.84    0.32
   2  -5  -1    6.88    0.37
  -2  -5   1    6.24    0.26
  -2   5   1    6.42    0.30
   2  -5   0    5.37    0.29
   2  -5   0    5.32    0.29
   2  -5   0    5.04    0.31
  -2  -5   0    4.85    0.23
  -2   5   0    5.30    0.27
   2  -5   1    3.83    0.24
   2  -5   1    3.74    0.25
   2  -5   1    3.76    0.27
  -2  -5  -1    3.87    0.21
  -2   5  -1    3.80    0.23
   2  -5   2    0.08    0.07
   2  -5   2    0.07    0.07
   2  -5   2   -0.06    0.08
  -2  -5  -2    0.02    0.04
  -2   5  -2    0.02    0.06
   2  -5   3    3.10    0.21
   2  -5   3    2.90    0.23
   2  -5   3    3.29    0.23
  -2  -5  -3    2.83    0.17
  -2   5  -3    2.85    0.20
   2  -5   4    0.59    0.10
   2  -5   4    0.68    0.13
  -2  -5  -4    0.50    0.08
  -2   5  -4    0.63    0.11
  -2  -5  -5    1.00    0.12
   2  -5   5    1.16    0.13
   2  -5   5    1.22    0.16
  -2  -5  -5    1.09    0.11
  -2   5  -5    1.15    0.13
  -2  -5  -6    4.69    0.25
   2  -5   6    4.41    0.23
   2  -5   6    4.35    0.26
  -2  -5  -6    4.10    0.19
  -2   5  -6    4.24    0.23
   2  -5   7    2.81    0.17
   2  -5   7    2.79    0.19
  -2  -5  -7    2.51    0.14
  -2   5  -7    2.69    0.18
   2  -5   8    0.32    0.06
   2  -5   8    0.34    0.07
  -2  -5  -8    0.21    0.04
  -2   5  -8    0.26    0.07
   2  -5   9    0.57    0.06
   2  -5   9    0.62    0.08
   2  -5   9    0.46    0.06
  -2   5  -9    0.53    0.08
   2  -5  10    1.53    0.09
  -2   5 -10    1.93    0.11
  -2   6   6    0.02    0.02
   2  -6  -5    5.37    0.19
  -2  -6   5    5.55    0.16
  -2   6   5    5.60    0.18
   2  -6  -4    0.05    0.03
   2  -6  -4    0.05    0.05
  -2  -6   4    0.05    0.03
  -2   6   4    0.07    0.03
   2  -6  -3    4.65    0.18
   2  -6  -3    4.80    0.21
  -2  -6   3    4.74    0.16
  -2   6   3    5.16    0.19
   2  -6  -2    6.90    0.23
   2  -6  -2    7.25    0.27
  -2  -6   2    6.36    0.19
  -2   6   2    7.20    0.23
   2  -6  -1    4.18    0.18
   2  -6  -1    4.13    0.21
  -2  -6   1    3.97    0.15
  -2   6   1    4.55    0.18
   2  -6   0    3.77    0.17
   2  -6   0    3.96    0.20
  -2   6   0    4.00    0.17
   2  -6   1    0.05    0.04
   2  -6   1    0.01    0.03
   2  -6   1    0.13    0.06
  -2  -6  -1    0.04    0.02
  -2   6  -1    0.06    0.04
   2  -6   2    0.61    0.07
   2  -6   2    0.58    0.07
  -2  -6  -2    0.51    0.05
   2  -6   2    0.62    0.07
  -2   6  -2    0.58    0.07
   2  -6   3    3.19    0.15
   2  -6   3    3.05    0.15
  -2   6  -3    3.46    0.15
   2  -6   4   13.87    0.31
   2  -6   4   13.97    0.33
  -2   6  -4   14.68    0.32
   2  -6   5    0.96    0.08
  -2   6  -5    0.98    0.07
   3   0 -16    0.04    0.04
  -3   0  16    0.01    0.02
   3   0 -15   11.36    0.31
  -3   0  15   11.11    0.27
   3   0 -14    0.01    0.07
  -3   0  14   -0.04    0.04
  -3   0  13   35.28    0.65
   3   0 -13   33.97    0.83
   3   0 -12   -0.05    0.08
  -3   0  12    0.01    0.04
  -3   0  11   56.63    0.98
   3   0 -11   57.48    1.23
   3   0 -10   -0.08    0.09
  -3   0  10   -0.03    0.04
   3   0  -9    0.02    0.09
  -3   0   9    0.05    0.05
  -3   0   8   -0.08    0.09
   3   0  -8    0.01    0.07
   3   0  -8    0.03    0.08
  -3   0   8    0.02    0.04
   3   0  -8   -0.07    0.09
  -3   0   7    0.04    0.11
   3   0  -7    0.06    0.06
  -3   0   6   -0.09    0.09
   3   0  -6    0.03    0.07
  -3   0   5  105.58    2.43
  -3   0   5  109.98    2.18
  -3   0   4   -0.05    0.08
   3   0  -4    0.09    0.09
  -3   0   4    0.10    0.11
  -3   0   3    0.88    0.18
   3   0  -3    0.81    0.16
  -3   0   3    0.68    0.19
  -3   0   2    0.08    0.07
   3   0  -2    0.06    0.06
   3   0  -2    0.15    0.08
  -3   0   2   -0.06    0.11
   3   0  -1   -0.13    0.06
   3   0  -1   -0.03    0.07
  -3   0   1   -0.04    0.09
  -3   0   0    0.01    0.06
   3   0   0    0.07    0.07
   3   0   0    0.05    0.05
  -3   0   0   -0.06    0.13
   3   0   1   -0.05    0.09
  -3   0  -1    0.01    0.05
   3   0   1    0.04    0.05
  -3   0  -1   -0.17    0.12
   3   0   2    0.05    0.09
  -3   0  -2   -0.04    0.09
   3   0   2    0.08    0.07
   3   0   3  117.30    2.18
   3   0   3  113.61    2.18
   3   0   4    0.11    0.08
  -3   0  -4    0.04    0.12
   3   0   4    0.00    0.08
   3   0   5    1.41    0.21
  -3   0  -5    1.37    0.25
   3   0   6   -0.03    0.05
  -3   0  -6    0.02    0.04
  -3   0  -6    0.05    0.05
  -3   0  -6   -0.12    0.12
   3   0   7    3.08    0.31
  -3   0  -7    3.78    0.21
  -3   0  -7    3.28    0.20
  -3   0  -7    2.88    0.34
  -3   0  -8   -0.01    0.05
  -3   0  -8   -0.07    0.05
  -3   0  -9    0.11    0.06
  -3   0  -9    0.08    0.05
  -3   0 -10    0.01    0.04
  -3   0 -10    0.13    0.05
  -3   0 -11   14.18    0.38
  -3   0 -11   14.90    0.39
  -3   0 -12    0.01    0.03
   3   0  12    0.01    0.04
  -3   0 -12    0.05    0.04
   3   0  13    4.70    0.19
  -3   0 -13    4.62    0.18
  -3   0 -14   -0.01    0.02
  -3   0 -14    0.09    0.03
  -3   0 -15    0.03    0.02
  -3  -1  16    0.67    0.05
   3  -1 -16    0.56    0.06
   3   1 -16    0.61    0.06
   3  -1 -15    2.73    0.14
  -3  -1  15    2.61    0.13
   3  -1 -15    2.43    0.16
   3   1 -15    2.63    0.17
   3  -1 -14    0.09    0.05
   3  -1 -14    0.05    0.06
   3   1 -14   -0.03    0.07
  -3  -1  14    0.06    0.04
  -3  -1  13   15.80    0.40
   3  -1 -13   15.41    0.51
   3   1 -13   14.86    0.51
  -3  -1  12   34.39    0.68
   3  -1 -12   35.17    0.86
   3   1 -12   34.06    0.86
  -3  -1  11   41.74    0.79
   3  -1 -11   40.51    0.98
   3   1 -11   39.82    0.98
  -3  -1  10    7.83    0.31
   3  -1 -10    8.14    0.42
   3   1 -10    7.37    0.41
  -3   1   9    0.91    0.09
  -3  -1   9    1.16    0.12
   3  -1  -9    0.97    0.16
   3   1  -9    1.12    0.17
   3  -1  -8    3.56    0.32
   3   1  -8    3.26    0.31
  -3   1   8    3.49    0.18
  -3   1   8    3.64    0.20
  -3  -1   8    3.27    0.21
   3  -1  -8    3.10    0.26
   3   1  -8    3.17    0.28
   3  -1  -8    3.37    0.27
  -3  -1   8    3.79    0.36
  -3   1   7    4.59    0.39
   3  -1  -7    4.01    0.35
   3   1  -7    3.69    0.32
  -3   1   7    4.12    0.20
  -3   1   7    4.12    0.42
  -3   1   7    4.24    0.22
  -3  -1   7    4.37    0.24
   3  -1  -7    4.41    0.31
   3   1  -7    3.67    0.29
   3  -1  -7    4.18    0.30
  -3  -1   7    4.25    0.39
  -3  -1   6    1.14    0.21
  -3   1   6    1.12    0.20
   3  -1  -6    1.05    0.19
   3   1  -6    0.95    0.17
  -3   1   6    0.99    0.23
   3  -1  -5    7.16    0.47
   3   1  -5    6.45    0.43
  -3   1   5    6.85    0.55
  -3  -1   5    7.46    0.52
  -3   1   5    7.50    0.48
   3  -1  -4    3.33    0.31
   3   1  -4    3.24    0.31
  -3   1   4    3.30    0.40
  -3  -1   4    3.22    0.34
  -3   1   4    3.74    0.34
   3   1  -3    2.20    0.25
   3  -1  -3    2.03    0.25
  -3   1   3    1.92    0.31
  -3  -1   3    2.07    0.28
  -3   1   3    2.15    0.25
   3   1  -2    1.62    0.23
   3  -1  -2    2.02    0.25
  -3   1   2    1.88    0.30
  -3  -1   2    2.01    0.27
  -3  -1   1    0.67    0.16
   3  -1  -1    0.82    0.15
   3   1  -1    0.77    0.15
   3  -1  -1    0.66    0.16
  -3   1   1    0.58    0.18
  -3  -1   0    0.01    0.08
   3  -1   0    0.05    0.05
   3   1   0    0.19    0.10
   3  -1   0    0.15    0.09
  -3   1   0    0.28    0.17
  -3  -1  -1    0.47    0.14
   3   1   1    0.42    0.13
   3  -1   1    0.53    0.14
  -3   1  -1    0.40    0.16
   3  -1   1    0.22    0.09
   3  -1   2    2.38    0.27
  -3   1  -2    2.24    0.32
   3  -1   2    2.44    0.25
   3   1   2    2.54    0.28
  -3  -1  -2    2.52    0.30
   3  -1   3    3.44    0.34
  -3   1  -3    2.68    0.34
  -3   1  -3    3.50    0.35
   3  -1   3    3.19    0.30
   3   1   3    3.45    0.33
  -3  -1  -3    4.11    0.37
   3  -1   4   11.18    0.61
  -3   1  -4   10.63    0.62
   3   1   4   11.36    0.60
  -3  -1  -4   11.53    0.63
   3  -1   5    4.96    0.41
   3  -1   5    4.89    0.31
  -3   1  -5    3.81    0.38
   3   1   5    3.87    0.35
   3  -1   6    3.44    0.34
  -3   1  -6    3.40    0.20
  -3  -1  -6    3.17    0.19
  -3   1  -6    3.59    0.20
   3  -1   6    3.79    0.27
  -3   1  -6    3.21    0.35
  -3  -1  -6    3.37    0.22
   3   1   6    3.30    0.32
  -3   1  -7    1.38    0.13
  -3  -1  -7    1.54    0.13
  -3   1  -7    1.23    0.12
   3  -1   7    1.35    0.17
  -3  -1  -7    1.42    0.15
  -3   1  -8   18.72    0.49
  -3  -1  -8   18.03    0.46
  -3   1  -8   18.61    0.48
  -3   1  -9   40.18    0.77
  -3  -1  -9   41.44    0.75
  -3   1  -9   39.49    0.77
  -3  -1  -9   44.37    0.78
  -3   1  -9   42.64    0.79
  -3   1 -10   10.96    0.34
  -3  -1 -10   11.00    0.32
   3  -1  10   11.44    0.40
  -3  -1 -10   11.77    0.35
  -3   1 -10   11.23    0.35
  -3   1 -11   32.40    0.62
   3  -1  11   34.03    0.71
  -3  -1 -11   34.11    0.63
  -3   1 -11   33.55    0.64
  -3   1 -12    6.08    0.21
   3  -1  12    6.24    0.25
  -3  -1 -12    6.10    0.22
  -3   1 -12    6.08    0.22
  -3   1 -13    0.35    0.05
   3  -1  13    0.41    0.06
  -3  -1 -13    0.39    0.05
  -3   1 -13    0.44    0.06
  -3   1 -14   -0.03    0.02
   3  -1  14    0.06    0.03
  -3  -1 -14    0.02    0.03
  -3   1 -14    0.02    0.03
   3  -1  14   -0.03    0.03
   3  -2 -15    0.05    0.04
   3   2 -15    0.03    0.04
  -3  -2  15    0.01    0.02
  -3   2  14    2.83    0.11
  -3  -2  14    3.18    0.14
   3  -2 -14    2.81    0.17
   3   2 -14    2.98    0.18
  -3   2  13    0.07    0.03
   3  -2 -13    0.02    0.07
   3   2 -13    0.03    0.07
  -3  -2  13    0.06    0.04
  -3   2  12    1.17    0.09
  -3  -2  12    1.31    0.11
   3  -2 -12    1.12    0.14
   3   2 -12    1.13    0.15
  -3   2  11    2.53    0.14
  -3  -2  11    2.45    0.16
   3  -2 -11    2.15    0.20
   3   2 -11    2.47    0.22
  -3   2  10   17.56    0.42
  -3  -2  10   17.95    0.47
   3  -2 -10   17.88    0.60
   3   2 -10   18.16    0.62
  -3   2   9    9.50    0.31
  -3  -2   9    9.75    0.34
   3  -2  -9    9.87    0.45
   3   2  -9   10.00    0.47
   3  -2  -9    9.46    0.42
  -3   2   8    0.06    0.04
   3  -2  -8    0.12    0.07
   3   2  -8   -0.07    0.10
  -3  -2   8    0.05    0.04
   3  -2  -8    0.04    0.07
  -3   2   7    1.35    0.12
  -3  -2   7    1.46    0.14
   3  -2  -7    1.63    0.19
   3   2  -7    1.32    0.18
   3  -2  -7    1.32    0.18
  -3  -2   6    0.04    0.06
   3  -2  -6   -0.02    0.06
   3   2  -6    0.03    0.07
  -3   2   6   -0.02    0.11
  -3   2   6    0.04    0.04
   3  -2  -6    0.14    0.07
   3   2  -6    0.25    0.12
  -3  -2   6   -0.03    0.05
   3  -2  -6    0.33    0.11
  -3  -2   5    0.16    0.08
   3  -2  -5    0.13    0.06
   3   2  -5    0.11    0.07
  -3   2   5    0.13    0.08
  -3   2   5    0.24    0.05
   3   2  -5    0.10    0.08
  -3  -2   5    0.21    0.06
   3  -2  -5    0.33    0.12
   3  -2  -4   24.17    0.91
   3   2  -4   22.01    0.84
  -3   2   4   24.21    0.56
  -3   2   4   22.83    1.04
  -3  -2   4   24.79    0.60
   3  -2  -4   24.79    0.78
  -3  -2   4   25.29    0.99
   3  -2  -3   27.50    0.98
   3   2  -3   29.66    0.98
  -3   2   3   27.45    1.16
  -3  -2   3   28.39    1.06
   3  -2  -2   13.20    0.66
   3   2  -2   12.26    0.61
  -3   2   2   13.44    0.80
  -3  -2   2   12.59    0.69
  -3  -2   1    0.24    0.12
   3  -2  -1    0.13    0.07
   3   2  -1    0.04    0.09
  -3   2   1   -0.07    0.12
   3   2   0   15.73    0.69
   3  -2   0   17.18    0.76
  -3   2   0   16.97    0.91
  -3  -2   0   16.26    0.80
   3   2   1   48.03    1.28
   3  -2   1   51.15    1.38
  -3   2  -1   50.61    1.61
  -3  -2  -1   52.26    1.48
   3  -2   2   61.10    1.53
  -3   2  -2   60.36    1.02
  -3   2  -2   59.25    1.75
   3  -2   2   62.78    1.27
  -3  -2  -2   63.05    1.66
   3   2   2   59.70    1.45
   3  -2   3    9.05    0.55
  -3   2  -3    8.94    0.31
  -3   2  -3    8.98    0.32
  -3   2  -3    8.27    0.62
   3  -2   3    9.40    0.44
  -3  -2  -3    9.02    0.35
  -3  -2  -3    9.14    0.60
   3   2   3    9.24    0.52
   3   2   4    0.40    0.10
  -3   2  -4    0.73    0.09
   3  -2   4    0.90    0.19
  -3   2  -4    0.64    0.09
   3  -2   4    0.79    0.14
  -3  -2  -4    0.72    0.11
  -3   2  -5    0.29    0.07
  -3   2  -5    0.19    0.05
   3  -2   5    0.36    0.10
  -3  -2  -5    0.17    0.07
  -3   2  -6    0.67    0.09
  -3   2  -6    0.65    0.09
   3  -2   6    0.82    0.14
  -3  -2  -6    0.64    0.11
  -3   2  -7    3.77    0.20
  -3   2  -7    3.75    0.20
   3  -2   7    4.18    0.27
   3  -2   7    3.82    0.24
  -3  -2  -7    3.44    0.23
  -3   2  -8    0.82    0.09
  -3   2  -8    0.70    0.09
   3  -2   8    0.74    0.12
  -3   2  -8    0.89    0.10
   3  -2   8    0.73    0.11
  -3  -2  -8    0.55    0.10
  -3   2  -9    1.57    0.13
  -3   2  -9    1.57    0.13
   3  -2   9    1.70    0.16
   3  -2   9    1.61    0.15
  -3  -2  -9    1.74    0.13
  -3   2  -9    1.92    0.14
  -3   2 -10   13.88    0.36
   3  -2  10   14.02    0.43
  -3  -2 -10   15.15    0.38
  -3   2 -10   13.91    0.38
  -3   2 -11    7.69    0.24
   3  -2  11    7.70    0.29
  -3  -2 -11    8.02    0.25
  -3   2 -11    7.29    0.25
  -3   2 -12    0.39    0.05
   3  -2  12    0.41    0.07
  -3  -2 -12    0.34    0.05
  -3   2 -12    0.35    0.05
  -3   2 -13    0.30    0.04
   3  -2  13    0.24    0.05
  -3  -2 -13    0.32    0.04
  -3   2 -13    0.30    0.04
   3  -2  13    0.28    0.04
  -3   3  13    8.61    0.19
   3  -3 -13    9.00    0.27
   3   3 -13    9.39    0.29
  -3   3  12    0.03    0.03
   3  -3 -12    0.07    0.06
   3   3 -12    0.07    0.07
  -3  -3  12    0.03    0.02
  -3   3  11    1.38    0.10
  -3  -3  11    1.53    0.10
   3  -3 -11    1.60    0.15
   3   3 -11    1.61    0.16
  -3   3  10    0.09    0.04
   3  -3 -10    0.04    0.07
   3   3 -10    0.12    0.09
  -3  -3  10    0.00    0.03
  -3   3   9    0.50    0.08
   3  -3  -9    0.65    0.12
   3   3  -9    0.55    0.12
   3  -3  -9    0.56    0.10
  -3   3   8    0.36    0.07
   3  -3  -8    0.43    0.11
   3   3  -8    0.31    0.11
   3  -3  -8    0.32    0.09
  -3   3   7    0.65    0.08
   3  -3  -7    0.74    0.12
   3   3  -7    0.74    0.14
   3  -3  -7    0.57    0.12
  -3   3   6   39.45    0.74
   3  -3  -6   42.05    0.94
   3   3  -6   40.94    0.98
   3  -3  -6   39.08    0.97
  -3   3   5   10.31    0.33
   3  -3  -5   11.54    0.45
   3   3  -5   12.13    0.49
   3  -3  -5   10.41    0.47
  -3   3   4    8.29    0.29
   3  -3  -4    8.28    0.43
  -3   3   3   19.77    0.48
   3  -3  -3   20.04    0.69
  -3  -3   3   20.96    0.51
  -3   3   2   45.27    0.81
   3  -3  -2   45.89    1.10
  -3  -3   2   45.96    0.85
  -3   3   1    2.17    0.15
   3  -3  -1    2.23    0.20
   3  -3  -1    2.40    0.24
  -3  -3   1    2.10    0.16
  -3   3   0    8.80    0.31
   3  -3   0    8.60    0.41
   3  -3   0    8.67    0.44
  -3  -3   0    8.63    0.34
  -3   3  -1    7.19    0.28
   3  -3   1    6.96    0.37
   3  -3   1    7.23    0.39
  -3  -3  -1    6.56    0.29
  -3   3  -2   13.65    0.39
   3  -3   2   13.80    0.53
   3  -3   2   14.66    0.54
  -3  -3  -2   14.01    0.44
  -3   3  -3   10.71    0.34
   3  -3   3   10.90    0.47
  -3  -3  -3   11.40    0.40
  -3   3  -4   13.16    0.37
   3  -3   4   13.75    0.52
  -3  -3  -4   12.66    0.42
  -3   3  -5    0.27    0.06
   3  -3   5    0.20    0.09
  -3  -3  -5    0.28    0.07
  -3   3  -6    0.07    0.04
   3  -3   6    0.02    0.07
   3  -3   6    0.16    0.06
  -3  -3  -6    0.21    0.08
  -3   3  -7    2.33    0.14
   3  -3   7    2.46    0.20
   3  -3   7    2.46    0.17
  -3  -3  -7    2.27    0.17
  -3   3  -8    0.07    0.04
   3  -3   8    0.08    0.06
   3  -3   8    0.10    0.06
  -3  -3  -8    0.10    0.07
   3  -3   9    1.49    0.13
   3  -3   9    1.30    0.12
  -3  -3  -9    1.62    0.11
  -3   3  -9    1.39    0.10
  -3  -3 -10    0.50    0.06
   3  -3  10    0.55    0.08
  -3   3 -10    0.49    0.06
   3  -3  11    1.54    0.11
  -3  -3 -11    1.65    0.09
  -3   3 -11    1.43    0.08
   3  -3  12    9.41    0.24
  -3   3 -12    8.47    0.19
  -3   4  11    1.16    0.06
   3  -4 -11    1.28    0.09
   3   4 -11    1.12    0.09
  -3   4  10    0.01    0.02
   3  -4 -10   -0.01    0.04
   3   4 -10   -0.04    0.05
  -3   4   9    0.17    0.04
   3  -4  -9    0.09    0.05
   3   4  -9    0.07    0.06
  -3   4   8    1.35    0.09
   3  -4  -8    1.28    0.12
   3   4  -8    1.18    0.14
   3  -4  -8    1.30    0.12
  -3  -4   8    1.46    0.09
  -3   4   7    0.17    0.04
   3  -4  -7    0.22    0.07
   3   4  -7    0.27    0.09
   3  -4  -7    0.16    0.06
  -3  -4   7    0.23    0.04
  -3   4   6    0.12    0.04
   3  -4  -6    0.05    0.05
   3   4  -6    0.14    0.08
   3  -4  -6    0.07    0.06
  -3  -4   6    0.17    0.05
  -3   4   5    3.71    0.17
   3  -4  -5    4.08    0.22
   3   4  -5    3.96    0.24
   3  -4  -5    3.36    0.24
  -3  -4   5    3.50    0.17
  -3   4   4    1.03    0.09
   3  -4  -4    0.94    0.14
  -3  -4   4    1.27    0.11
  -3   4   4    0.87    0.10
  -3   4   3    7.23    0.24
   3  -4  -3    7.48    0.36
  -3  -4   3    7.49    0.27
  -3   4   3    7.60    0.29
  -3   4   2    1.88    0.12
   3  -4  -2    2.03    0.19
  -3  -4   2    2.24    0.15
  -3   4   2    1.97    0.15
  -3   4   1   12.46    0.33
   3  -4  -1   11.96    0.38
   3  -4  -1   12.73    0.43
   3  -4  -1   12.16    0.47
  -3  -4   1   11.86    0.37
  -3   4   1   12.45    0.39
  -3   4   0   16.15    0.38
   3  -4   0   15.91    0.46
   3  -4   0   16.62    0.52
   3  -4   0   16.75    0.55
  -3  -4   0   15.97    0.43
  -3   4   0   16.60    0.45
  -3   4  -1    0.27    0.05
   3  -4   1    0.37    0.09
   3  -4   1    0.27    0.09
   3  -4   1    0.16    0.09
  -3  -4  -1    0.15    0.06
  -3   4  -1    0.15    0.06
   3  -4   2    0.40    0.08
   3  -4   2    0.47    0.10
   3  -4   2    0.59    0.11
  -3  -4  -2    0.43    0.08
  -3   4  -2    0.43    0.08
   3  -4   3    0.01    0.06
  -3  -4  -3    0.01    0.05
  -3   4  -3    0.03    0.05
   3  -4   4    3.65    0.21
   3  -4   4    4.09    0.25
  -3  -4  -4    3.62    0.20
  -3   4  -4    3.41    0.19
   3  -4   5    7.54    0.30
   3  -4   5    7.48    0.32
  -3  -4  -5    7.36    0.28
  -3   4  -5    7.87    0.28
   3  -4   6    1.49    0.13
   3  -4   6    1.51    0.14
  -3  -4  -6    1.38    0.12
  -3   4  -6    1.38    0.11
   3  -4   7    5.54    0.23
   3  -4   7    5.66    0.25
  -3  -4  -7    5.03    0.21
  -3   4  -7    5.56    0.21
   3  -4   8    0.91    0.09
   3  -4   8    0.98    0.10
  -3   4  -8    1.07    0.08
   3  -4   9    0.77    0.07
   3  -4   9    0.78    0.07
   3  -5  -5    1.55    0.11
  -3  -5   5    1.73    0.09
   3  -5  -4   -0.04    0.05
  -3  -5   4    0.03    0.03
  -3   5   4   -0.02    0.03
   3  -5  -3    0.00    0.05
  -3  -5   3    0.02    0.03
  -3   5   3   -0.01    0.03
   3  -5  -2   12.88    0.37
  -3  -5   2   13.59    0.31
  -3   5   2   12.65    0.30
   3  -5  -1    1.73    0.10
   3  -5  -1    2.00    0.14
  -3   5   1    1.92    0.11
   3  -5   0   20.24    0.46
  -3  -5   0   20.59    0.40
  -3   5   0   20.51    0.40
   3  -5   1    1.37    0.10
   3  -5   1    1.27    0.10
   3  -5   1    1.42    0.11
  -3  -5  -1    1.60    0.10
  -3   5  -1    1.35    0.09
   3  -5   2    0.09    0.04
   3  -5   2    0.13    0.05
  -3  -5  -2   -0.01    0.03
  -3   5  -2    0.07    0.03
   3  -5   3    1.72    0.10
   3  -5   3    1.83    0.11
  -3  -5  -3    1.91    0.10
  -3   5  -3    1.71    0.09
   3  -5   4    0.02    0.03
   3  -5   4    0.03    0.03
  -3  -5  -4    0.01    0.03
  -4   0  11   -0.03    0.02
   4   0 -11   -0.01    0.03
  -4   0  10    3.39    0.13
   4   0 -10    3.62    0.17
  -4   0   9   -0.06    0.04
   4   0  -9   -0.02    0.05
   4   0  -9    0.04    0.04
  -4   0   8    2.07    0.12
   4   0  -8    1.88    0.16
  -4   0   7    0.01    0.04
   4   0  -7    0.00    0.07
  -4   0   6    0.09    0.04
   4   0  -6    0.04    0.07
  -4   0   5    0.01    0.04
   4   0  -5    0.09    0.09
  -4   0   4   37.59    0.69
   4   0  -4   38.37    0.90
  -4   0   3    0.10    0.05
   4   0  -3   -0.05    0.09
  -4   0   2    0.95    0.10
   4   0  -2    1.08    0.16
  -4   0   1    0.01    0.04
   4   0  -1   -0.01    0.07
  -4   0   0    0.01    0.05
   4   0   0   -0.16    0.09
  -4   0  -1   -0.01    0.04
   4   0   1    0.03    0.06
  -4   0  -2    0.07    0.05
  -4   0  -3    0.01    0.04
  -4   0  -3   -0.02    0.03
  -4   0  -4   25.73    0.53
  -4   0  -4   26.21    0.50
   4   0   4   27.28    0.66
  -4   0  -5    0.00    0.04
  -4   0  -5    0.01    0.03
   4   0   5    0.03    0.06
  -4   0  -6    0.36    0.06
   4   0   6    0.56    0.09
  -4   0  -7    0.01    0.03
   4   0   7   -0.03    0.04
  -4   0  -8    0.46    0.05
   4   0   8    0.37    0.06
  -4   0  -9   -0.01    0.02
   4   0   9    0.06    0.03
  -4  -1  11    6.84    0.17
  -4  -1  10   31.56    0.49
   4   1 -10   31.88    0.56
  -4  -1   9    8.53    0.23
   4  -1  -9    8.75    0.27
   4   1  -9    8.27    0.27
   4  -1  -9    7.85    0.27
   4   1  -9    7.88    0.27
  -4  -1   8    0.11    0.04
   4  -1  -8    0.08    0.05
   4   1  -8    0.07    0.06
  -4   1   7    0.74    0.07
  -4  -1   7    0.89    0.08
   4  -1  -7    0.92    0.13
   4   1  -7    0.83    0.12
  -4  -1   6    2.23    0.14
   4  -1  -6    2.43    0.19
   4   1  -6    2.16    0.19
  -4   1   5    5.45    0.20
  -4  -1   5    4.80    0.21
  -4   1   5    4.92    0.18
   4  -1  -5    5.07    0.29
   4   1  -5    4.50    0.28
  -4   1   4   10.41    0.30
  -4  -1   4   10.62    0.32
  -4   1   4   10.59    0.29
   4  -1  -4   10.55    0.43
   4   1  -4   11.57    0.45
  -4   1   3    2.44    0.15
  -4  -1   3    2.47    0.15
  -4   1   3    2.52    0.14
   4  -1  -3    2.39    0.18
   4  -1  -3    2.55    0.22
   4   1  -3    2.60    0.23
  -4   1   2    5.34    0.22
  -4  -1   2    5.17    0.22
  -4   1   2    5.37    0.21
   4  -1  -2    5.16    0.27
   4  -1  -2    5.51    0.31
   4   1  -2    5.53    0.32
  -4   1   1    0.28    0.06
  -4  -1   1    0.20    0.05
  -4   1   1    0.41    0.07
   4  -1  -1    0.31    0.09
   4  -1  -1    0.38    0.10
   4   1  -1    0.22    0.10
  -4   1   0    0.13    0.05
  -4  -1   0    0.01    0.04
  -4   1   0    0.11    0.04
   4  -1   0    0.05    0.07
   4  -1   0    0.09    0.07
   4   1   0    0.07    0.07
  -4   1  -1    0.36    0.07
  -4  -1  -1    0.33    0.06
  -4   1  -1    0.36    0.06
   4  -1   1    0.59    0.11
   4  -1   1    0.39    0.09
   4   1   1    0.34    0.09
  -4   1  -2    0.99    0.10
  -4  -1  -2    0.78    0.08
  -4   1  -2    0.86    0.09
   4  -1   2    0.80    0.12
  -4   1  -3    6.23    0.23
  -4  -1  -3    5.92    0.22
  -4   1  -3    6.22    0.22
   4  -1   3    6.63    0.31
  -4   1  -4    7.95    0.25
  -4  -1  -4    7.31    0.24
  -4   1  -4    7.52    0.24
   4  -1   4    7.98    0.33
  -4   1  -5    0.68    0.07
  -4  -1  -5    0.67    0.07
  -4   1  -5    0.68    0.08
   4  -1   5    0.77    0.11
  -4   1  -6    0.31    0.06
  -4  -1  -6    0.21    0.04
  -4   1  -6    0.18    0.04
   4  -1   6    0.23    0.06
   4   1   6    0.18    0.06
   4  -1   6    0.22    0.05
  -4   1  -7    0.46    0.06
  -4  -1  -7    0.42    0.05
   4  -1   7    0.50    0.07
   4  -1   7    0.53    0.07
  -4  -1  -8    0.68    0.05
  -4   1  -8    0.84    0.07
   4  -1   8    0.87    0.08
  -4   1  -9    0.94    0.06
   4  -1   9    0.91    0.07
  -4  -2   9    0.21    0.03
  -4  -2   8    1.22    0.08
  -4   2   8    1.24    0.07
   4  -2  -8    1.21    0.10
   4   2  -8    1.16    0.11
  -4  -2   7    0.13    0.03
  -4   2   7    0.18    0.04
   4  -2  -7    0.13    0.06
  -4  -2   6    0.60    0.06
  -4   2   6    0.58    0.06
   4  -2  -6    0.49    0.09
   4   2  -6    0.43    0.10
  -4  -2   5    0.87    0.08
  -4   2   5    0.92    0.08
   4  -2  -5    0.77    0.12
  -4  -2   4    3.91    0.16
  -4   2   4    3.70    0.16
   4  -2  -4    3.58    0.23
  -4  -2   3   22.54    0.45
  -4   2   3   22.47    0.45
   4  -2  -3   22.99    0.61
  -4  -2   2   22.13    0.45
  -4   2   2   22.86    0.46
   4  -2  -2   22.47    0.54
   4  -2  -2   23.34    0.61
  -4  -2   1   13.60    0.33
  -4   2   1   14.28    0.35
   4  -2  -1   14.27    0.43
  -4  -2   0    0.50    0.06
  -4   2   0    0.47    0.07
   4  -2   0    0.35    0.08
   4  -2   0    0.41    0.08
  -4  -2  -1    1.35    0.09
  -4   2  -1    1.51    0.11
   4  -2   1    1.64    0.15
   4  -2   1    1.45    0.13
   4   2   1    1.57    0.15
  -4   2  -2    7.32    0.21
  -4   2  -2    7.00    0.23
   4  -2   2    7.35    0.31
  -4   2  -3    6.69    0.20
  -4   2  -3    6.46    0.22
   4  -2   3    6.43    0.28
  -4   2  -4    1.08    0.08
  -4   2  -4    1.08    0.09
   4  -2   4    1.03    0.12
  -4   2  -5    0.52    0.05
  -4   2  -5    0.57    0.06
   4  -2   5    0.39    0.07
  -4   2  -6    0.25    0.04
  -4   2  -6    0.37    0.05
   4  -2   6    0.37    0.07
   4  -2   6    0.28    0.04
  -4   2  -7    0.27    0.03
   4  -2   7    0.29    0.05
  -4   3   7    0.03    0.02
  -4   3   6    0.15    0.03
   4  -3  -6    0.19    0.05
   4   3  -6    0.13    0.05
  -4   3   5    6.97    0.18
   4  -3  -5    6.60    0.24
  -4   3   4    2.61    0.11
   4  -3  -4    2.49    0.16
  -4   3   3    2.24    0.11
   4  -3  -3    2.19    0.15
  -4   3   2    1.38    0.09
   4  -3  -2    1.26    0.12
  -4   3   1    0.44    0.05
   4  -3  -1    0.33    0.05
   4  -3  -1    0.40    0.07
  -4   3   0    1.20    0.08
   4  -3   0    0.98    0.09
   4  -3   0    1.11    0.10
  -4   3  -1   25.77    0.44
   4  -3   1   25.04    0.51
  -4   3  -2   12.88    0.27
   4  -3   2   12.39    0.33
  -4   3  -3   11.23    0.24
   4  -3   3   10.90    0.30
  -4   3  -4    6.67    0.16
   4  -3   4    6.86    0.22
   4  -3   5    9.03    0.24
   0   0   0    0.00    0.00
;
_shelx_hkl_checksum              81135
loop_
_space_group_symop_operation_xyz
'x, y, z'
'-x+1/2, y+1/2, -z+1/2'
'-x, -y, -z'
'x-1/2, -y-1/2, z-1/2'
loop_
_atom_site_label
_atom_site_type_symbol
_atom_site_fract_x
_atom_site_fract_y
_atom_site_fract_z
_atom_site_U_iso_or_equiv
_atom_site_adp_type
_atom_site_occupancy
_atom_site_site_symmetry_order
_atom_site_calc_flag
_atom_site_refinement_flags_posn
_atom_site_refinement_flags_adp
O1 O 0.1076(2) 0.52723(16) 0.77758(5) 0.0213(3) Uani 1 1 d . .
O2 O 0.2833(2) 0.18004(15) 0.89004(5) 0.0167(3) Uani 1 1 d . .
C2 C -0.0118(3) 0.5641(2) 0.91792(6) 0.0132(3) Uani 1 1 d . .
C1 C -0.1542(3) 0.7208(2) 0.97511(6) 0.0136(3) Uani 1 1 d . .
H1 H -0.2591 0.8704 0.9574 0.016 Uiso 1 1 calc R U
C3 C 0.1434(3) 0.3403(2) 0.94274(6) 0.0133(3) Uani 1 1 d . .
C4 C -0.0234(3) 0.6433(2) 0.83246(6) 0.0162(3) Uani 1 1 d . .
H4 H -0.1387 0.7929 0.8188 0.019 Uiso 1 1 calc R U
H2 H 0.263(5) 0.236(4) 0.8418(12) 0.043(5) Uiso 1 1 d . .
loop_
_atom_site_aniso_label
_atom_site_aniso_U_11
_atom_site_aniso_U_22
_atom_site_aniso_U_33
_atom_site_aniso_U_23
_atom_site_aniso_U_13
_atom_site_aniso_U_12
O1 0.0324(5) 0.0190(5) 0.0130(4) -0.0011(3) 0.0049(3) -0.0005(3)
O2 0.0241(5) 0.0141(4) 0.0124(4) -0.0011(3) 0.0041(3) 0.0021(3)
C2 0.0148(5) 0.0134(6) 0.0114(5) 0.0001(4) 0.0004(4) -0.0034(4)
C1 0.0146(5) 0.0118(5) 0.0143(6) 0.0005(4) 0.0007(4) -0.0015(4)
C3 0.0147(5) 0.0124(5) 0.0129(5) -0.0020(4) 0.0019(4) -0.0026(4)
C4 0.0207(5) 0.0145(6) 0.0132(5) 0.0008(4) 0.0006(4) -0.0026(4)
loop_
_atom_type_symbol
_atom_type_description
_atom_type_scat_dispersion_real
_atom_type_scat_dispersion_imag
_atom_type_scat_source
C C 0.0181 0.0091 'International Tables Vol C Tables 4.2.6.8 and 6.1.1.4'
H H 0.0000 0.0000 'International Tables Vol C Tables 4.2.6.8 and 6.1.1.4'
O O 0.0492 0.0322 'International Tables Vol C Tables 4.2.6.8 and 6.1.1.4'
loop_
_exptl_crystal_face_index_h
_exptl_crystal_face_index_k
_exptl_crystal_face_index_l
_exptl_crystal_face_perp_dist
_exptl_oxdiff_crystal_face_indexfrac_h
_exptl_oxdiff_crystal_face_indexfrac_k
_exptl_oxdiff_crystal_face_indexfrac_l
_exptl_oxdiff_crystal_face_x
_exptl_oxdiff_crystal_face_y
_exptl_oxdiff_crystal_face_z
0 -3 5 0.0618 -0.0051 -2.9998 5.0128 0.3051 0.4218 0.8094
-2 -1 2 0.0345 -2.0028 -0.9909 2.0051 0.3970 0.7326 -0.2713
0 3 -4 0.0588 0.0049 2.9995 -4.0137 -0.2277 -0.4542 -0.7668
2 2 0 0.0358 2.0040 1.9896 -0.0127 -0.2149 -0.9920 0.1579
-2 3 4 0.0555 -1.9973 3.0060 3.9801 0.6608 -0.1104 -0.9806
0 0 11 0.0521 -0.0016 -0.0037 10.9900 0.8512 -0.3562 0.4695
1 -3 4 0.0672 0.9956 -3.0041 4.0132 0.0930 0.1527 1.0444
1 -3 2 0.0674 0.9959 -3.0034 2.0150 -0.0618 0.2175 0.9591
-2 -2 -2 0.0358 -2.0037 -1.9889 -1.9855 0.0602 1.0567 -0.2433
2 1 -7 0.0352 2.0035 0.9925 -7.0005 -0.7839 -0.5707 0.0579
1 -1 -11 0.0574 1.0007 -1.0003 -10.9847 -1.0132 0.2494 0.0068
loop_
_geom_angle_atom_site_label_1
_geom_angle_atom_site_label_2
_geom_angle_atom_site_label_3
_geom_angle
_geom_angle_site_symmetry_1
_geom_angle_site_symmetry_3
C3 O2 H2 109.9(14) . .
C1 C2 C3 120.69(10) . .
C1 C2 C4 117.67(10) . .
C3 C2 C4 121.63(10) . .
C3 C1 C2 120.61(10) 3_567 .
C3 C1 H1 119.7 3_567 .
C2 C1 H1 119.7 . .
O2 C3 C1 117.95(10) . 3_567
O2 C3 C2 123.36(10) . .
C1 C3 C2 118.70(10) 3_567 .
O1 C4 C2 123.67(11) . .
O1 C4 H4 118.2 . .
C2 C4 H4 118.2 . .
loop_
_geom_bond_atom_site_label_1
_geom_bond_atom_site_label_2
_geom_bond_distance
_geom_bond_site_symmetry_2
O1 C4 1.2273(14) .
O2 C3 1.3597(13) .
O2 H2 0.85(2) .
C2 C1 1.4012(14) .
C2 C3 1.4111(16) .
C2 C4 1.4647(14) .
C1 C3 1.3857(14) 3_567
C1 H1 0.9500 .
C3 C1 1.3857(14) 3_567
C4 H4 0.9500 .
