#------------------------------------------------------------------------------
#$Date: 2019-07-24 07:28:00 +0300 (Wed, 24 Jul 2019) $
#$Revision: 217240 $
#$URL: file:///home/coder/svn-repositories/cod/cif/1/55/21/1552129.cif $
#------------------------------------------------------------------------------
#
# This file is available in the Crystallography Open Database (COD),
# http://www.crystallography.net/. The original data for this entry
# were provided by IUCr Journals, http://journals.iucr.org/.
#
# The file may be used within the scientific community so long as
# proper attribution is given to the journal article from which the
# data were obtained.
#
data_1552129
loop_
_publ_author_name
'Gao, Jie'
'Pan, Yangdan'
'Li, Yahong'
'Li, Yafei'
_publ_section_title
;
 1-(2-Amino-5-chlorophenyl)-2,2,2-trifluoroethan-1-one
;
_journal_coeditor_code           HB4303
_journal_issue                   7
_journal_name_full               IUCrData
_journal_page_first              x191025
_journal_paper_doi               10.1107/S2414314619010253
_journal_volume                  4
_journal_year                    2019
_chemical_formula_iupac          'C8 H5 Cl F3 N O'
_chemical_formula_moiety         'C8 H5 Cl F3 N O'
_chemical_formula_sum            'C8 H5 Cl F3 N O'
_chemical_formula_weight         223.58
_chemical_name_systematic
;
1-(2-Amino-5-chlorophenyl)-2,2,2-trifluoroethan-1-one
;
_space_group_crystal_system      monoclinic
_space_group_IT_number           14
_space_group_name_Hall           '-P 2ybc'
_space_group_name_H-M_alt        'P 1 21/c 1'
_symmetry_space_group_name_Hall  '-P 2ybc'
_symmetry_space_group_name_H-M   'P 1 21/c 1'
_atom_sites_solution_hydrogens   mixed
_atom_sites_solution_primary     direct
_audit_creation_method           SHELXL-2016/6
_cell_angle_alpha                90
_cell_angle_beta                 100.924(4)
_cell_angle_gamma                90
_cell_formula_units_Z            4
_cell_length_a                   12.7307(16)
_cell_length_b                   9.0363(12)
_cell_length_c                   7.4742(9)
_cell_measurement_reflns_used    2386
_cell_measurement_temperature    120(2)
_cell_measurement_theta_max      27.29
_cell_measurement_theta_min      2.78
_cell_volume                     844.24(19)
_computing_cell_refinement
;
SAINT (Bruker, 2005)
;
_computing_data_collection
;
APEX2 (Bruker, 2005)
;
_computing_data_reduction
;
SAINT (Bruker, 2005)
;
_computing_molecular_graphics
;
SHELXTL (Sheldrick, 2008) and DIAMOND (Brandenburg, 1999)
;
_computing_publication_material
;
SHELXTL (Sheldrick, 2008)
;
_computing_structure_refinement
;
SHELXL (Sheldrick, 2015)
;
_computing_structure_solution
;
SHELXS97 (Sheldrick, 2008)
;
_diffrn_ambient_temperature      120(2)
_diffrn_measured_fraction_theta_full 0.997
_diffrn_measured_fraction_theta_max 0.996
_diffrn_measurement_device_type  'Bruker APEXII CCD'
_diffrn_measurement_method       '\f and \w scans'
_diffrn_radiation_type           MoK\a
_diffrn_radiation_wavelength     0.71073
_diffrn_reflns_av_R_equivalents  0.0911
_diffrn_reflns_av_unetI/netI     0.0758
_diffrn_reflns_limit_h_max       15
_diffrn_reflns_limit_h_min       -16
_diffrn_reflns_limit_k_max       11
_diffrn_reflns_limit_k_min       -11
_diffrn_reflns_limit_l_max       9
_diffrn_reflns_limit_l_min       -9
_diffrn_reflns_number            8037
_diffrn_reflns_theta_full        25.242
_diffrn_reflns_theta_max         27.517
_diffrn_reflns_theta_min         3.260
_exptl_absorpt_coefficient_mu    0.464
_exptl_absorpt_correction_T_max  0.7456
_exptl_absorpt_correction_T_min  0.3040
_exptl_absorpt_correction_type   multi-scan
_exptl_absorpt_process_details
;
(SADABS; Bruker, 2005)
;
_exptl_crystal_colour            yellow
_exptl_crystal_density_diffrn    1.759
_exptl_crystal_description       block
_exptl_crystal_F_000             448
_exptl_crystal_size_max          0.200
_exptl_crystal_size_mid          0.100
_exptl_crystal_size_min          0.020
_refine_diff_density_max         0.371
_refine_diff_density_min         -0.317
_refine_ls_extinction_method     none
_refine_ls_goodness_of_fit_ref   1.057
_refine_ls_hydrogen_treatment    mixed
_refine_ls_matrix_type           full
_refine_ls_number_parameters     135
_refine_ls_number_reflns         1934
_refine_ls_number_restraints     0
_refine_ls_restrained_S_all      1.057
_refine_ls_R_factor_all          0.0783
_refine_ls_R_factor_gt           0.0432
_refine_ls_shift/su_max          0.000
_refine_ls_shift/su_mean         0.000
_refine_ls_structure_factor_coef Fsqd
_refine_ls_weighting_details
'w=1/[\s^2^(Fo^2^)+(0.0262P)^2^+0.5023P] where P=(Fo^2^+2Fc^2^)/3'
_refine_ls_weighting_scheme      calc
_refine_ls_wR_factor_gt          0.0930
_refine_ls_wR_factor_ref         0.1131
_reflns_number_gt                1374
_reflns_number_total             1934
_reflns_threshold_expression     'I > 2\s(I)'
_cod_data_source_file            hb4303sup1.cif
_cod_data_source_block           I
_cod_database_code               1552129
_shelx_space_group_comment
;
The symmetry employed for this shelxl refinement is uniquely defined
by the following loop, which should always be used as a source of
symmetry information in preference to the above space-group names.
They are only intended as comments.
;
_shelx_estimated_absorpt_t_min   0.913
_shelx_estimated_absorpt_t_max   0.991
_shelx_hkl_file
;
   0   0   1    0.40    2.20
   0   0  -1   -0.30    1.10
   0   0  -1    2.70    3.30
   0   0  -1    0.40    0.70
   0   0   1   -0.20    1.00
   0   0   1    0.00    0.30
   0   0  -2  102.69    9.70
   0   0   2  103.49   13.10
   0   0  -2   99.99   12.90
   0   0  -2  104.79   15.10
   0   0  -2   82.79   20.70
   0   0  -3    1.90    1.10
   0   0  -3    4.50    3.30
   0   0  -3   10.50   10.80
   0   0  -3   -1.40    6.60
   0   0   3    3.20    3.80
   0   0  -4 1749.72  149.79
   0   0   4 1892.71  158.18
   0   0  -4 1713.53  157.88
   0   0  -4 1454.65  175.18
   0   0  -4 1897.61  158.08
   0   0  -5   -0.10    1.90
   0   0  -5   -1.60    4.80
   0   0  -5   -1.80    8.60
   0   0  -6   -0.40    2.20
   0   0  -6   -1.50   11.80
   0   0  -6    5.30    6.70
   0   0  -7    5.00    7.10
   0   0  -8   10.60    9.50
   0   0  -9   -6.30   12.50
   0  -1   0    0.50    1.00
   0  -1   0    0.80    0.60
   0   1   1 1714.43  152.68
   0   1   1 1678.93  141.79
   0   1  -1 1771.32  142.69
   0  -1   1 1563.84  142.49
   0   1  -2 9999.00  797.32
   0   1   2 9758.32  794.82
   0   1   2 9058.99  815.02
   0  -1  -2 9766.62  798.62
   0  -1   2 8599.04  797.12
   0  -1  -2 9552.14  815.72
   0  -1  -2 9558.34  794.82
   0   1   3    4.10   10.60
   0   1   3    1.10    1.50
   0   1  -3   -2.80    1.80
   0  -1  -3   -2.70    2.80
   0  -1  -3   -5.10   11.20
   0  -1  -3    3.50    7.00
   0  -1  -3    0.50    1.40
   0  -1   3   -2.80    2.60
   0   1   4 1764.82  146.09
   0   1  -4 1920.01  153.28
   0  -1  -4 1664.53  156.28
   0  -1  -4 1633.44  153.48
   0  -1  -4 1727.63  146.49
   0  -1  -4 1559.24  191.08
   0  -1   4 1615.34  152.38
   0   1  -5  119.89   19.30
   0   1  -5   74.49   30.90
   0  -1   5  109.19   25.80
   0  -1  -5  114.79   13.30
   0  -1  -5  130.09   20.50
   0  -1  -5  166.08   27.10
   0  -1  -6  447.76   52.29
   0  -1  -6  416.26   54.79
   0  -1  -6  478.75   42.70
   0   1  -7   -6.80    5.70
   0  -1  -7  -24.50   13.80
   0  -1  -7   -5.00    3.20
   0   1  -8   56.39   17.40
   0  -1  -8   47.70    9.80
   0  -1  -8   35.00   16.10
   0   1  -9  -15.70   10.60
   0  -1  -9   11.20   14.50
   0   2   0 3452.85  304.57
   0   2   0 3570.64  308.87
   0  -2   0 4029.60  308.77
   0  -2   0 3454.55  304.67
   0   2  -1 1588.04  137.29
   0   2   1 1583.14  137.99
   0   2  -1 1630.54  139.09
   0   2   1 1564.54  148.79
   0  -2  -1 1628.54  138.19
   0  -2  -1 1788.52  150.28
   0   2  -2 1502.25  125.29
   0   2   2 1443.26  123.79
   0   2   2 1239.88  140.79
   0  -2   2 1378.06  125.39
   0  -2  -2 1697.13  147.99
   0  -2  -2 1473.05  124.09
   0   2   3  806.42   72.99
   0   2  -3  888.01   75.99
   0   2   3  805.52   99.39
   0  -2  -3  830.42   73.39
   0  -2  -3  988.80  105.59
   0  -2  -3  855.01   78.79
   0  -2   3  781.42   76.49
   0   2  -4   35.00    8.40
   0   2   4   27.50    5.60
   0   2   4   32.80   19.20
   0  -2   4   28.40   10.20
   0  -2  -4   17.90    7.40
   0  -2  -4   12.00   22.80
   0  -2  -4   29.00   13.90
   0  -2  -4   33.30    6.30
   0   2   5  697.33  101.69
   0   2  -5  646.14   63.99
   0   2   5  610.44   58.89
   0  -2  -5  658.63   58.89
   0  -2  -5  695.33   68.39
   0   2  -6   51.79   15.40
   0  -2  -6   50.39   14.30
   0  -2  -6   71.39   22.50
   0  -2  -6   66.39   10.90
   0   2  -7  527.25   56.59
   0  -2  -7  527.55   60.79
   0  -2  -7  481.15   47.80
   0   2  -8   38.30   14.50
   0  -2  -8   46.30   17.30
   0   2  -9   22.40   16.00
   0  -2  -9    3.40   16.60
   0  -2  -9   17.40    7.30
   0   3   0   -0.90    1.60
   0   3   0    6.50    4.00
   0  -3   0   -0.80    1.30
   0  -3   0    0.60    3.40
   0   3  -1 4106.19  351.36
   0   3   1 4247.98  348.77
   0   3   1 3934.81  361.16
   0   3  -1 4153.28  347.97
   0  -3   1 3930.61  348.27
   0  -3  -1 4195.58  348.97
   0  -3   1 4320.67  350.26
   0   3   2  990.30  117.19
   0   3  -2 1228.98  102.09
   0   3  -2 1100.69   99.89
   0   3   2 1121.89  100.19
   0  -3   2 1192.18  101.69
   0  -3  -2 1128.69  100.49
   0  -3   2 1150.48  100.49
   0  -3  -2 1438.16  124.89
   0   3   3   86.89   28.10
   0   3  -3  154.38   17.60
   0   3   3  137.49   15.60
   0  -3  -3  161.78   16.50
   0  -3   3  140.09   18.10
   0   3   4 1195.78  101.29
   0   3   4  919.71  129.79
   0   3  -4 1304.47  105.39
   0  -3  -4 1236.78  109.69
   0  -3  -4 1160.08  101.89
   0  -3   4 1025.80  105.39
   0  -3  -4 1120.29  114.69
   0   3   5   66.79    9.90
   0   3  -5   54.79   12.60
   0  -3  -5   70.09   24.60
   0  -3  -5   78.39   11.00
   0  -3  -5   70.09   24.20
   0   3  -6   77.99   16.70
   0   3   6   88.89   41.60
   0  -3  -6   95.29   12.80
   0  -3  -6   91.09   20.90
   0   3  -7   11.30    8.30
   0  -3  -7    0.40    6.90
   0  -3  -7    4.30    5.40
   0   3  -8   -6.30    8.40
   0  -3  -8   -6.10   11.00
   0  -3  -8    0.40    5.50
   0  -3  -9    0.30    6.90
   0  -3  -9  -10.50   12.60
   0   4   0 3574.64  311.87
   0   4   0 3423.86  320.37
   0  -4   0 4119.49  319.57
   0  -4   0 3647.14  312.27
   0   4  -1  367.76   41.40
   0   4  -1  414.56   37.00
   0   4   1  316.17   47.80
   0   4   1  392.66   37.50
   0  -4   1  398.26   37.40
   0  -4  -1  544.15   53.29
   0  -4  -1  400.56   37.90
   0  -4   1  438.06   40.20
   0   4   2  945.21  114.39
   0   4  -2 1099.39   98.69
   0   4  -2 1061.29   94.29
   0   4   2 1142.19   97.39
   0  -4   2 1072.19   97.09
   0  -4  -2 1101.29   96.29
   0  -4   2 1048.30   95.69
   0  -4  -2 1401.56  122.29
   0   4  -3 1549.64  136.39
   0   4   3 1625.54  134.29
   0   4   3 1281.87  158.68
   0  -4   3 1518.65  135.49
   0  -4  -3 1942.61  171.28
   0  -4  -3 1544.95  134.69
   0  -4   3 1457.85  136.29
   0   4  -4    5.20    3.90
   0   4   4    5.70   14.50
   0  -4   4    1.30    5.30
   0  -4  -4    2.00    3.00
   0   4   5  507.65   97.19
   0   4  -5  564.04   55.29
   0  -4  -5  510.75   51.69
   0  -4  -5  603.24   62.39
   0   4  -6    9.40    6.60
   0  -4  -6   10.10    5.30
   0   4  -7   27.20   11.50
   0   4   7   39.90   37.70
   0  -4  -7   23.30   13.50
   0  -4  -7   28.60    8.60
   0   4  -8   69.69   18.20
   0  -4  -8   95.69   16.50
   0  -4  -8  105.69   24.70
   0   5   0    3.60    6.80
   0   5   0    4.00    2.70
   0  -5   0   -0.20    5.50
   0  -5   0    4.50    3.20
   0   5  -1  465.55   52.19
   0   5  -1  488.75   45.30
   0   5   1  503.05   46.00
   0   5   1  374.26   57.49
   0  -5   1  575.54   50.39
   0  -5   1  484.45   46.10
   0  -5  -1  521.75   48.50
   0   5   2   83.19   11.70
   0   5  -2   90.49   10.90
   0   5  -2   86.49   16.50
   0   5   2   88.79   27.00
   0  -5  -2   83.09   12.20
   0  -5   2   83.79   12.30
   0  -5  -2   93.49   27.50
   0   5  -3    7.90    4.30
   0   5  -3    7.90    3.30
   0   5   3  -11.30   11.70
   0  -5  -3   11.50    4.30
   0  -5   3    3.40    5.10
   0  -5   3    1.50    4.80
   0   5  -4   11.40    6.70
   0   5   4   22.40   21.20
   0  -5  -4   10.90    4.80
   0   5   5   47.50   27.60
   0  -5  -5   61.79   12.70
   0  -5  -5   80.49   20.40
   0   5   6   60.09   37.50
   0   5  -6   38.00   12.20
   0  -5  -6   26.50   13.80
   0  -5  -6   28.00    8.90
   0   5   7  -14.80   30.20
   0   5  -7   -6.50    7.70
   0  -5  -7   -4.60   10.30
   0  -5  -7    3.80    5.80
   0   5  -8  -18.10    8.90
   0  -5  -8   -8.40    6.00
   0  -5  -8  -12.20   15.40
   0   6   0   97.69   24.00
   0   6   0  162.28   17.60
   0  -6   0  172.58   26.30
   0  -6   0  157.28   18.40
   0   6  -1  303.67   30.40
   0   6  -1  262.47   38.70
   0   6   1  212.58   45.70
   0  -6  -1  327.97   32.00
   0  -6   1  358.36   36.10
   0   6   2   72.49   28.00
   0   6  -2  107.69   21.70
   0  -6  -2  137.49   16.70
   0  -6   2  130.59   18.30
   0  -6   2  118.49   16.50
   0   6  -3   14.10    8.30
   0   6   3   35.60   21.60
   0   6  -3   30.70    6.40
   0  -6   3   20.80    8.70
   0  -6  -3   24.80    7.00
   0   6   4   -7.60   15.10
   0   6  -4   -2.00    3.40
   0   6  -4    0.50    5.70
   0  -6   4    5.60    8.90
   0  -6  -4    1.70    4.60
   0   6  -5  200.58   27.90
   0   6   5  196.58   62.09
   0  -6  -5  166.98   22.60
   0   6   6  -35.20   22.80
   0   6  -6   10.40   10.60
   0  -6  -6   13.80   11.60
   0  -6  -6    9.80    6.20
   0   6  -7   18.80   11.30
   0   6   7    0.10   33.30
   0  -6  -7   51.99   12.50
   0  -6  -7   32.70   18.10
   0   6  -8   49.90   18.50
   0   6   8   64.69   63.29
   0  -6  -8   74.19   16.10
   0  -6  -8   82.19   24.50
   0   7   0    8.60   10.30
   0  -7   0    0.70    4.00
   0   7   1  197.78   46.30
   0   7  -1  271.37   40.70
   0  -7   1  311.77   31.70
   0  -7  -1  312.67   35.30
   0   7   2   10.80   18.70
   0   7  -2   26.90   11.80
   0  -7  -2   46.00   10.70
   0  -7   2   27.00    9.40
   0   7  -3   74.09   12.30
   0   7   3  105.19   36.20
   0  -7  -3   83.19   16.00
   0  -7   3   69.19   14.50
   0   7   4  -17.10   19.30
   0   7  -4    0.70   10.20
   0   7  -4    7.20    5.70
   0  -7   4   14.40   11.10
   0  -7  -4   10.60    6.90
   0   7  -5  128.39   25.50
   0   7   5  136.09   52.39
   0  -7  -5  183.38   23.10
   0   7  -6  335.97   41.90
   0   7   6  184.98   69.09
   0  -7  -6  302.57   34.70
   0  -7  -6  244.08   45.10
   0   7   7  -52.49   27.50
   0   7  -7   -2.50   12.00
   0  -7  -7   10.30    9.40
   0  -7  -7   11.70   13.40
   0   8   0   12.70   15.10
   0  -8   0   28.40    8.80
   0   8   1   83.59   30.90
   0   8  -1  101.59   27.50
   0  -8   1  129.39   18.10
   0  -8  -1   92.69   17.70
   0   8   2   11.20   19.80
   0   8  -2    4.70   11.50
   0  -8  -2   22.60    8.10
   0  -8   2   18.70    7.60
   0   8  -3    7.50   12.00
   0   8   3   12.40   27.70
   0  -8   3   29.30   11.90
   0  -8  -3   10.10    6.20
   0   8   4  335.07   78.19
   0   8  -4  381.76   52.09
   0  -8   4  362.76   47.80
   0  -8  -4  466.75   45.20
   0   8  -5  108.89   27.30
   0   8   5  188.38   57.99
   0  -8  -5  203.08   26.00
   0   8   6  112.89   72.59
   0   8  -6  117.99   27.00
   0  -8  -6  124.09   23.10
   0   9   1  149.09   44.30
   0   9  -1  170.18   42.10
   0  -9   1  227.18   28.90
   0  -9  -1  280.47   30.40
   0   9   2    8.80   21.80
   0  -9  -2    9.10    7.90
   0  -9   2   14.00   10.90
   0   9   3  142.89   47.60
   0   9  -3  171.28   35.80
   0  -9  -3  208.48   27.80
   0  -9   3  224.38   31.60
   0   9  -4  -21.40   13.80
   0   9   4   44.70   42.20
   0  -9  -4   -2.20    6.70
   0   9   5   -7.00   40.90
   0   9  -5   -5.90   14.40
   0  -9  -5  -13.90    7.40
   0   9  -6    1.00   20.40
   0   9   6   64.49   45.60
   0  -9  -6   32.70   13.10
   0  -9  -6   25.60   19.10
   0  10   0   62.29   29.60
   0 -10   0   35.10   13.30
   0  10  -1    0.80   19.40
   0  10   1  -10.60   23.50
   0 -10  -1   12.70    9.90
   0 -10   1   -1.70    9.50
   0  10  -2   33.30   22.30
   0  10   2  -10.90   30.00
   0 -10   2   73.69   17.40
   0 -10  -2   56.99   14.40
   0  10   3  230.48   64.89
   0  10  -3  190.38   42.00
   0 -10   3  241.98   41.00
   0 -10  -3  289.57   35.60
   0  10  -4  -18.50   21.70
   0  10   4    7.90   41.90
   0 -10  -4    0.20    8.10
   0 -10   4   21.30   20.10
   0  10  -5   45.80   28.00
   0  11   0  -21.90   27.40
   0 -11   0   -4.80    9.10
   0  11  -1    0.50   29.30
   0  11   1  -26.60   27.50
   0 -11  -1  -14.10    9.10
   0 -11   1   -1.60   12.30
   0  11  -2   19.50   26.80
   0 -11   2   74.19   22.10
   0 -11  -2   58.89   15.70
   0  11  -3  222.58   55.29
   0  11   3  280.07   76.69
   0 -11   3  246.48   44.60
   0 -11  -3  356.96   40.50
   1   0  -9  -14.00    9.60
   1   0  -8   17.90    5.90
   1   0  -8   44.10   26.70
   1   0  -8   33.60   14.10
   1   0  -7    2.10   16.40
   1   0  -7   -5.00    6.90
   1   0  -7    1.10    3.00
   1   0  -6    6.10    6.10
   1   0  -6   -7.00   13.60
   1   0  -5  -21.90   16.20
   1   0  -5    0.00    3.90
   1   0  -5  -14.10   10.60
   1   0  -5    1.00    2.10
   1   0  -4 3036.50  257.77
  -1   0   4 3082.89  257.47
   1   0  -4 2924.31  250.67
   1   0  -4 2967.60  280.87
   1   0  -4 2839.02  260.27
  -1   0   4 2942.81  260.07
   1   0  -3   -2.50    2.40
   1   0  -3    0.80    1.00
  -1   0   3   -1.80    2.50
  -1   0   3   -0.20    6.10
   1   0  -3   -0.30    5.30
   1   0  -3    3.80   11.30
  -1   0   2 1974.70  165.88
   1   0  -2 1867.01  165.38
  -1   0   2 1903.71  174.68
   1   0  -2 1830.62  162.28
  -1   0   1    2.20    2.90
   1   0  -1    0.00    0.90
  -1   0   1   -0.20    3.70
   1   0  -1   -5.80    3.40
   1   0  -1    0.80    3.20
   1   0   1    2.30    1.70
  -1   0  -1   -0.50    1.50
  -1   0  -3    9.40   11.50
   1   0   3   -0.20    3.00
  -1   0  -4   39.50   10.00
  -1   0  -4   30.70   21.90
   1   0   4   29.30   10.30
  -1   0  -5   -5.30    4.30
  -1   0  -6 5384.16  466.15
  -1   0  -7    3.40    7.80
  -1   0  -8  118.79   25.40
   1   1  -9    6.90   14.30
   1  -1  -9   17.20    7.90
   1  -1  -9    7.00   14.70
   1   1  -8    5.60    9.20
   1  -1  -8   17.90    6.40
   1  -1  -8   12.40   11.70
   1   1  -7   30.20   11.10
   1  -1  -7   53.39   20.20
   1  -1  -7   39.90    8.00
   1  -1  -7   34.50   13.80
   1   1  -6  117.99   13.40
   1   1  -6  144.09   21.80
   1  -1  -6  135.39   15.00
   1  -1  -6  103.99   26.60
   1   1  -5   25.70    4.60
   1   1  -5    1.00   17.90
   1   1  -5   31.30   13.30
   1   1  -5   19.70    8.20
   1  -1  -5   30.50   14.80
  -1  -1   5   19.90    9.80
   1  -1  -5   23.40    5.50
  -1  -1   5   25.20   11.00
   1  -1  -5   13.50   26.40
   1  -1  -5   33.10   10.70
   1   1  -4   18.00   13.30
   1   1  -4    4.20    4.90
   1   1  -4    0.50    8.00
  -1   1   4   17.50   17.10
  -1  -1   4    1.20    4.40
   1  -1  -4   15.60   10.70
  -1  -1   4   10.10    9.30
   1  -1  -4   15.10    3.70
   1  -1  -4   33.60   20.20
   1  -1  -4   13.30    6.30
  -1   1   3 2192.78  217.58
   1   1  -3 2216.28  195.48
   1  -1  -3 2547.34  221.68
   1  -1  -3 2362.26  192.38
  -1  -1   3 2064.09  197.18
  -1  -1   3 2154.48  195.58
   1  -1  -3 2323.47  197.38
   1  -1  -3 2382.16  202.88
  -1   1   2 1594.74  162.08
   1   1  -2 1764.92  148.09
  -1   1   2 2009.50  155.88
  -1   1   2 1722.63  146.39
  -1  -1   2 1643.04  149.39
  -1  -1   2 1447.16  150.68
   1  -1  -2 2010.00  166.68
   1  -1  -2 1715.53  146.39
   1  -1  -2 1763.42  154.58
   1   1  -1 1716.33  144.19
   1   1  -1 1686.13  142.39
  -1   1   1 1635.94  142.39
  -1   1   1 1866.01  148.99
  -1   1   1 1586.94  151.48
  -1  -1   1 1570.34  144.59
   1  -1  -1 1607.64  142.39
  -1  -1   1 1623.34  142.49
   1  -1  -1 1790.82  148.59
   1  -1  -1 1868.01  150.78
   1   1   1   16.10   11.00
  -1   1  -1   31.80    4.80
   1   1   1   24.70    3.70
  -1  -1  -1   25.00    5.50
  -1  -1  -1   27.30   10.80
   1  -1   1   27.00    5.10
  -1  -1  -1   23.70    3.70
   1   1   2 1497.85  120.19
   1   1   2 1333.47  137.99
   1   1   2 1416.96  116.19
  -1   1  -2 1413.66  118.59
  -1  -1  -2 1267.87  135.09
  -1  -1  -2 1317.07  119.59
   1  -1   2 1247.48  118.59
  -1  -1  -2 1324.47  115.59
   1   1   3   36.60    5.10
  -1   1  -3   33.40    8.40
   1   1   3   36.50    8.90
   1  -1   3   33.20    9.10
  -1  -1  -3   35.90    5.40
  -1  -1  -3   37.80   18.50
  -1  -1  -3   37.30    9.70
   1   1   4 6739.63  564.64
  -1   1  -4 7304.97  572.44
  -1  -1  -4 6644.73  574.14
  -1  -1  -4 6628.44  565.04
  -1  -1  -4 6198.28  598.44
   1  -1   4 6675.93  572.64
  -1   1  -5   34.90   11.30
  -1  -1  -5   28.20   11.80
  -1  -1  -5   49.00   14.70
  -1  -1  -5   39.30    7.00
  -1   1  -6   40.40   12.70
  -1  -1  -6   46.20    7.70
  -1  -1  -6   63.49   16.60
  -1  -1  -6   24.20   15.60
  -1   1  -7   49.00   22.00
  -1  -1  -7   99.19   24.30
  -1  -1  -7   56.99   17.60
  -1   1  -8   12.90    9.80
  -1  -1  -8   -5.70   11.00
  -1   1  -9   -9.60   13.90
  -1  -1  -9  -17.10   11.60
   1   2  -9   59.29   20.20
   1  -2  -9   51.09   20.70
   1  -2  -9   74.09   13.70
   1   2  -8  146.09   26.60
   1  -2  -8  154.78   18.80
   1  -2  -8  103.19   26.10
   1   2  -7   -0.40    5.80
   1  -2  -7   -3.50    2.80
   1   2  -6   26.30    9.10
   1  -2  -6   -7.90   17.20
   1  -2  -6   17.50    5.80
   1  -2  -6   18.80    9.10
   1   2  -5   26.00    8.00
   1   2  -5    6.50   19.60
  -1   2   5   17.10   19.20
   1  -2  -5   20.50    9.00
   1  -2  -5   43.20    7.60
   1  -2  -5   15.60   15.10
  -1  -2   5   31.20   10.20
  -1   2   4  250.97   68.59
   1   2  -4  280.37   29.10
  -1   2   4  262.27   25.50
   1  -2  -4  262.67   25.90
   1  -2  -4  284.27   35.10
  -1  -2   4  238.38   29.50
   1  -2  -4  283.37   57.19
   1  -2  -4  266.27   38.20
  -1   2   3  339.47   31.30
   1   2  -3  331.87   33.00
   1   2  -3  379.46   36.30
  -1   2   3  273.27   52.29
   1  -2  -3  432.76   58.89
  -1  -2   3  302.87   35.40
   1  -2  -3  368.56   42.90
  -1  -2   3  336.67   34.20
   1  -2  -3  330.47   31.40
  -1   2   2  956.80   83.59
   1   2  -2 1018.40   84.79
  -1   2   2  945.21   99.59
   1   2  -2  953.90   84.09
   1  -2  -2  957.40   83.69
   1  -2  -2 1124.29  103.59
   1  -2  -2  964.30   92.69
  -1  -2   2  992.00   84.79
  -1  -2   2  869.21   86.19
  -1   2   1 1394.56  121.49
   1   2  -1 1502.45  123.39
   1   2  -1 1449.15  121.99
  -1   2   1 1304.07  129.69
  -1  -2   1 1418.86  121.69
   1  -2  -1 1575.24  131.29
   1  -2  -1 1368.96  121.49
  -1  -2   1 1423.66  122.59
   1   2   0 2861.91  251.17
  -1   2   0 2814.72  245.18
  -1   2   0 2804.62  248.88
   1   2   0 2823.12  245.88
  -1  -2   0 2739.53  245.98
   1  -2   0 3244.08  249.08
   1  -2   0 2791.52  245.28
  -1  -2   0 3271.67  250.87
   1   2   1 2962.80  282.07
   1   2   1 3247.38  268.97
  -1   2  -1 3041.90  267.67
  -1   2  -1 3357.26  270.57
  -1  -2  -1 3264.57  269.17
   1  -2   1 3065.09  267.77
   1  -2   1 3330.27  270.17
   1   2   2 1088.19   93.89
   1   2   2  997.00  114.29
  -1   2  -2 1116.89   95.89
   1  -2   2 1138.29   96.49
  -1  -2  -2 1063.39   93.99
   1   2   3  259.37   24.10
   1   2   3  211.78   49.80
  -1   2  -3  271.67   27.40
   1  -2   3  261.07   28.30
  -1  -2  -3  245.78   29.30
  -1  -2  -3  239.38   24.30
  -1  -2  -3  226.68   48.20
   1   2   4  138.19   39.40
   1   2   4  209.98   20.30
  -1  -2  -4  207.18   20.70
  -1  -2  -4  191.18   47.60
   1  -2   4  186.68   25.90
  -1  -2  -4  191.68   32.50
  -1  -2  -4  212.88   27.40
   1   2   5    9.90    4.40
  -1   2  -5    5.90    5.40
  -1  -2  -5    5.30   12.20
  -1  -2  -5    7.20    4.00
  -1  -2  -5    8.20    6.20
  -1   2  -6   97.89   18.40
  -1  -2  -6  110.69   26.00
  -1  -2  -6  112.89   13.70
  -1  -2  -6   62.39   17.60
  -1   2  -7   63.09   18.80
  -1  -2  -7   59.09   17.60
  -1  -2  -7   78.49   12.50
  -1   2  -8  253.87   35.20
  -1  -2  -8  152.28   33.40
  -1  -2  -8  186.88   23.10
  -1  -2  -9    4.80   15.00
  -1  -2  -9    2.50    8.10
   1   3  -9    3.30   13.00
   1  -3  -9   40.80   11.10
   1  -3  -9   65.69   23.10
   1   3  -8  252.67   34.50
   1  -3  -8  180.08   37.70
   1  -3  -8  234.78   26.70
   1   3  -7  207.68   28.50
   1  -3  -7  143.69   30.60
   1  -3  -7  193.28   22.20
   1   3  -6  259.97   29.50
  -1   3   6  188.78   58.39
   1  -3  -6  211.28   24.70
   1  -3  -6  238.98   33.30
   1   3  -5   34.00    9.30
  -1   3   5   15.00   17.40
   1  -3  -5   48.00    8.80
   1  -3  -5   32.70   11.30
  -1  -3   5   23.70   10.70
  -1   3   4  551.44   87.69
   1   3  -4  675.13   62.89
  -1   3   4  684.63   60.69
   1  -3  -4  880.41  102.69
  -1  -3   4  656.63   64.69
   1  -3  -4  670.33   74.09
  -1   3   3  426.96   40.60
  -1   3   3  365.96   60.49
   1   3  -3  461.15   42.00
   1   3  -3  466.85   40.70
   1  -3  -3  503.35   74.69
  -1  -3   3  377.26   44.20
   1  -3  -3  447.76   41.00
   1  -3  -3  434.36   52.59
  -1  -3   3  461.25   43.20
   1   3  -2 2938.31  242.58
   1   3  -2 2923.41  241.08
  -1   3   2 2883.21  241.38
  -1   3   2 2356.66  256.27
  -1  -3   2 2927.81  243.48
   1  -3  -2 2855.21  241.58
  -1  -3   2 2892.71  241.98
  -1   3   1  118.79   13.00
   1   3  -1  116.39   15.50
   1   3  -1  130.79   13.30
  -1   3   1   95.29   20.50
   1  -3  -1  125.79   13.30
   1  -3  -1  159.48   23.00
  -1  -3   1  114.19   13.90
  -1  -3   1  129.79   14.00
   1   3   0   91.99   10.40
   1   3   0   72.99   15.60
  -1   3   0   94.49   10.00
  -1   3   0   71.59   14.00
   1  -3   0   85.49   10.00
  -1  -3   0   92.39   10.90
   1  -3   0  105.49   14.30
  -1  -3   0  116.09   16.90
  -1   3  -1 2454.65  216.58
   1   3   1 2575.44  217.98
   1   3   1 2387.36  231.98
  -1   3  -1 2593.64  220.68
   1  -3   1 2363.96  216.68
   1  -3   1 2686.13  219.68
  -1  -3  -1 3035.50  234.68
  -1  -3  -1 2553.14  218.18
  -1   3  -2 1119.19   96.99
   1   3   2 1072.09   94.79
   1   3   2  938.41  114.89
   1  -3   2 1089.39   96.69
  -1  -3  -2 1077.29   95.09
  -1  -3  -2 1294.37  121.79
   1   3   3    1.20    2.70
  -1   3  -3    4.80    3.40
   1   3   3    6.90    9.60
   1  -3   3    0.30    3.30
  -1  -3  -3   -0.60    2.60
  -1  -3  -3  -13.30   13.40
  -1  -3  -3    0.70    2.40
   1   3   4  337.47   31.70
   1   3   4  244.98   60.79
  -1   3  -4  367.86   35.60
  -1  -3  -4  332.17   39.10
   1  -3   4  274.37   35.90
  -1  -3  -4  333.27   32.20
  -1   3  -5   -1.60    3.60
   1   3   5  -13.20   19.10
   1   3   5    3.40    3.30
  -1  -3  -5   -4.00    4.70
  -1  -3  -5   -0.70   10.90
  -1  -3  -5    3.70    3.50
  -1   3  -6 1098.59   99.59
  -1  -3  -6  980.50  103.49
  -1  -3  -6 1029.00   92.89
  -1   3  -7  608.04   64.49
  -1  -3  -7  575.24   69.19
  -1  -3  -7  612.94   57.49
  -1   3  -8   80.39   20.80
  -1  -3  -8   70.39   22.20
  -1  -3  -8   91.89   15.70
  -1   3  -9    3.20   13.20
  -1  -3  -9   -8.00   15.10
   1   4  -9  121.69   24.80
   1  -4  -9  173.78   23.00
   1  -4  -9  113.19   31.70
   1   4  -8  215.98   29.30
   1  -4  -8  147.39   36.30
   1  -4  -8  217.78   25.80
   1   4  -7  168.98   25.30
  -1   4   7  192.18   67.99
   1  -4  -7  181.78   22.40
   1  -4  -7  190.28   35.30
   1   4  -6   64.39   15.00
  -1   4   6   43.70   25.00
   1  -4  -6   65.09   12.50
   1  -4  -6   72.19   18.50
   1   4  -5  209.08   25.60
  -1   4   5  134.59   43.80
   1  -4  -5  204.58   29.80
   1  -4  -5  210.58   23.00
  -1   4   4  100.09   33.50
   1   4  -4  138.59   18.70
   1   4  -4  156.08   16.20
  -1  -4   4  141.69   24.30
  -1  -4   4  132.99   19.40
   1  -4  -4  150.08   17.50
   1   4  -3  958.10   80.89
  -1   4   3  730.63  101.19
   1   4  -3  913.51   83.59
  -1   4   3  970.70   82.09
   1  -4  -3 1156.18  113.99
   1  -4  -3  885.71   95.89
   1  -4  -3  926.51   82.29
  -1  -4   3  880.71   83.29
  -1  -4   3  904.91   85.29
   1   4  -2  998.40   97.29
  -1   4   2  994.70  112.79
  -1   4   2 1156.28   96.89
   1   4  -2 1079.19   94.49
   1  -4  -2 1106.39   95.69
  -1  -4   2 1127.49   96.19
  -1  -4   2 1105.79   96.89
   1   4  -1 2255.27  205.98
  -1   4   1 2090.99  212.58
   1   4  -1 2450.45  200.88
  -1   4   1 2340.77  200.88
   1  -4  -1 2336.27  201.18
  -1  -4   1 2600.64  203.88
  -1  -4   1 2357.26  201.78
  -1   4   0 3072.89  257.77
  -1   4   0 2814.72  265.57
   1   4   0 2777.22  267.37
   1   4   0 3063.19  258.27
   1  -4   0 3541.05  265.37
   1  -4   0 3002.00  257.97
  -1  -4   0 3009.70  258.87
  -1   4  -1 1569.14  135.89
   1   4   1 1567.44  137.19
  -1   4  -1 1566.44  141.79
   1   4   1 1389.56  151.58
  -1  -4  -1 1631.74  137.79
   1  -4   1 1593.24  136.29
   1  -4   1 1757.22  140.19
  -1   4  -2    8.20    2.70
   1   4   2   -2.70    9.40
  -1   4  -2    6.00    4.10
  -1  -4  -2   15.40    4.90
   1  -4   2    7.20    3.90
   1  -4   2   13.00    3.80
  -1  -4  -2   13.40   16.40
  -1   4  -3  224.88   30.40
   1   4   3  248.18   25.50
   1   4   3  229.18   49.80
   1  -4   3  257.27   28.60
  -1  -4  -3  261.67   56.69
  -1  -4  -3  265.37   26.40
   1   4   4  299.27   64.99
  -1   4  -4  287.67   32.30
  -1  -4  -4  278.37   29.60
  -1  -4  -4  295.07   36.50
   1   4   5  348.37   77.89
  -1  -4  -5  402.46   38.30
  -1  -4  -5  347.07   45.50
  -1   4  -6  267.27   33.70
   1   4   6  186.48   61.69
  -1  -4  -6  266.37   29.00
  -1  -4  -6  280.77   38.70
  -1   4  -7  201.88   28.90
  -1  -4  -7  220.98   24.40
  -1  -4  -7  132.99   30.20
  -1   4  -8   54.49   15.10
  -1  -4  -8   43.60   11.10
  -1  -4  -8   20.50   14.80
   1   5  -8    3.10   10.20
  -1   5   8   -8.90   42.50
   1  -5  -8    4.90   13.70
   1  -5  -8   21.50    8.60
  -1   5   7  215.88   69.89
   1  -5  -7  151.28   33.10
   1  -5  -7  153.78   21.20
  -1   5   6    5.10   20.40
   1   5  -6   -6.40    5.30
   1  -5  -6   -2.30    3.50
   1  -5  -6   -0.20    8.20
   1   5  -5   25.80    7.80
  -1   5   5   25.70   28.00
   1  -5  -5   27.90    8.30
  -1   5   4  731.23  116.09
   1   5  -4 1089.99   94.39
   1   5  -4 1116.89   89.19
   1  -5  -4 1002.70   93.09
  -1  -5   4  944.71   93.59
   1   5  -3    4.60    3.20
  -1   5   3  -12.80   12.30
  -1  -5   3    1.80    5.10
  -1  -5   3    9.40    7.50
   1  -5  -3    0.20    3.10
   1   5  -2    8.90    5.70
  -1   5   2    8.30   11.20
  -1   5   2    7.80    3.70
   1   5  -2   12.00    4.40
   1  -5  -2    8.80   12.80
  -1  -5   2   13.10    5.70
   1  -5  -2    7.80    4.10
  -1  -5   2   11.50    4.80
   1   5  -1  834.82   87.19
  -1   5   1  699.13  100.49
  -1   5   1  925.51   80.29
   1   5  -1  942.11   80.19
   1  -5  -1  914.21   80.79
  -1  -5   1 1034.70   84.49
  -1  -5   1  858.41   80.99
   1   5   0  644.34   77.29
  -1   5   0  695.03   76.79
  -1   5   0  718.83   66.49
  -1  -5   0  849.32   76.29
   1  -5   0  735.33   66.99
   1  -5   0  929.61   80.49
  -1  -5   0  727.83   67.89
   1   5   1  984.00   84.99
  -1   5  -1  939.71   91.39
   1   5   1  780.12   98.89
  -1   5  -1  939.31   83.39
   1  -5   1 1094.99   89.49
   1  -5   1  924.71   83.99
  -1  -5  -1  965.70   87.79
  -1   5  -2  269.67   36.40
   1   5   2  256.97   27.50
  -1   5  -2  262.47   25.70
   1   5   2  194.78   45.50
  -1  -5  -2  370.56   52.49
   1  -5   2  275.57   26.80
   1  -5   2  255.37   29.30
  -1  -5  -2  298.37   28.70
  -1   5  -3  972.00   86.79
   1   5   3  706.23  106.79
  -1  -5  -3  942.01   82.89
  -1   5  -4   -5.80    3.60
   1   5   4   13.70   20.30
  -1  -5  -4    2.80    4.60
  -1   5  -5   -4.80    5.30
   1   5   5    0.10   19.40
  -1  -5  -5    3.10    4.10
  -1  -5  -5   -0.10    6.70
   1   5   6  195.78   55.89
  -1   5  -6  120.29   23.20
  -1  -5  -6  171.28   20.70
  -1  -5  -6  143.39   28.60
   1   5   7    4.50   38.60
  -1   5  -7   37.70   13.60
  -1  -5  -7   45.00   18.20
  -1  -5  -7   65.49   14.00
  -1  -5  -8    1.50    6.70
  -1  -5  -8  -14.50   12.30
   1   6  -8    8.70   12.90
  -1   6   8    9.20   41.00
   1  -6  -8    8.80   12.90
   1  -6  -8   27.40    9.60
   1   6  -7  201.78   30.20
  -1   6   7  142.19   60.59
   1  -6  -7  158.68   33.60
   1  -6  -7  223.58   26.50
  -1   6   6    9.10   25.90
   1   6  -6   45.60   13.10
   1  -6  -6   51.89   17.10
   1  -6  -6   38.10    9.90
  -1   6   5  523.55  107.49
   1   6  -5  836.22   78.49
   1  -6  -5  754.62   71.59
  -1   6   4   44.60   27.20
   1   6  -4   54.59    9.40
   1   6  -4   16.60    9.50
  -1  -6   4   96.79   19.30
   1  -6  -4   41.10    9.80
  -1   6   3  317.77   64.19
   1   6  -3  400.56   45.40
  -1  -6   3  429.16   43.60
  -1  -6   3  406.56   42.40
   1  -6  -3  426.06   41.50
   1   6  -2  170.58   18.70
  -1   6   2  140.79   34.80
   1   6  -2  106.09   22.90
   1  -6  -2  171.98   19.90
  -1  -6   2  178.08   22.00
  -1  -6   2  174.68   21.40
  -1   6   1  169.28   36.20
   1   6  -1  227.78   23.90
  -1  -6   1  257.57   29.20
  -1  -6   1  232.78   25.60
   1  -6  -1  215.58   24.30
  -1   6   0   27.80   13.10
  -1   6   0   61.19   10.20
   1   6   0   64.39   18.90
   1  -6   0   76.19   12.20
  -1  -6   0   71.89   12.30
  -1  -6   0   64.29   16.30
   1   6   1   12.40   13.50
  -1   6  -1    8.20    3.60
  -1   6  -1    6.90    5.80
  -1  -6  -1    7.20    5.10
   1  -6   1    3.00    3.80
  -1  -6  -1   17.10   13.30
  -1   6  -2  151.48   16.00
  -1   6  -2  106.39   21.90
   1   6   2  116.49   34.30
   1  -6   2  156.18   17.30
  -1  -6  -2  130.99   17.80
  -1   6  -3  177.08   26.00
  -1   6  -3  170.68   19.10
   1   6   3  154.08   44.90
   1  -6   3  215.88   23.20
  -1  -6  -3  214.28   23.40
   1   6   4    5.70   22.10
  -1   6  -4   12.00    7.80
  -1  -6  -4    1.20    4.30
  -1   6  -5  199.28   29.20
   1   6   5  173.98   53.09
  -1  -6  -5  194.78   24.60
  -1  -6  -5  190.48   35.60
  -1   6  -6    3.20    7.80
   1   6   6   -5.70   24.60
  -1  -6  -6    9.60    6.80
  -1  -6  -6   11.90   11.40
  -1   6  -7   42.90   15.10
   1   6   7   37.20   42.70
  -1  -6  -7   60.89   20.00
  -1  -6  -7   49.80   12.80
  -1   6  -8   -7.20   12.50
  -1  -6  -8   10.00   10.40
  -1  -6  -8   15.10   17.10
   1   7  -7  467.45   53.69
  -1   7   7  312.67   91.09
   1  -7  -7  380.06   63.99
   1  -7  -7  442.46   47.20
   1   7  -6   23.80   21.40
  -1   7   6   37.30   38.20
   1  -7  -6   24.70   17.90
   1  -7  -6   51.79   13.10
   1   7  -5  264.37   25.80
   1   7  -5  233.18   34.60
  -1   7   5  136.09   52.09
  -1  -7   5  176.68   36.70
   1  -7  -5  260.17   29.50
  -1   7   4  143.09   46.00
   1   7  -4  214.18   23.10
   1   7  -4  246.28   35.10
  -1  -7   4  174.78   30.70
   1  -7  -4  198.18   28.00
   1   7  -3  811.62   86.99
   1   7  -3  912.81   80.09
  -1   7   3  741.03  105.39
   1  -7  -3  898.21   81.09
  -1  -7   3  879.71   83.59
   1   7  -2   26.80   13.60
  -1   7   2   57.09   26.80
   1  -7  -2   60.09   12.30
  -1  -7   2   71.39   14.10
  -1   7   1   93.09   31.70
   1   7  -1  100.99   24.20
  -1  -7   1  116.09   17.00
   1   7   0  212.98   41.10
  -1   7   0  217.98   41.20
  -1  -7   0  255.37   27.50
   1  -7   0  218.88   25.40
  -1   7  -1   16.50   11.00
   1   7   1   47.50   16.10
   1  -7   1   19.10    6.80
  -1  -7  -1   23.30    8.40
  -1   7  -2   -1.00    4.20
   1   7   2   14.10   15.70
  -1  -7  -2    4.80    4.30
   1  -7   2    3.20    4.80
  -1   7  -3 1046.80  107.79
   1   7   3  885.31  130.49
  -1   7  -3 1099.69   96.59
   1  -7   3 1115.59  100.29
  -1  -7  -3 1218.08  102.09
  -1   7  -4   12.00   10.70
   1   7   4    7.90   22.50
  -1  -7  -4   24.60    8.80
   1   7   5   68.69   43.20
  -1   7  -5  120.19   24.30
  -1  -7  -5  117.79   28.00
  -1  -7  -5  112.79   20.20
   1   7   6  -19.80   28.00
  -1   7  -6    3.70   11.20
  -1  -7  -6  -10.90   10.40
  -1  -7  -6   12.70    8.20
  -1   7  -7   32.10   16.60
   1   7   7  -73.49   36.00
  -1  -7  -7   27.20   19.70
  -1  -7  -7   40.90   12.70
   1   8  -7  128.39   28.10
  -1   8   7  121.49   66.19
   1  -8  -7   82.89   28.40
   1  -8  -7   97.69   20.20
   1   8  -6    0.30   13.10
  -1   8   6  -35.80   36.30
   1  -8  -6    2.90    8.10
  -1   8   5  403.16   93.89
  -1  -8   5  568.44   66.49
   1  -8  -5  560.64   56.69
  -1   8   4  136.89   45.20
   1   8  -4   74.89   22.70
  -1  -8   4  130.69   26.30
   1  -8  -4  144.29   19.70
  -1   8   3   45.10   26.10
   1   8  -3   36.40   15.50
   1  -8  -3   32.60   10.30
  -1  -8   3   50.59   13.60
   1   8  -2   79.49   22.40
  -1   8   2   20.70   24.70
   1  -8  -2  117.29   16.20
  -1  -8   2   89.59   21.00
  -1   8   1   94.19   35.40
   1   8  -1  135.69   33.30
   1  -8  -1  193.58   23.30
  -1  -8   1  224.48   25.50
   1   8   0   55.19   22.50
  -1   8   0   37.40   19.00
  -1  -8   0   60.19   13.70
   1  -8   0   56.59   12.00
  -1   8  -1   31.20   17.30
   1   8   1   17.90   20.80
  -1  -8  -1   46.60   11.00
  -1   8  -2  509.75   64.19
   1   8   2  411.96   79.59
   1  -8   2  555.64   51.99
  -1   8  -3  131.49   28.70
   1   8   3  115.09   40.50
   1  -8   3  130.99   22.00
  -1  -8  -3  149.59   21.80
  -1   8  -4   35.00   14.20
   1   8   4    4.70   29.50
  -1   8  -4   17.60    6.90
  -1  -8  -4   25.70    9.80
   1  -8   4   18.40   14.60
   1   8   5   27.70   31.40
  -1   8  -5   -7.70   11.80
   1   8   6    0.00   66.59
  -1   8  -6  -17.10   15.70
  -1  -8  -6   35.50   12.70
   1   9  -6   44.20   21.90
  -1   9   6  -22.70   39.90
   1  -9  -6   -6.30    9.00
  -1   9   5  107.79   57.29
   1   9  -5  106.69   30.00
  -1  -9   5  135.09   40.90
   1  -9  -5  112.79   21.50
   1   9  -4  185.08   38.80
  -1  -9   4  200.78   38.10
   1  -9  -4  260.97   30.90
   1   9  -3   70.69   25.20
  -1   9   3  101.09   39.20
  -1  -9   3   94.99   21.10
   1  -9  -3   71.89   15.40
   1   9  -2   -9.60   13.00
  -1   9   2   -6.20   18.60
  -1  -9   2    0.40    7.70
   1  -9  -2    4.50    5.60
  -1   9   1  114.19   37.20
   1   9  -1  131.29   34.20
  -1  -9   1  139.19   23.60
   1  -9  -1  166.08   22.30
  -1   9   0   25.30   18.60
   1   9   0   25.70   20.40
   1  -9   0   36.00   10.60
  -1  -9   0   20.30    8.70
   1   9   1   78.19   37.20
  -1   9  -1   57.39   21.30
  -1  -9  -1   59.49   14.30
   1  -9   1   64.79   14.40
  -1   9  -2   94.89   27.30
   1   9   2  107.29   37.00
   1  -9   2   95.59   18.40
  -1  -9  -2  116.79   21.20
   1   9   3   27.20   28.80
  -1   9  -3    0.00   14.00
   1  -9   3   -7.60   10.80
  -1  -9  -3   -1.10    6.50
   1   9   4   10.00   35.80
  -1   9  -4    7.60   17.20
   1  -9   4   -6.90   16.00
  -1  -9  -4   17.90    9.90
  -1   9  -5   10.00   19.90
   1  10  -5  -23.60   20.60
  -1  10   5  -39.90   33.20
   1 -10  -5    0.40    8.70
  -1 -10   5    7.10   34.60
  -1  10   4   66.79   39.20
   1  10  -4   56.59   28.10
   1 -10  -4   97.69   19.90
  -1 -10   4  101.79   32.70
  -1  10   3  -48.90   26.90
   1  10  -3   31.30   19.10
   1 -10  -3  -11.70    5.90
  -1 -10   3    4.60   15.40
  -1  10   2   63.19   34.20
   1  10  -2   57.59   27.60
  -1 -10   2  142.69   24.80
   1 -10  -2  109.89   21.10
  -1  10   1   27.90   25.80
   1  10  -1  -14.90   21.00
   1 -10  -1   -1.30    8.70
  -1 -10   1    0.90    8.30
  -1  10   0  -18.60   16.30
   1  10   0   30.50   26.40
   1 -10   0   -3.30    6.60
  -1 -10   0    5.60    8.90
   1  10   1   95.19   36.30
  -1  10  -1  135.19   39.80
   1 -10   1  174.58   25.00
  -1 -10  -1  148.39   25.20
   1  10   2  -32.10   26.70
  -1  10  -2   10.50   17.60
  -1 -10  -2    7.90    9.00
   1 -10   2    1.10   11.70
  -1  10  -3   23.60   24.00
   1  10   3   20.60   34.70
   1 -10   3   64.29   18.10
  -1 -10  -3   55.59   16.10
  -1  10  -4  -25.60   17.70
   1  10   4  -64.09   33.70
  -1 -10  -4   11.30    9.10
   1 -10   4   28.90   22.60
   1  11  -3   -0.40   29.60
  -1  11   3   10.70   34.20
  -1 -11   3   -3.20   19.30
   1 -11  -3    2.00   11.60
   1  11  -2  -13.80   27.50
  -1  11   2  -13.60   43.30
  -1 -11   2  -27.30   13.80
   1 -11  -2   -1.60    9.80
   1  11  -1  131.19   45.60
  -1  11   1  115.09   46.50
   1 -11  -1  209.38   30.70
  -1 -11   1  281.47   36.10
  -1  11   0  206.28   54.39
   1  11   0  230.78   59.79
   1 -11   0  349.17   40.80
  -1 -11   0  365.16   42.70
   1  11   1   -5.30   33.30
  -1  11  -1   -7.00   26.00
  -1 -11  -1   69.49   18.10
   1 -11   1   36.00   15.50
  -1  11  -2  100.19   40.80
   1  11   2   28.10   36.30
  -1 -11  -2   93.19   21.90
   1 -11   2   73.29   20.40
   1  11   3  121.79   53.19
  -1  11  -3  142.49   49.40
   1 -11   3  141.59   29.70
  -1 -11  -3  133.29   26.50
   2   0  -9  -13.00    4.90
   2   0  -9   -7.60   13.70
   2   0  -8   46.40    9.00
   2   0  -8   48.90   15.60
   2   0  -7   -0.50   15.30
   2   0  -7    9.70    8.20
   2   0  -7   -2.40    2.70
   2   0  -6    6.10    3.60
   2   0  -6   -7.10    3.90
   2   0  -5   -8.90    8.70
   2   0  -5  -19.10   17.70
  -2   0   5   16.00   10.20
   2   0  -5   -1.40    1.90
   2   0  -4 1673.73  146.09
   2   0  -4 1701.43  152.08
  -2   0   4 1680.43  157.28
   2   0  -4 1673.83  157.28
   2   0  -4 1961.00  178.48
   2   0  -3    0.90    2.30
  -2   0   3    0.70    8.50
   2   0  -3   -0.40    6.30
  -2   0   3    4.00    6.60
   2   0  -3    8.70   11.10
  -2   0   2 5336.27  487.55
   2   0  -2 5581.74  477.45
   2   0  -2 6299.67  489.75
   2   0  -2 5469.55  482.65
   2   0  -1    2.10    2.60
  -2   0   1    2.10    4.80
   2   0  -1   -1.00    4.00
  -2   0   1   -1.00    2.70
   2   0   0 1319.17  110.09
  -2   0   0 1208.68  112.79
  -2   0   0 1350.66  109.99
  -2   0  -1   -0.80    2.10
   2   0   1    0.00    1.70
  -2   0  -1    0.60    1.90
  -2   0  -2  264.67   27.40
   2   0   2  264.67   28.20
  -2   0  -3   -6.60    9.90
   2   0   3   -1.20    4.40
  -2   0  -3    2.00    3.00
   2   0   4 4443.66  388.16
  -2   0  -4 4559.94  387.86
  -2   0  -5    0.30    4.70
  -2   0  -6  153.48   24.90
  -2   0  -7   -2.40    7.00
  -2   0  -8 2202.58  205.38
  -2   0  -9   30.40   16.40
   2   1  -9  -11.30   10.60
   2  -1  -9   -7.70    5.40
   2  -1  -9   -3.50   10.50
   2   1  -8   29.50    6.90
   2   1  -8   35.50   14.40
   2   1  -8   57.29   22.70
   2  -1  -8   35.90    9.70
   2  -1  -8   37.70   16.00
   2   1  -7   27.10   11.90
   2   1  -7   25.90   27.40
   2   1  -7   22.20    5.50
   2  -1  -7   21.80    5.80
   2  -1  -7   19.40   11.80
   2   1  -6  239.98   24.70
   2   1  -6  309.37   43.80
   2   1  -6  248.18   31.90
   2  -1  -6  254.67   34.00
   2  -1  -6  256.47   25.80
  -2  -1   6  291.47   38.10
   2  -1  -6  256.47   43.50
   2   1  -5  139.69   15.10
   2   1  -5  119.79   34.00
   2   1  -5  141.19   26.80
  -2   1   5  129.69   39.10
   2   1  -5  182.98   22.40
   2  -1  -5  152.18   22.70
   2  -1  -5  145.09   29.20
   2  -1  -5  159.38   44.70
  -2  -1   5  132.99   21.10
   2  -1  -5  155.48   16.20
  -2  -1   5  167.18   28.30
   2   1  -4    7.10    4.00
   2   1  -4  -14.80   12.70
  -2   1   4   14.50   15.80
  -2   1   4    3.00    7.70
   2   1  -4   13.50    8.80
  -2  -1   4   -2.70    7.20
   2  -1  -4   20.80   12.20
   2  -1  -4   21.00   20.10
  -2  -1   4    2.60    4.50
   2  -1  -4    5.80    5.20
   2  -1  -4   10.20    3.30
  -2   1   3    7.10   11.10
   2   1  -3    8.50    3.50
   2   1  -3   21.20    9.30
  -2   1   3   22.20   11.10
   2   1  -3   -4.30    9.70
  -2  -1   3    5.50    8.20
   2  -1  -3   12.30    3.20
   2  -1  -3    1.90    9.40
  -2  -1   3   10.10    4.10
   2  -1  -3   23.10   14.90
   2  -1  -3   10.70    4.20
  -2   1   2  491.85   51.19
   2   1  -2  431.96   46.60
   2   1  -2  459.85   50.59
  -2   1   2  440.06   54.49
  -2  -1   2  439.16   47.60
  -2  -1   2  474.95   42.80
   2  -1  -2  511.15   51.69
   2  -1  -2  595.44   56.89
   2  -1  -2  484.95   41.90
   2   1  -1  585.84   52.59
  -2   1   1  531.65   53.99
  -2   1   1  564.74   55.79
  -2  -1   1  514.35   52.79
   2  -1  -1  640.24   54.39
   2   1   0  383.46   43.00
  -2   1   0  416.76   38.10
   2   1   0  445.36   38.60
  -2   1   0  410.96   41.30
  -2  -1   0  392.16   42.50
  -2  -1   0  391.76   37.10
   2  -1   0  460.55   38.00
   2  -1   0  421.66   41.30
  -2  -1   0  464.55   39.20
   2   1   1  820.52   66.89
   2   1   1  696.23   80.39
   2   1   1  768.32   70.09
  -2   1  -1  832.32   68.29
  -2  -1  -1  715.83   68.69
  -2  -1  -1  797.42   67.19
   2  -1   1  816.12   68.49
  -2  -1  -1  590.84   82.49
   2   1   2  923.51   77.59
   2   1   2  884.71   81.99
  -2   1  -2  989.50   81.19
   2  -1   2  870.61   81.29
  -2  -1  -2  881.41   77.89
  -2  -1  -2  815.22   95.89
  -2  -1  -2  903.51   82.09
   2   1   3  464.25   44.50
   2   1   3  414.76   37.30
  -2   1  -3  441.46   42.50
  -2  -1  -3  432.26   43.60
  -2  -1  -3  323.57   55.69
   2  -1   3  373.56   42.70
  -2  -1  -3  429.26   37.80
   2   1   4  859.01   75.29
  -2   1  -4  984.20   83.49
   2   1   4  932.31   84.69
  -2  -1  -4  689.13  101.59
  -2  -1  -4  852.11   83.99
  -2  -1  -4  894.01   76.09
   2  -1   4  787.72   82.89
  -2   1  -5  274.07   33.40
   2   1   5  262.97   25.10
  -2  -1  -5  317.47   36.40
  -2  -1  -5  216.18   34.20
  -2  -1  -5  270.37   26.10
  -2   1  -6 1564.04  137.19
  -2  -1  -6 1507.65  126.69
  -2  -1  -6 1475.75  138.59
  -2  -1  -6 1262.57  135.39
  -2   1  -7   -3.10    7.30
  -2  -1  -7  -13.90   18.90
  -2  -1  -7    2.10    7.20
  -2   1  -8   -8.00    9.40
  -2  -1  -8    1.30   10.30
  -2   1  -9   11.00   12.80
  -2  -1  -9   -7.70   14.50
   2   2  -9   -9.70   10.00
   2  -2  -9   13.40   16.90
   2  -2  -9    4.80    6.30
   2   2  -8    2.20    7.60
   2  -2  -8   -0.30    4.20
   2  -2  -8   12.40   11.90
   2   2  -7   15.20    8.40
   2  -2  -7   17.00    9.70
   2  -2  -7   19.30    6.40
  -2   2   6   45.90   31.00
   2   2  -6   33.40    5.90
   2   2  -6   40.80   11.40
   2   2  -6   37.10   13.30
   2  -2  -6   16.40    8.40
   2  -2  -6   43.80    8.50
  -2  -2   6   22.70   14.20
   2   2  -5  115.79   15.50
   2   2  -5  107.49   19.20
   2   2  -5   61.69   25.30
  -2   2   5  109.69   31.70
   2  -2  -5   81.09   11.30
  -2  -2   5   72.59   15.10
   2  -2  -5   97.29   26.50
  -2  -2   5   88.99   20.50
   2  -2  -5   86.19   18.30
  -2   2   4   40.40   19.80
   2   2  -4   37.80    8.40
   2   2  -4   50.19   12.10
   2  -2  -4   40.10   10.20
  -2  -2   4   46.80   14.10
   2  -2  -4   40.60    7.60
   2  -2  -4   55.29   19.70
  -2  -2   4   40.50    9.70
   2  -2  -4   50.49   25.70
   2   2  -3 1355.16  112.29
  -2   2   3 1070.09  127.09
   2   2  -3 1344.57  108.99
   2  -2  -3 1294.47  121.39
  -2  -2   3 1133.49  109.29
   2  -2  -3 1245.08  107.89
   2  -2  -3 1520.55  135.59
  -2  -2   3 1110.19  113.59
  -2   2   2 2251.67  236.88
   2   2  -2 2740.33  224.38
   2   2  -2 2878.51  227.88
  -2   2   2 2654.73  224.58
   2  -2  -2 2696.93  235.98
   2  -2  -2 2597.34  224.58
   2  -2  -2 3058.09  241.58
  -2  -2   2 2440.06  229.08
  -2  -2   2 2584.84  224.78
   2   2  -1 3252.67  297.07
   2   2  -1 3678.73  298.27
  -2   2   1 3281.57  303.37
  -2   2   1 3484.65  296.17
  -2   2   1 4053.79  307.27
  -2  -2   1 3362.86  298.97
   2  -2  -1 3936.81  304.17
   2  -2  -1 3532.15  305.17
   2  -2  -1 3276.77  296.07
  -2  -2   1 3435.56  295.87
   2   2   0 1735.43  169.48
   2   2   0 1992.50  163.18
  -2   2   0 1937.41  165.38
  -2  -2   0 2015.50  168.78
  -2  -2   0 1816.12  163.48
   2  -2   0 1793.22  161.58
   2  -2   0 2101.99  164.98
  -2   2  -1   71.69    9.70
   2   2   1   70.39    8.40
   2   2   1   64.79   20.20
  -2  -2  -1   40.80   16.10
  -2  -2  -1   74.69    8.90
   2  -2   1   77.69    9.50
   2  -2   1   62.79    6.80
  -2   2  -2  989.80   81.99
   2   2   2  895.51   79.19
   2   2   2  912.51  104.29
  -2  -2  -2  889.11   83.39
  -2  -2  -2  938.51  103.49
   2  -2   2  870.21   81.89
  -2  -2  -2  902.51   79.59
   2   2   3  222.48   50.09
   2   2   3  162.38   16.60
  -2   2  -3  183.18   20.40
   2  -2   3  134.79   19.90
  -2  -2  -3  159.28   21.70
  -2  -2  -3  156.08   16.90
  -2  -2  -3  155.68   39.40
   2   2   4    1.80    2.10
  -2   2  -4    3.20    4.20
  -2  -2  -4    3.00    3.20
   2  -2   4    8.30    5.40
  -2   2  -5  109.69   19.90
   2   2   5  105.59   13.00
  -2  -2  -5  100.19   20.70
  -2  -2  -5  114.69   13.50
  -2   2  -6   17.60    8.60
   2   2   6    2.70    3.70
  -2  -2  -6   12.80    5.10
  -2  -2  -6  -17.20   14.70
  -2  -2  -6   -1.40    8.20
  -2   2  -7  130.69   26.80
  -2  -2  -7  170.18   19.40
  -2  -2  -7  124.09   26.70
  -2   2  -8  218.88   35.20
  -2  -2  -8  216.08   25.90
  -2   2  -9   11.70   14.20
  -2  -2  -9  -12.10   13.70
   2   3  -9   63.79   19.70
   2  -3  -9  102.49   17.60
   2   3  -8   -3.20    7.10
   2  -3  -8   14.20   11.70
   2  -3  -8    2.40    4.90
   2   3  -7    8.00    8.10
  -2   3   7    5.30   30.90
   2  -3  -7   15.00    8.50
   2  -3  -7   15.30    5.60
   2   3  -6  898.31   81.59
  -2   3   6  868.51  120.09
   2  -3  -6  825.72   87.39
   2  -3  -6  835.62   77.69
  -2   3   5    1.20   16.70
   2   3  -5    8.90    7.20
   2  -3  -5   11.40    4.40
   2  -3  -5    7.30    7.00
  -2  -3   5    3.80    6.90
  -2  -3   5   11.40   11.40
  -2   3   4 1151.38  149.39
  -2   3   4 1487.65  124.89
   2   3  -4 1549.45  126.59
   2   3  -4 1616.14  127.69
   2  -3  -4 1657.23  163.48
  -2  -3   4 1182.48  130.39
  -2  -3   4 1304.67  127.29
   2  -3  -4 1490.05  142.49
   2  -3  -4 1478.25  125.29
  -2   3   3  123.29   34.50
   2   3  -3  155.78   17.80
  -2   3   3  185.98   18.00
   2   3  -3  171.78   19.50
   2  -3  -3  202.98   41.90
   2  -3  -3  188.28   34.70
   2  -3  -3  169.28   17.90
  -2  -3   3  140.29   22.00
  -2  -3   3  161.68   18.90
   2   3  -2  533.45   49.80
  -2   3   2  542.95   49.10
  -2   3   2  493.65   62.69
   2   3  -2  550.84   50.29
   2  -3  -2  580.54   61.59
   2  -3  -2  506.75   49.10
  -2  -3   2  549.85   52.99
   2  -3  -2  708.23   67.59
  -2  -3   2  555.34   49.10
  -2   3   1   43.10    6.20
   2   3  -1   52.39    7.60
   2   3  -1   27.60    7.80
  -2   3   1   49.10   14.20
   2  -3  -1   59.99   14.20
   2  -3  -1   53.99   14.20
   2  -3  -1   45.80    6.30
  -2  -3   1   35.50    7.70
  -2  -3   1   48.10    9.10
  -2   3   0   87.29   14.30
   2   3   0   76.29   10.70
   2   3   0   77.79   17.20
  -2   3   0  105.69   10.30
  -2  -3   0  114.19   17.50
   2  -3   0   89.99   10.00
  -2  -3   0   94.89   12.00
   2  -3   0  104.29   13.80
   2  -3   0   94.79   18.50
  -2   3  -1   34.10    4.60
   2   3   1   31.00   13.80
  -2   3  -1   29.10    7.70
   2   3   1   40.50    6.80
  -2  -3  -1   34.30   16.30
  -2  -3  -1   29.20    6.50
   2  -3   1   36.20    5.00
   2  -3   1   42.60    9.60
   2  -3   1   29.00    6.60
   2   3   2 2206.28  239.98
   2   3   2 2462.25  216.08
  -2   3  -2 2571.04  218.88
  -2  -3  -2 2524.35  216.78
   2  -3   2 2604.14  218.78
  -2  -3  -2 2902.71  246.28
   2   3   3   46.50    7.90
  -2   3  -3   38.80    9.10
   2  -3   3   30.80    8.30
  -2  -3  -3   34.70    7.10
  -2  -3  -3   37.80   14.20
  -2  -3  -3   43.90   22.00
   2   3   4 1672.63  142.09
   2   3   4 1458.95  182.18
  -2   3  -4 1758.32  146.99
  -2  -3  -4 1553.84  150.28
  -2  -3  -4 1649.33  143.39
   2   3   5   28.50    7.00
  -2   3  -5   29.70   14.20
   2   3   5  112.99   41.90
  -2  -3  -5   40.70    8.60
  -2  -3  -5   37.20   11.90
  -2   3  -6   -2.90    6.30
  -2  -3  -6    1.10    4.20
  -2  -3  -6   -2.20   12.20
  -2   3  -7    1.90    7.40
  -2  -3  -7    3.40    8.70
  -2   3  -8  105.49   25.10
  -2  -3  -8  139.89   30.90
  -2  -3  -8  129.79   19.80
   2   4  -9   29.70   14.90
   2  -4  -9   25.30   10.00
   2  -4  -9    1.30   15.10
   2   4  -8    5.20    7.90
   2  -4  -8    2.70    5.20
   2  -4  -8    1.60   11.30
   2   4  -7  509.85   50.69
  -2   4   7  426.76   97.79
   2  -4  -7  463.95   46.80
   2  -4  -7  421.76   57.59
   2   4  -6   36.60    9.80
  -2   4   6    3.60   17.20
   2  -4  -6   47.20   15.00
   2  -4  -6   60.69   11.30
  -2   4   5  631.64  104.19
   2   4  -5  885.21   76.49
   2   4  -5  911.71   74.49
   2  -4  -5  808.12   74.79
  -2  -4   5  700.03   77.29
   2   4  -4 1427.16  119.49
   2   4  -4 1424.06  118.19
  -2  -4   4 1259.97  119.99
   2  -4  -4 1382.06  118.39
  -2  -4   4 1188.08  123.79
  -2   4   3  940.81  117.69
   2   4  -3 1207.88   97.69
  -2   4   3 1115.19   97.09
   2   4  -3 1043.70   98.09
   2  -4  -3 1094.19   97.29
  -2  -4   3 1110.39  102.59
  -2  -4   3 1127.19   98.19
   2  -4  -3 1098.49  112.79
  -2   4   2  124.69   29.20
   2   4  -2  133.99   15.90
   2   4  -2  133.89   17.20
  -2  -4   2  145.29   18.70
  -2  -4   2  145.49   15.90
   2  -4  -2  127.09   15.30
   2   4  -1   39.30    7.60
   2   4  -1   32.40    9.30
  -2   4   1   41.40    7.50
  -2   4   1   22.90   10.40
   2  -4  -1   41.70   11.70
  -2  -4   1   41.40    8.90
   2  -4  -1   40.20    7.30
  -2  -4   1   30.70    7.20
   2   4   0 4192.48  354.66
  -2   4   0 4146.89  353.56
   2   4   0 3734.63  364.76
  -2   4   0 4176.58  362.06
   2  -4   0 4089.29  353.76
  -2  -4   0 4142.69  355.66
   2  -4   0 4823.42  360.76
  -2   4  -1  888.81   80.39
   2   4   1  847.12   99.09
   2   4   1  954.40   82.39
  -2   4  -1  913.01   86.59
   2  -4   1  962.60   84.79
   2  -4   1  906.81   80.69
  -2  -4  -1 1047.70   99.39
  -2  -4  -1  955.90   83.19
   2   4   2  897.21   75.29
  -2   4  -2  827.62   78.29
   2   4   2  673.03   94.89
   2  -4   2  810.42   72.69
  -2  -4  -2  851.91   75.69
   2  -4   2  892.61   78.39
   2   4   3 1225.28  109.89
   2   4   3 1032.60  137.99
  -2   4  -3 1271.47  113.59
  -2  -4  -3 1385.76  118.29
   2  -4   3 1187.88  113.39
  -2  -4  -3 1608.04  152.58
  -2  -4  -3 1213.98  110.49
   2   4   4   23.50   19.90
  -2   4  -4   41.20   10.80
  -2  -4  -4   43.40   13.10
  -2  -4  -4   32.80    8.20
  -2   4  -5  667.13   66.59
   2   4   5  668.63  105.79
  -2  -4  -5  655.43   62.49
  -2  -4  -5  683.83   72.69
  -2   4  -6  362.96   42.70
   2   4   6  332.97   83.89
  -2  -4  -6  365.96   37.20
  -2  -4  -6  342.67   46.40
  -2   4  -7   45.30   14.20
  -2  -4  -7   37.50   17.00
  -2  -4  -7   38.10   10.20
  -2   4  -8    3.60   10.50
  -2  -4  -8    3.60   24.00
  -2  -4  -8    2.30    6.90
   2   5  -8   41.10   13.90
  -2   5   8   84.69   42.00
   2  -5  -8   25.00   11.20
   2  -5  -8   34.40   19.90
   2   5  -7   27.60   12.40
  -2   5   7   74.09   41.70
   2  -5  -7   65.39   12.90
   2  -5  -7   68.49   21.40
  -2   5   6   17.70   28.50
   2  -5  -6    2.20    8.50
   2  -5  -6   10.10    6.30
   2   5  -5   48.50   11.30
   2   5  -5   45.80    9.90
  -2   5   5   83.69   35.00
  -2  -5   5   62.79   17.90
   2  -5  -5   45.50   10.50
   2   5  -4  104.09   13.30
   2   5  -4   74.59   16.90
  -2   5   4   98.09   34.40
  -2  -5   4   79.59   14.80
  -2  -5   4   96.89   21.20
   2   5  -3  801.72   75.89
   2   5  -3  879.91   72.89
  -2   5   3  736.43   94.89
   2  -5  -3  775.72   73.19
  -2  -5   3  771.32   73.49
  -2  -5   3  822.62   78.29
  -2   5   2  130.39   33.20
  -2   5   2  200.38   20.90
   2   5  -2  190.68   20.90
   2   5  -2  182.08   25.20
   2  -5  -2  278.47   39.30
   2  -5  -2  193.78   21.10
  -2  -5   2  171.68   21.50
   2  -5  -2  243.98   40.00
  -2  -5   2  203.78   24.00
  -2   5   1 1534.95  124.89
   2   5  -1 1294.57  132.39
  -2   5   1 1289.47  137.79
   2  -5  -1 1426.66  125.09
  -2  -5   1 1570.44  128.69
  -2  -5   1 1425.06  126.89
   2   5   0   13.10    4.90
  -2   5   0   15.10    4.10
   2   5   0    8.90    8.80
  -2  -5   0   17.30    8.00
   2  -5   0   13.00    6.40
   2  -5   0   11.60    3.90
  -2  -5   0   11.10    5.40
   2   5   1  879.21   78.19
  -2   5  -1  862.81   76.29
   2   5   1  750.52   94.39
  -2   5  -1  852.31   85.59
   2  -5   1  845.12   76.59
   2  -5   1  981.00   82.29
  -2  -5  -1  883.71   79.29
  -2   5  -2  552.54   56.09
   2   5   2  470.65   73.69
  -2   5  -2  539.65   48.50
   2  -5   2  534.65   49.20
  -2  -5  -2  532.05   51.99
  -2  -5  -2  737.23   80.89
   2  -5   2  556.04   53.79
  -2   5  -3  165.28   23.00
   2   5   3  133.99   39.30
  -2  -5  -3  163.68   19.90
   2   5   4  187.78   53.49
  -2   5  -4  297.67   42.80
  -2  -5  -4  269.87   36.50
   2   5   5   50.59   30.70
  -2   5  -5   27.10    9.90
  -2  -5  -5   47.40   10.60
  -2  -5  -5   44.30   16.00
   2   5   6  145.39   51.99
  -2   5  -6  159.68   24.70
  -2  -5  -6  114.29   26.40
  -2  -5  -6  119.09   18.60
  -2   5  -7   90.79   21.30
  -2  -5  -7   82.49   23.40
  -2  -5  -7  150.88   20.40
  -2   5  -8  -16.20   10.80
  -2  -5  -8   21.20    9.70
  -2  -5  -8    0.10   15.10
  -2   6   8    2.30   42.70
   2   6  -8   -9.90    9.40
   2  -6  -8   -1.80    6.90
   2  -6  -8  -17.00   11.50
  -2   6   7  184.28   64.49
   2  -6  -7  319.87   48.90
   2  -6  -7  334.47   36.30
   2   6  -6   -0.10    6.60
  -2   6   6  -18.40   25.00
   2  -6  -6    1.80    5.70
   2   6  -5  342.07   36.10
  -2   6   5  296.67   74.99
   2   6  -5  280.47   29.60
  -2  -6   5  216.58   41.20
   2  -6  -5  266.27   33.80
   2   6  -4    1.80    5.20
   2   6  -4    2.20    6.90
  -2   6   4  -13.90   19.10
  -2  -6   4  -12.40   10.60
  -2  -6   4    9.50    7.00
   2  -6  -4   15.80    6.20
   2   6  -3  766.02   82.89
  -2   6   3  615.84   96.09
   2   6  -3  880.71   74.89
  -2  -6   3  918.91   85.39
   2  -6  -3  800.72   75.69
  -2  -6   3  854.41   76.69
   2   6  -2  128.69   25.20
  -2   6   2  165.88   35.40
   2   6  -2  189.08   20.20
  -2  -6   2  185.58   22.20
  -2  -6   2  157.48   22.80
   2  -6  -2  168.38   20.10
   2   6  -1  493.25   63.59
  -2   6   1  518.15   68.19
   2   6  -1  605.04   54.89
   2  -6  -1  606.74   54.79
  -2  -6   1  599.74   56.99
  -2  -6   1  623.94   61.69
  -2   6   0  336.77   49.30
  -2   6   0  417.46   39.30
  -2  -6   0  509.85   51.39
  -2  -6   0  409.16   42.00
   2  -6   0  409.36   39.70
  -2   6  -1  254.67   35.90
   2   6   1  234.38   47.60
  -2   6  -1  260.57   26.80
  -2  -6  -1  319.77   45.20
  -2  -6  -1  268.67   29.70
   2  -6   1  291.17   27.70
  -2   6  -2   -4.00    4.90
  -2   6  -2    2.10    3.00
   2   6   2   15.70   18.30
   2  -6   2    5.80    3.50
  -2  -6  -2    5.70    4.70
   2   6   3  874.51  125.79
  -2  -6  -3 1126.29   96.99
  -2   6  -4   89.39   19.20
   2   6   4   34.20   29.70
  -2  -6  -4  127.19   17.80
  -2  -6  -4  148.89   27.70
   2   6   5  144.39   55.59
  -2   6  -5  266.27   39.60
  -2  -6  -5  299.97   41.20
  -2  -6  -5  266.17   39.80
   2   6   6   18.80   32.80
  -2   6  -6   54.49   14.80
  -2  -6  -6   42.30   17.00
  -2  -6  -6   48.40   12.90
   2   6   7  226.08   87.59
  -2   6  -7  208.98   34.40
  -2  -6  -7  182.38   42.00
  -2  -6  -7  250.07   30.40
   2   7  -7   26.90   13.60
   2  -7  -7   13.10   10.20
  -2   7   6  445.26  100.89
   2   7  -6  539.55   60.79
   2  -7  -6  574.84   56.49
   2   7  -5   -6.90    6.50
   2   7  -5  -15.60    8.30
  -2   7   5  -22.60   20.30
   2  -7  -5   -4.00    4.90
  -2  -7   5    7.50   17.10
   2   7  -4  114.99   22.60
  -2   7   4  130.39   42.40
  -2  -7   4  127.09   27.10
   2  -7  -4  133.39   18.80
   2   7  -3  609.64   67.89
  -2   7   3  495.85   82.29
   2  -7  -3  716.33   62.59
  -2  -7   3  652.53   66.29
   2   7  -2  949.60  100.19
  -2   7   2  864.41  110.39
  -2  -7   2 1058.59   94.29
   2  -7  -2 1037.20   91.09
  -2   7   1 3301.47  318.07
   2   7  -1 3145.89  311.37
  -2  -7   1 3917.41  302.07
   2   7   0   23.80   15.10
  -2   7   0   36.20   16.60
   2  -7   0   42.40    8.80
   2   7   1  -11.00   12.60
  -2   7  -1   -3.90    9.50
   2  -7   1   -0.20    4.20
  -2  -7  -1   -0.90    4.30
  -2   7  -2   23.90    6.00
  -2   7  -2   24.10   12.00
   2   7   2   36.60   23.00
   2  -7   2   29.90    8.00
  -2  -7  -2   34.40   10.20
  -2   7  -3   55.39   10.30
  -2   7  -3   39.60   14.80
   2   7   3   16.90   25.80
  -2  -7  -3   68.49   13.90
   2  -7   3   64.29   11.90
  -2   7  -4   24.40   11.40
   2   7   4    3.70   25.40
  -2  -7  -4   -4.80    5.40
   2   7   5   54.69   35.30
  -2   7  -5   54.69   16.70
  -2  -7  -5   37.40   12.20
  -2  -7  -5   28.60   15.60
  -2   7  -6   -3.80   11.30
   2   7   6  -15.90   32.50
  -2  -7  -6   22.40    9.20
  -2  -7  -6   19.90   15.90
  -2   7  -7   59.39   21.10
   2   7   7   60.49   49.30
  -2  -7  -7   78.89   24.50
  -2  -7  -7  103.29   20.00
   2   8  -7  168.28   33.10
  -2   8   7   85.59   61.29
   2  -8  -7  274.27   31.80
   2  -8  -7  226.28   45.20
   2   8  -6   21.50   16.00
  -2   8   6   -1.90   39.90
   2  -8  -6   39.30   11.80
  -2   8   5  112.29   48.90
   2   8  -5   57.39   19.50
   2  -8  -5  106.69   19.10
  -2  -8   5  122.49   33.30
  -2   8   4  310.57   72.19
   2   8  -4  492.75   55.49
  -2  -8   4  357.86   58.69
   2  -8  -4  464.95   46.70
  -2   8   3  307.87   66.89
   2   8  -3  347.77   51.09
  -2  -8   3  349.67   43.90
   2  -8  -3  358.56   38.30
  -2   8   2  280.37   79.69
   2   8  -2  267.77   53.99
   2  -8  -2  400.96   39.00
  -2  -8   2  359.66   41.30
  -2   8   1   33.50   19.20
   2  -8  -1   41.40   10.20
  -2  -8   1   45.20   12.30
   2   8   0   94.99   27.60
  -2   8   0   65.19   23.00
   2  -8   0   93.59   14.20
  -2  -8   0   80.19   16.40
  -2   8  -1  278.97   46.50
   2   8   1  304.77   58.89
  -2  -8  -1  336.87   37.50
   2  -8   1  336.57   35.90
   2   8   2  191.58   56.99
  -2   8  -2  268.07   40.50
   2  -8   2  220.28   27.00
  -2  -8  -2  249.68   30.10
  -2   8  -3  222.68   24.40
  -2   8  -3  135.49   35.40
   2   8   3  125.49   50.19
  -2  -8  -3  240.68   28.10
   2  -8   3  198.28   25.60
  -2   8  -4  153.98   31.00
   2   8   4  108.29   50.39
  -2  -8  -4  170.38   24.40
   2   8   5  -41.70   31.40
  -2   8  -5   38.30   16.00
  -2  -8  -5   35.80   17.60
  -2  -8  -5   30.50   13.10
   2   8   6   32.60   38.40
  -2   8  -6   10.10   15.60
  -2  -8  -6   -5.40    9.30
  -2  -8  -6   12.20   17.00
   2   9  -6   92.29   26.10
  -2   9   6  108.69   54.39
   2  -9  -6  124.79   22.60
  -2   9   5   49.99   47.40
   2   9  -5   35.20   17.70
   2  -9  -5   42.60   13.00
  -2  -9   5   62.49   26.90
   2   9  -4  -19.00   14.90
  -2   9   4  -11.70   29.60
  -2  -9   4  -17.00   16.00
   2  -9  -4    0.40    6.30
  -2   9   3  215.58   56.69
   2   9  -3  195.88   41.30
   2  -9  -3  281.47   32.10
  -2  -9   3  286.77   38.20
  -2   9   2   16.10   20.50
   2   9  -2    4.90   17.10
   2  -9  -2   11.70    7.20
  -2  -9   2   12.50   11.80
  -2   9   1   24.80   22.00
   2   9  -1  -23.50   17.20
   2  -9  -1   21.90    9.20
  -2  -9   1   -3.00   13.20
   2   9   0    0.60   18.80
  -2   9   0   12.70   17.20
  -2  -9   0   -6.00    6.90
   2  -9   0   -4.20    5.80
  -2   9  -1    0.20   16.50
   2  -9   1   19.10    8.30
  -2  -9  -1   21.30    8.70
   2   9   2   43.20   32.30
  -2   9  -2   59.99   20.90
  -2  -9  -2   87.99   18.70
   2  -9   2   81.69   16.00
   2   9   3   10.80   27.80
  -2   9  -3   -8.00   15.30
  -2  -9  -3    0.40    8.80
   2  -9   3   11.20   11.40
   2   9   4   72.59   54.89
  -2   9  -4  112.99   32.00
  -2  -9  -4  105.39   21.30
  -2   9  -5  -22.90   16.60
  -2  -9  -5    4.60    9.10
   2  10  -5   63.39   28.00
  -2  10   5   62.29   47.50
   2 -10  -5   75.99   17.50
   2  10  -4  -11.30   19.70
  -2  10   4  -25.80   30.00
   2 -10  -4   15.40    8.70
  -2 -10   4   19.30   23.50
  -2  10   3  -19.80   27.30
   2  10  -3    6.70   19.30
   2 -10  -3    5.40    9.10
  -2 -10   3  -22.10   14.10
   2  10  -2   37.50   26.70
  -2  10   2   51.09   38.00
   2 -10  -2   96.39   18.80
  -2 -10   2   86.99   20.30
   2  10  -1   31.40   26.60
  -2  10   1   12.40   25.70
  -2 -10   1   29.20   13.40
   2 -10  -1   26.60   10.40
   2  10   0  208.18   53.49
  -2  10   0  145.39   42.20
   2 -10   0  307.87   32.30
  -2 -10   0  262.07   36.00
  -2  10  -1   11.20   25.00
   2  10   1  -35.60   24.00
   2 -10   1   -8.90    8.60
  -2 -10  -1    4.00   10.80
   2  10   2   81.89   44.70
  -2  10  -2   53.29   26.80
   2 -10   2   75.19   19.20
  -2 -10  -2   64.49   17.00
   2  10   3   57.89   41.10
  -2  10  -3   31.70   25.40
  -2 -10  -3   33.20   16.10
   2 -10   3   42.60   16.20
   2  10   4   23.20   39.00
  -2  10  -4    6.20   22.20
  -2 -10  -4  -13.70    9.40
   2 -10   4   16.50   22.00
   2  11  -3   35.70   29.60
  -2  11   3   18.40   38.40
  -2 -11   3  -34.90   21.20
   2 -11  -3   -0.10    9.80
   2  11  -2   24.30   33.00
  -2  11   2   53.99   36.30
   2 -11  -2   16.80   11.70
  -2 -11   2   61.39   21.00
  -2  11   1   25.50   46.90
   2  11  -1   16.90   33.50
   2 -11  -1   75.69   18.20
  -2 -11   1   -7.80   13.50
   2  11   0  -17.80   27.90
   2 -11   0   -0.90   10.00
  -2 -11   0    6.40   13.40
  -2  11  -1  210.78   50.29
   2  11   1  172.48   52.59
  -2 -11  -1  169.18   39.00
   2 -11   1  217.48   30.90
   2  11   2   78.49   53.19
   2 -11   2  137.19   25.80
  -2 -11  -2  201.38   33.80
   3   0  -9  -24.50   11.10
   3   0  -9   -3.90    5.10
   3   0  -8    5.00    4.60
   3   0  -8    5.20   11.10
   3   0  -7   -4.50    2.80
   3   0  -7   -5.60    6.80
   3   0  -6  117.69   29.30
   3   0  -6  116.79   22.50
   3   0  -6  128.79   15.10
  -3   0   6  172.08   33.60
   3   0  -5    6.60   10.30
   3   0  -5   -0.60    2.00
  -3   0   5    1.50    9.70
   3   0  -5    3.10    4.40
   3   0  -5   -1.80   17.70
  -3   0   4  507.15   58.29
   3   0  -4  522.35   51.69
   3   0  -4  495.05   58.39
   3   0  -4  602.24   72.99
   3   0  -3    1.10    2.50
  -3   0   3   -0.90    9.20
   3   0  -3    1.50    9.60
   3   0  -3    5.20    8.40
  -3   0   3    2.10    7.40
   3   0  -2   59.79   14.80
  -3   0   2   57.69   14.90
   3   0  -2   64.09   13.50
  -3   0   2   67.29   16.50
   3   0  -1    1.30    1.70
  -3   0   1   10.00    6.30
   3   0  -1   -4.10    5.70
  -3   0   1   -0.20    2.80
  -3   0   0 5052.99  443.36
   3   0   0 5373.26  439.16
   3   0   1    0.00    1.70
   3   0   1    0.80    2.60
  -3   0  -1   -1.40    1.30
  -3   0  -1   -1.20    3.50
   3   0   2 4806.92  437.26
  -3   0  -2 5426.66  434.06
   3   0   2 5154.58  432.16
  -3   0  -2 5174.38  437.06
  -3   0  -3   -2.80    2.40
  -3   0  -4  503.25   52.59
  -3   0  -6  909.61   91.29
  -3   0  -7   -8.40    7.80
  -3   0  -8    4.20   12.10
  -3   0  -9   -4.30   13.80
   3   1  -9   27.90   13.40
   3   1  -9   16.90    7.00
   3  -1  -9   17.90    8.40
   3  -1  -9   -0.50   13.10
   3   1  -8  282.37   28.30
   3   1  -8  271.17   41.60
   3  -1  -8  283.17   29.60
   3  -1  -8  245.88   39.20
   3   1  -7   -4.10   16.80
   3   1  -7    1.90    3.90
   3  -1  -7    2.10    7.60
   3  -1  -7    6.00    3.70
  -3  -1   7   24.50   16.70
   3   1  -6  170.58   17.40
   3   1  -6  144.69   23.00
   3   1  -6  159.88   31.50
   3  -1  -6  195.38   27.10
  -3  -1   6  240.58   33.90
   3  -1  -6  140.39   17.80
  -3   1   5   37.10   16.30
   3   1  -5   29.70   21.20
  -3   1   5   70.69   28.80
   3   1  -5   42.00   11.10
   3   1  -5   46.20   19.30
  -3  -1   5   45.50   17.00
   3  -1  -5   59.59   29.90
   3  -1  -5   81.19   22.00
   3  -1  -5   45.00   11.20
   3  -1  -5   49.90    8.70
   3   1  -4 2252.97  209.58
  -3   1   4 2201.28  226.78
  -3   1   4 2628.84  216.78
   3   1  -4 2359.06  203.68
   3   1  -4 2326.57  222.38
   3  -1  -4 2305.57  205.38
   3  -1  -4 2712.83  231.88
  -3  -1   4 2078.59  209.68
   3  -1  -4 2306.17  199.98
   3  -1  -4 2487.45  216.48
   3   1  -3   45.70    8.00
  -3   1   3   53.79   16.60
   3   1  -3   50.39   12.50
   3   1  -3   27.90   14.80
  -3   1   3   61.99   16.90
   3  -1  -3   37.90   16.90
   3  -1  -3   43.00    6.20
  -3  -1   3   42.50   13.70
   3  -1  -3   38.70   14.40
   3   1  -2  170.98   16.40
   3   1  -2  189.78   23.70
  -3   1   2  155.38   25.50
  -3   1   2  166.18   27.50
  -3  -1   2  160.88   24.40
   3  -1  -2  198.18   26.60
   3  -1  -2  164.88   28.80
  -3   1   1 1460.85  133.09
   3   1  -1 1540.25  134.29
  -3   1   1 1447.06  136.79
  -3  -1   1 1433.46  134.89
   3  -1  -1 1498.15  137.69
   3  -1  -1 1706.63  132.59
   3   1   0  177.98   18.20
  -3   1   0  143.39   19.90
  -3   1   0  157.18   15.80
   3   1   0  149.19   15.20
  -3  -1   0  134.59   21.40
   3  -1   0  158.18   16.60
   3  -1   0  124.09   19.70
  -3  -1   0  140.79   14.80
  -3  -1   0  146.49   18.50
   3   1   1 1330.37  124.59
  -3   1  -1 1467.85  123.99
   3   1   1 1485.65  123.09
  -3   1  -1 1333.57  125.39
  -3  -1  -1 1391.26  124.69
   3  -1   1 1485.75  124.49
  -3  -1  -1 1527.75  124.39
   3   1   2 1102.29   99.89
  -3   1  -2 1222.38   98.99
   3   1   2 1128.09   95.09
  -3  -1  -2 1109.59   99.89
   3  -1   2 1068.39   99.29
  -3  -1  -2 1136.49   96.19
  -3  -1  -2  874.51  110.99
  -3   1  -3  213.38   23.80
   3   1   3  201.18   27.80
   3   1   3  190.58   18.70
  -3  -1  -3  128.69   36.70
  -3  -1  -3  188.48   24.60
  -3  -1  -3  197.48   19.70
   3   1   4    3.20    2.40
  -3   1  -4    5.20    5.00
  -3  -1  -4    9.30    3.50
  -3  -1  -4    6.90    5.00
  -3   1  -5  297.57   38.00
   3   1   5  265.97   25.40
  -3  -1  -5  261.07   35.10
  -3  -1  -5  267.27   35.00
  -3   1  -6  963.90   93.49
  -3  -1  -6  911.81   94.69
  -3   1  -7  104.39   20.50
  -3  -1  -7   98.29   22.00
  -3   1  -8  602.14   65.59
  -3  -1  -8  472.55   64.09
  -3   1  -9   -7.80   13.30
  -3  -1  -9   -2.80   14.20
   3   2  -9   34.60   14.50
   3  -2  -9   25.20   20.20
   3  -2  -9   54.29   12.10
   3   2  -8   -2.90    4.10
   3   2  -8    1.10    7.60
   3  -2  -8   15.00   12.30
   3  -2  -8    1.90    5.50
   3   2  -7   82.09   21.90
   3   2  -7   72.89   16.10
  -3  -2   7  101.89   37.40
   3  -2  -7   65.99   12.00
   3  -2  -7   62.49   18.20
   3   2  -6  175.38   28.90
   3   2  -6  174.98   46.00
   3   2  -6  178.88   23.10
   3  -2  -6  154.48   18.70
  -3  -2   6  168.38   32.60
  -3   2   5 1210.08  157.68
   3   2  -5 1430.36  134.79
   3   2  -5 1559.24  130.49
  -3  -2   5 1408.16  137.39
   3  -2  -5 1513.25  127.19
   3  -2  -5 1566.54  135.59
  -3  -2   5 1388.06  130.69
  -3   2   4   53.09   21.10
   3   2  -4   66.39   19.90
   3   2  -4   63.89   15.70
  -3   2   4  109.79   25.80
   3   2  -4   72.89   10.90
  -3  -2   4   88.89   20.30
   3  -2  -4  141.09   28.20
  -3  -2   4   57.49   11.60
   3  -2  -4   75.49   10.10
   3   2  -3  719.63   67.69
   3   2  -3  729.13   61.99
  -3   2   3  637.74   79.79
  -3   2   3  879.71   79.49
  -3  -2   3  617.54   69.59
   3  -2  -3  681.43   61.89
   3  -2  -3  706.13   77.39
   3  -2  -3  887.71   84.69
  -3  -2   3  622.54   62.39
  -3   2   2  425.46   53.39
  -3   2   2  498.45   54.99
   3   2  -2  508.35   48.00
   3  -2  -2  596.94   55.79
  -3  -2   2  447.66   49.50
   3  -2  -2  447.56   43.10
   3  -2  -2  527.35   56.59
   3   2  -1  210.28   22.00
  -3   2   1  189.18   24.40
  -3   2   1  216.28   28.40
   3  -2  -1  172.08   18.40
   3  -2  -1  217.28   25.40
   3  -2  -1  220.78   29.10
  -3  -2   1  199.68   23.50
   3   2   0 1913.91  179.88
  -3   2   0 2040.40  172.48
   3   2   0 2052.59  171.08
  -3   2   0 1929.11  176.38
  -3  -2   0 2085.19  178.08
   3  -2   0 1971.90  176.68
   3  -2   0 2062.49  171.38
  -3  -2   0 1998.80  172.08
   3  -2   0 1881.31  168.48
   3   2   1   47.60    6.90
   3   2   1   36.50   16.20
  -3   2  -1   36.00    9.60
  -3   2  -1   51.49    8.10
  -3  -2  -1   40.70    7.50
  -3  -2  -1   33.20   14.20
   3  -2   1   60.89   11.60
  -3  -2  -1   33.70    7.80
   3  -2   1   40.20    4.90
   3  -2   1   57.79    8.20
   3   2   2  583.34   52.89
   3   2   2  527.05   77.19
  -3   2  -2  642.34   55.99
   3  -2   2  596.64   56.29
  -3  -2  -2  579.44   57.29
  -3  -2  -2  595.04   53.89
  -3  -2  -2  574.04   75.09
  -3   2  -3    1.10    3.10
   3   2   3    2.10    2.30
   3  -2   3    1.50    4.20
  -3  -2  -3    3.70    3.10
  -3  -2  -3    7.70   17.70
  -3  -2  -3    3.20    3.10
   3   2   4    5.00    2.90
  -3   2  -4    8.80    4.70
  -3  -2  -4    6.20    4.20
  -3  -2  -4    2.10    4.30
  -3   2  -5  318.87   36.30
  -3  -2  -5  276.27   37.80
  -3  -2  -5  300.37   30.40
  -3   2  -6   87.79   20.00
   3   2   6  123.59   14.40
  -3  -2  -6  115.39   27.90
  -3  -2  -6  131.19   28.50
  -3  -2  -6  137.09   16.70
  -3   2  -7  107.59   22.00
  -3  -2  -7  136.79   17.90
  -3  -2  -7   76.29   36.60
  -3  -2  -7  106.69   24.20
  -3   2  -8   96.59   21.30
  -3  -2  -8   88.49   16.00
  -3  -2  -8   59.99   20.60
   3   3  -9   11.10   13.50
   3  -3  -9   40.50   10.60
   3  -3  -9   18.90   18.50
   3   3  -8   20.10    9.70
   3  -3  -8    7.70   12.40
   3  -3  -8    0.20    5.00
   3   3  -7  192.68   26.20
   3   3  -7  147.79   23.70
  -3   3   7  104.49   75.99
  -3  -3   7  179.48   30.40
   3  -3  -7  154.58   19.90
   3  -3  -7  124.99   33.60
   3   3  -6   38.10    9.40
   3   3  -6   18.20   11.80
  -3   3   6   26.70   27.20
   3  -3  -6   49.99    9.60
  -3  -3   6   24.60   17.20
   3  -3  -6   25.00   10.40
   3   3  -5  362.26   33.60
  -3   3   5  203.98   56.89
   3   3  -5  367.96   36.90
  -3  -3   5  265.57   34.40
  -3  -3   5  305.97   42.20
   3  -3  -5  306.47   31.50
   3   3  -4   65.09   13.70
  -3   3   4   71.69   28.60
   3   3  -4   68.09    9.80
  -3  -3   4   60.79   18.00
   3  -3  -4   60.39   10.60
   3  -3  -4   69.69   25.40
   3  -3  -4  104.99   30.50
  -3  -3   4   43.40   10.20
   3   3  -3  330.57   30.80
  -3   3   3  290.97   52.99
   3   3  -3  345.17   34.80
  -3  -3   3  286.07   31.10
  -3  -3   3  281.57   37.70
   3  -3  -3  382.96   51.69
   3  -3  -3  333.87   46.70
   3  -3  -3  356.16   31.50
  -3   3   2 1483.55  153.38
   3   3  -2 1746.23  143.39
   3   3  -2 1538.75  140.59
  -3   3   2 1708.73  140.49
  -3  -3   2 1682.33  139.69
   3  -3  -2 1609.94  140.39
   3  -3  -2 1645.54  154.28
  -3  -3   2 1625.44  146.29
  -3   3   1 2420.26  229.18
  -3   3   1 2635.24  220.68
   3   3  -1 2433.36  225.18
   3   3  -1 2830.02  223.28
  -3  -3   1 2693.53  221.68
  -3  -3   1 2543.65  224.58
   3  -3  -1 2586.44  220.68
   3  -3  -1 2643.54  232.58
   3   3   0 4454.45  414.96
  -3   3   0 4770.12  402.46
  -3   3   0 4689.83  408.36
   3   3   0 4836.02  404.66
   3  -3   0 4425.56  402.36
  -3  -3   0 5196.38  412.56
   3  -3   0 4474.45  411.36
   3  -3   0 5270.07  407.26
  -3  -3   0 4911.61  405.96
   3   3   1   -6.80    9.50
   3   3   1   -1.40    2.10
  -3   3  -1    1.50    2.60
  -3  -3  -1    3.10    3.00
  -3  -3  -1    4.50    9.60
   3  -3   1    0.60    1.50
   3  -3   1    1.80    3.00
   3  -3   1   -9.20    5.70
   3   3   2   64.19    9.20
  -3   3  -2   75.69   11.40
   3   3   2   20.60   17.10
  -3  -3  -2   57.29   12.60
  -3  -3  -2   97.19   28.80
   3  -3   2   59.99   11.20
  -3  -3  -2   66.49    9.80
   3   3   3  788.22  106.09
  -3   3  -3  835.22   74.39
   3   3   3  745.43   71.69
   3  -3   3  709.13   74.59
  -3  -3  -3  906.31  106.99
  -3  -3  -3  857.81   77.99
  -3  -3  -3  784.52   71.39
   3   3   4  424.76   40.80
  -3   3  -4  449.95   45.70
   3   3   4  470.45   88.89
  -3  -3  -4  438.76   49.30
  -3  -3  -4  416.76   45.30
   3   3   5   27.40    7.20
  -3   3  -5   17.70    7.10
  -3  -3  -5   14.60    9.20
  -3  -3  -5   28.30    7.60
  -3  -3  -6  125.69   16.40
  -3  -3  -6   88.39   22.90
  -3   3  -7    1.80    6.60
  -3  -3  -7   -7.20    9.60
  -3   3  -8   36.30   14.80
  -3  -3  -8   29.20   10.70
   3   4  -9   -3.40   10.60
   3  -4  -9   20.10   10.80
   3  -4  -9    6.00   13.30
  -3   4   8  -24.00   33.80
   3  -4  -8   16.80    6.30
   3  -4  -8  -21.60   10.50
  -3   4   7   17.90   31.40
   3   4  -7   12.40    8.30
   3  -4  -7   10.30   12.90
  -3   4   6  -11.40   20.50
   3   4  -6   -1.00    5.50
  -3  -4   6   30.00   16.10
   3  -4  -6    5.60    4.90
   3  -4  -6   -4.90    6.40
  -3   4   5  468.05   88.49
   3   4  -5  559.84   53.09
   3   4  -5  578.24   53.89
   3  -4  -5  577.94   53.19
  -3  -4   5  456.35   60.69
  -3   4   4   18.10   14.60
   3   4  -4   10.30    5.80
   3   4  -4   11.10    5.10
  -3  -4   4    2.30    4.90
   3  -4  -4   18.60    5.80
  -3  -4   4  -15.40   10.60
  -3   4   3  771.02   67.09
   3   4  -3  803.72   68.99
  -3   4   3  541.85   82.49
   3   4  -3  768.62   67.99
   3  -4  -3  763.92   67.29
  -3  -4   3  687.73   66.69
   3  -4  -3  762.72   84.59
   3  -4  -3 1012.90   94.59
  -3  -4   3  644.04   72.99
  -3   4   2  190.08   19.70
   3   4  -2  171.78   22.10
  -3   4   2  122.49   29.90
   3   4  -2  204.68   21.40
   3  -4  -2  196.88   20.00
   3  -4  -2  178.98   34.30
   3  -4  -2  285.77   36.80
  -3  -4   2  177.98   24.00
  -3  -4   2  184.88   19.50
  -3   4   1 1661.63  165.88
   3   4  -1 1888.91  157.28
   3   4  -1 1604.74  161.88
  -3   4   1 1773.42  155.38
   3  -4  -1 1717.13  167.28
  -3  -4   1 1887.71  159.58
   3  -4  -1 1708.13  155.38
  -3  -4   1 1915.91  157.98
   3  -4  -1 2179.68  166.68
   3   4   0   40.10    8.20
   3   4   0   46.80   15.80
  -3   4   0   33.00   10.80
  -3   4   0   39.70    6.80
   3  -4   0   52.69   11.70
  -3  -4   0   48.40    9.60
   3  -4   0   38.10    6.60
   3  -4   0   69.79   16.60
  -3  -4   0   47.90   13.10
  -3   4  -1 1162.48  100.79
   3   4   1  979.50  114.69
  -3   4  -1 1075.39   93.29
   3   4   1 1095.29   97.69
  -3  -4  -1 1298.67  116.99
  -3  -4  -1 1134.09   97.19
   3  -4   1  939.11  100.49
   3  -4   1 1056.09   93.59
   3   4   2  124.89   15.00
   3   4   2   62.39   27.80
  -3   4  -2  133.19   18.10
  -3  -4  -2  126.99   36.10
   3  -4   2  126.79   17.20
  -3   4  -3  437.86   42.80
   3   4   3  335.97   70.49
   3   4   3  403.36   38.50
  -3  -4  -3  380.46   44.60
  -3  -4  -3  378.16   39.10
  -3   4  -4   83.09   23.00
  -3  -4  -4   47.20   11.00
  -3   4  -5  408.36   44.30
   3   4   5  403.06   91.99
  -3  -4  -5  372.26   39.00
  -3  -4  -5  363.76   47.60
  -3   4  -6  421.76   47.20
  -3  -4  -6  345.87   49.90
  -3  -4  -6  419.86   41.90
  -3   4  -7  146.39   28.20
  -3  -4  -7  210.28   24.40
  -3  -4  -7  139.49   31.10
  -3   4  -8   83.19   24.30
  -3  -4  -8   75.99   25.70
  -3  -4  -8  111.49   19.40
  -3   5   8   -9.10   36.70
   3   5  -8    3.50    9.70
   3  -5  -8   -1.60   13.80
   3  -5  -8    1.30    7.10
  -3   5   7   17.30   31.10
   3   5  -7  -10.30    6.30
   3  -5  -7    2.50    4.50
   3  -5  -7    3.10    9.20
  -3   5   6   43.10   29.10
   3   5  -6   56.29   11.10
   3   5  -6   39.00   11.20
  -3  -5   6   26.00   23.70
   3   5  -5  639.84   52.79
   3   5  -5  588.04   54.09
  -3   5   5  373.76   80.49
  -3  -5   5  464.25   61.59
  -3  -5   5  437.96   53.49
   3  -5  -5  573.24   52.59
   3   5  -4  185.28   21.10
   3   5  -4  173.78   21.70
  -3   5   4  140.39   40.00
  -3  -5   4  194.78   34.30
  -3  -5   4  134.79   20.90
   3  -5  -4  188.28   20.60
   3   5  -3  320.57   32.70
   3   5  -3  325.47   35.10
  -3   5   3  249.48   50.09
  -3  -5   3  336.37   38.90
  -3  -5   3  318.97   32.20
   3  -5  -3  322.07   32.40
  -3   5   2    6.10    8.70
   3   5  -2   12.40    7.60
   3   5  -2    4.60    4.30
  -3  -5   2    4.60    3.90
   3  -5  -2    5.50    3.40
   3  -5  -2    3.20   22.20
  -3  -5   2   14.50    7.20
  -3   5   1   -5.50    2.20
  -3   5   1    0.30    5.60
   3   5  -1    2.70    8.50
   3   5  -1    0.60    3.20
  -3  -5   1   -3.60    4.50
   3  -5  -1    7.40    8.20
   3  -5  -1   -3.80   11.80
  -3   5   0   71.09    9.10
   3   5   0   62.59   10.70
   3   5   0   28.20   15.20
  -3   5   0   55.09   15.00
   3  -5   0   63.29    9.00
  -3  -5   0   77.89   17.60
   3  -5   0   34.70   16.20
  -3  -5   0   67.29   12.80
   3  -5   0   54.49   13.00
  -3   5  -1  115.09   13.40
   3   5   1  141.99   16.10
   3   5   1  114.29   28.40
  -3   5  -1  136.69   20.20
   3  -5   1  112.09   13.50
   3  -5   1  140.09   18.60
  -3  -5  -1  116.49   16.50
   3  -5   1  106.99   23.00
  -3  -5  -1  174.18   40.60
  -3   5  -2   39.30   10.70
  -3   5  -2   32.80    5.40
   3   5   2   13.20   19.90
  -3  -5  -2   26.50   20.10
  -3  -5  -2   43.60    9.20
   3  -5   2   30.90    5.80
   3  -5   2   29.90   11.70
  -3   5  -3   -0.30    4.80
   3   5   3   14.10   18.40
  -3  -5  -3    2.50    5.90
  -3  -5  -3    2.10    3.80
  -3   5  -4  554.94   57.79
   3   5   4  409.96   90.29
  -3  -5  -4  572.24   62.29
  -3  -5  -4  554.84   53.89
  -3   5  -5   17.20    8.40
   3   5   5  -14.20   44.40
  -3  -5  -5   40.10   10.50
  -3   5  -6  -11.00    6.30
   3   5   6   44.50   32.70
  -3  -5  -6    0.20    5.30
  -3  -5  -6   -1.80    7.90
  -3   5  -7  261.57   38.10
  -3  -5  -7  230.98   29.10
  -3  -5  -7  184.98   36.90
  -3   5  -8  -14.00   11.40
  -3  -5  -8  -14.50    9.50
  -3  -5  -8  -27.60   12.20
   3   6  -8    9.90   11.40
  -3   6   8   18.30   45.40
   3  -6  -8   27.90   20.10
   3  -6  -8   25.40   11.20
  -3   6   7   36.10   39.00
   3   6  -7   34.00   11.70
   3  -6  -7   29.10   17.30
   3  -6  -7   51.39   12.90
   3   6  -6    8.00    7.20
  -3   6   6   -6.80   29.20
   3  -6  -6   22.20    8.20
  -3  -6   6  -29.20   18.60
   3   6  -5    0.90    7.00
  -3   6   5  -23.70   17.50
   3   6  -5   -7.50    5.50
  -3  -6   5  -12.40   16.10
   3   6  -4   28.30   10.90
   3   6  -4   29.10    8.10
  -3   6   4   33.20   22.10
   3  -6  -4   26.30    7.80
  -3  -6   4   20.70   14.90
  -3  -6   4   15.70    7.70
  -3   6   3   26.70   21.20
   3   6  -3   44.80   12.20
   3   6  -3   51.29   13.80
  -3  -6   3   34.20   13.50
   3  -6  -3   44.50    9.80
  -3   6   2    7.50   13.60
   3   6  -2   11.60    8.50
   3  -6  -2   29.00    7.40
  -3  -6   2   37.00   10.80
  -3  -6   2   29.70    7.70
  -3   6   1  136.59   30.50
   3   6  -1   52.19   16.40
  -3  -6   1   71.69   14.70
   3  -6  -1   70.99   10.80
  -3  -6   1   66.39   14.50
   3   6   0   10.90   12.80
  -3   6   0   11.30    4.00
  -3   6   0    3.60    7.00
  -3  -6   0    4.60    9.00
  -3  -6   0   15.90    7.60
   3  -6   0   11.50   12.00
   3  -6   0    7.10    4.10
  -3   6  -1  692.83   73.99
   3   6   1  592.74   84.09
  -3   6  -1  720.23   62.79
  -3  -6  -1  721.83   67.19
   3  -6   1  721.93   76.49
   3  -6   1  694.13   63.09
   3   6   2  153.38   43.70
  -3   6  -2  260.47   25.00
  -3  -6  -2  254.67   29.80
   3  -6   2  272.67   37.20
   3  -6   2  268.47   25.80
  -3   6  -3  776.52   75.79
   3   6   3  537.95   96.59
  -3  -6  -3  759.42   70.09
   3   6   4   -1.30   23.70
  -3   6  -4    3.30    6.80
  -3  -6  -4    7.40    9.10
  -3  -6  -4   22.90    8.10
  -3   6  -5    2.50    8.00
   3   6   5    9.60   25.60
  -3  -6  -5    7.40    6.80
  -3  -6  -5    1.80    7.90
   3   6   6   30.20   37.60
  -3   6  -6    6.90    8.90
  -3  -6  -6    6.80   11.20
  -3  -6  -6   -3.90    6.20
  -3   6  -7   -0.60   10.90
  -3  -6  -7   -0.10   13.80
  -3  -6  -7   -0.40    8.40
   3  -7  -7   20.30   10.00
  -3   7   6  134.49   58.69
   3   7  -6  129.09   23.60
   3  -7  -6  116.29   20.50
  -3  -7   6  109.79   32.40
   3   7  -5  -14.00    8.10
  -3   7   5  -34.80   19.10
   3  -7  -5    0.60    4.50
  -3  -7   5   -5.10   17.70
  -3   7   4  118.09   39.00
   3   7  -4  101.39   19.60
  -3  -7   4  123.39   26.00
   3  -7  -4  128.59   18.10
  -3   7   3  114.09   38.40
   3   7  -3  177.28   29.50
  -3  -7   3  194.78   23.90
   3  -7  -3  200.58   23.60
  -3  -7   3  188.58   28.60
   3   7  -2   85.19   20.60
  -3   7   2   68.79   27.90
   3  -7  -2  108.39   15.70
  -3  -7   2  127.59   22.50
  -3  -7   2  127.09   18.40
   3   7  -1   29.50   16.20
  -3   7   1   21.70   15.70
  -3  -7   1   51.69   13.10
  -3   7   0 1626.54  158.88
   3   7   0 1355.66  159.58
  -3  -7   0 1797.62  147.29
   3  -7   0 1642.24  142.09
   3   7   1 1915.01  219.38
  -3   7  -1 2157.08  209.28
  -3  -7  -1 2550.14  201.18
   3  -7   1 2312.77  195.48
  -3   7  -2   30.10   14.10
  -3   7  -2   53.89    9.20
   3   7   2   40.30   23.90
   3  -7   2   35.30   20.60
  -3  -7  -2   61.79   14.00
   3   7   3  366.86   77.59
  -3   7  -3  335.37   46.10
  -3   7  -3  404.46   35.60
   3  -7   3  304.67   49.40
  -3  -7  -3  428.86   44.20
   3   7   4  175.08   60.29
  -3   7  -4  322.37   43.60
  -3  -7  -4  347.57   38.20
  -3  -7  -4  381.46   47.50
   3   7   5  336.67   84.79
  -3   7  -5  404.06   50.09
  -3  -7  -5  407.06   54.99
  -3  -7  -5  406.66   44.30
  -3   7  -6   46.10   17.40
   3   7   6   25.70   37.40
  -3  -7  -6   72.59   15.70
  -3  -7  -6   18.80   17.50
   3   7   7  -43.20   41.10
  -3   7  -7  -16.20   11.50
  -3  -7  -7   16.60   15.10
  -3  -7  -7   13.20   11.90
  -3   8   7   14.90   39.10
   3   8  -7   19.90   18.30
   3  -8  -7   53.69   23.80
   3  -8  -7   33.60   12.90
  -3   8   6  -32.70   29.20
   3  -8  -6    0.00    6.40
  -3   8   5  289.07   75.49
   3   8  -5  388.56   50.39
   3  -8  -5  367.36   40.90
  -3  -8   5  382.46   60.19
   3   8  -4  -14.60   18.60
  -3   8   4  -16.60   23.90
   3  -8  -4   -8.40    4.60
  -3  -8   4    3.80   13.10
  -3   8   3   74.29   31.60
   3   8  -3  131.99   27.20
  -3  -8   3  170.98   29.40
   3  -8  -3  214.38   23.60
   3   8  -2   13.90   14.80
  -3   8   2    8.10   18.40
   3  -8  -2   14.10    6.50
  -3  -8   2   10.80   10.60
   3   8  -1  -17.40   14.10
  -3   8   1    8.00   13.70
  -3  -8   1   -5.10    7.40
   3  -8  -1   -3.90    4.30
  -3   8   0   37.00   15.90
  -3  -8   0   36.00   12.60
   3  -8   0   43.70    9.50
   3   8   1  168.78   44.70
  -3   8  -1  127.09   30.90
   3  -8   1  186.98   21.10
  -3   8  -2  120.49   30.80
   3   8   2   97.09   36.80
  -3  -8  -2  196.28   25.50
   3  -8   2  183.08   20.80
  -3   8  -3  501.65   70.79
   3   8   3  444.66   94.79
  -3   8  -3  676.63   57.59
  -3  -8  -3  705.03   65.79
   3  -8   3  627.34   60.59
   3  -8   3  676.63   77.39
   3   8   4  171.28   57.79
  -3   8  -4  264.07   41.80
  -3  -8  -4  258.37   34.00
  -3  -8  -4  349.37   47.20
   3   8   5   28.00   38.40
  -3   8  -5   57.99   22.80
  -3  -8  -5   47.40   22.00
  -3  -8  -5   64.89   17.10
  -3   8  -6   -6.00   13.20
   3   8   6    3.30   43.80
  -3  -8  -6  -12.10   12.30
  -3   9   6   -6.80   39.00
   3   9  -6   31.60   19.80
  -3  -9   6   -5.40   35.70
   3  -9  -6   -0.60    8.70
   3   9  -5   39.40   23.50
  -3  -9   5   60.79   30.60
   3  -9  -5   31.90   18.00
   3   9  -4   38.90   18.60
  -3   9   4  -23.50   31.00
  -3  -9   4   26.50   17.30
   3  -9  -4   39.90   11.40
  -3   9   3  200.78   54.69
   3   9  -3  209.08   41.90
   3  -9  -3  330.57   33.90
  -3  -9   3  268.77   47.30
  -3   9   2   12.50   20.20
   3   9  -2  -27.00   13.70
  -3  -9   2  -19.10    9.40
   3   9  -1  721.13  100.29
  -3   9   1  740.83  104.59
   3  -9  -1  958.90   84.59
  -3  -9   1 1057.69   91.59
   3   9   0  258.27   57.79
  -3   9   0  412.66   61.29
  -3  -9   0  391.06   43.80
   3  -9   0  363.86   38.70
  -3   9  -1   24.40   23.10
   3   9   1  102.69   42.80
   3  -9   1   97.79   16.10
  -3  -9  -1   95.09   19.50
   3   9   2  -10.10   22.80
  -3   9  -2   -8.40   12.60
  -3  -9  -2    8.00    7.90
   3  -9   2    4.50    7.70
   3   9   3    8.70   31.30
  -3   9  -3  -10.30   12.00
  -3  -9  -3   16.00   10.40
   3  -9   3    4.10   10.50
  -3   9  -4   85.49   26.80
   3   9   4   52.19   42.10
  -3  -9  -4   32.00   14.20
  -3   9  -5  -28.90   14.90
   3   9   5  -34.70   37.60
  -3  -9  -5  -13.10   15.50
  -3  -9  -5  -11.60    8.70
   3  10  -5    0.80   23.80
  -3  10   5   59.39   53.99
   3  10  -4   38.30   21.70
  -3  10   4  -38.80   33.40
  -3 -10   4  -10.10   22.10
   3 -10  -4   19.10   10.50
   3  10  -3   75.19   27.30
  -3  10   3   26.80   39.00
   3 -10  -3   79.19   17.00
  -3 -10   3  133.19   28.90
  -3  10   2  -23.60   22.70
   3  10  -2   10.50   25.10
   3 -10  -2   -5.40    6.60
  -3 -10   2    7.90   12.90
  -3  10   1  -10.40   26.30
   3  10  -1   28.40   23.40
   3 -10  -1   -3.70    6.20
  -3 -10   1   -3.40   10.40
   3  10   0   89.49   41.10
  -3  10   0  116.49   39.60
   3 -10   0  174.88   24.00
  -3 -10   0  215.88   30.50
   3  10   1   28.80   33.30
  -3  10  -1   31.50   26.60
   3 -10   1   40.90   11.30
  -3 -10  -1   37.30   15.20
  -3  10  -2   81.29   33.50
   3  10   2   70.19   44.20
  -3 -10  -2  111.79   25.50
   3 -10   2  167.08   22.70
  -3  10  -3   18.50   21.80
   3  10   3  -22.30   31.90
  -3 -10  -3    8.70   11.60
   3 -10   3   -5.40   11.50
  -3  10  -4   15.40   27.30
   3  10   4   64.59   49.70
  -3 -10  -4   54.29   18.80
   3  11  -3   22.80   26.50
  -3  11   3  -73.89   31.40
  -3 -11   3  -51.59   21.60
   3  11  -2   11.40   26.80
  -3  11   2  -20.80   27.60
   3 -11  -2   10.30    9.70
  -3 -11   2    1.20   15.70
  -3  11   1   76.49   37.60
   3  11  -1   23.30   40.70
  -3 -11   1  120.29   27.60
   3 -11  -1   90.49   20.30
  -3  11   0   -7.10   49.99
   3  11   0  -36.10   31.80
   3 -11   0   22.00   10.50
  -3 -11   0   11.90   17.90
  -3  11  -1    5.10   32.40
   3  11   1   76.29   39.60
  -3 -11  -1   36.80   15.90
   3 -11   1   13.10   13.20
   3  11   2   25.00   33.30
  -3  11  -2  -21.60   23.10
   3 -11   2   14.50   15.50
  -3 -11  -2    3.70   13.20
   4   0  -9   -2.50    5.20
   4   0  -9   10.20   11.90
   4   0  -8   29.90    7.30
   4   0  -8   15.00   11.30
  -4   0   7    1.10   16.30
   4   0  -7    0.20    3.30
   4   0  -7   -7.00    5.80
   4   0  -6  537.05   50.59
   4   0  -6  548.25   58.29
  -4   0   6  593.24   68.89
   4   0  -5    5.70   12.00
   4   0  -5   -9.80   16.20
   4   0  -5   -0.40    4.70
   4   0  -4 3163.18  268.67
  -4   0   4 3064.79  278.77
   4   0  -4 3059.59  278.77
   4   0  -4 3542.35  288.97
  -4   0   4 2784.12  284.07
   4   0  -3   -4.40    7.60
  -4   0   3   -3.00    7.50
   4   0  -3    0.80    2.10
   4   0  -3    4.20    8.90
  -4   0   3   -6.30    6.80
  -4   0   2 2489.85  250.07
   4   0  -2 3006.70  244.68
  -4   0   2 3062.09  263.87
  -4   0   1    2.50    2.50
   4   0  -1   -0.90    5.10
  -4   0   1    3.20    7.40
   4   0  -1   -1.60    1.30
   4   0   0  332.87   30.40
  -4   0   0  317.47   28.70
   4   0   0  266.67   32.60
  -4   0   0  303.67   35.20
  -4   0  -1    2.10    1.90
   4   0   1    2.30    3.20
  -4   0  -1   -3.80    4.70
   4   0   1    0.30    2.40
   4   0   2  402.46   36.10
  -4   0  -2  399.86   40.00
  -4   0  -2  408.66   39.30
   4   0   2  376.26   40.80
  -4   0  -3   -0.20    3.10
   4   0   3   -4.80    3.50
  -4   0  -4  728.43   72.19
  -4   0  -5    6.50    4.50
  -4   0  -7   -1.60    6.90
  -4   0  -8   -0.40   11.00
   4   1  -9   19.60    7.30
   4   1  -9    2.80   10.60
   4  -1  -9   14.50   16.30
   4   1  -8  965.20   95.09
   4   1  -8  897.61   84.99
   4  -1  -8  978.20   99.79
   4  -1  -8  979.90   86.59
   4   1  -7   -2.30    3.00
   4   1  -7    1.60    5.50
   4  -1  -7   10.20    8.20
  -4  -1   7  -22.10   15.50
  -4   1   6  167.88   37.10
   4   1  -6  223.38   26.60
   4   1  -6  137.19   32.60
   4   1  -6  157.88   42.40
   4  -1  -6  211.78   28.60
  -4  -1   6  186.18   35.30
   4  -1  -6  180.78   20.50
   4   1  -5  575.34   81.29
  -4   1   5  703.93   76.29
  -4   1   5  448.16  100.89
   4   1  -5  576.64   70.89
   4   1  -5  716.23   63.49
   4  -1  -5  691.63   77.59
  -4  -1   5  529.45   68.89
   4  -1  -5  781.12   89.69
   4  -1  -5  681.43   58.79
   4   1  -4   14.70    5.70
  -4   1   4   13.50   12.40
   4   1  -4   42.90   15.20
   4   1  -4   26.20   16.00
  -4   1   4   37.80   19.30
  -4  -1   4   13.70   10.90
   4  -1  -4   23.80    5.60
   4  -1  -4   11.20   15.10
   4  -1  -4   25.70    7.60
   4   1  -3  357.36   44.50
  -4   1   3  376.76   48.60
   4   1  -3  383.06   35.30
  -4   1   3  324.17   45.50
   4   1  -3  386.96   43.70
  -4  -1   3  339.87   45.00
   4  -1  -3  367.86   48.30
   4  -1  -3  462.15   49.90
  -4   1   2   98.99   19.80
  -4   1   2   97.19   21.20
   4   1  -2  131.79   21.90
   4  -1  -2  123.29   24.80
  -4  -1   2  110.39   23.00
   4  -1  -2  133.59   19.20
  -4   1   1  406.46   43.00
   4   1  -1  466.25   46.20
  -4  -1   1  429.46   47.30
   4  -1  -1  486.95   42.00
   4  -1  -1  459.55   49.50
   4   1   0 1105.99   99.19
   4   1   0 1252.87  102.89
  -4   1   0 1175.08   99.89
  -4   1   0 1043.40  104.79
  -4  -1   0 1107.29   98.69
   4  -1   0 1189.68   99.49
  -4  -1   0 1143.19  104.09
  -4   1  -1   76.99   10.40
  -4   1  -1   64.09   13.00
   4   1   1   49.60   10.50
   4   1   1   90.49   10.80
  -4  -1  -1   51.29   15.60
  -4  -1  -1   69.59   10.50
   4  -1   1   94.59   11.60
  -4  -1  -1   82.69   13.50
  -4   1  -2 2577.64  213.98
   4   1   2 2344.07  215.18
   4   1   2 2588.74  210.68
  -4  -1  -2 2385.26  214.78
  -4  -1  -2 2647.14  213.08
   4  -1   2 2298.77  214.58
   4   1   3  172.98   24.30
  -4   1  -3  119.19   27.20
   4   1   3  188.88   18.00
  -4  -1  -3  210.28   20.70
  -4  -1  -3  175.98   26.00
  -4  -1  -3  138.89   37.10
   4  -1   3  169.08   23.80
  -4   1  -4  672.13   66.59
   4   1   4  666.33   59.39
  -4  -1  -4  700.33   61.69
  -4  -1  -4  649.43   68.19
  -4   1  -5  167.98   25.50
   4   1   5  168.18   18.00
  -4  -1  -5  201.68   28.40
  -4  -1  -5  194.18   21.10
  -4   1  -6    3.90   14.30
  -4  -1  -6   30.30   12.50
  -4   1  -7  278.47   37.10
  -4  -1  -7  212.68   35.80
  -4   1  -8  -17.70   10.00
  -4  -1  -8    8.30   12.50
   4   2  -9   10.60   10.30
   4  -2  -9   -1.90    6.10
   4  -2  -9   25.60   15.80
   4   2  -8   -8.30    7.20
   4   2  -8    0.10    3.50
  -4  -2   8   38.00   24.50
   4  -2  -8    5.10    4.60
   4  -2  -8  -16.00    7.70
  -4   2   7  415.96   88.79
   4   2  -7  458.35   48.10
   4   2  -7  428.36   41.50
   4  -2  -7  446.66   53.69
   4  -2  -7  440.86   43.40
  -4  -2   7  453.75   59.99
   4   2  -6   46.80   18.10
   4   2  -6   37.50   25.30
   4   2  -6   47.70   11.10
  -4   2   6   40.20   24.30
   4  -2  -6   38.60    8.60
  -4  -2   6   37.90   17.80
   4  -2  -6   36.50   13.30
  -4   2   5   50.89   19.90
   4   2  -5    8.10   15.80
   4   2  -5   38.10    8.10
  -4   2   5   29.90   20.00
  -4  -2   5   46.00   17.30
   4  -2  -5   33.30    7.70
   4  -2  -5   37.90   11.60
   4  -2  -5   36.00   23.10
   4   2  -4  844.62   82.99
  -4   2   4  918.01   93.19
  -4   2   4  738.03   96.79
   4   2  -4  908.01   75.39
   4   2  -4  774.82   89.19
   4  -2  -4  900.31   93.89
   4  -2  -4 1040.60  109.39
  -4  -2   4  726.13   84.89
  -4  -2   4  816.72   75.79
   4  -2  -4  821.02   74.49
  -4   2   3  384.76   53.49
  -4   2   3  408.56   51.89
   4   2  -3  443.86   37.10
   4   2  -3  371.06   45.30
   4   2  -3  445.26   46.00
  -4  -2   3  399.56   37.80
   4  -2  -3  396.76   38.00
   4  -2  -3  478.85   54.59
   4  -2  -3  449.06   54.69
  -4  -2   3  360.76   46.50
  -4   2   2  581.94   61.99
  -4   2   2  481.95   58.19
   4   2  -2  608.94   55.39
   4  -2  -2  505.85   48.50
  -4  -2   2  496.15   56.69
   4  -2  -2  530.35   61.79
   4  -2  -2  662.23   58.79
  -4   2   1 1060.29  105.79
  -4   2   1 1017.10  100.69
   4   2  -1 1199.88  100.49
  -4  -2   1 1086.09  102.09
   4  -2  -1 1049.40  106.39
   4  -2  -1 1045.20   95.09
   4  -2  -1 1280.87  100.09
   4   2   0  429.76   52.49
  -4   2   0  487.75   45.10
   4   2   0  483.65   44.70
  -4   2   0  515.55   51.09
   4  -2   0  419.16   49.99
  -4  -2   0  436.06   42.40
  -4  -2   0  438.06   45.90
  -4  -2   0  493.55   52.09
   4  -2   0  494.55   43.90
  -4   2  -1 1971.10  160.38
   4   2   1 1880.61  158.88
  -4   2  -1 1620.34  161.88
   4  -2   1 1957.30  160.18
  -4  -2  -1 1694.43  174.38
  -4  -2  -1 1787.02  160.28
  -4  -2  -1 1928.81  160.88
  -4   2  -2  176.58   20.00
   4   2   2  162.48   17.50
  -4  -2  -2  148.59   34.70
  -4  -2  -2  176.98   19.40
   4  -2   2  149.09   20.00
  -4  -2  -2  162.08   21.40
   4   2   3 2091.19  172.38
  -4   2  -3 2278.57  177.68
  -4  -2  -3 1653.93  197.28
   4  -2   3 1824.82  177.88
  -4  -2  -3 1983.00  182.08
  -4  -2  -3 2072.89  174.08
  -4   2  -4    4.70    5.00
   4   2   4    1.90    3.50
  -4  -2  -4    9.90    4.70
  -4  -2  -4    1.60    5.00
  -4   2  -5    8.70    6.70
   4   2   5    7.40    4.60
  -4  -2  -5   18.30   10.00
  -4  -2  -5   24.70    7.40
   4   2   6   48.90    8.50
  -4   2  -6   53.09   13.70
  -4  -2  -6   40.30   17.10
  -4  -2  -6   46.30   10.70
  -4  -2  -6   29.30   12.20
  -4   2  -7   10.20    8.40
  -4  -2  -7   17.40   12.50
  -4  -2  -7   41.70   10.20
  -4   2  -8   68.39   21.10
   4   3  -9    1.60    9.40
   4  -3  -9    1.70    6.70
   4  -3  -9   19.50   16.10
   4   3  -8  151.58   17.60
   4   3  -8  146.59   24.00
   4  -3  -8  154.68   33.40
  -4  -3   8  103.39   33.20
   4  -3  -8  140.49   20.00
  -4   3   7  -14.60   24.10
   4   3  -7    5.70    6.00
  -4  -3   7    4.70   15.70
   4  -3  -7    4.80    5.20
   4  -3  -7   -7.50    9.90
   4   3  -6  190.88   20.60
   4   3  -6  137.59   24.30
   4   3  -6   35.70   29.00
  -4   3   6  147.89   47.40
  -4  -3   6  104.69   19.80
   4  -3  -6  147.59   26.90
   4  -3  -6  130.09   16.90
  -4  -3   6  124.99   29.50
   4   3  -5  129.99   23.50
  -4   3   5  147.29   39.00
   4   3  -5  148.99   17.70
   4   3  -5  101.69   28.90
  -4  -3   5  131.49   28.60
   4  -3  -5  145.49   17.10
  -4  -3   5  155.58   20.10
  -4   3   4  192.78   43.90
   4   3  -4  229.68   26.80
   4   3  -4  194.78   19.90
  -4  -3   4  177.48   35.30
  -4  -3   4  175.18   21.20
   4  -3  -4  232.58   44.90
   4  -3  -4  171.98   20.10
   4   3  -3  948.91   82.99
  -4   3   3 1178.58  116.99
   4   3  -3 1027.90   89.69
  -4   3   3  718.23   98.49
   4  -3  -3 1024.50   87.69
  -4  -3   3  903.81   93.79
   4  -3  -3  930.81  101.99
  -4   3   2  421.36   49.50
   4   3  -2  377.36   37.30
  -4   3   2  282.97   43.20
  -4  -3   2  385.06   41.70
   4  -3  -2  397.46   49.30
   4  -3  -2  319.37   32.70
  -4   3   1 2809.62  263.17
  -4   3   1 3217.18  269.97
   4   3  -1 3159.28  258.77
   4   3  -1 2625.04  262.87
   4  -3  -1 2918.11  268.17
   4  -3  -1 3470.05  262.47
  -4  -3   1 3176.08  256.07
   4  -3  -1 2756.02  254.77
  -4  -3   1 2989.60  261.07
  -4   3   0 2398.36  203.38
   4   3   0 2355.56  194.68
  -4   3   0 2179.88  197.48
   4   3   0 2157.68  206.68
   4  -3   0 2527.05  196.18
  -4  -3   0 2230.88  196.48
   4  -3   0 2153.38  201.88
   4  -3   0 2071.09  191.38
   4   3   1    0.60    2.60
   4   3   1   -7.30   11.40
  -4   3  -1   -1.70    2.00
   4  -3   1   -1.10    2.50
  -4  -3  -1   14.10   13.80
  -4  -3  -1    0.40    2.80
   4  -3   1    3.80    2.10
  -4  -3  -1    3.50    3.40
   4  -3   1    7.40    6.20
   4   3   2  839.12   73.49
   4   3   2  743.03  100.29
  -4  -3  -2  706.83   97.39
  -4  -3  -2  756.72   77.49
  -4  -3  -2  894.51   75.59
   4  -3   2  871.51   76.99
   4   3   3  105.39   37.70
   4   3   3  108.99   13.80
  -4   3  -3  116.89   17.30
  -4  -3  -3  121.99   19.40
  -4  -3  -3   92.99   34.70
  -4  -3  -3  111.29   15.40
   4   3   4  401.66   37.60
  -4  -3  -4  377.06   38.90
  -4  -3  -4  367.36   44.90
  -4   3  -5   81.09   16.70
  -4  -3  -5   75.79   13.50
  -4  -3  -5   58.49   17.80
  -4   3  -6    6.10    8.60
  -4  -3  -6   13.40   10.00
  -4  -3  -6   14.40    7.80
  -4   3  -7   39.70   14.20
  -4  -3  -7   40.70   12.80
  -4  -3  -7   43.00   17.00
  -4  -3  -8   41.40   13.60
  -4  -3  -8   54.39   20.60
   4   4  -9  217.98   31.90
   4  -4  -9  192.58   40.10
   4  -4  -9  191.38   26.90
  -4   4   8  -13.20   30.80
   4  -4  -8    4.80    6.50
  -4  -4   8  -27.30   25.70
   4  -4  -8    4.90   12.60
  -4   4   7  102.29   46.50
   4   4  -7  205.48   24.90
  -4  -4   7  172.28   37.90
   4  -4  -7  199.58   23.60
   4  -4  -7  168.78   33.90
   4   4  -6    2.20    5.20
   4   4  -6   19.10   21.40
   4   4  -6   13.30    9.60
  -4   4   6    7.80   27.50
   4  -4  -6   -2.50    7.20
   4  -4  -6    0.30    4.10
  -4  -4   6  -12.60    7.60
  -4  -4   6   -5.90   16.40
  -4   4   5  -10.20   17.00
   4   4  -5    8.20    7.00
   4   4  -5    5.00    4.10
  -4  -4   5    6.50    6.40
   4  -4  -5    1.90    3.10
  -4  -4   5    7.40   14.10
   4   4  -4  197.88   23.40
  -4   4   4  116.99   38.80
   4   4  -4  188.88   20.10
  -4  -4   4  226.38   38.00
  -4  -4   4  143.09   20.00
   4  -4  -4  171.58   19.70
   4   4  -3   60.29   12.40
   4   4  -3   63.99   10.10
  -4   4   3   82.99   24.20
  -4  -4   3   54.49   17.10
  -4  -4   3   41.90    8.30
   4  -4  -3   64.39   10.80
   4  -4  -3   69.29   22.90
   4   4  -2   36.30    9.20
  -4  -4   2   30.20   12.00
   4  -4  -2   31.10   17.20
   4  -4  -2   60.09   15.40
  -4  -4   2   49.40    7.30
   4  -4  -2   53.29   10.40
   4   4  -1  125.69   25.50
  -4   4   1  168.58   27.10
   4   4  -1  184.58   23.60
  -4  -4   1  182.58   23.90
  -4  -4   1  204.48   21.70
   4  -4  -1  242.48   28.20
   4  -4  -1  208.28   35.30
   4  -4  -1  173.28   18.90
   4   4   0   25.50    6.50
  -4   4   0   24.30    8.30
   4   4   0   26.60   12.20
  -4  -4   0   20.80    6.50
  -4  -4   0   29.70   10.60
   4  -4   0   23.80    7.20
   4  -4   0   16.60    4.00
   4  -4   0   25.10   11.60
   4   4   1  843.42   76.09
   4   4   1  686.93   94.19
  -4   4  -1  965.90   84.89
   4  -4   1  767.12   82.09
   4  -4   1  791.82   73.19
   4  -4   1  945.01   78.99
  -4  -4  -1  886.11   95.19
   4   4   2  727.43  100.59
  -4   4  -2  820.52   77.09
   4   4   2  808.72   72.89
  -4  -4  -2  790.32   77.99
  -4  -4  -2  829.02  101.99
  -4  -4  -2  821.72   74.79
   4   4   3 1368.36  172.28
  -4   4  -3 1702.33  141.69
  -4  -4  -3 1548.25  143.59
  -4  -4  -3 1521.85  137.99
   4   4   4  103.19   42.00
  -4   4  -4   89.59   16.80
  -4  -4  -4   68.59   14.20
  -4  -4  -4   71.89   17.00
  -4   4  -5  136.99   21.80
  -4  -4  -5  105.49   23.50
  -4   4  -6  185.68   28.90
  -4  -4  -6  137.79   31.10
  -4  -4  -6  200.78   24.30
  -4   4  -7   50.79   17.30
  -4  -4  -7   68.49   14.40
  -4  -4  -7   64.19   20.40
  -4   4  -8   39.80   17.80
  -4  -4  -8   73.39   16.60
  -4  -4  -8   48.70   21.40
  -4   5   8  -34.90   35.40
   4  -5  -8   -1.00   10.90
   4  -5  -8    1.80    6.50
  -4   5   7   32.60   34.30
  -4  -5   7  108.89   28.60
   4  -5  -7    1.20   11.80
  -4   5   6    5.40   27.30
   4   5  -6   -4.40    6.10
   4  -5  -6   10.70    5.90
  -4  -5   6  -38.00   17.20
   4   5  -5   47.90   10.90
  -4   5   5   56.49   26.80
   4   5  -5   85.49   15.30
   4  -5  -5   69.29   12.70
  -4  -5   5   43.00   20.40
  -4  -5   5   88.49   23.30
  -4   5   4   17.60   19.40
   4   5  -4    6.80    6.90
   4   5  -4   13.50    5.80
   4  -5  -4   15.60    5.70
  -4  -5   4   -5.70   12.50
  -4  -5   4   20.10    6.70
   4   5  -3 1188.38  109.79
  -4   5   3 1070.99  127.39
   4   5  -3 1347.77  109.59
  -4  -5   3 1100.09  114.79
   4  -5  -3 1261.67  107.39
  -4  -5   3 1196.68  105.99
  -4   5   2  126.49   30.40
   4   5  -2  135.99   21.40
   4   5  -2  131.69   17.90
  -4  -5   2  148.99   22.50
   4  -5  -2  141.89   16.40
  -4  -5   2  133.99   15.90
   4   5  -1  275.97   41.70
  -4   5   1  301.07   43.80
   4   5  -1  390.26   36.30
  -4   5   1  337.67   33.20
   4  -5  -1  335.97   33.50
   4  -5  -1  316.47   45.70
  -4  -5   1  360.46   38.70
  -4  -5   1  416.46   37.90
   4   5   0   32.10   16.30
  -4   5   0   39.10    7.90
  -4   5   0   29.30   11.30
  -4  -5   0   46.80   15.10
  -4  -5   0   50.79   11.40
   4  -5   0   47.30    8.00
   4  -5   0   47.30   16.90
  -4   5  -1    3.80    2.10
   4   5   1    4.00   14.10
  -4   5  -1    6.70    5.70
   4  -5   1    9.60    3.30
   4  -5   1    8.70   12.20
  -4  -5  -1   14.10    6.10
  -4   5  -2  232.18   29.50
   4   5   2  190.78   47.40
  -4  -5  -2  224.68   29.10
  -4  -5  -2  257.37   49.90
   4  -5   2  184.78   30.50
  -4  -5  -2  210.78   26.10
   4  -5   2  230.38   21.60
  -4   5  -3   -3.70    4.60
   4   5   3    8.20   17.00
  -4  -5  -3    4.70    5.80
  -4  -5  -3   -0.90    4.70
   4   5   4    4.90   22.00
  -4   5  -4    9.10    7.00
  -4  -5  -4   -1.10    4.90
  -4  -5  -4    4.30    6.30
  -4   5  -5   13.90    9.80
   4   5   5  -20.10   29.20
  -4  -5  -5   25.80    8.80
  -4  -5  -5   25.00   12.10
  -4   5  -6   61.99   18.10
  -4  -5  -6   57.79   22.00
  -4  -5  -6   69.89   21.80
  -4   5  -7   19.90   13.00
  -4  -5  -7    5.80    8.80
  -4  -5  -7   -4.70   12.80
   4   6  -8   -0.70   15.30
  -4   6   8  -30.00   40.80
   4  -6  -8   -3.10    6.90
   4  -6  -8    6.50   14.80
  -4   6   7   38.10   39.00
   4   6  -7   90.69   18.70
   4  -6  -7  117.99   19.80
   4  -6  -7  112.89   27.40
  -4  -6   7   75.29   33.10
   4   6  -6  142.39   23.50
  -4   6   6  152.38   52.29
  -4  -6   6   96.59   29.80
   4  -6  -6  155.18   20.30
  -4   6   5  154.18   46.10
   4   6  -5  200.48   25.50
  -4  -6   5  140.89   31.80
  -4  -6   5  121.49   21.50
  -4   6   4   -8.30   20.20
   4   6  -4    0.80    6.90
  -4  -6   4    1.80    7.40
   4  -6  -4    0.90    3.90
  -4  -6   4   16.30   13.20
  -4   6   3   13.80   17.30
   4   6  -3   17.20    9.80
  -4  -6   3   26.80   13.60
  -4  -6   3   14.80    6.30
   4  -6  -3   19.50    6.40
  -4   6   2    9.60   23.80
   4   6  -2   22.70   10.70
   4  -6  -2   30.50    7.30
  -4  -6   2   42.40   13.80
  -4  -6   2   27.80    7.30
  -4   6   1  370.46   51.59
  -4  -6   1  422.06   44.00
  -4  -6   1  419.26   44.30
   4  -6  -1  387.56   38.90
   4   6   0   42.40   19.60
  -4   6   0   74.09   18.90
  -4   6   0   67.79   10.30
   4  -6   0   21.80   19.10
  -4  -6   0   87.69   17.00
  -4  -6   0  106.39   24.20
   4  -6   0   85.59   11.00
  -4   6  -1   21.60    5.20
   4   6   1   18.40   17.20
   4  -6   1    2.70   12.50
  -4  -6  -1    1.70   14.90
   4  -6   1   16.40    4.80
   4   6   2   14.80   18.40
  -4   6  -2    4.20    9.10
   4  -6   2   11.10    4.00
  -4  -6  -2    6.70    5.60
   4  -6   2    7.00   14.20
   4   6   3  141.39   51.59
  -4   6  -3  135.29   24.90
  -4  -6  -3  130.09   19.90
  -4  -6  -3  140.79   26.00
   4   6   4   89.89   36.30
  -4  -6  -4   84.29   16.80
  -4  -6  -4   62.39   18.10
   4   6   5  358.66   92.59
  -4   6  -5  523.85   60.29
  -4  -6  -5  551.14   65.19
  -4  -6  -5  582.64   56.39
  -4   6  -6   -5.00    9.90
  -4  -6  -6    7.20    8.50
  -4  -6  -6   -1.30   11.50
  -4   6  -7    0.20   24.30
  -4  -6  -7   21.30   20.50
  -4  -6  -7   26.00   12.00
   4   7  -7   16.30   13.50
   4  -7  -7   -1.70    7.20
   4   7  -6   14.30   20.50
  -4   7   6  -21.90   32.80
   4  -7  -6    6.90    6.60
  -4  -7   6  -16.00   24.00
  -4   7   5   20.20   26.10
   4   7  -5    5.40   11.20
  -4  -7   5   29.40   21.30
   4   7  -4   95.49   18.80
  -4   7   4   56.69   28.40
  -4  -7   4   81.39   15.60
   4  -7  -4  114.19   16.00
  -4  -7   4  100.29   27.20
  -4   7   3  223.38   50.49
   4  -7  -3  294.97   32.50
  -4  -7   3  323.47   42.00
  -4  -7   3  313.07   32.80
   4  -7  -2  311.67   33.10
  -4  -7   2  285.67   38.10
  -4  -7   2  330.67   34.80
   4   7  -1   79.29   23.30
  -4   7   1   89.49   26.10
   4  -7  -1   72.89   13.50
  -4  -7   1   93.79   17.60
  -4  -7   1   79.19   17.60
   4   7   0  498.45   76.79
  -4   7   0  645.94   75.79
  -4  -7   0  741.33   67.19
   4  -7   0  655.53   60.19
  -4   7  -1   92.99   23.10
   4   7   1   82.29   29.50
  -4  -7  -1  145.89   21.50
   4  -7   1  139.79   16.40
  -4   7  -2  387.36   33.20
   4   7   2  301.77   66.09
  -4   7  -2  284.67   43.80
  -4  -7  -2  310.57   38.60
   4  -7   2  340.67   50.09
  -4   7  -3  393.36   61.09
   4   7   3  299.87   72.99
  -4  -7  -3  532.65   57.29
  -4  -7  -3  469.65   49.10
  -4   7  -4   74.69   20.10
   4   7   4   82.19   44.00
  -4  -7  -4  107.39   24.20
  -4  -7  -4   94.29   17.80
  -4   7  -5   45.00   17.20
   4   7   5   33.60   37.10
  -4  -7  -5   74.09   22.70
  -4  -7  -5   65.39   15.30
  -4   7  -6  324.77   44.50
   4   7   6   78.79   60.19
  -4  -7  -6  271.37   35.50
  -4  -7  -6  210.18   42.60
   4   8  -7   28.00   33.40
  -4   8   7   44.70   48.70
   4  -8  -7    6.70    9.80
  -4  -8   7   -6.40   39.70
   4   8  -6  -24.20   14.00
  -4   8   6  -48.30   36.80
   4  -8  -6    1.70    8.00
  -4  -8   6   23.10   26.40
  -4   8   5   11.80   30.70
   4   8  -5   80.19   32.20
  -4  -8   5   52.79   28.70
   4  -8  -5   62.79   15.00
   4   8  -4   74.29   20.70
  -4   8   4   18.90   28.70
   4  -8  -4   94.39   17.10
  -4  -8   4   77.19   24.20
  -4   8   3  146.59   41.00
   4   8  -3  106.79   27.00
   4  -8  -3  155.28   20.30
  -4  -8   3  131.09   28.80
  -4   8   2   45.70   24.20
   4   8  -2   56.69   22.00
  -4  -8   2   65.49   18.20
   4   8  -1   40.00   20.00
  -4   8   1    2.60   16.60
  -4  -8   1    8.80    8.30
   4  -8  -1   23.50    7.90
  -4   8   0  -16.30   15.80
   4   8   0  -18.60   18.70
  -4  -8   0    3.00    8.10
   4  -8   0    3.50    4.50
  -4   8  -1  471.15   66.89
   4   8   1  476.65   79.09
   4  -8   1  578.24   52.19
  -4  -8  -1  555.74   58.09
  -4   8  -2   98.79   26.40
   4   8   2  103.59   39.20
   4  -8   2  114.29   15.70
  -4  -8  -2   85.99   18.50
   4   8   3  193.08   56.29
  -4   8  -3  159.38   33.50
   4  -8   3  194.18   40.80
  -4  -8  -3  252.37   31.60
   4  -8   3  246.48   32.60
  -4   8  -4   20.00   16.10
   4   8   4   31.80   34.40
  -4  -8  -4   74.09   18.70
  -4  -8  -4   49.99   20.70
   4   8   5  199.28   82.59
  -4   8  -5  323.07   50.19
  -4  -8  -5  393.06   53.09
  -4  -8  -5  325.67   41.90
   4   8   6   22.00   50.19
  -4   8  -6   20.30   18.50
  -4  -8  -6   -9.50   16.30
  -4  -8  -6   12.20   10.50
  -4   9   6  -25.60   35.50
   4  -9  -6   23.10   11.10
  -4  -9   6  -31.60   48.80
   4   9  -5  127.09   29.30
   4  -9  -5  106.19   26.80
  -4  -9   5  200.98   36.00
  -4   9   4  -30.00   28.80
   4   9  -4   24.60   18.60
   4  -9  -4   20.70    9.40
  -4  -9   4   20.00   20.90
   4   9  -3   41.20   18.60
  -4   9   3  -21.10   27.00
   4  -9  -3   33.50   10.70
  -4  -9   3   28.40   18.40
   4   9  -2  145.39   35.60
  -4   9   2  149.69   41.10
   4  -9  -2  199.28   24.90
  -4  -9   2  239.08   37.70
  -4   9   1  273.57   55.39
   4  -9  -1  383.56   38.70
  -4  -9   1  355.16   45.10
   4   9   0  -18.50   21.00
  -4   9   0   -3.20   14.70
  -4  -9   0  -10.50    8.00
   4  -9   0    1.70    5.80
   4   9   1  299.27   67.59
  -4   9  -1  376.36   61.79
   4  -9   1  442.56   43.10
  -4  -9  -1  471.85   50.39
   4   9   2   54.89   36.10
  -4   9  -2   73.09   23.80
   4  -9   2   57.49   12.20
  -4  -9  -2   33.20   13.80
  -4   9  -3   -7.30   19.00
   4   9   3   -3.90   33.10
  -4  -9  -3   23.20   12.50
   4  -9   3    9.70   10.60
  -4   9  -4   28.90   21.70
   4   9   4   29.60   46.60
  -4  -9  -4   49.10   19.80
  -4  -9  -4   50.29   16.80
  -4   9  -5  160.28   36.70
   4   9   5  204.28   70.49
  -4  -9  -5  123.29   25.60
  -4  -9  -5  120.19   32.40
  -4  10   4   63.79   38.30
  -4 -10   4   14.50   24.40
   4 -10  -4   13.20   10.10
  -4  10   3   13.80   35.50
   4  10  -3  -22.60   19.80
  -4 -10   3   22.40   18.70
   4 -10  -3    3.30    7.00
  -4  10   2   97.29   39.60
   4  10  -2   73.89   30.30
   4 -10  -2   97.79   18.80
  -4 -10   2  146.59   29.60
  -4  10   1   55.59   32.10
   4 -10  -1   85.79   16.30
  -4 -10   1   97.59   24.50
  -4  10   0   -7.10   23.50
   4  10   0  -10.50   21.60
  -4 -10   0   -5.70   12.90
   4 -10   0   17.00    7.60
   4  10   1  144.49   43.50
  -4  10  -1   73.79   32.70
   4 -10   1  137.79   20.40
  -4 -10  -1   94.69   22.70
  -4  10  -2  -29.30   20.60
   4  10   2   28.00   36.20
  -4 -10  -2   42.80   15.00
   4 -10   2   38.80   13.10
   4  10   3  202.68   69.99
  -4 -10  -3  310.47   42.60
   4 -10   3  294.37   37.10
  -4  10  -4   -0.90   25.20
   4  11  -2  -61.39   27.50
  -4  11   2  -39.20   32.00
   4 -11  -2    0.50    9.80
  -4  11   1  -18.50   27.90
   4  11  -1  -19.40   29.90
   4 -11  -1   -4.20    9.20
   4  11   0  134.49   47.40
  -4  11   0   90.09   39.90
  -4 -11   0  134.29   28.80
   4 -11   0  107.39   21.10
  -4  11  -1   -5.30   28.30
   4  11   1   21.90   38.40
  -4 -11  -1   29.70   17.10
   4 -11   1  -11.90    9.70
   5   0  -9    1.70   10.50
   5   0  -8    1.10   11.20
   5   0  -8   15.90    6.80
  -5   0   8   11.50   21.90
  -5   0   7   -7.20   18.10
   5   0  -7    3.70    3.80
   5   0  -7   11.50    8.40
   5   0  -6   81.09   16.60
   5   0  -6   88.39   33.00
   5   0  -6   92.99   12.20
  -5   0   6  131.39   30.10
   5   0  -5    0.00   16.90
   5   0  -5    3.30    4.40
   5   0  -5   10.50   13.20
  -5   0   5    4.60   10.60
  -5   0   4 2003.50  193.98
   5   0  -4 2077.69  180.38
  -5   0   4 1768.92  193.58
   5   0  -4 2144.79  193.68
   5   0  -4 2362.36  195.08
  -5   0   3   -5.60    7.20
  -5   0   3    4.80    9.20
   5   0  -3   -7.90    6.00
   5   0  -3    6.00   10.60
   5   0  -2   42.60   14.70
  -5   0   2   16.90    8.00
  -5   0   2   45.90   13.90
   5   0  -2   38.50    6.30
   5   0  -1   -2.80    1.40
  -5   0   1    0.10    2.10
   5   0  -1    2.20    6.10
  -5   0   1   -4.90    4.80
  -5   0   0  888.11   72.69
   5   0   0  803.62   73.19
   5   0   0  839.32   78.59
  -5   0   0  745.83   79.79
  -5   0  -1   -2.20    5.30
   5   0   1   -3.30    2.00
  -5   0  -1    0.70    2.00
   5   0   1   -3.10    4.30
   5   0   2 1312.07  126.19
  -5   0  -2 1307.27  125.49
  -5   0  -2 1455.75  125.29
   5   0   2 1522.85  121.89
   5   0   3   -4.00    4.80
   5   0   3    0.60    2.50
  -5   0  -3   -3.30    3.30
  -5   0  -3   -1.90    5.40
  -5   0  -4  414.36   45.80
  -5   0  -5   11.40    7.40
  -5   0  -6  -11.70    5.80
  -5   0  -7  -15.40    7.90
  -5   0  -8  119.09   27.30
   5   1  -9   52.09   10.60
   5   1  -9   23.60   13.50
   5  -1  -9    4.80   13.80
   5  -1  -9   42.90   10.60
   5   1  -8   34.50    8.20
   5   1  -8   14.90   10.70
  -5  -1   8   64.49   30.50
   5  -1  -8  -12.60   19.20
   5  -1  -8   29.20    7.60
   5   1  -7   -3.50    7.10
  -5   1   7    1.40   20.60
   5   1  -7    3.70    4.30
   5  -1  -7    9.00    4.60
  -5  -1   7    3.40   16.70
   5  -1  -7   -3.40    7.80
  -5   1   6  995.20  108.59
  -5   1   6  795.02  115.89
   5   1  -6 1002.60  116.59
  -5  -1   6  935.51  103.99
   5  -1  -6 1044.40   88.59
   5  -1  -6 1038.80   96.69
  -5   1   5  236.78   51.79
   5   1  -5  273.37   41.20
  -5   1   5  420.56   50.79
   5   1  -5  319.57   32.40
   5   1  -5  270.87   47.10
   5  -1  -5  271.77   28.60
   5  -1  -5  262.67   48.80
   5  -1  -5  306.97   34.60
  -5  -1   5  248.18   45.50
   5   1  -4   34.00   13.70
  -5   1   4   28.50   14.20
   5   1  -4   58.09   14.00
   5   1  -4   37.70    7.70
   5  -1  -4   38.00   18.70
   5  -1  -4   42.40   19.60
  -5  -1   4   34.60   18.40
   5   1  -3  646.54   67.79
  -5   1   3  645.54   70.29
  -5   1   3  561.64   69.29
   5  -1  -3  657.93   72.99
   5  -1  -3  735.53   67.59
  -5  -1   3  547.15   67.69
   5   1  -2 1254.27  120.99
  -5   1   2 1171.38  118.79
  -5  -1   2 1228.68  123.29
   5  -1  -2 1497.85  116.49
   5  -1  -2 1304.17  125.49
  -5   1   1  120.89   16.50
   5   1  -1  149.09   20.90
  -5   1   1   97.99   22.00
  -5  -1   1  136.09   24.00
   5  -1  -1  143.49   14.80
   5  -1  -1  101.49   20.80
  -5   1   0 1375.76  120.09
  -5   1   0 1263.77  126.59
   5   1   0 1313.47  120.89
   5   1   0 1520.25  124.29
   5  -1   0 1474.95  119.99
  -5  -1   0 1392.56  118.69
  -5  -1   0 1290.57  125.69
   5   1   1    1.50    3.40
   5   1   1   -1.40    3.60
  -5   1  -1    2.30    6.90
  -5   1  -1    3.60    2.50
   5  -1   1    1.50    2.80
  -5  -1  -1    1.90    2.50
  -5  -1  -1    8.60    5.00
   5  -1   1    7.80    5.10
  -5   1  -2    0.20    2.90
   5   1   2   -0.60    2.80
   5   1   2    1.20    3.80
  -5  -1  -2    8.30   11.50
  -5  -1  -2   -0.40    4.00
  -5  -1  -2   -4.30    2.50
   5  -1   2    0.70    3.20
   5   1   3  655.63   68.19
   5   1   3  703.33   60.99
  -5   1  -3  726.73   66.59
   5  -1   3  628.14   67.89
  -5  -1  -3  705.23   64.79
  -5  -1  -3  671.53   67.29
   5   1   4  412.16   38.80
  -5   1  -4  396.36   45.40
  -5  -1  -4  419.16   47.30
  -5  -1  -4  465.05   43.00
  -5   1  -5   26.70   10.10
  -5  -1  -5   39.40   12.00
  -5  -1  -5   53.29   11.30
  -5   1  -6    3.20    8.70
  -5  -1  -6   17.30   10.60
  -5   1  -7   11.40   11.70
  -5  -1  -7   -3.10    8.80
  -5   1  -8    6.00   12.60
  -5  -1  -8  -12.10   12.30
   5   2  -9   -2.60    8.20
   5   2  -9   -6.10    5.50
   5  -2  -9    2.60   15.30
  -5  -2   9  -23.40   28.80
   5   2  -8    7.10    5.60
   5   2  -8    6.80    8.30
   5  -2  -8   20.30   12.70
   5  -2  -8   10.20    6.50
  -5  -2   8   -8.80   23.50
  -5   2   7   65.99   42.00
   5   2  -7   67.99   14.30
   5  -2  -7   64.49   17.30
   5  -2  -7   61.99   12.00
  -5  -2   7   57.69   25.10
  -5   2   6  302.17   53.59
  -5   2   6  262.07   60.69
   5   2  -6  270.57   31.10
  -5  -2   6  284.67   48.40
   5  -2  -6  281.77   29.30
   5  -2  -6  283.37   36.40
  -5   2   5   28.40   19.90
   5   2  -5    3.10   10.30
   5   2  -5   23.80   17.80
   5   2  -5   17.60    5.40
  -5   2   5   18.00   16.60
   5  -2  -5    6.70    3.90
   5  -2  -5   -5.60   17.40
  -5  -2   5   19.20   14.80
   5   2  -4  559.64   65.89
  -5   2   4  623.24   72.09
   5   2  -4  635.24   53.69
   5   2  -4  566.54   63.49
  -5   2   4  570.04   74.99
   5  -2  -4  714.23   82.49
   5  -2  -4  705.63   81.69
   5  -2  -4  571.74   54.19
  -5  -2   4  492.25   65.39
   5   2  -3   -0.30    6.20
  -5   2   3    3.70    9.70
  -5   2   3    3.90    9.10
   5  -2  -3   -0.40   11.00
   5  -2  -3    1.40    8.50
   5  -2  -3    1.00    1.90
  -5  -2   3    0.90    8.70
   5   2  -2  860.41   80.29
  -5   2   2  737.03   84.59
  -5   2   2  761.92   81.69
  -5  -2   2  748.93   82.29
   5  -2  -2  799.42   87.89
   5  -2  -2 1005.00   80.59
  -5   2   1  519.75   60.09
  -5   2   1  514.45   53.89
   5   2  -1  600.94   55.29
   5  -2  -1  502.25   60.39
  -5  -2   1  501.25   56.49
   5  -2  -1  601.64   52.19
   5   2   0  420.86   41.40
  -5   2   0  426.36   41.10
  -5   2   0  393.16   46.40
  -5  -2   0  411.16   38.40
   5  -2   0  443.06   39.90
  -5  -2   0  410.26   43.80
  -5  -2   0  347.77   48.00
   5  -2   0  394.06   46.40
   5   2   1  128.39   15.20
  -5   2  -1   92.39   18.60
  -5   2  -1  117.69   15.40
   5   2   1  107.89   15.50
  -5  -2  -1  102.79   25.80
   5  -2   1  105.19   18.50
   5  -2   1  128.39   15.70
  -5  -2  -1  104.69   15.30
  -5  -2  -1  119.39   16.90
   5   2   2   13.70    6.50
  -5   2  -2   11.20    6.20
   5   2   2   15.60    4.60
   5  -2   2   11.90    5.90
  -5  -2  -2    9.10    6.00
  -5  -2  -2   22.40   14.00
  -5  -2  -2   12.80    5.90
   5   2   3  496.45   47.60
  -5   2  -3  554.54   52.59
   5   2   3  539.45   55.29
  -5  -2  -3  502.55   54.09
  -5  -2  -3  513.25   50.69
  -5   2  -4   23.50    9.30
  -5  -2  -4   14.60    5.90
  -5  -2  -4   17.70    8.40
   5   2   5    3.80    4.30
  -5   2  -5    2.20    5.90
  -5  -2  -5   -7.60    5.30
   5   2   6  123.29   15.50
  -5   2  -6  108.89   22.30
  -5  -2  -6  119.29   24.70
  -5  -2  -6  186.28   22.10
  -5   2  -7   28.90   12.20
  -5  -2  -7   24.70   15.50
  -5  -2  -7   22.50   12.20
  -5   2  -8   56.89   17.40
  -5  -2  -8   20.70   17.40
   5   3  -9   42.50   13.90
   5   3  -9   48.20   10.60
  -5  -3   9   56.79   40.90
   5  -3  -9   67.39   23.60
   5  -3  -9   44.90   12.30
   5   3  -8  246.48   30.70
   5   3  -8  195.68   25.60
  -5   3   8  191.48   65.69
   5  -3  -8  267.27   28.10
   5  -3  -8  258.27   40.20
  -5  -3   8   80.69   54.29
   5   3  -7  107.09   17.50
  -5   3   7   92.99   42.40
  -5  -3   7   62.29   27.40
   5  -3  -7  103.59   19.40
   5  -3  -7  118.69   26.10
   5   3  -6  384.16   36.30
  -5   3   6  256.57   64.89
   5  -3  -6  328.87   35.00
  -5  -3   6  321.67   47.60
   5  -3  -6  352.56   44.30
  -5   3   5   -6.60   14.70
   5   3  -5    2.60   10.20
   5   3  -5    5.10   13.90
   5   3  -5    1.70    2.90
  -5  -3   5  -15.50   10.70
  -5  -3   5    3.20    5.20
   5   3  -4  566.94   69.69
  -5   3   4  829.72   85.79
   5   3  -4  786.12   70.79
   5   3  -4  714.33   59.99
  -5   3   4  497.65   79.09
  -5  -3   4  654.93   60.79
  -5  -3   4  536.15   72.49
   5  -3  -4  683.23   61.69
   5  -3  -4  920.11   88.49
  -5   3   3   38.10   19.00
   5   3  -3   47.80   12.70
  -5   3   3   61.49   18.50
  -5  -3   3   37.20   14.90
   5  -3  -3   42.50   20.20
   5  -3  -3   54.39   20.20
   5  -3  -3   28.30    6.60
  -5   3   2 1063.19  102.59
  -5   3   2  893.61   96.29
   5  -3  -2 1002.60   85.29
   5  -3  -2  972.20  102.49
  -5  -3   2  925.21   94.79
  -5   3   1    4.60    8.00
   5   3  -1   -2.50    3.80
  -5   3   1    5.40    6.20
   5  -3  -1    2.50    4.10
   5  -3  -1   -1.30    1.70
   5  -3  -1    6.20   11.00
  -5  -3   1    2.50    4.90
   5   3   0  317.67   32.40
   5   3   0  300.47   41.10
  -5   3   0  295.87   32.60
  -5   3   0  305.57   38.20
   5  -3   0  307.77   30.80
  -5  -3   0  306.57   33.60
   5  -3   0  243.88   37.30
   5  -3   0  280.57   26.80
  -5  -3   0  247.18   28.60
  -5  -3   0  300.37   39.20
  -5   3  -1 1262.17  104.89
   5   3   1 1174.48  124.99
  -5   3  -1 1042.40  106.79
  -5  -3  -1 1123.09  103.29
   5  -3   1 1087.79  106.89
   5  -3   1 1206.18  103.19
   5  -3   1 1052.39   97.99
  -5  -3  -1 1238.18  105.19
  -5  -3  -1 1166.68  121.19
  -5   3  -2   34.40    8.30
   5   3   2   28.50    7.30
  -5  -3  -2   34.40    9.70
   5  -3   2   35.50    9.10
  -5  -3  -2   26.50    7.90
  -5   3  -3  597.14   55.89
   5   3   3  557.54   51.49
  -5  -3  -3  526.65   57.59
  -5  -3  -3  520.65   53.59
   5   3   4  626.04   60.49
  -5   3  -4  704.63   66.49
  -5  -3  -4  667.23   63.29
  -5  -3  -4  641.84   69.09
  -5   3  -5  195.18   27.40
  -5  -3  -5  243.78   26.20
  -5  -3  -5  140.59   29.20
  -5   3  -6  502.25   57.39
  -5  -3  -6  517.25   62.89
  -5  -3  -6  550.64   53.89
  -5   3  -7   37.40   14.30
  -5  -3  -7   30.10   16.10
  -5  -3  -7   90.89   17.60
  -5   3  -8  -20.10    9.10
  -5  -3  -8    6.30   12.80
  -5  -3  -8  -29.30   11.60
   5   4  -9   -8.20    7.30
   5   4  -9    5.20   10.90
  -5  -4   9    4.50   41.50
   5  -4  -9    7.40    8.40
   5  -4  -9   21.60   32.00
   5   4  -8   49.99   13.10
  -5   4   8  -31.80   31.80
  -5  -4   8   83.59   51.99
   5  -4  -8   39.20   19.40
   5  -4  -8   53.99   12.10
  -5   4   7  382.56   90.19
   5   4  -7  649.54   55.99
   5  -4  -7  566.84   65.69
   5  -4  -7  526.05   53.69
  -5  -4   7  438.26   70.19
  -5   4   6  290.67   73.49
   5   4  -6  473.55   41.50
   5  -4  -6  401.96   40.50
  -5  -4   6  266.37   54.39
  -5  -4   6  388.56   46.40
   5   4  -5  204.48   21.10
  -5   4   5  155.08   44.10
   5   4  -5  106.19   28.80
   5  -4  -5  171.98   20.60
  -5  -4   5  207.48   37.90
  -5  -4   5  171.28   22.10
   5   4  -4   31.70    6.50
   5   4  -4   48.50   12.40
  -5   4   4   29.90   20.70
  -5  -4   4   22.70    5.70
   5  -4  -4   24.60    7.50
  -5  -4   4   53.99   17.90
   5   4  -3    0.90    5.80
  -5   4   3  -10.00    8.60
   5  -4  -3   -1.30    2.70
   5  -4  -3  -13.10    9.10
  -5  -4   3   -5.00    8.10
   5   4  -2  794.52   86.99
  -5   4   2  900.11   97.99
   5   4  -2 1002.80   88.89
   5  -4  -2  955.80   84.49
   5  -4  -2 1177.88   97.89
   5  -4  -2  981.80  103.39
  -5  -4   2  959.80   93.59
   5   4  -1  699.23   63.69
   5   4  -1  510.45   66.99
   5  -4  -1  614.04   59.49
   5  -4  -1  775.62   67.79
  -5  -4   1  744.63   62.69
  -5  -4   1  647.84   66.69
   5  -4  -1  687.73   76.29
  -5   4   0  128.79   21.20
   5   4   0  129.49   17.20
   5   4   0  106.19   27.40
  -5  -4   0  113.29   23.90
  -5  -4   0  131.99   19.80
   5  -4   0  144.49   19.40
   5  -4   0  147.59   14.80
   5  -4   0  153.28   29.60
   5   4   1    3.50    4.80
   5   4   1   -4.50   13.80
  -5   4  -1    6.30    5.50
  -5  -4  -1   27.90   15.50
   5  -4   1    7.20    9.70
   5  -4   1    9.30    3.00
  -5  -4  -1    7.10    6.40
  -5  -4  -1   10.20    5.30
   5  -4   1   12.50    5.90
   5   4   2  751.52  107.69
  -5   4  -2  787.02   73.79
  -5  -4  -2  730.93   71.89
  -5  -4  -2  783.32   97.89
  -5  -4  -2  733.13   80.39
   5   4   3  369.96   78.19
  -5   4  -3  506.15   60.89
  -5  -4  -3  423.26   49.00
  -5  -4  -3  439.36   45.20
  -5   4  -4   -6.20    5.40
  -5  -4  -4   17.20    8.20
  -5  -4  -4    3.30    8.30
  -5   4  -5  395.16   47.90
  -5  -4  -5  458.45   60.29
  -5  -4  -5  460.45   46.50
  -5   4  -6   42.30   15.10
  -5  -4  -6   60.39   15.10
  -5  -4  -6   62.89   20.50
  -5   4  -7   37.00   14.00
  -5  -4  -7   28.50   15.10
  -5  -4  -7   31.10   12.60
   5   5  -8  402.26   43.50
  -5   5   8  238.28   74.79
  -5  -5   8  279.47   59.99
   5  -5  -8  401.86   41.30
   5  -5  -8  345.57   52.89
   5   5  -7   93.89   17.30
  -5   5   7   64.89   42.80
   5  -5  -7  143.29   18.60
   5  -5  -7  113.19   27.70
  -5   5   6   18.60   23.00
   5   5  -6   -4.30   20.50
  -5  -5   6   20.50   14.50
   5  -5  -6   16.60    7.30
  -5  -5   6   -5.30    9.50
   5   5  -5  682.53   59.59
  -5   5   5  514.85   88.39
  -5  -5   5  541.95   57.89
  -5  -5   5  507.45   71.29
   5  -5  -5  693.73   59.29
  -5   5   4    5.50   17.30
   5   5  -4   20.60    7.00
   5  -5  -4   31.50    7.70
  -5  -5   4   25.50   17.20
  -5  -5   4   23.50    7.70
   5   5  -3    6.50    5.60
  -5   5   3    9.20   14.40
   5  -5  -3    9.40    6.30
  -5  -5   3   22.30   11.40
  -5  -5   3    8.10    3.90
  -5   5   2   29.40   16.10
   5   5  -2   36.50   11.80
  -5  -5   2   38.40    7.10
   5  -5  -2   39.80    8.20
  -5  -5   2   24.70   11.50
  -5   5   1 2222.28  210.18
   5   5  -1 2014.40  207.38
   5  -5  -1 2296.77  213.68
  -5  -5   1 2494.25  204.98
   5  -5  -1 2388.96  196.68
   5   5   0   37.80   19.90
  -5   5   0   59.49   15.90
  -5  -5   0   67.79   15.10
   5  -5   0   41.80   18.20
   5  -5   0   78.29    9.90
  -5  -5   0   70.49   19.00
   5   5   1  605.14   82.29
  -5   5  -1  699.13   68.49
   5  -5   1  596.34   70.09
   5  -5   1  605.64   58.09
  -5  -5  -1  742.23   65.89
  -5  -5  -1  670.43   64.59
   5   5   2  521.75   86.69
  -5  -5  -2  677.43   63.79
   5  -5   2  629.94   56.49
  -5  -5  -2  688.83   66.49
   5  -5   2  617.64   66.59
  -5   5  -3    2.60    6.00
  -5  -5  -3   -3.50    4.90
  -5  -5  -3    1.10    6.50
  -5   5  -4    0.10    5.30
   5   5   4   33.80   31.10
  -5  -5  -4    0.60    5.90
  -5  -5  -4    7.60    8.10
  -5   5  -5  252.37   35.00
  -5  -5  -5  255.97   32.10
  -5  -5  -5  265.27   40.60
  -5   5  -6   50.29   17.00
  -5  -5  -6  105.99   27.00
  -5  -5  -6   87.29   18.00
  -5  -5  -7   15.90   10.90
  -5  -5  -7   52.79   23.10
   5   6  -8   13.60   14.50
  -5   6   8  -22.20   40.80
   5  -6  -8    7.70   17.30
   5  -6  -8   34.30   12.70
  -5  -6   8  -26.40   34.40
   5   6  -7  390.06   45.70
  -5   6   7  300.37   85.19
  -5  -6   7  386.46   64.49
   5  -6  -7  422.16   44.00
  -5   6   6   48.70   28.60
   5   6  -6   24.60   10.90
  -5  -6   6   31.40   23.30
   5  -6  -6   10.10    7.60
  -5   6   5  579.14   99.39
   5   6  -5  817.02   74.09
  -5  -6   5  647.44   76.29
   5  -6  -5  801.42   71.59
  -5  -6   5  896.61  118.09
  -5   6   4   91.99   33.50
   5   6  -4   80.99   17.80
  -5  -6   4  101.39   31.40
   5  -6  -4  121.09   15.20
  -5  -6   4   75.39   14.20
  -5   6   3   -7.50   11.00
   5   6  -3    2.00    9.00
   5  -6  -3   -0.40    3.60
  -5  -6   3  -22.40    8.00
  -5  -6   3   -2.50    4.30
   5   6  -2   13.40   12.20
  -5   6   2   44.90   18.70
  -5  -6   2   11.60    9.80
   5  -6  -2   36.10    8.90
  -5  -6   2   21.60    6.60
   5   6  -1  165.38   34.60
  -5   6   1  182.18   37.90
   5  -6  -1  220.38   23.50
  -5  -6   1  251.27   28.90
   5   6   0   23.40   17.90
  -5   6   0   44.70   15.80
   5  -6   0    8.40   19.20
  -5  -6   0   58.49   14.80
   5  -6   0   50.59    9.00
  -5   6  -1  542.75   59.29
   5   6   1  534.25   73.79
   5  -6   1  395.86   59.89
   5  -6   1  537.95   48.60
  -5  -6  -1  458.55   52.59
  -5  -6  -1  600.84   70.69
  -5   6  -2   21.50   12.30
   5   6   2   38.10   24.80
  -5  -6  -2   34.60   11.00
   5  -6   2   39.90    7.30
   5  -6   2   61.09   17.10
  -5  -6  -2   48.50   12.70
  -5   6  -3   55.39   15.70
   5   6   3   92.99   39.00
  -5  -6  -3   58.99   17.70
  -5  -6  -3   82.89   17.60
  -5   6  -4    4.90    8.90
  -5   6  -5  497.95   58.19
   5   6   5  360.86   92.19
  -5  -6  -5  548.15   62.89
  -5  -6  -5  506.75   53.89
  -5   6  -6   89.49   21.50
  -5  -6  -6   94.89   28.60
  -5  -6  -6  131.49   23.50
  -5   6  -7  131.89   28.90
  -5  -6  -7  149.99   28.60
  -5  -6  -7  127.59   34.90
   5   7  -7    1.20   14.30
  -5  -7   7  -32.70   28.30
  -5   7   6   31.00   32.80
   5   7  -6   36.70   14.10
   5  -7  -6   45.10   11.80
  -5  -7   6   21.10   25.80
   5   7  -5  298.97   39.90
  -5   7   5  233.88   62.79
   5  -7  -5  336.67   35.80
  -5  -7   5  382.16   54.19
   5   7  -4  320.17   41.30
  -5   7   4  281.07   60.39
   5  -7  -4  329.07   34.90
  -5  -7   4  268.27   38.20
  -5  -7   4  380.16   50.19
   5   7  -3  120.79   24.10
  -5  -7   3  167.58   30.20
  -5  -7   3  129.69   20.80
   5   7  -2   66.29   20.00
  -5   7   2   70.89   26.70
  -5  -7   2  105.29   23.30
   5  -7  -2   89.29   13.60
  -5   7   1  821.32  101.49
  -5  -7   1  999.40   94.09
  -5  -7   1 1056.49   91.69
   5  -7  -1  886.81   85.19
  -5   7   0    1.50   10.90
   5   7   0   -3.40   14.00
   5  -7   0    3.60    3.80
  -5  -7   0   -3.80   12.40
  -5  -7   0    0.20    7.20
  -5   7  -1   35.40   15.90
   5   7   1   30.50   21.20
  -5  -7  -1   61.69   14.70
   5   7   2  114.89   40.10
   5  -7   2   84.59   26.30
   5   7   3   77.69   33.40
  -5   7  -3   19.20   12.20
  -5  -7  -3   21.40   10.60
  -5  -7  -3   11.80   10.10
   5   7   4  161.88   63.39
  -5   7  -4  272.27   41.30
  -5  -7  -4  316.67   44.10
  -5  -7  -4  311.97   37.00
   5   7   5   38.10   44.50
  -5   7  -5  -16.00   11.50
  -5  -7  -5   -3.90   10.20
  -5  -7  -5  -10.40   12.60
  -5   7  -6  131.99   29.30
  -5  -7  -6  106.19   38.50
  -5  -7  -6  133.69   25.90
   5   8  -6   22.80   32.90
  -5  -8   6   11.30   37.20
   5  -8  -6   -3.10   10.30
  -5   8   5   59.69   34.20
   5   8  -5   67.89   19.50
   5  -8  -5   42.80   11.80
  -5  -8   5   50.89   28.90
   5   8  -4    0.60   14.60
  -5   8   4  -14.90   19.60
  -5  -8   4  -12.00   14.40
   5  -8  -4    1.80    5.40
  -5   8   3    8.40   19.90
   5   8  -3   12.60   15.10
  -5  -8   3   24.00    9.50
   5  -8  -3   18.50    7.20
  -5  -8   3   38.20   18.00
  -5   8   2   77.89   26.20
   5   8  -2   93.09   24.60
  -5  -8   2   89.59   34.10
   5  -8  -2   81.79   15.20
   5   8  -1   12.20   18.10
  -5   8   1   25.90   18.20
   5  -8  -1   36.50    9.00
  -5  -8   1    5.60   12.50
   5   8   0   57.29   27.10
  -5   8   0  104.89   27.40
  -5  -8   0  136.69   25.50
   5  -8   0  133.59   16.90
   5   8   1   72.69   33.40
  -5   8  -1   64.69   19.60
  -5  -8  -1   47.30   15.10
   5  -8   1   64.29   17.70
   5   8   2  139.79   50.29
  -5   8  -2  172.78   36.20
   5  -8   2  211.08   23.00
  -5  -8  -2  197.78   29.10
  -5   8  -3  382.46   53.19
   5   8   3  348.77   78.39
  -5  -8  -3  410.96   50.89
  -5  -8  -3  354.86   44.50
   5   8   4  -24.40   33.40
  -5   8  -4   -5.40   14.20
  -5  -8  -4  -19.50   10.20
  -5  -8  -4   -7.20   10.70
   5   8   5   46.70   54.19
  -5  -8  -5  107.39   25.00
  -5  -8  -5  142.89   31.60
  -5   9   5   23.70   32.80
   5   9  -5   44.90   21.30
   5  -9  -5   14.60    8.40
  -5  -9   5  -22.00   27.80
  -5   9   4   29.10   37.00
  -5  -9   4  130.89   35.50
   5  -9  -4  104.89   18.70
  -5   9   3  123.19   41.70
   5  -9  -3  165.18   23.70
  -5  -9   3  200.08   38.70
  -5   9   2  156.78   47.60
  -5  -9   2  194.98   35.90
   5  -9  -2  252.37   28.40
  -5   9   1    0.00   17.30
   5   9  -1   18.20   21.10
   5  -9  -1    9.00    7.10
  -5  -9   1   -0.80   10.40
  -5   9   0   48.50   20.90
   5   9   0  -15.90   25.00
  -5  -9   0   53.09   16.80
   5  -9   0   21.50   11.40
  -5   9  -1   -2.60   16.20
   5   9   1   -3.80   21.00
   5  -9   1   11.30    6.70
  -5  -9  -1   12.60   12.30
   5   9   2  -37.80   28.60
  -5   9  -2   -6.40   17.00
  -5  -9  -2   40.40   15.10
   5  -9   2   44.60   10.80
   5   9   3   -2.40   36.80
  -5   9  -3   12.50   17.60
  -5  -9  -3   36.40   15.40
  -5  -9  -3   27.30   14.70
   5  -9   3   42.80   13.60
   5   9   4   42.30   44.40
  -5  -9  -4   21.60   19.40
  -5  -9  -4   55.89   17.70
   5  10  -4  102.59   31.60
  -5  10   4   54.89   40.80
   5 -10  -4  105.39   21.40
  -5 -10   4  109.19   37.20
  -5  10   3  -27.50   29.00
   5  10  -3    6.30   22.00
  -5 -10   3    9.70   20.90
   5 -10  -3   20.90    9.70
   5  10  -2   12.80   24.40
  -5  10   2    9.70   27.70
   5 -10  -2   48.50   11.70
  -5 -10   2   52.19   21.40
  -5  10   1   35.60   28.40
   5  10  -1   35.90   24.40
  -5 -10   1   62.09   22.40
   5 -10  -1   78.99   15.80
   5  10   0   19.30   27.10
  -5  10   0  -14.50   21.50
   5 -10   0    1.20    7.10
  -5 -10   0   -8.30   11.10
  -5  10  -1    5.50   24.00
   5  10   1    1.80   27.10
   5 -10   1   12.00   10.90
  -5 -10  -1   56.09   18.30
   5  10   2  -12.60   31.70
  -5 -10  -2    9.70   11.00
   5 -10   2  -12.30   10.20
   5  10   3   62.59   41.40
  -5  10  -3   35.80   27.40
  -5 -10  -3   39.20   18.20
  -5 -10  -3   57.79   20.10
   5 -10   3   41.30   18.90
  -5  11   2   -9.40   34.20
   5  11  -2  -28.80   26.20
  -5 -11   2   -4.70   21.80
   5 -11  -2  -11.40    6.90
   5  11  -1   45.10   33.70
  -5  11   1   -8.20   36.30
  -5 -11   1   71.59   24.70
   5 -11  -1   52.59   14.70
  -5  11   0   -5.00   26.10
   5  11   0  -31.70   28.30
   5 -11   0   -0.10   10.20
  -5 -11   0  -14.90   14.30
   5  11   1  -47.80   34.40
  -5  11  -1   -4.00   30.80
   5 -11   1   -5.00   11.30
  -5 -11  -1   33.70   20.00
   6   0  -9   15.60    6.80
   6   0  -9   -1.20    9.50
   6   0  -8  103.39   14.60
  -6   0   8  112.39   31.90
   6   0  -8   73.79   18.80
  -6   0   7  -11.10   18.50
   6   0  -7   -2.70    3.30
   6   0  -7   -0.70    7.40
   6   0  -6   -9.50   20.70
   6   0  -6   21.20    8.50
   6   0  -5    0.80    4.00
  -6   0   5  -11.20   13.40
  -6   0   5   -5.60   12.20
   6   0  -5    6.70   11.10
   6   0  -4  269.87   36.60
   6   0  -4  224.98   40.80
   6   0  -4  257.17   28.00
  -6   0   4  305.77   43.00
  -6   0   4  262.37   39.00
   6   0  -3   -0.70    4.10
  -6   0   3    3.00   15.10
  -6   0   3    1.50    8.80
   6   0  -2 6236.98  560.24
   6   0  -2 7216.08  547.55
  -6   0   2 5994.20  551.64
   6   0  -1    6.00    7.80
   6   0  -1    0.90    2.10
  -6   0   1    1.60    2.50
  -6   0   1    6.90    8.70
   6   0   0  186.78   20.80
  -6   0   0  190.78   19.90
   6   0   0  199.98   26.30
  -6   0   0  200.78   30.20
   6   0   1    7.10    5.20
  -6   0  -1   10.70    6.60
  -6   0  -1    0.00    2.50
   6   0   1    0.80    3.40
  -6   0  -2  711.33   67.19
   6   0   2  769.72   65.29
   6   0   2  664.23   68.99
  -6   0  -2  687.73   70.09
  -6   0  -3    5.90    7.80
  -6   0  -3    3.90    4.20
   6   0   3    0.90    3.00
  -6   0  -4  260.97   32.60
  -6   0  -5   -5.60    5.60
  -6   0  -6   54.89   15.50
  -6   0  -7  -16.20    7.70
  -6   0  -8  -21.10   12.90
   6   1  -9    5.70   11.70
   6   1  -9    5.80    6.90
  -6  -1   9  -22.00   31.10
   6  -1  -9  -26.70   12.70
   6  -1  -9    4.00    5.90
   6   1  -8  182.18   21.40
   6   1  -8  185.48   27.50
   6  -1  -8  150.68   29.00
  -6  -1   8  175.88   42.00
   6  -1  -8  177.98   21.70
  -6   1   7   55.19   25.50
   6   1  -7   32.00   11.20
   6  -1  -7   31.30   14.50
  -6  -1   7   46.70   23.90
   6  -1  -7   51.99   10.80
  -6   1   6  285.27   52.69
   6   1  -6  271.27   31.70
  -6   1   6  252.67   57.69
   6  -1  -6  278.57   28.80
  -6  -1   6  272.07   49.70
   6  -1  -6  277.47   34.70
   6   1  -5  258.57   27.50
  -6   1   5  228.58   44.80
  -6   1   5  244.58   50.19
   6   1  -5  184.88   36.10
   6  -1  -5  267.97   30.40
  -6  -1   5  224.78   42.80
   6   1  -4  688.13   65.99
   6   1  -4  630.84   71.39
   6   1  -4  631.64   58.79
  -6   1   4  609.64   76.99
  -6   1   4  628.04   75.89
   6  -1  -4  754.92   72.59
  -6  -1   4  560.54   72.49
  -6   1   3   98.59   27.00
   6   1  -3  123.09   24.80
  -6   1   3   91.19   21.80
   6  -1  -3  116.59   28.70
  -6  -1   3  128.29   34.40
   6  -1  -3  121.29   19.90
  -6   1   2  234.28   35.10
  -6   1   2  227.38   28.70
   6   1  -2  195.38   30.30
  -6  -1   2  219.68   33.70
   6  -1  -2  226.58   23.90
   6  -1  -2  195.68   35.60
   6   1  -1  660.53   63.39
  -6   1   1  607.94   57.49
  -6   1   1  551.24   65.49
  -6  -1   1  555.14   64.89
   6  -1  -1  561.14   65.49
   6  -1  -1  656.53   55.39
   6   1   0 3178.98  292.47
   6   1   0 3727.83  297.97
  -6   1   0 3037.70  300.57
  -6   1   0 3588.54  293.27
   6  -1   0 3307.17  299.67
  -6  -1   0 3296.37  300.67
  -6  -1   0 3558.54  291.37
   6  -1   0 3722.03  293.17
  -6   1  -1  570.54   65.59
   6   1   1  741.03   62.49
   6   1   1  645.54   61.89
  -6   1  -1  684.03   60.69
  -6  -1  -1  648.44   60.29
   6  -1   1  600.44   63.19
   6  -1   1  664.43   61.59
  -6  -1  -1  621.84   65.39
   6   1   2  280.67   27.40
  -6   1  -2  253.07   32.70
   6  -1   2  291.17   28.20
  -6  -1  -2  245.08   29.60
   6  -1   2  227.48   30.20
  -6  -1  -2  276.37   32.30
   6   1   3    0.10    3.50
  -6   1  -3    2.50    4.00
  -6  -1  -3   11.30    8.00
  -6  -1  -3   -1.50    3.50
  -6   1  -4   85.19   17.90
   6   1   4  101.69   12.50
  -6  -1  -4  128.59   18.40
  -6  -1  -4   78.09   17.30
  -6   1  -5   -3.80    4.80
  -6  -1  -5   -8.70    7.30
  -6  -1  -5    3.40    6.30
  -6   1  -6   -7.70    6.40
  -6  -1  -6   -1.50    8.80
  -6   1  -7   -9.20    8.40
  -6  -1  -7   -6.20    9.40
  -6   1  -8    9.40   14.80
  -6  -1  -8   -0.70   13.20
  -6  -2   9   -2.90   37.20
   6  -2  -9   16.50    9.30
   6  -2  -9   18.80   19.30
   6   2  -8   11.70    4.80
   6   2  -8    4.00    7.60
  -6  -2   8    6.60   26.30
   6  -2  -8    6.90    6.00
   6  -2  -8    6.20   11.10
   6   2  -7   29.50   23.90
   6   2  -7   30.50    9.20
  -6   2   7   50.79   26.10
  -6   2   7    6.70   29.70
   6  -2  -7   29.40    8.50
  -6  -2   7    8.10   22.50
   6  -2  -7   27.90   12.10
  -6   2   6   63.09   25.60
  -6   2   6   32.10   21.00
   6   2  -6   26.00    7.20
   6   2  -6   23.60   20.00
   6  -2  -6   30.30    7.60
   6  -2  -6   17.10    9.60
  -6  -2   6   24.10   18.50
   6   2  -5    6.90    3.90
   6   2  -5   -4.90   12.80
  -6   2   5   29.00   18.30
  -6   2   5   21.80   16.70
   6  -2  -5    8.50    5.60
   6  -2  -5    0.80   18.30
  -6  -2   5    6.60   14.10
  -6   2   4 1059.79  125.39
  -6   2   4 1305.37  128.19
   6   2  -4 1289.27  119.19
  -6  -2   4 1098.09  122.19
   6  -2  -4 1281.47  107.09
  -6   2   3  333.37   46.90
   6   2  -3  389.26   44.40
  -6   2   3  326.77   47.00
   6  -2  -3  365.56   53.69
  -6  -2   3  344.47   47.90
   6   2  -2 1551.04  131.59
  -6   2   2 1309.87  136.19
  -6   2   2 1207.28  129.59
   6  -2  -2 1648.24  127.59
  -6  -2   2 1362.16  134.59
   6  -2  -2 1304.47  137.69
   6   2  -1 1709.23  147.59
  -6   2   1 1284.17  137.39
  -6   2   1 1407.76  130.99
  -6  -2   1 1421.26  136.29
   6  -2  -1 1405.46  139.29
   6  -2  -1 1551.74  128.29
   6   2   0   23.30    8.20
  -6   2   0   10.60   10.70
  -6   2   0   14.80    6.10
  -6  -2   0   14.00    3.70
   6  -2   0   17.90    5.30
  -6  -2   0    8.10    9.70
  -6  -2   0   13.70    8.20
   6  -2   0   25.80   12.40
   6   2   1  573.84   52.09
  -6   2  -1  578.04   52.69
  -6   2  -1  513.95   56.89
   6   2   1  537.55   52.59
   6  -2   1  578.34   56.49
  -6  -2  -1  572.14   56.49
  -6  -2  -1  398.86   61.99
  -6  -2  -1  524.15   51.69
   6   2   2   10.00    7.00
  -6   2  -2   17.00    5.70
   6   2   2   21.20    6.60
  -6  -2  -2   -7.80   16.30
  -6  -2  -2   16.10    6.40
   6  -2   2    7.40    5.40
  -6  -2  -2   20.90    8.10
  -6   2  -3   50.49   11.30
   6   2   3   47.30    8.70
  -6  -2  -3   42.20   11.40
  -6  -2  -3   48.10   12.20
  -6   2  -4   58.09   13.40
   6   2   4   49.90    8.70
  -6  -2  -4   46.10   12.40
   6   2   5  327.07   33.00
  -6  -2  -5  410.26   40.40
  -6  -2  -5  282.97   41.60
   6   2   6   20.80    6.50
  -6   2  -6   23.90   11.20
  -6  -2  -6   41.50   13.00
  -6  -2  -6   57.39   16.60
  -6  -2  -7   -3.70   10.40
  -6   2  -8   71.69   21.20
  -6  -2  -8   65.79   23.80
   6   3  -9    1.80    6.70
   6   3  -9   -0.60    9.40
   6  -3  -9    0.60    8.20
   6  -3  -9   -1.80   15.00
  -6  -3   9  -16.80   33.40
  -6   3   8   87.49   45.20
   6  -3  -8   87.89   23.20
  -6  -3   8   95.39   35.60
   6  -3  -8  125.49   17.80
  -6   3   7   -1.50   28.60
   6   3  -7  -47.10   22.70
   6   3  -7   27.00    8.40
   6  -3  -7    8.30   10.60
  -6  -3   7   41.10   23.90
   6  -3  -7   32.20    8.80
   6   3  -6   11.80   20.30
  -6   3   6   27.30   23.40
   6   3  -6    9.10    4.60
   6  -3  -6    9.20    5.60
  -6  -3   6   30.00   20.30
  -6   3   5    3.90   17.40
  -6   3   5   77.29   26.90
   6   3  -5   22.60   14.60
   6  -3  -5   35.70    8.20
  -6  -3   5   36.70   17.90
  -6   3   4   -1.80   11.80
  -6   3   4    7.50   14.80
   6  -3  -4    1.50    2.20
  -6  -3   4   14.10   15.50
   6  -3  -4    1.00   10.30
  -6   3   3  574.14   82.59
   6   3  -3  888.31   78.79
  -6   3   3  837.02   89.39
   6  -3  -3  976.40   84.09
   6  -3  -3  699.23   69.09
  -6  -3   3  761.72   83.19
  -6   3   2  242.88   40.90
  -6   3   2  198.08   32.10
   6   3  -2  226.68   28.40
   6  -3  -2  224.78   30.40
   6  -3  -2  239.28   43.10
   6  -3  -2  200.38   21.70
  -6  -3   2  213.48   32.20
   6   3  -1   21.00    8.30
  -6   3   1   17.80    8.40
  -6   3   1   34.30   14.00
   6  -3  -1   33.00   26.60
   6  -3  -1   20.70    5.00
   6  -3  -1   21.20    6.90
  -6  -3   1    8.20    7.80
  -6   3   0 1342.17  132.59
  -6   3   0 1346.77  126.49
   6   3   0 1442.36  125.09
   6  -3   0 1353.66  132.89
   6  -3   0 1356.76  120.09
   6  -3   0 1623.64  125.39
  -6  -3   0 1317.17  121.89
  -6  -3   0 1272.27  132.89
  -6  -3   0 1516.35  133.49
  -6   3  -1  350.86   43.00
  -6   3  -1  395.96   39.20
   6   3   1  402.96   37.40
   6  -3   1  334.07   32.50
  -6  -3  -1  318.17   52.89
  -6  -3  -1  362.16   37.40
   6  -3   1  340.67   37.10
  -6  -3  -1  348.17   39.80
  -6   3  -2 2003.40  163.98
   6   3   2 1961.70  160.18
  -6  -3  -2 1753.72  166.98
  -6  -3  -2 1512.05  179.88
  -6  -3  -2 1813.32  163.88
   6   3   3  158.78   21.60
  -6  -3  -3  172.88   26.00
  -6  -3  -3  179.18   23.70
  -6   3  -4   82.59   16.60
  -6  -3  -4   85.29   15.20
  -6  -3  -4   71.79   17.50
  -6   3  -5    7.00    7.90
  -6  -3  -5    1.80   16.20
  -6  -3  -5    5.80    7.60
  -6   3  -6   45.40   13.20
  -6  -3  -6   56.79   17.00
  -6   3  -7  128.59   24.80
  -6  -3  -7  121.29   27.60
   6   4  -8  -14.60    8.30
  -6   4   8  -24.10   40.20
  -6  -4   8   -8.50   28.30
   6  -4  -8   -6.20   12.30
   6  -4  -8   -5.90    4.80
  -6   4   7   14.30   27.50
   6   4  -7  -50.89   22.40
   6   4  -7   14.00    7.80
   6  -4  -7   30.30   14.70
   6  -4  -7   32.60    9.20
  -6  -4   7   -1.70   23.30
  -6   4   6  411.16   86.09
   6   4  -6  571.34   49.50
   6   4  -6  421.96   64.89
   6  -4  -6  498.95   50.69
  -6  -4   6  503.05  102.69
  -6   4   5  250.87   58.89
   6  -4  -5  423.56   39.10
  -6  -4   5  381.76   54.89
  -6   4   4 1498.05  168.08
   6  -4  -4 1727.53  145.09
  -6  -4   4 1681.53  161.28
  -6   4   3    6.50   14.40
  -6   4   3    0.50   11.20
  -6  -4   3   -8.90    8.80
   6  -4  -3    0.90    2.80
  -6   4   2   97.99   24.10
  -6   4   2   86.79   26.90
   6  -4  -2   89.69   12.20
  -6  -4   2   95.49   22.80
   6  -4  -2  117.89   22.30
  -6   4   1   84.49   23.80
  -6   4   1   56.89   14.90
   6  -4  -1   65.89   25.00
  -6  -4   1   32.80   12.20
   6  -4  -1   59.99   13.20
  -6  -4   1   40.30    7.40
   6  -4  -1   44.10    8.10
  -6   4   0   52.29   20.10
  -6   4   0   92.89   18.40
   6   4   0   68.29   21.70
  -6  -4   0   81.39   12.00
  -6  -4   0   62.29   18.90
   6  -4   0   68.09    9.50
   6  -4   0   66.59   20.70
  -6  -4   0   63.19   14.20
   6  -4   0   84.19   15.80
  -6   4  -1 1404.76  121.09
   6   4   1 1104.59  136.79
  -6  -4  -1 1270.67  117.39
  -6  -4  -1 1368.86  120.39
   6  -4   1 1271.27  124.09
   6  -4   1 1279.57  111.59
  -6  -4  -1 1315.37  135.59
  -6   4  -2  477.95   48.10
  -6  -4  -2  429.46   46.50
  -6  -4  -2  440.86   47.30
  -6  -4  -2  340.37   64.89
  -6   4  -3  134.59   20.20
  -6  -4  -3   86.39   17.80
  -6  -4  -3  100.59   20.40
  -6   4  -4    6.30    6.90
  -6  -4  -4   -7.70    6.50
  -6  -4  -4    6.60    6.80
  -6   4  -5   44.70   11.90
  -6  -4  -5   22.60   13.30
  -6  -4  -5   47.80   12.60
  -6   4  -6   88.69   19.90
  -6  -4  -6  127.89   22.40
  -6  -4  -6   78.49   23.90
  -6   4  -7   -9.40   13.10
  -6  -4  -7   12.80   16.30
  -6   5   8  297.27   85.09
   6  -5  -8  476.95   46.90
   6  -5  -8  383.96   59.39
  -6  -5   8  427.26   70.29
   6   5  -7  143.19   21.50
  -6   5   7  115.89   43.60
   6  -5  -7  141.39   31.90
   6  -5  -7  127.59   20.20
  -6  -5   7  157.08   38.10
   6   5  -6  167.98   21.10
  -6   5   6  186.18   48.30
   6  -5  -6  151.08   20.50
  -6  -5   6  129.29   20.50
  -6  -5   6  162.28   40.30
  -6   5   5  666.13   99.99
  -6  -5   5  794.22   87.59
  -6   5   4  180.88   42.80
   6  -5  -4  163.88   19.80
  -6  -5   4  119.69   33.20
  -6   5   3 1688.13  200.78
  -6  -5   3 1904.71  179.28
   6  -5  -3 2005.00  166.08
  -6   5   2  782.22   93.69
   6  -5  -2  889.21   78.59
  -6  -5   2  926.71   90.29
   6   5  -1   24.10   11.20
  -6   5   1   23.00   12.80
   6  -5  -1    7.20    3.80
  -6  -5   1   11.30    7.40
  -6  -5   1   13.80    8.40
   6   5   0   47.00   18.10
  -6   5   0   27.80   11.20
  -6  -5   0   31.60   11.80
  -6  -5   0   19.80   15.40
   6  -5   0   26.10    6.00
  -6  -5   0   25.50    7.60
   6  -5   0   33.90   18.50
   6   5   1   -9.70   12.60
   6  -5   1    0.40    2.50
   6  -5   1    9.70   15.10
  -6  -5  -1   13.00   16.90
  -6  -5  -1  -10.00    4.30
  -6  -5  -1    6.40   10.80
  -6   5  -2   55.39   14.80
   6   5   2   58.99   29.20
  -6  -5  -2   76.29   16.10
  -6  -5  -2   92.79   18.10
   6  -5   2   86.79   10.30
   6  -5   2  113.59   26.10
   6   5   3  -10.80   19.20
  -6   5  -3    8.60    8.10
  -6  -5  -3    9.20    7.30
  -6  -5  -3    6.90    7.60
  -6   5  -4   45.10   13.00
  -6  -5  -4   16.00   11.40
  -6  -5  -4   43.90   12.60
  -6   5  -5  254.57   34.60
  -6  -5  -5  241.38   39.10
  -6  -5  -5  231.78   32.20
  -6   5  -6   -8.00    8.40
  -6  -5  -6   10.90   15.00
  -6  -5  -6    5.80   11.10
  -6   5  -7  215.58   36.30
  -6  -5  -7  174.98   29.60
  -6  -5  -7  161.28   37.70
   6   6  -8  -12.60   20.40
  -6   6   8   64.89   45.70
   6  -6  -8   21.90   10.20
  -6  -6   8    4.90   33.60
   6  -6  -8   -4.60   16.00
   6   6  -7   56.19   16.50
  -6   6   7  102.59   48.70
   6  -6  -7   46.20   11.90
  -6  -6   7   55.19   33.10
  -6   6   6  147.79   51.69
   6   6  -6  183.28   23.90
  -6  -6   6  112.89   26.10
   6  -6  -6  135.89   20.00
  -6  -6   6  109.49   34.80
  -6   6   5   29.90   32.30
   6   6  -5   -2.40    7.80
  -6  -6   5    6.10   20.00
  -6  -6   5   -4.60    7.70
   6  -6  -5   11.10    5.90
  -6   6   4    0.10   22.00
  -6  -6   4   27.00   17.90
   6   6  -3   22.90   10.50
  -6   6   3   32.50   18.70
  -6  -6   3   23.90   15.70
   6  -6  -3   63.89   11.20
  -6   6   2   34.10   16.50
   6   6  -2   11.40   10.60
  -6  -6   2   14.30    5.90
  -6  -6   2    6.20   12.10
   6  -6  -2   14.10    5.90
  -6   6   1  997.90  113.49
   6  -6  -1 1059.39   98.39
  -6  -6   1 1102.49  108.19
  -6  -6   1 1252.17  103.49
  -6   6   0   76.09   19.70
   6   6   0   33.10   22.40
   6  -6   0   79.09   10.80
  -6  -6   0   57.49   17.00
   6   6   1  662.33   99.09
  -6   6  -1  831.12   88.79
  -6  -6  -1  934.81   85.89
  -6  -6  -1 1004.20  103.29
   6  -6   1  731.53   90.79
   6  -6   1  841.92   76.19
  -6  -6  -1  957.10   84.79
   6   6   2   56.69   27.20
  -6   6  -2   49.50   15.70
  -6  -6  -2   36.70   12.90
   6  -6   2   48.30   22.10
  -6  -6  -2   56.69   15.00
   6  -6   2   59.79    8.70
   6   6   3  659.53  104.89
  -6   6  -3  609.04   69.19
  -6  -6  -3  673.93   71.49
  -6  -6  -3  664.23   67.69
  -6   6  -4   19.50    9.50
   6   6   4   18.50   31.30
  -6  -6  -4   16.00   10.60
  -6  -6  -4   16.20   10.30
  -6   6  -5   18.70   12.60
  -6  -6  -5   26.50   15.00
  -6  -6  -5   29.30   12.30
  -6  -6  -6   12.50   15.30
  -6  -6  -6   12.60   11.90
   6   7  -7   86.29   21.20
  -6  -7   7    9.10   38.70
   6  -7  -7   84.69   17.10
  -6   7   6   66.69   41.30
   6   7  -6  111.09   23.50
   6  -7  -6  142.09   20.50
  -6  -7   6  179.08   44.90
  -6   7   5  179.98   55.29
   6   7  -5  282.57   34.90
  -6  -7   5  221.98   46.60
  -6  -7   5  188.38   29.70
   6  -7  -5  258.07   29.20
   6   7  -4   36.20   13.00
  -6   7   4   10.30   20.60
   6  -7  -4   13.10    6.60
  -6  -7   4   -4.00    7.60
  -6  -7   4    7.80   18.80
  -6   7   3  201.78   47.20
   6  -7  -3  281.57   29.50
  -6  -7   3  192.58   38.20
  -6  -7   3  254.57   27.40
   6   7  -2   79.19   22.30
  -6   7   2   91.59   30.30
  -6  -7   2  122.69   17.80
   6  -7  -2  127.79   17.00
  -6  -7   2  129.39   27.50
  -6   7   1  235.48   47.40
   6   7  -1  224.28   44.10
   6  -7  -1  336.47   32.70
  -6  -7   1  332.07   42.20
  -6  -7   1  357.56   42.10
  -6   7   0   55.39   17.90
   6   7   0   13.60   22.20
  -6  -7   0   68.69   18.10
  -6  -7   0   76.19   22.10
   6  -7   0   61.69   10.90
  -6   7  -1    8.80   16.60
   6   7   1   25.80   20.80
   6  -7   1    6.30    5.30
  -6  -7  -1    9.80   12.10
   6   7   2  146.29   47.10
  -6   7  -2  262.67   39.20
  -6  -7  -2  236.48   35.20
  -6  -7  -2  241.28   33.20
   6  -7   2  250.57   25.20
   6  -7   2  208.18   41.70
  -6   7  -3   12.60   12.30
   6   7   3   20.00   33.20
  -6  -7  -3  -14.60    8.70
  -6  -7  -3   -3.90    8.20
   6   7   4   55.79   49.10
  -6   7  -4   97.59   24.00
  -6  -7  -4   93.59   19.40
  -6  -7  -4   84.79   21.10
  -6   7  -5  151.88   31.90
  -6  -7  -5  207.18   38.50
  -6   7  -6   17.50   17.70
  -6  -7  -6   19.20   15.50
  -6  -7  -6   -5.10   15.20
   6   8  -6   35.60   18.40
  -6   8   6   45.00   57.49
   6  -8  -6   33.90   10.50
  -6  -8   6   -2.80   30.60
  -6   8   5   -6.20   28.90
   6   8  -5    2.80   13.60
  -6  -8   5   13.40   23.90
   6  -8  -5    0.00    5.60
  -6   8   4   90.89   36.70
  -6  -8   4   97.29   30.40
  -6  -8   4  112.19   18.60
   6  -8  -4  138.69   19.10
  -6   8   3  -49.70   19.30
  -6  -8   3  -17.20   14.30
  -6  -8   3  -13.70    6.90
   6  -8  -3   11.10    6.60
  -6   8   2    9.90   19.20
   6   8  -2    2.50   16.40
   6  -8  -2    9.40    5.20
  -6  -8   2   -4.50    8.00
  -6  -8   2    4.10   13.10
   6   8  -1  163.38   35.80
  -6   8   1  170.98   40.70
   6  -8  -1  215.38   24.30
  -6  -8   1  206.68   34.90
   6   8   0    2.70   16.20
  -6   8   0   -4.70   12.10
   6  -8   0   -1.10    4.10
  -6  -8   0   -7.90   11.00
  -6   8  -1    2.30   11.60
   6   8   1  -10.90   21.20
  -6  -8  -1   -9.60    8.70
   6  -8   1    9.00    5.70
   6   8   2  -14.40   23.10
  -6   8  -2   31.50   18.00
  -6  -8  -2   26.20   13.30
   6  -8   2   28.60    8.50
  -6  -8  -2   62.39   17.00
  -6   8  -3   44.00   20.10
   6   8   3  168.98   57.69
  -6  -8  -3   60.99   21.90
  -6  -8  -3  106.39   22.50
  -6   8  -4   27.70   19.40
   6   8   4  -63.49   27.70
  -6  -8  -4  -10.70   13.50
  -6  -8  -4   28.00   13.60
  -6   8  -5   91.29   26.40
  -6  -8  -5  139.29   50.59
  -6   9   5  -43.70   28.80
   6   9  -5    3.40   18.40
  -6  -9   5  -33.00   26.90
   6  -9  -5    2.40    8.00
  -6   9   4   20.00   28.50
   6   9  -4  -42.40   17.50
  -6  -9   4   30.50   21.40
   6  -9  -4   15.00    8.50
   6   9  -3   15.20   20.80
  -6   9   3  -10.80   26.60
  -6  -9   3   32.20   21.40
   6  -9  -3   12.70    7.90
   6   9  -2  -22.60   18.00
  -6  -9   2    9.60   14.80
   6  -9  -2    2.00    5.50
  -6   9   1  142.49   43.00
   6  -9  -1  261.67   27.70
  -6  -9   1  192.58   35.30
  -6   9   0  217.18   45.20
   6   9   0  155.98   40.70
   6  -9   0  238.58   29.00
  -6  -9   0  218.18   37.70
   6   9   1   10.50   30.80
  -6   9  -1   26.90   23.00
  -6  -9  -1   36.60   17.80
   6  -9   1   48.60   11.40
   6   9   2   -6.80   30.50
  -6   9  -2   34.20   22.70
  -6  -9  -2   73.59   20.30
   6  -9   2   52.99   11.30
  -6  -9  -2   46.50   18.50
  -6   9  -3  -18.40   21.00
   6   9   3   46.00   41.00
  -6  -9  -3   -3.00   14.70
  -6  -9  -3    5.30   14.40
   6   9   4   -7.10   41.60
  -6   9  -4  -17.70   17.50
  -6  -9  -4   27.20   18.10
  -6  -9  -4   -7.10   17.40
  -6  10   4   46.70   41.10
   6  10  -4  -10.00   25.10
  -6 -10   4   58.09   28.90
   6 -10  -4   45.10   14.60
  -6  10   3   18.40   30.00
   6  10  -3  -30.30   23.40
  -6 -10   3    7.70   23.10
   6  10  -2  115.39   34.60
  -6  10   2   57.99   40.60
  -6 -10   2  102.99   30.90
   6 -10  -2  148.79   21.90
   6  10  -1   44.60   28.30
   6 -10  -1   39.10   11.50
  -6 -10   1   28.10   21.30
   6  10   0  -34.80   26.40
  -6 -10   0   34.10   15.80
   6 -10   0   14.90    9.50
   6  10   1    2.60   33.70
  -6  10  -1   10.30   28.30
  -6 -10  -1   97.99   25.60
   6 -10   1   97.79   15.90
   6  10   2    4.30   36.90
  -6  10  -2  -10.80   21.70
   6 -10   2   23.50   11.50
  -6 -10  -2   41.60   19.30
  -6 -10  -2   -5.40   16.40
   7   0  -9    0.30    6.50
  -7   0   9  -51.49   31.90
   7   0  -9   19.70   11.90
   7   0  -8   -4.70    7.80
   7   0  -8   -1.40    5.00
  -7   0   8  -29.30   23.20
   7   0  -7    3.60    4.00
  -7   0   7  -25.90   21.40
   7   0  -7    3.30    8.80
  -7   0   6  788.22   92.39
   7   0  -6  748.53   74.59
   7   0  -6  764.22   86.89
   7   0  -5    1.60    4.00
  -7   0   5    6.40   14.80
   7   0  -5   14.90   10.80
  -7   0   5    0.20   11.30
  -7   0   4  454.65   65.09
  -7   0   4  453.75   61.89
   7   0  -4  592.74   52.69
   7   0  -4  620.04   56.89
   7   0  -3   -5.00   10.50
   7   0  -3   -2.80    3.50
  -7   0   3   -8.90   10.80
  -7   0   3    9.40    7.60
  -7   0   2 3128.29  299.67
   7   0  -2 3564.04  277.87
   7   0  -2 3185.78  292.27
  -7   0   2 3144.69  282.17
   7   0  -1   -1.70    2.20
  -7   0   1    4.50    3.20
  -7   0   1   -8.20    9.80
  -7   0   0 2518.95  242.68
   7   0   0 2731.43  239.68
   7   0   0 2705.13  233.18
  -7   0   0 2850.41  232.08
   7   0   1   -3.30    5.40
  -7   0  -1   -1.80    2.80
   7   0   1   -1.60    4.30
  -7   0  -1   -6.10    8.80
   7   0   2   11.30    7.20
  -7   0  -2   12.50   12.10
  -7   0  -2   16.30    6.40
   7   0   2   27.40    7.70
   7   0   3    2.90    3.70
  -7   0  -3   -5.30    9.40
  -7   0  -3   -3.70    3.40
  -7   0  -4  764.42   76.39
  -7   0  -5    1.20    6.80
  -7   0  -6  181.98   29.50
   7   1  -9   93.79   21.80
   7   1  -9   53.49   11.90
   7  -1  -9   47.10   12.80
  -7  -1   9   76.09   38.90
   7  -1  -9   39.30   16.20
   7   1  -8  438.76   43.10
   7   1  -8  387.76   50.49
  -7   1   8  374.96   65.89
   7  -1  -8  434.66   43.20
   7  -1  -8  415.46   51.89
  -7  -1   8  349.67   69.99
   7   1  -7  -28.10   22.00
  -7   1   7  -14.70   18.70
   7   1  -7    1.30    6.70
   7  -1  -7    7.00   10.20
   7  -1  -7    7.70    4.50
  -7  -1   7   18.50   23.20
  -7   1   6  399.16   59.39
   7   1  -6  357.46   52.69
   7   1  -6  418.36   41.70
  -7   1   6  313.67   61.99
   7  -1  -6  428.46   60.89
   7  -1  -6  364.56   39.10
  -7  -1   6  455.85   61.99
   7  -1  -6  447.96   46.30
   7   1  -5  492.65   57.59
   7   1  -5  541.95   50.69
  -7   1   5  460.75   68.69
  -7   1   5  585.34   73.09
  -7  -1   5  420.06   64.79
   7  -1  -5  593.94   70.89
   7  -1  -5  591.64   55.09
  -7   1   4   17.10   18.40
  -7   1   4   22.50   16.90
  -7  -1   4   46.70   20.40
   7  -1  -4   38.60   12.50
  -7   1   3   -8.70    7.60
  -7   1   3   14.60   10.70
   7   1  -3    1.60   10.50
  -7  -1   3   24.10   13.70
   7  -1  -3    1.60    4.80
  -7   1   2  357.56   49.50
  -7   1   2  351.96   42.10
   7   1  -2  384.66   47.10
  -7  -1   2  319.67   48.20
   7  -1  -2  437.86   37.60
  -7   1   1    4.00    8.30
  -7   1   1   11.70    5.60
   7   1  -1    7.60    7.90
   7   1  -1   11.20    4.10
  -7  -1   1   14.60   10.60
   7  -1  -1   12.70    4.20
  -7  -1   1    8.10    3.10
  -7   1   0  312.57   30.60
  -7   1   0  241.48   37.70
   7   1   0  260.07   29.60
   7  -1   0  290.57   30.10
   7  -1   0  310.47   38.20
  -7  -1   0  317.47   28.50
  -7  -1   0  265.87   38.10
   7   1   1  303.37   34.80
  -7   1  -1  343.97   33.80
  -7   1  -1  267.47   40.10
   7   1   1  395.36   36.40
  -7  -1  -1  313.37   32.70
  -7  -1  -1  291.97   39.60
   7  -1   1  322.87   37.60
  -7   1  -2 3375.66  334.47
   7   1   2 4369.66  329.67
   7   1   2 3471.15  332.57
  -7   1  -2 4013.50  331.07
   7  -1   2 4398.16  330.47
   7  -1   2 3495.45  332.57
  -7  -1  -2 3780.02  335.87
  -7   1  -3  195.68   25.10
   7   1   3  187.48   21.30
  -7  -1  -3  208.68   29.30
  -7  -1  -3  183.98   25.50
  -7   1  -4  294.17   33.80
   7   1   4  238.88   26.20
  -7  -1  -4  259.37   33.30
  -7  -1  -4  275.97   34.00
   7   1   5   75.79   11.70
  -7   1  -5   59.29   15.20
  -7  -1  -5   71.09   17.40
  -7  -1  -5  107.69   19.50
  -7   1  -6    1.90    9.80
  -7  -1  -6    7.00    8.60
  -7   1  -7   33.20   16.10
  -7  -1  -7   33.10   16.40
   7   2  -9   60.79   12.50
   7   2  -9   77.49   16.50
  -7  -2   9  114.79   43.40
   7  -2  -9   50.19   20.50
   7  -2  -9   56.29   14.00
   7   2  -8   89.99   16.50
   7  -2  -8   98.19   16.60
   7  -2  -8   74.79   22.00
  -7   2   7   38.00   23.60
  -7   2   7   -9.60   21.80
   7   2  -7    1.20   19.80
   7  -2  -7   13.50   10.40
  -7  -2   7   16.30   22.70
   7  -2  -7   -0.10    4.80
   7   2  -6  399.76   53.49
  -7   2   6  325.27   69.39
   7   2  -6  454.35   41.50
  -7   2   6  324.87   61.39
   7  -2  -6  433.86   48.70
  -7  -2   6  391.66   60.49
   7  -2  -6  431.66   41.90
  -7   2   5  448.06   64.59
  -7   2   5  350.36   59.99
   7  -2  -5  458.45   43.00
  -7  -2   5  340.47   57.49
   7  -2  -5  587.04   63.69
  -7   2   4   24.20   18.80
  -7   2   4   38.60   18.90
  -7  -2   4   35.90   18.10
   7  -2  -4   40.60    8.20
  -7   2   3  928.11   98.69
  -7   2   3  732.63   89.39
   7  -2  -3 1034.40   86.49
  -7  -2   3  829.62   94.19
   7   2  -2 1617.54  139.59
  -7   2   2 1310.97  143.49
  -7   2   2 1481.95  137.89
   7  -2  -2 1407.46  145.89
  -7  -2   2 1264.37  140.99
   7  -2  -2 1699.43  132.79
  -7   2   1   35.20   10.60
   7   2  -1   54.09   13.10
  -7   2   1   31.80   16.50
   7  -2  -1   35.10    8.10
   7  -2  -1   37.80   17.00
  -7  -2   1   26.50   12.60
  -7   2   0  621.44   68.09
  -7   2   0  628.74   60.09
   7   2   0  611.94   57.69
   7   2   0  743.53   63.29
   7  -2   0  675.03   58.99
   7  -2   0  526.45   65.69
  -7  -2   0  631.04   70.29
  -7  -2   0  486.65   65.39
  -7  -2   0  627.44   56.29
  -7   2  -1  262.17   28.50
   7   2   1  299.37   29.20
  -7   2  -1  222.18   37.00
   7   2   1  228.78   27.90
  -7  -2  -1  152.18   35.70
   7  -2   1  261.57   28.30
  -7  -2  -1  223.28   26.50
   7  -2   1  266.97   33.10
   7   2   2  132.49   17.60
  -7   2  -2  132.69   24.90
  -7   2  -2  160.68   20.00
   7   2   2  154.28   22.40
  -7  -2  -2  137.39   21.80
  -7  -2  -2  125.89   25.90
  -7  -2  -2   69.99   26.30
   7  -2   2  154.78   21.10
   7   2   3  402.96   37.30
  -7   2  -3  392.16   44.60
  -7  -2  -3  317.77   42.00
  -7  -2  -3  345.57   41.70
  -7   2  -4  396.86   45.70
   7   2   4  414.96   40.40
  -7  -2  -4  372.66   46.90
  -7  -2  -4  495.25   49.10
   7   2   5  240.38   32.30
  -7   2  -5  294.37   36.30
  -7  -2  -5  266.27   37.60
  -7  -2  -5  270.77   36.70
  -7   2  -6   49.80   14.90
  -7  -2  -6   53.79   19.30
  -7  -2  -6   35.10   15.80
   7   3  -9  151.18   23.10
   7   3  -9  123.09   17.90
   7  -3  -9   85.59   18.50
  -7  -3   9  111.99   43.60
   7  -3  -9  110.99   31.10
  -7   3   8  270.47   77.09
   7   3  -8  404.96   40.90
   7  -3  -8  378.56   40.90
   7  -3  -8  379.56   52.09
  -7   3   7   67.09   35.30
   7   3  -7   60.79   11.70
   7  -3  -7   72.19   13.50
  -7  -3   7   95.39   32.90
   7  -3  -7   73.49   18.30
   7   3  -6   62.49   10.10
  -7   3   6   40.20   32.60
  -7  -3   6   33.50   26.00
  -7   3   5   55.59   23.80
  -7   3   5   19.50   23.00
  -7  -3   5   20.80   34.40
  -7   3   4  181.88   39.90
  -7   3   4  156.58   38.70
   7  -3  -4  220.68   38.80
  -7  -3   4  155.28   34.80
   7  -3  -4  167.98   19.80
  -7   3   3  197.88   46.40
  -7   3   3  188.88   41.40
   7  -3  -3  248.28   25.00
   7  -3  -3  274.27   34.50
  -7  -3   3  202.58   39.30
  -7   3   2  141.99   29.70
  -7   3   2   70.79   19.40
  -7  -3   2  112.79   25.00
   7  -3  -2  110.19   13.20
  -7   3   1 1733.13  170.08
  -7   3   1 1726.03  162.38
   7  -3  -1 1980.40  157.78
   7  -3  -1 1807.72  154.88
   7  -3  -1 1712.43  170.28
  -7  -3   1 1633.94  164.58
  -7   3   0  128.09   19.90
  -7   3   0  116.19   26.30
  -7  -3   0  117.49   14.90
   7  -3   0  158.38   29.00
  -7  -3   0  107.89   26.10
  -7  -3   0   90.89   21.70
   7  -3   0  135.09   17.50
  -7   3  -1   35.40   10.00
  -7   3  -1   29.50   12.70
  -7  -3  -1   43.30    9.90
   7  -3   1   45.50    6.60
   7  -3   1   28.60   15.30
  -7  -3  -1   41.60   12.70
  -7  -3  -1   40.00   19.90
  -7   3  -2   12.60    7.30
  -7  -3  -2   30.70    9.10
  -7  -3  -2   -9.50   20.10
  -7  -3  -2   30.30   11.50
  -7   3  -3   -4.40    4.50
  -7  -3  -3    1.80    8.00
  -7  -3  -3   -2.80    6.20
  -7   3  -4  382.36   41.90
  -7  -3  -4  294.37   41.40
  -7  -3  -4  351.86   41.90
  -7   3  -5   34.50   12.80
  -7  -3  -5   82.09   18.70
  -7  -3  -5   65.69   18.50
  -7   3  -6  192.08   30.10
  -7  -3  -6  110.19   27.40
  -7  -3  -6  153.68   27.60
  -7   3  -7   28.40   13.90
  -7  -3  -7   49.30   18.30
  -7  -3  -7    1.70   14.00
   7   4  -8   -9.70    7.30
  -7   4   8   -3.70   34.60
   7  -4  -8  -19.80   12.30
  -7  -4   8   15.60   31.50
   7   4  -7   10.10    6.20
  -7   4   7  -14.80   25.00
   7  -4  -7   11.40   12.30
   7  -4  -7   15.50    6.60
  -7  -4   7  -18.80   23.60
  -7   4   6   58.49   32.50
   7  -4  -6   56.49   11.70
  -7  -4   6   20.40   22.60
  -7   4   5   23.60   22.30
  -7   4   5    0.10   20.30
  -7  -4   5   18.30   15.60
   7  -4  -5   29.10    7.20
  -7   4   4  593.44   76.19
  -7   4   4  437.26   70.59
   7  -4  -4  603.84   53.79
  -7   4   3   -1.20   11.70
  -7   4   3   21.70   17.80
  -7  -4   3    3.00   12.90
  -7   4   2  154.28   31.50
  -7   4   2  227.48   40.80
  -7  -4   2  125.19   29.20
   7  -4  -2  198.78   20.40
  -7   4   1  173.58   27.60
  -7   4   1  192.58   36.60
   7  -4  -1  118.09   32.30
  -7  -4   1  144.79   26.50
   7  -4  -1  173.58   18.30
  -7   4   0  116.39   33.50
  -7   4   0   93.69   18.00
  -7  -4   0  112.99   14.70
  -7  -4   0   55.19   19.00
   7  -4   0  132.99   30.00
   7  -4   0  101.19   13.30
  -7  -4   0  113.29   22.40
  -7   4  -1  196.58   27.90
  -7   4  -1  172.48   32.70
  -7  -4  -1  232.18   30.30
   7  -4   1  190.28   34.10
  -7  -4  -1  209.68   41.30
  -7  -4  -1  194.88   25.30
   7  -4   1  218.58   20.90
  -7   4  -2  407.76   44.60
  -7  -4  -2  365.16   43.40
   7  -4   2  385.96   35.30
   7  -4   2  361.66   45.90
  -7  -4  -2  418.56   45.70
  -7   4  -3  312.17   37.80
  -7  -4  -3  309.57   38.60
  -7   4  -4    4.70    6.90
  -7  -4  -4    7.20   11.40
  -7  -4  -4  -11.30    8.50
  -7   4  -5   73.09   18.90
  -7  -4  -5   52.89   17.50
  -7  -4  -5   65.09   16.40
  -7   4  -6  -12.80    8.90
  -7  -4  -6   -7.60   11.10
  -7  -4  -6   14.50   14.70
  -7   4  -7   -9.70   10.70
  -7  -4  -7  -15.60   14.40
  -7   5   8   92.49   43.40
   7   5  -8   45.00   14.20
   7  -5  -8   34.70   19.50
  -7  -5   8   27.30   39.20
  -7   5   7  170.58   56.29
   7  -5  -7  103.79   18.50
  -7  -5   7   83.99   37.40
  -7   5   6  441.66   88.69
   7  -5  -6  510.85   49.90
  -7  -5   6  468.25   78.09
  -7   5   5  160.48   50.79
   7  -5  -5  318.57   31.10
  -7  -5   5  222.88   46.70
  -7   5   4   84.99   31.80
  -7  -5   4   92.29   28.30
   7  -5  -4   97.49   14.40
  -7   5   3  325.37   53.69
  -7  -5   3  348.37   48.60
   7  -5  -3  341.47   34.90
  -7   5   2   87.29   29.70
  -7  -5   2  163.28   29.90
  -7   5   1 1453.25  155.78
  -7  -5   1 1548.84  137.89
  -7  -5   1 1552.74  149.39
   7  -5  -1 1533.25  137.59
  -7  -5   1 1775.72  140.99
  -7   5   0  792.92   84.79
   7   5   0  685.03   85.39
  -7  -5   0  704.03   69.69
  -7  -5   0  781.52   80.99
  -7  -5   0  739.23   76.89
   7  -5   0  754.82   66.89
   7  -5   0  763.22   86.29
  -7   5  -1  146.09   26.90
  -7  -5  -1  140.89   22.80
   7  -5   1  139.19   32.70
  -7  -5  -1  127.59   33.40
   7  -5   1  148.79   15.80
  -7  -5  -1  109.99   22.20
  -7   5  -2   63.39   15.80
   7  -5   2   73.19    9.30
  -7  -5  -2   83.99   19.30
  -7  -5  -2   62.79   14.70
   7  -5   2   40.40   20.30
  -7  -5  -3  409.16   49.20
  -7  -5  -3  422.96   48.20
  -7   5  -4   -9.10    6.70
  -7  -5  -4   -4.70    8.10
  -7   5  -5    2.60    9.50
  -7  -5  -5    7.50   11.20
  -7  -5  -5  -11.20    9.60
  -7  -5  -6   17.60   15.40
  -7  -5  -6    9.30   12.90
  -7   6   7   -1.30   34.70
  -7  -6   7   -4.80   36.30
  -7   6   6   19.00   35.60
   7  -6  -6   34.70   10.30
  -7   6   5   42.90   27.00
   7  -6  -5   14.00    6.80
  -7  -6   5   -7.00   20.10
  -7   6   4  596.34  110.99
  -7  -6   4  728.23   88.49
   7  -6  -4  806.62   71.59
  -7   6   3   32.70   23.30
  -7  -6   3   27.20   15.70
   7  -6  -3   13.50    6.50
  -7   6   2   20.70   14.20
   7   6  -2   28.50   12.10
  -7  -6   2    4.70   11.20
   7  -6  -2   15.50    6.40
  -7   6   1   81.19   23.20
   7   6  -1   86.29   22.20
  -7  -6   1  120.79   26.30
  -7  -6   1   88.59   15.90
  -7  -6   1   71.89   13.30
   7  -6  -1   79.19   16.80
   7   6   0  -31.10   13.50
  -7   6   0   -1.50    8.90
  -7  -6   0  -11.20   16.70
  -7  -6   0   -1.90    7.60
  -7  -6   0   -9.80    5.40
   7  -6   0   -9.50    3.50
  -7   6  -1   47.30   18.90
   7   6   1   74.59   30.40
   7  -6   1   73.49   10.70
   7  -6   1   46.50   25.40
  -7  -6  -1   71.29   16.50
  -7  -6  -1   89.19   31.80
  -7  -6  -1   74.59   15.50
  -7   6  -2    1.50    9.50
  -7  -6  -2   -2.80    7.10
   7  -6   2    5.40    4.00
  -7  -6  -2   14.00    9.80
  -7   6  -3  255.47   39.70
  -7  -6  -3  314.97   40.10
  -7  -6  -3  368.06   44.90
  -7   6  -4   -2.30    8.80
  -7  -6  -4   -2.90    8.20
  -7  -6  -4   -5.00    8.10
  -7   6  -5  -13.20   10.50
  -7  -6  -5   12.60   12.00
  -7  -6  -5    7.10   13.00
  -7   6  -6   28.30   17.50
  -7  -6  -6   47.50   22.10
  -7  -6  -6   55.39   18.60
  -7   7   7   42.70   40.90
   7  -7  -7   31.50   11.90
  -7  -7   7   -7.30   35.40
  -7   7   6   39.70   33.50
  -7  -7   6   18.90   30.10
  -7   7   5   35.50   37.90
   7  -7  -5  107.89   18.60
  -7  -7   5  139.09   37.50
  -7   7   4  114.89   41.80
   7  -7  -4  183.28   22.70
  -7  -7   4  170.68   37.40
  -7   7   3  153.68   42.60
   7  -7  -3  210.48   24.20
  -7  -7   3  162.18   41.60
   7   7  -2    4.40   12.60
  -7   7   2   15.10   18.50
  -7  -7   2   16.70    6.40
  -7  -7   2   11.00   20.70
   7  -7  -2   12.20    6.10
  -7   7   1   -3.90   11.80
   7   7  -1    4.80   17.00
  -7  -7   1   19.40   13.20
  -7  -7   1   24.10   13.10
   7  -7  -1   26.60    7.90
  -7   7   0  428.16   60.29
   7   7   0  380.26   62.29
   7  -7   0  449.16   44.40
  -7  -7   0  537.85   59.59
  -7  -7   0  433.86   54.29
  -7  -7   0  487.55   49.50
   7   7   1   -5.30   21.40
  -7   7  -1   48.40   17.50
   7  -7   1   65.39   10.50
  -7  -7  -1   54.09   15.90
  -7  -7  -1   61.79   16.80
   7   7   2   72.29   36.60
  -7   7  -2   31.50   17.60
  -7  -7  -2   68.39   17.40
   7  -7   2    3.30   27.20
   7  -7   2   52.69    9.60
  -7  -7  -2   67.59   17.70
   7   7   3  192.18   63.49
  -7   7  -3  159.48   30.50
  -7  -7  -3  168.78   28.80
  -7   7  -4   73.79   22.30
  -7  -7  -4   88.69   23.70
  -7  -7  -4   83.99   21.90
  -7   7  -5    1.20   15.60
  -7  -7  -5   -6.00   16.00
  -7  -7  -5   12.30   14.60
  -7   8   6   25.40   45.50
   7  -8  -6  108.69   19.70
  -7  -8   6  136.09   47.50
  -7   8   5   35.50   37.90
   7  -8  -5   38.90   12.20
  -7  -8   5   47.40   29.70
  -7   8   4    2.70   26.60
   7  -8  -4    4.50    6.50
  -7  -8   4   -5.00   20.60
  -7   8   3   31.80   24.10
   7   8  -3   -1.30   14.30
  -7  -8   3   29.80   18.70
   7  -8  -3   54.79   12.10
  -7  -8   3   20.40    9.30
   7   8  -2  -16.30   14.90
  -7   8   2   -9.10   18.20
  -7  -8   2   32.30   17.90
  -7  -8   2   -2.10    7.70
   7  -8  -2    5.30    5.40
  -7   8   1  100.69   27.40
   7   8  -1   88.99   28.00
  -7  -8   1  124.29   22.00
  -7  -8   1  131.49   28.80
  -7   8   0    4.50   13.60
   7   8   0   11.70   21.40
  -7  -8   0   15.10    9.80
  -7   8  -1  178.78   38.00
   7   8   1  107.69   41.90
  -7  -8  -1  198.18   32.20
   7  -8   1  224.08   23.80
  -7  -8  -1  196.38   34.90
   7   8   2   61.49   34.80
  -7   8  -2   37.70   20.10
  -7  -8  -2   69.99   22.00
   7  -8   2   45.50    9.90
  -7  -8  -2   42.00   15.30
   7   8   3   70.29   36.60
  -7   8  -3   51.59   22.20
  -7  -8  -3  101.29   23.80
  -7  -8  -3   81.19   21.60
   7   8   4  -62.09   36.20
  -7   8  -4   21.70   18.30
  -7  -8  -4    9.00   14.00
  -7  -8  -4  -13.40   13.60
   7  -9  -5  437.66   47.50
  -7  -9   5  378.56   70.99
  -7  -9   4   30.70   24.60
  -7   9   3  129.09   44.00
  -7  -9   3  195.78   38.60
   7  -9  -3  210.88   25.70
  -7   9   2   -9.10   24.40
   7   9  -2   -6.10   19.10
  -7  -9   2    0.80   16.80
   7  -9  -2   -5.80    5.40
  -7   9   1   -3.90   21.60
   7   9  -1    1.50   24.20
   7  -9  -1   19.90    7.80
  -7  -9   1   30.70   19.50
  -7   9   0  -24.60   20.20
   7   9   0  -11.80   24.10
   7  -9   0    5.00    6.60
  -7  -9   0   -3.30   13.10
  -7   9  -1   41.80   25.40
   7   9   1  -27.60   26.90
  -7  -9  -1   48.60   18.90
  -7  -9  -1   59.39   18.10
   7  -9   1   57.09   11.50
  -7   9  -2   19.20   20.90
   7   9   2  -10.00   28.00
   7  -9   2   38.00   10.30
  -7  -9  -2   21.00   16.60
  -7  -9  -2   21.30   15.10
  -7   9  -3  -26.50   20.10
   7   9   3  -36.10   33.70
  -7  -9  -3    3.80   12.70
  -7  -9  -3  -21.40   13.20
   7  10  -3  -42.00   22.60
  -7  10   3  -14.30   34.00
  -7 -10   3  -26.10   31.60
   7 -10  -3  -12.50    7.20
  -7  10   2   13.10   29.30
   7  10  -2   27.50   28.90
   7 -10  -2   28.00   12.20
  -7 -10   2   44.00   37.10
   7  10  -1   -3.60   25.40
  -7  10   1   40.30   28.60
   7 -10  -1   19.50    9.50
  -7 -10   1  -25.00   31.30
  -7  10   0   84.49   36.70
  -7 -10   0  138.39   33.00
   7  10   1    1.30   35.20
  -7  10  -1   18.00   28.80
  -7 -10  -1   67.89   21.10
   7 -10   1   77.39   15.70
  -7 -10  -1   80.09   25.90
   7  10   2   29.30   39.30
  -7  10  -2  -19.00   26.40
  -7 -10  -2   -6.10   14.90
  -7 -10  -2   21.40   18.80
   7 -10   2   27.40   11.20
   8   0  -9   -7.00    7.20
  -8   0   9  -24.90   35.30
  -8   0   8   80.99   34.10
   8   0  -8   55.79   12.30
   8   0  -8   58.99   15.20
   8   0  -7  -11.90    7.60
  -8   0   7   13.40   22.40
   8   0  -6  120.49   41.70
   8   0  -6  195.18   24.60
  -8   0   6  135.79   35.90
   8   0  -5   -4.60    8.00
   8   0  -5    0.70    4.70
  -8   0   5    6.90   13.30
  -8   0   5   21.30   20.10
   8   0  -4 1778.72  137.59
  -8   0   4 1255.27  145.49
  -8   0   4 1561.44  158.98
  -8   0   3   13.20   12.10
   8   0  -3    0.70    2.90
  -8   0   3   -3.30    8.60
  -8   0   2   33.00    8.50
  -8   0   2   32.10   15.50
   8   0  -2   25.40    5.20
   8   0  -1   -3.20    3.20
  -8   0   1   -0.70    3.10
   8   0  -1    5.10   10.50
   8   0   0   11.80    4.60
   8   0   0   10.40    9.60
  -8   0   0   14.80    4.80
   8   0   1   -5.70    7.40
  -8   0  -1   -1.70    3.40
   8   0   1    1.30    6.50
  -8   0  -1    0.20   10.80
  -8   0  -2   30.30    8.60
  -8   0  -2   32.60   14.30
   8   0   2   44.20   11.00
   8   0   3   -0.10    4.70
  -8   0  -3   10.70   12.60
  -8   0  -4  351.26   41.70
  -8   0  -5    7.20    8.70
  -8   0  -6  878.21   91.69
  -8   0  -7    2.30   12.70
  -8   1   9   59.19   40.10
   8   1  -9   -1.40   11.60
  -8  -1   9   26.40   33.60
   8  -1  -9    0.50   10.90
  -8   1   8  198.28   48.40
   8   1  -8  214.28   23.70
   8   1  -8  197.58   27.10
   8  -1  -8  168.78   23.20
   8  -1  -8  138.39   28.00
  -8  -1   8  190.78   47.40
   8   1  -7  201.48   36.40
  -8   1   7  196.68   49.50
   8  -1  -7  238.48   32.50
   8  -1  -7  220.88   26.10
  -8   1   6   28.50   18.80
   8   1  -6   -6.70    4.70
  -8   1   6    4.90   19.90
   8  -1  -6   14.10   15.20
  -8  -1   6   -2.10   18.00
   8  -1  -6   -1.00    3.30
   8  -1  -6   -0.70    6.40
  -8   1   5  136.19   33.90
  -8   1   5  110.09   34.00
  -8  -1   5  109.29   32.10
   8  -1  -5  131.99   23.60
  -8   1   4   63.79   28.70
  -8   1   4   73.09   21.50
   8  -1  -4   58.59   13.20
  -8  -1   4   50.79   22.40
  -8   1   3  -14.40    7.30
  -8   1   3    3.20   11.30
   8  -1  -3    1.50    4.00
  -8  -1   3   -6.10   10.30
  -8   1   2 1132.29  126.59
  -8   1   2 1273.27  117.49
   8  -1  -2 1416.06  112.09
  -8  -1   2 1135.89  126.99
  -8   1   1    8.30   10.40
   8   1  -1   10.40   10.10
   8   1  -1   10.90    4.50
  -8   1   1   22.70    7.10
  -8  -1   1   20.60   14.20
  -8  -1   1   12.10    4.40
   8  -1  -1   36.50   15.80
   8  -1  -1   15.40    5.40
   8   1   0  894.31   79.09
  -8   1   0  856.51   73.29
  -8   1   0  691.03   82.89
   8   1   0  741.53   72.39
  -8  -1   0  641.94   80.89
   8  -1   0  810.02   72.99
  -8  -1   0  800.72   70.39
   8  -1   0  785.22   80.69
  -8   1  -1  871.71   87.29
   8   1   1  859.51   86.29
  -8   1  -1  889.81   94.39
   8   1   1 1019.20   88.19
  -8  -1  -1  922.51   95.09
  -8  -1  -1  912.61   83.99
   8  -1   1  917.21   86.99
   8  -1   1 1063.79   91.19
  -8   1  -2  738.03   70.29
   8   1   2  602.24   71.29
  -8   1  -2  673.73   75.69
   8   1   2  835.02   70.29
  -8  -1  -2  704.83   69.99
  -8  -1  -2  779.22   99.09
   8  -1   2  845.72   71.09
   8   1   3   53.19    9.80
  -8   1  -3   40.60   10.90
   8  -1   3   44.10    9.50
  -8  -1  -3   45.10   12.60
   8   1   4  232.78   24.60
  -8   1  -4  211.08   29.50
  -8  -1  -4  241.38   32.30
  -8   1  -5    7.40    7.70
  -8  -1  -5   24.00   21.90
  -8  -1  -5    8.90    7.70
  -8   1  -6    7.60   10.50
  -8  -1  -6   14.30   10.40
  -8   1  -7    0.10   11.60
  -8  -1  -7    6.60   13.80
   8   2  -9  505.35   49.70
   8   2  -9  485.55   51.19
   8  -2  -9  442.66   61.89
  -8  -2   9  478.85   81.09
   8  -2  -9  477.45   50.29
   8   2  -8   51.89   12.30
  -8   2   8   -1.70   29.10
   8  -2  -8   50.39   13.30
  -8  -2   8   76.49   35.40
   8   2  -7    9.70    5.90
  -8   2   7  -20.30   23.30
  -8   2   7    9.80   28.00
   8   2  -7   -6.20   16.70
   8  -2  -7    8.50   10.60
   8  -2  -7    9.20    6.10
  -8   2   6  431.56   71.69
  -8  -2   6  441.26   66.29
  -8   2   5  703.73  103.29
  -8   2   5  878.01  107.19
  -8  -2   5  952.10  107.99
   8  -2  -5  974.60   85.99
   8  -2  -5 1155.48  101.09
  -8   2   4 1561.54  162.98
  -8   2   4 1282.27  156.08
   8  -2  -4 1944.91  151.98
  -8   2   3   49.99   17.70
  -8   2   3    9.10   10.90
  -8  -2   3   26.70   18.60
   8  -2  -3   37.00    9.90
  -8   2   2  -18.40    7.80
  -8   2   2    9.50    8.30
  -8  -2   2    4.50   11.50
   8  -2  -2    0.70    3.50
  -8   2   1 1518.05  156.38
  -8   2   1 1595.94  146.99
   8  -2  -1 1531.05  156.78
  -8  -2   1 1451.25  154.28
   8  -2  -1 1904.91  144.09
  -8   2   0  200.58   26.30
  -8   2   0  167.08   34.20
   8   2   0  180.98   21.20
  -8  -2   0  170.98   18.40
  -8  -2   0  106.09   25.90
  -8  -2   0  145.09   29.90
   8  -2   0  161.88   30.00
   8  -2   0  202.28   22.40
   8   2   1   -2.90    4.40
  -8   2  -1   10.70   11.60
  -8   2  -1   10.30    5.70
  -8  -2  -1   -8.40    8.90
  -8  -2  -1    1.00    4.10
   8  -2   1   -9.10   11.60
  -8  -2  -1   -0.70   12.70
  -8   2  -2   71.69   21.10
   8   2   2   55.39   14.60
  -8   2  -2   55.19   11.60
   8  -2   2   56.89   14.30
  -8  -2  -2   59.29   16.30
  -8  -2  -2   25.00   20.10
  -8   2  -3   14.70    7.20
  -8  -2  -3  -14.90    8.70
  -8  -2  -3    4.50    6.80
  -8  -2  -4  287.57   37.90
  -8  -2  -4  276.67   36.80
  -8   2  -5   -7.80    7.40
  -8  -2  -5   22.80   16.00
  -8  -2  -5  -12.40    6.90
  -8   2  -6  366.16   49.20
  -8  -2  -6  520.95   54.39
  -8  -2  -6  381.06   52.09
  -8   2  -7  -15.10   11.20
  -8  -2  -7    5.70   14.10
   8   3  -8  116.89   19.30
  -8   3   8   72.19   43.10
   8  -3  -8  118.59   20.00
   8  -3  -8  128.89   27.60
  -8  -3   8  127.29   46.80
  -8   3   7  300.87   57.09
  -8   3   7  253.87   57.09
  -8  -3   7  225.48   55.29
   8  -3  -7  266.27   31.50
   8  -3  -7  325.27   42.00
  -8   3   6 1130.99  125.39
  -8   3   6  895.81  126.89
  -8  -3   6  940.81  117.49
   8  -3  -6 1125.49   96.09
  -8   3   5  550.34   86.29
  -8   3   5  844.62   93.89
   8  -3  -5  700.23   64.69
  -8  -3   5  695.53   86.19
  -8   3   4   -3.60   14.40
  -8   3   4   -6.60   14.50
   8  -3  -4   14.10    5.60
  -8  -3   4  -16.80   15.20
  -8   3   3  106.79   45.00
  -8   3   3   69.39   21.00
   8  -3  -3   79.29   16.90
  -8  -3   3   60.89   33.20
  -8   3   2   91.59   20.90
  -8   3   2   89.69   23.60
  -8  -3   2   31.80   18.90
   8  -3  -2   97.49   12.20
   8  -3  -2   85.69   15.10
  -8   3   1    6.80    7.00
  -8   3   1   12.90   14.30
   8  -3  -1  -14.10   19.00
   8  -3  -1   12.80    6.20
  -8  -3   1    6.40   10.50
  -8   3   0  789.42   90.69
  -8   3   0  912.21   78.89
   8  -3   0  776.12   84.69
  -8  -3   0  744.43   81.79
  -8  -3   0  625.74   81.69
  -8  -3   0  810.52   70.79
  -8   3  -1    3.80    5.50
  -8   3  -1    6.00   12.60
   8  -3   1   15.50   15.60
  -8  -3  -1   19.20   19.00
  -8  -3  -1   18.00   11.20
  -8   3  -2  101.49   22.40
  -8   3  -2   78.39   16.60
  -8  -3  -2   78.19   21.40
   8  -3   2  110.49   20.40
   8  -3   2  108.99   11.80
  -8   3  -3   19.60    8.80
  -8  -3  -3    8.10    8.30
  -8  -3  -3   13.10   11.10
  -8   3  -4   42.30   12.20
  -8  -3  -4   60.19   15.70
  -8   3  -5  283.67   38.40
  -8  -3  -5  330.87   41.20
  -8  -3  -5  241.58   38.40
  -8   3  -6   34.90   14.40
  -8  -3  -6   44.30   18.40
  -8  -3  -6   18.20   14.50
  -8   3  -7   52.99   21.50
  -8  -3  -7   37.80   22.40
  -8   4   8  -22.10   37.00
   8  -4  -8   -2.70   16.40
  -8  -4   8    3.40   33.40
   8  -4  -8   17.10    8.30
  -8   4   7   48.30   36.90
   8  -4  -7   52.29   19.00
   8  -4  -7   42.50   10.80
  -8  -4   7   93.79   35.10
  -8   4   6  101.59   40.10
   8  -4  -6   89.49   15.40
  -8  -4   6   49.80   30.80
  -8   4   5  -24.10   18.20
  -8   4   5  -18.90   16.80
   8  -4  -5    0.40    4.40
  -8  -4   5   14.50   20.30
  -8   4   4   36.50   20.00
  -8   4   4   26.30   19.50
  -8  -4   4   28.00   19.00
  -8   4   3    1.20   11.30
  -8   4   3   14.10   18.30
  -8  -4   3   26.30   17.00
   8  -4  -3   12.10    4.90
  -8   4   2 1099.79  119.19
  -8   4   2 1347.77  131.89
   8  -4  -2 1229.18  106.59
  -8  -4   2 1168.58  121.19
  -8   4   1   83.59   19.60
  -8   4   1  121.29   30.70
   8  -4  -1  109.09   13.70
  -8  -4   1  120.69   26.80
  -8   4   0  525.95   55.99
  -8   4   0  525.95   62.09
  -8  -4   0  435.86   46.60
   8  -4   0  517.65   45.80
   8  -4   0  542.45   64.89
  -8  -4   0  424.66   58.99
  -8  -4   0  511.45   58.29
  -8   4  -1  440.06   49.30
  -8   4  -1  487.75   56.69
  -8  -4  -1  324.17   67.49
   8  -4   1  453.25   40.70
   8  -4   1  435.86   56.99
  -8  -4  -1  433.66   45.30
  -8  -4  -1  422.46   51.79
  -8   4  -2    1.20    5.90
  -8  -4  -2    2.50    6.80
  -8  -4  -2    6.00   10.10
   8  -4   2   -0.40   12.60
  -8   4  -3  139.79   29.30
  -8  -4  -3  192.78   30.90
  -8  -4  -3  134.89   25.00
  -8   4  -4  241.08   33.40
  -8  -4  -4  241.78   36.30
  -8  -4  -4  203.18   46.00
  -8   4  -5    1.40   10.00
  -8  -4  -5  -13.20   11.60
  -8  -4  -5    0.00   10.70
  -8  -4  -6    4.50   15.70
  -8  -4  -6  -20.90    9.10
  -8   5   8   16.00   37.70
   8  -5  -8   11.10    8.20
   8  -5  -8  -29.90   15.40
  -8  -5   8  -79.29   35.80
  -8   5   7  -42.10   36.50
  -8  -5   7   49.99   30.10
   8  -5  -7   56.39   13.20
  -8   5   6  -31.80   23.20
  -8  -5   6   -7.20   24.80
   8  -5  -6   16.20    6.80
  -8   5   5  326.37   71.09
  -8  -5   5  472.25   69.79
   8  -5  -5  570.04   50.49
  -8   5   4  248.98   54.69
  -8  -5   4  250.27   48.30
   8  -5  -4  308.87   35.90
  -8   5   3  -19.00   12.20
  -8  -5   3    5.20   13.00
   8  -5  -3    6.00    4.40
  -8   5   2  428.16   61.89
  -8   5   2  418.96   55.49
  -8  -5   2  394.56   52.99
   8  -5  -2  394.46   39.80
  -8   5   1   45.70   15.50
  -8   5   1   78.79   28.20
   8  -5  -1   55.29    9.90
  -8  -5   1   65.39   19.50
  -8   5   0  925.11   95.09
   8  -5   0  929.21   82.59
  -8  -5   0  933.91   95.19
  -8  -5   0  933.71   85.19
  -8  -5   0  900.51   96.69
  -8   5  -1 1724.03  160.28
   8  -5   1 1659.13  163.98
   8  -5   1 1722.63  147.69
  -8  -5  -1 1704.93  156.38
  -8  -5  -1 1736.43  160.48
  -8   5  -2  254.07   34.40
   8  -5   2  152.58   34.70
  -8  -5  -2  264.17   35.90
   8  -5   2  226.78   21.70
  -8  -5  -2  173.28   29.20
  -8   5  -3   95.49   20.90
  -8  -5  -3   79.59   19.10
  -8  -5  -3   88.69   20.20
  -8   5  -4   15.50   11.10
  -8  -5  -4   10.50   13.20
  -8  -5  -4  -13.20    8.80
  -8   5  -5  251.77   40.50
  -8  -5  -5  341.57   47.70
  -8   5  -6   19.20   16.20
  -8  -5  -6   22.30   17.70
  -8   6   7   33.30   44.10
   8  -6  -7   66.99   15.50
  -8  -6   7   21.80   33.20
  -8   6   6   43.20   32.80
   8  -6  -6   76.79   14.70
  -8  -6   6  100.19   37.30
  -8   6   5  200.28   50.59
   8  -6  -5  255.17   29.10
  -8  -6   5  237.38   47.80
  -8   6   4   80.49   35.60
  -8  -6   4   37.70   23.50
   8  -6  -4  112.19   15.90
  -8   6   3   17.20   18.80
  -8  -6   3   35.30   22.10
   8  -6  -3    0.80    5.70
  -8   6   2 1019.60  116.19
  -8  -6   2 1015.90  111.19
   8  -6  -2 1136.69   97.49
  -8   6   1   -2.80   11.70
   8   6  -1    8.20   14.90
   8  -6  -1    9.90    4.70
  -8  -6   1    9.10   12.90
  -8  -6   1   -2.00    8.50
  -8  -6   1    9.80    5.10
  -8   6   0   -2.60   10.60
   8   6   0    5.70   16.70
  -8  -6   0   14.90   14.80
  -8  -6   0    7.30    7.30
   8  -6   0   23.30    5.90
  -8  -6   0    0.30   27.10
  -8   6  -1  363.96   54.39
  -8  -6  -1  370.66   43.60
  -8  -6  -1  433.36   54.19
   8  -6   1  391.96   37.50
  -8   6  -2   73.69   21.70
   8  -6   2  154.08   16.20
  -8  -6  -2  113.79   23.40
   8  -6   2   53.69   28.10
  -8  -6  -2  118.89   24.90
  -8   6  -3   64.59   19.90
  -8  -6  -3  124.39   24.20
  -8  -6  -3   85.99   21.80
  -8   6  -4   36.90   17.60
  -8  -6  -4   81.59   22.00
  -8  -6  -4   84.69   22.30
  -8   6  -5  119.69   34.70
  -8  -6  -5   85.09   23.10
  -8  -6  -5  109.49   28.40
  -8   7   6  -72.29   33.20
  -8  -7   6    9.50   29.50
  -8   7   5   53.99   39.10
  -8  -7   5  145.19   38.00
   8  -7  -5   98.59   17.90
  -8   7   4   -2.80   25.40
  -8  -7   4  -23.80   18.90
   8  -7  -4    9.50    6.40
  -8   7   3  537.25   82.89
   8  -7  -3  632.74   58.69
  -8  -7   3  567.54   74.39
  -8   7   2  -12.40   14.10
  -8  -7   2   -3.50   12.60
   8  -7  -2   -2.00    4.80
   8   7  -1   60.79   21.10
  -8   7   1   22.30   17.70
   8  -7  -1   14.20    6.50
  -8  -7   1   10.40   13.40
  -8  -7   1   10.20    6.90
  -8  -7   1   -2.80   10.60
   8   7   0   29.60   22.80
  -8   7   0   21.70   15.50
  -8  -7   0   -3.10   16.50
  -8  -7   0   21.00   10.10
   8  -7   0    5.70    5.50
  -8  -7   0   40.20   14.50
   8   7   1   84.99   31.20
  -8   7  -1   50.89   19.60
  -8  -7  -1   36.30   15.30
   8  -7   1   63.99   11.20
   8   7   2  173.88   48.80
  -8   7  -2  157.28   35.40
  -8  -7  -2  199.98   35.80
   8  -7   2  194.88   21.80
  -8  -7  -2  233.98   32.50
  -8   7  -3  -15.70   12.50
  -8  -7  -3   -4.20   11.60
  -8  -7  -3   -4.30   13.10
  -8   7  -4   19.60   18.80
  -8  -7  -4    0.90   15.30
  -8  -7  -4  -10.90   12.90
  -8   7  -5   35.80   21.40
  -8  -7  -5   44.00   21.90
  -8  -7  -5   33.20   23.00
  -8   8   6  -75.19   36.10
   8  -8  -6   35.50   11.80
  -8  -8   6   20.40   41.60
  -8   8   5   32.60   35.50
   8  -8  -5   39.20   12.40
  -8  -8   5   33.10   31.50
  -8   8   4  -34.90   27.70
  -8  -8   4   51.89   28.80
   8  -8  -4   57.59   12.30
  -8   8   3  -33.80   24.90
   8  -8  -3    5.90    7.40
  -8  -8   3    3.20   18.00
  -8   8   2   37.50   26.40
  -8  -8   2   55.29   18.90
   8  -8  -2   35.00    9.50
  -8  -8   2   19.90    9.80
  -8   8   1  208.48   44.80
   8   8  -1  184.38   44.10
  -8  -8   1  317.07   40.10
  -8  -8   1  301.67   37.40
   8  -8  -1  325.27   32.80
  -8  -8   1  315.87   47.70
  -8   8   0   24.80   21.40
   8   8   0    3.10   19.90
  -8  -8   0   30.80   17.40
  -8  -8   0    9.70   11.30
   8  -8   0   28.50    7.40
  -8   8  -1  183.68   38.90
   8   8   1  171.18   47.50
  -8  -8  -1  155.98   33.80
   8  -8   1  243.68   25.30
  -8  -8  -1  204.58   32.90
  -8   8  -2   23.50   19.80
  -8  -8  -2   42.70   18.70
  -8  -8  -2   53.59   19.60
   8  -8   2   45.50   10.60
  -8  -8  -3   35.20   19.80
  -8  -8  -3    7.70   16.90
  -8   8  -4   13.80   20.00
  -8  -8  -4  -10.70   16.50
  -8  -8  -4   17.40   18.60
  -8   9   4   -9.20   33.40
   8  -9  -4   19.70   10.50
  -8  -9   4    2.50   27.70
  -8   9   3  183.58   56.99
   8   9  -3  157.98   32.90
  -8  -9   3  176.08   39.70
  -8   9   2  -11.60   28.40
   8   9  -2   50.59   24.10
  -8  -9   2  106.09   30.50
   8  -9  -2   81.99   14.90
  -8   9   1  -21.60   21.80
   8   9  -1   37.70   21.70
  -8  -9   1    2.40   12.40
   8  -9  -1   19.80    9.60
  -8  -9   1   60.99   20.60
  -8   9   0   58.89   31.30
   8   9   0   76.99   33.30
  -8  -9   0   94.29   21.60
   8  -9   0  148.39   19.50
  -8  -9   0   83.39   29.30
   8   9   1  109.89   43.60
  -8  -9  -1   90.09   43.70
   8  -9   1  133.39   20.10
  -8  -9  -1  111.19   23.10
  -8   9  -2   16.60   20.70
   8   9   2  -15.30   29.00
   8  -9   2   -1.00    9.00
  -8  -9  -2   -0.70   13.50
  -8  -9  -2  -13.40   16.00
  -8   9  -3  -14.50   22.20
   8   9   3   52.79   53.09
  -8  -9  -3  -22.20   18.40
  -8  -9  -3   27.40   19.10
   8  10  -2    8.50   40.40
  -8  10   2   12.60   32.10
  -8 -10   2  -12.30   19.20
   8 -10  -2    7.60   13.90
   8  10  -1    4.60   28.80
  -8  10   1   38.50   32.10
  -8 -10   1   53.09   18.20
  -8 -10   1   73.59   28.50
   8 -10  -1   84.89   16.70
  -8  10   0   23.30   28.30
   8  10   0   33.70   34.40
  -8 -10   0   -4.30   20.50
   8 -10   0   -7.70    8.60
  -8 -10   0  -12.10   14.80
  -8  10  -1    7.20   36.30
   9   0  -8   30.20   10.70
  -9   0   8   63.29   37.90
   9   0  -7  -18.90   14.10
  -9   0   7  -20.40   22.70
   9   0  -6   -9.00    5.90
  -9   0   6   -8.90   22.50
   9   0  -6  -22.40    9.40
  -9   0   5   17.40   17.10
  -9   0   5  -12.30   13.30
   9   0  -5    9.10    7.30
   9   0  -5   -1.40    4.50
  -9   0   4  175.08   40.20
   9   0  -3    0.10    3.00
   9   0  -2  288.17   27.90
  -9   0   2  283.87   49.60
  -9   0   2  262.67   32.30
  -9   0   1   -1.60    3.80
   9   0  -1    0.60    3.70
  -9   0   1    7.30   14.10
  -9   0   0  379.56   53.09
  -9   0   0  400.16   38.80
   9   0   0  378.06   40.40
  -9   0  -1   11.10   13.90
   9   0   1   -2.70    6.00
   9   0   1    0.70    9.40
  -9   0  -1    2.00    4.60
  -9   0  -2  714.53   81.89
  -9   0  -2  791.42   72.99
   9   0   2  765.82   73.19
   9   0   3    4.50    6.90
  -9   0  -3    2.60   15.50
  -9   0  -3   -2.80    5.20
  -9   0  -4   41.50   18.30
  -9   0  -5   -1.90    8.10
  -9   0  -6  130.79   26.00
   9   1  -8   92.49   17.00
  -9   1   8  112.39   40.20
  -9  -1   8   12.50   35.90
   9  -1  -8  109.29   22.60
   9  -1  -8   75.49   15.70
  -9   1   7   95.89   35.40
   9   1  -7   25.10   20.10
   9   1  -7   78.89   13.90
  -9  -1   7   76.09   31.30
   9  -1  -7   84.49   16.70
   9  -1  -7   97.09   16.70
  -9   1   6  177.68   40.60
  -9   1   6  214.78   49.60
   9  -1  -6  202.98   28.30
   9  -1  -6  246.28   36.40
  -9   1   5  222.58   46.70
  -9   1   5  198.28   39.90
  -9  -1   5  152.28   42.60
   9  -1  -5  203.58   29.00
  -9   1   4  104.69   26.20
  -9   1   4  130.39   34.50
  -9  -1   4  110.19   33.90
   9  -1  -4  122.09   17.60
  -9   1   3   17.20   12.00
  -9   1   3    9.70   18.50
   9  -1  -3   24.10    6.60
  -9  -1   3   25.60   18.70
  -9   1   2    8.50    7.60
  -9   1   2    7.60   13.20
  -9  -1   2   -9.00   13.00
   9   1  -1   84.69   13.50
  -9   1   1   46.20   20.90
  -9   1   1  119.49   16.90
  -9  -1   1  121.19   29.00
  -9  -1   1   79.29   12.20
   9  -1  -1  100.19   13.90
  -9   1   0  684.73   60.59
  -9   1   0  628.84   72.89
   9   1   0  570.04   59.49
  -9  -1   0  580.94   71.89
  -9  -1   0  605.54   57.19
   9  -1   0  644.24   60.49
   9  -1   0  661.63   69.29
  -9   1  -1    2.80    5.60
  -9   1  -1   12.10   14.00
   9  -1   1    6.30   11.80
  -9  -1  -1    6.20   11.70
  -9  -1  -1    2.00    3.90
  -9   1  -2  218.18   37.70
  -9   1  -2  179.48   24.60
  -9  -1  -2  183.08   37.00
  -9  -1  -2  217.38   25.50
   9  -1   2  204.18   30.00
   9   1   3  246.98   28.70
  -9   1  -3  237.28   37.80
  -9   1  -3  220.18   28.30
  -9  -1  -3  225.28   38.20
   9  -1   3  196.38   25.00
  -9  -1  -3  230.28   29.20
   9   1   4  104.19   14.90
  -9   1  -4   91.39   18.90
  -9  -1  -4   81.99   25.90
  -9  -1  -4   74.49   23.10
  -9   1  -5   67.19   14.90
  -9  -1  -5   35.00   23.50
  -9  -1  -5   50.59   16.20
  -9   1  -6   -4.30    9.90
  -9  -1  -6   -3.40   11.00
  -9   2   8  -30.80   24.00
   9  -2  -8   -1.80   13.30
   9  -2  -8    2.10    7.40
  -9  -2   8   32.80   31.10
  -9   2   7  766.42  128.39
  -9   2   7 1074.69  130.69
   9  -2  -7 1169.58  100.89
   9  -2  -7 1271.47  109.79
  -9  -2   7  948.51  124.39
  -9   2   6   16.10   25.90
  -9   2   6    2.60   24.40
   9  -2  -6    1.40    3.90
  -9   2   5   13.50   21.10
  -9   2   5  -10.60   15.80
   9  -2  -5  -13.20    9.70
  -9  -2   5  -38.10   15.40
  -9   2   4 1040.80  117.49
  -9   2   4  849.32  109.49
  -9  -2   4  973.00  115.39
   9  -2  -4 1230.48  100.39
  -9   2   3  664.63   79.29
  -9   2   3  611.24   68.49
  -9  -2   3  511.25   73.69
  -9   2   2 1591.14  162.08
  -9   2   2 1650.53  151.08
  -9   2   1   -2.10   11.00
  -9   2   1    3.20    6.20
  -9  -2   1    8.00   13.80
   9  -2  -1   -0.90    3.80
   9   2   0  113.69   17.40
  -9   2   0  109.19   17.70
  -9   2   0   96.39   26.40
   9  -2   0   92.19   24.40
  -9  -2   0   72.99   21.40
  -9  -2   0  100.69   13.50
   9  -2   0  145.59   18.60
  -9  -2   0  128.59   28.40
   9   2   1   65.29   15.20
  -9   2  -1  111.99   17.30
   9  -2   1   82.79   20.90
  -9  -2  -1   73.79   23.30
  -9  -2  -1   88.99   13.60
  -9  -2  -1   85.29   23.30
  -9   2  -2  248.98   38.10
  -9   2  -2  284.67   33.10
  -9  -2  -2  293.17   39.40
   9  -2   2  277.87   34.40
  -9  -2  -2  264.37   31.40
  -9   2  -3   29.90   10.60
  -9  -2  -3   10.70   16.30
  -9  -2  -3   16.40    8.30
  -9   2  -4   -5.10    6.50
  -9  -2  -4    9.40   14.30
  -9   2  -5   69.69   17.80
  -9  -2  -5   71.89   23.70
  -9  -2  -5   84.19   19.90
  -9   2  -6  111.79   28.00
  -9  -2  -6  165.08   37.40
  -9  -2  -6  121.29   26.80
  -9   3   8   51.09   41.30
   9  -3  -8   55.29   13.30
  -9  -3   8   28.30   38.30
   9  -3  -8   40.30   16.80
  -9   3   7  -32.40   25.10
  -9   3   7   -8.10   28.80
   9  -3  -7  -14.60    8.80
  -9  -3   7   21.80   26.80
   9  -3  -7    4.80    7.10
  -9   3   6   40.90   29.50
  -9   3   6   77.79   32.90
  -9  -3   6    9.20   24.30
   9  -3  -6   50.59   12.10
  -9   3   5  132.79   36.40
  -9   3   5  123.79   39.90
   9  -3  -5  175.48   21.10
  -9  -3   5  177.48   40.10
  -9   3   4  256.47   52.49
  -9   3   4  155.88   38.50
  -9  -3   4  194.88   43.00
   9  -3  -4  287.27   27.60
  -9   3   3  595.64   77.79
  -9   3   3  558.04   71.79
   9  -3  -3  659.93   58.09
  -9  -3   3  564.64   74.89
  -9   3   2  600.94   68.39
  -9  -3   2  517.35   71.29
   9  -3  -2  663.93   61.39
  -9   3   1  138.39   33.40
  -9   3   1  156.88   25.00
  -9  -3   1  129.19   30.50
  -9   3   0 1030.40   88.89
  -9   3   0  794.02   94.89
  -9  -3   0  690.73   92.09
  -9  -3   0  917.91   79.79
  -9  -3   0  994.80  100.09
  -9   3  -1   22.20   17.90
   9  -3   1   23.00   17.70
  -9  -3  -1   26.50    7.60
  -9  -3  -1    9.30   20.20
  -9  -3  -1   19.50   15.30
  -9   3  -2  880.61   84.99
  -9   3  -2  871.71   90.09
   9  -3   2  952.10   86.19
  -9  -3  -2  852.51   91.39
  -9  -3  -2  813.32   82.89
  -9   3  -3   43.00   17.90
  -9  -3  -3   21.80   10.70
  -9  -3  -3   22.60   13.40
  -9   3  -4   49.50   14.90
  -9  -3  -4   45.70   15.60
  -9  -3  -4   56.99   19.80
  -9   3  -5    0.90    9.10
  -9  -3  -5    3.10   11.20
  -9  -3  -5  -20.50   15.80
  -9   3  -6   -3.30   11.20
  -9  -3  -6  -19.00   18.40
  -9  -3  -6  -15.40   13.60
  -9   4   8    7.80   38.00
   9  -4  -8   -6.50   13.90
  -9  -4   8  -10.10   37.40
   9  -4  -8   12.20    7.60
  -9   4   7   71.89   38.00
  -9  -4   7   58.19   33.40
   9  -4  -7   50.79   13.50
  -9   4   6  207.98   55.99
  -9   4   6  277.97   59.89
  -9  -4   6  220.48   48.90
   9  -4  -6  241.78   28.50
  -9   4   5   21.40   23.70
  -9   4   5   26.70   20.30
   9  -4  -5   14.60    6.50
  -9   4   4  412.46   67.39
  -9  -4   4  380.66   65.29
  -9   4   3   42.00   17.40
  -9   4   3   41.50   24.40
   9  -4  -3   56.79   11.10
  -9  -4   3   33.50   18.80
  -9   4   2  426.16   59.59
  -9   4   2  403.76   52.89
  -9  -4   2  351.16   54.59
   9  -4  -2  417.96   40.20
  -9   4   1  288.07   39.40
  -9   4   1  261.97   48.70
   9  -4  -1  308.47   29.00
  -9  -4   1  173.88   39.10
  -9   4   0   29.90   15.30
  -9   4   0   11.70    9.90
  -9  -4   0   21.90   17.90
  -9  -4   0    1.70    3.90
   9  -4   0    8.20    4.70
  -9  -4   0    5.50   14.00
  -9   4  -1   29.60   11.60
  -9   4  -1   31.80   18.00
  -9  -4  -1   -4.20   22.80
  -9  -4  -1   39.50   16.40
   9  -4   1   42.50    8.00
   9  -4   1  -30.50   19.70
  -9   4  -2   75.59   17.20
  -9   4  -2   96.79   22.10
   9  -4   2   63.29   21.10
  -9  -4  -2   82.29   17.20
  -9  -4  -2  102.19   22.60
   9  -4   2  102.59   12.00
  -9   4  -3  314.97   41.10
  -9  -4  -3  336.57   46.50
  -9  -4  -3  337.97   41.70
  -9   4  -4  514.85   60.99
  -9  -4  -4  551.64   61.99
  -9  -4  -4  605.14   66.49
  -9   4  -5    9.00   10.70
  -9  -4  -5   18.30   16.60
  -9  -4  -5   18.50   12.50
  -9   4  -6  137.69   28.90
  -9  -4  -6  180.68   35.60
  -9  -4  -6  160.98   42.70
  -9   5   7   91.09   48.70
  -9  -5   7   99.99   41.10
   9  -5  -7   98.39   20.70
  -9   5   6    0.40   28.50
   9  -5  -6   -1.40    5.80
  -9  -5   6   -4.60   23.00
  -9   5   5  141.59   57.69
   9  -5  -5  245.88   27.90
  -9  -5   5  209.68   48.20
  -9   5   4   82.49   30.90
  -9   5   4   24.80   23.80
  -9  -5   4   27.50   21.80
   9  -5  -4   31.20    8.90
  -9   5   3  950.00  116.29
  -9   5   3 1154.08  126.49
   9  -5  -3 1114.59   97.89
  -9  -5   3 1072.19  127.49
  -9   5   2   11.90   13.50
  -9   5   2   -1.70   17.80
   9  -5  -2    2.60    4.60
  -9  -5   2  -13.80   13.20
  -9   5   1  -16.50   13.60
  -9   5   1   -3.50    8.20
   9  -5  -1   -0.80    3.60
  -9  -5   1   -5.30   11.70
  -9   5   0    9.90   13.60
  -9   5   0    8.50   11.70
  -9  -5   0   19.50   15.00
   9  -5   0   20.20    6.20
  -9  -5   0    7.90    5.40
  -9  -5   0   37.90   14.00
  -9   5  -1  230.88   35.50
   9  -5   1  258.27   25.80
  -9  -5  -1  265.07   40.00
  -9  -5  -1  182.58   41.60
  -9  -5  -1  249.97   30.10
  -9   5  -2 1097.69  112.09
  -9  -5  -2 1221.58  135.39
   9  -5   2 1159.08   99.69
  -9  -5  -2 1110.69  108.09
  -9   5  -3   88.09   19.40
  -9  -5  -3   59.19   17.50
  -9  -5  -3  104.09   25.10
  -9   5  -4  115.39   25.50
  -9  -5  -4  131.99   28.40
  -9  -5  -4  212.28   34.90
  -9  -5  -5  128.59   30.30
  -9  -5  -5  151.48   30.30
  -9   6   7    5.90   38.10
  -9  -6   7   43.30   44.30
   9  -6  -7   32.90   10.90
  -9   6   6   54.89   41.60
   9  -6  -6   86.79   16.60
  -9  -6   6   43.40   35.70
  -9   6   5  -30.90   23.30
  -9  -6   5   -6.20   22.30
   9  -6  -5   -3.80    4.40
  -9   6   4   85.19   37.60
   9  -6  -4  122.79   18.00
  -9  -6   4  177.28   42.70
  -9   6   3  121.99   39.50
   9  -6  -3  208.78   23.60
  -9  -6   3  149.59   35.90
   9  -6  -2   84.59   14.70
  -9  -6   2   99.39   28.30
   9  -6  -1  239.68   25.70
  -9  -6   1  182.08   35.40
  -9   6   0  586.14   74.69
   9  -6   0  668.33   61.29
  -9  -6   0  633.24   63.69
  -9  -6   0  774.92   78.79
  -9   6  -1  644.24   75.19
  -9  -6  -1  700.73   75.89
   9  -6   1  695.33   61.69
  -9  -6  -1  630.34   67.29
  -9   6  -2   91.99   23.20
   9  -6   2  120.29   14.70
  -9  -6  -2  134.39   26.70
  -9  -6  -2   83.59   19.80
   9  -6   2   67.29   31.00
  -9   6  -3  118.69   26.20
  -9  -6  -3  133.79   28.20
  -9   6  -4  208.28   38.60
  -9  -6  -4  285.47   42.50
  -9  -6  -4  323.17   46.90
  -9   6  -5  109.19   24.10
  -9  -6  -5   66.29   27.70
  -9  -6  -5   66.59   24.10
  -9   7   6  -39.70   36.10
   9  -7  -6    0.70    7.20
  -9  -7   6   97.99   35.90
  -9   7   5  238.88   60.19
  -9  -7   5  294.17   61.49
   9  -7  -5  336.37   36.90
  -9   7   4   16.10   25.30
  -9  -7   4    6.50   23.00
   9  -7  -4   21.70    9.60
  -9   7   3  119.19   39.70
  -9  -7   3  205.08   45.70
   9  -7  -3  207.98   24.50
  -9   7   2   20.40   19.70
  -9  -7   2   46.50   21.20
   9  -7  -2   46.60   11.00
  -9   7   1  259.87   50.09
  -9  -7   1  249.38   45.20
  -9  -7   1  293.27   32.00
   9  -7  -1  315.17   34.60
  -9   7   0   -4.60   13.90
   9  -7   0   -3.40    4.50
  -9  -7   0   -0.20   16.50
  -9  -7   0  -14.60    8.30
  -9  -7   0  -21.40   16.50
  -9   7  -1   62.29   20.30
  -9  -7  -1   52.39   21.90
  -9  -7  -1   27.40   12.60
   9  -7   1   72.79   12.10
  -9   7  -2   -2.60   15.20
  -9  -7  -2   12.80   16.60
  -9  -7  -2   21.00   14.60
   9  -7   2   32.10    8.90
  -9   7  -3   28.40   20.80
  -9  -7  -3   56.49   22.00
  -9  -7  -3   30.40   17.90
  -9   7  -4   -4.30   18.50
  -9  -7  -4  -15.60   18.00
  -9  -7  -4  -10.90   16.50
   9  -8  -5  -14.30    7.40
  -9  -8   5    8.00   31.40
  -9   8   4   86.49   37.90
   9  -8  -4   51.49   13.40
  -9  -8   4   -0.60   27.00
  -9   8   3  -29.20   27.90
  -9  -8   3   72.79   29.10
   9  -8  -3   49.90   12.10
  -9   8   2   13.30   23.30
  -9  -8   2   25.30   22.10
   9  -8  -2    1.40    7.20
   9   8  -1   10.00   30.70
  -9   8   1  -12.40   18.20
  -9  -8   1   -1.70    9.00
   9  -8  -1   31.60    9.20
  -9  -8   1   19.30   18.80
   9   8   0  -12.20   22.30
  -9   8   0    1.30   17.80
  -9  -8   0   29.50   11.10
  -9  -8   0   -1.90   18.60
  -9   8  -1  341.67   57.09
  -9  -8  -1  276.07   51.89
   9  -8   1  404.56   38.60
  -9  -8  -1  363.46   45.60
  -9   8  -2   -2.70   18.10
  -9  -8  -2  -11.00   14.20
  -9  -8  -2  -18.40   15.10
  -9   8  -3  -12.90   18.20
  -9  -8  -3   -4.10   15.90
  -9  -8  -3    1.60   20.50
  -9   9   4  127.69   57.99
  -9  -9   4  166.38   48.50
   9  -9  -4  255.57   30.40
  -9   9   3   10.90   28.60
   9  -9  -3  -10.10    9.30
  -9   9   2  -11.10   29.80
   9  -9  -2    4.30    8.00
   9   9  -1   72.39   29.90
  -9  -9   1   45.20   41.10
  -9  -9   1   78.99   17.30
  -9   9   0   26.40   28.90
   9   9   0   23.50   30.70
  -9  -9   0   64.39   24.20
  -9  -9   0   41.60   17.10
   9  -9   0   53.29   11.90
  -9   9  -1  -12.90   21.40
   9   9   1  -20.70   30.70
  -9  -9  -1   -8.90   13.20
   9  -9   1  -15.40    9.00
  -9  -9  -1   -4.40   19.40
  -9   9  -2  128.39   35.70
  -9  -9  -2   96.79   32.20
  -9  -9  -2  105.39   27.70
   9  -9   2  148.09   21.30
 -10   0   8   44.20   39.60
  10   0  -8   48.60   13.40
  10   0  -8   26.90   12.90
  10   0  -7  -26.70   14.40
 -10   0   7   13.50   25.00
  10   0  -6  647.94   61.19
  10   0  -6  595.54   59.99
 -10   0   6  615.94   87.69
 -10   0   5   12.60   29.20
 -10   0   4  284.47   55.29
  10   0  -3    4.30    3.70
 -10   0   3    6.10   17.50
  10   0  -2  447.66   42.20
 -10   0   2  418.76   63.39
 -10   0   2  436.66   46.30
 -10   0   1   -2.30    4.90
 -10   0   1  -15.30   13.90
  10   0  -1   -6.20    4.20
 -10   0   0  254.97   26.30
  10   0   0  201.88   29.80
 -10   0   0  172.78   40.20
 -10   0  -1  -27.30   14.50
 -10   0  -1   -4.00    4.00
 -10   0  -2  179.98   35.80
  10   0   3   -1.00    8.30
 -10   0  -3   -1.80    6.20
 -10   0  -3  -32.40   14.50
 -10   0  -4  713.53   79.09
 -10   0  -4  697.43   72.69
  10   0   4  716.63   65.69
 -10   0  -5   -7.10    9.60
 -10   0  -6   75.59   22.80
 -10   1   8   -8.90   30.30
  10  -1  -8    0.10    7.20
  10  -1  -8   -8.10    9.80
 -10  -1   8  -11.40   34.90
 -10   1   7  -36.20   28.00
  10  -1  -7   26.40    9.70
 -10  -1   7  -40.60   28.20
  10  -1  -7    4.60    6.50
 -10   1   6   97.09   36.30
 -10   1   6  200.38   48.60
  10  -1  -6  189.48   26.00
 -10  -1   6  229.98   50.99
  10  -1  -6  159.98   26.70
 -10   1   5   44.00   25.10
 -10   1   5   81.29   27.80
 -10  -1   5   52.49   40.60
  10  -1  -5   70.19   13.80
 -10   1   4   16.10   18.90
 -10   1   4   16.80   17.80
  10  -1  -4   25.10    6.90
 -10  -1   4    8.50   21.10
 -10   1   3 1077.39  123.79
 -10   1   3 1079.59  111.09
  10  -1  -3 1268.87  101.79
 -10  -1   3  999.90  121.69
 -10   1   2  146.59   37.20
 -10   1   2  243.08   32.10
 -10  -1   2  242.38   49.00
  10  -1  -2  267.27   26.50
  10   1  -1   15.70    6.70
 -10   1   1   16.50    8.20
 -10   1   1   44.40   19.10
 -10  -1   1   25.90    6.30
 -10  -1   1    8.60   19.10
 -10   1   0  965.80  107.79
  10   1   0  979.60   92.49
 -10   1   0 1009.50   92.49
 -10  -1   0  867.61  104.09
 -10  -1   0 1055.79   89.89
  10  -1   0 1037.10   93.79
 -10   1  -1   -3.60   13.30
 -10   1  -1   -0.70    5.00
  10   1   1  -10.10    6.50
 -10  -1  -1    3.90    4.60
 -10  -1  -1   22.10   17.70
 -10  -1  -1  -36.30   14.90
 -10   1  -2  254.97   31.20
 -10   1  -2  304.47   44.50
 -10  -1  -2  253.87   30.50
  10  -1   2  263.47   34.30
 -10  -1  -2  301.17   44.40
 -10   1  -3   -2.20    6.20
 -10  -1  -3   10.60    7.30
  10  -1   3  -11.30    8.00
 -10  -1  -3    2.10   16.60
 -10   1  -4  246.98   34.30
 -10  -1  -4  287.17   45.50
 -10  -1  -4  263.17   35.30
 -10   1  -5   -1.30   10.90
 -10  -1  -5   29.40   21.80
 -10  -1  -5   22.70   12.80
 -10   1  -6  -14.50    9.50
 -10  -1  -6  -11.60   14.70
 -10   2   8    8.20   39.00
  10  -2  -8   25.70   10.20
 -10  -2   8   14.40   37.40
  10  -2  -8   42.50   14.30
 -10   2   7   77.09   40.30
 -10   2   7   82.39   38.50
  10  -2  -7   46.70   16.90
 -10  -2   7   80.69   36.40
  10  -2  -7   93.19   16.00
 -10   2   6  135.29   40.30
  10  -2  -6  176.78   22.50
 -10  -2   6  163.38   41.10
 -10   2   5 1607.44  165.58
 -10   2   5 1218.68  152.88
  10  -2  -5 1809.22  142.59
 -10  -2   5 1364.56  159.98
 -10   2   4  -44.30   27.00
 -10   2   4  -27.80   12.50
 -10  -2   4   34.40   20.90
  10  -2  -4   10.60    8.00
 -10   2   3   70.99   27.90
 -10   2   3   33.20   19.20
  10  -2  -3   63.79   12.20
 -10  -2   3   82.59   30.00
 -10   2   2  462.75   63.59
  10  -2  -2  453.25   44.90
 -10  -2   2  427.96   62.89
 -10   2   1 1568.54  166.38
 -10   2   1 1786.12  153.98
 -10  -2   1 1639.24  166.48
 -10   2   0  666.53   66.79
 -10   2   0  642.84   78.69
  10   2   0  678.83   64.19
 -10  -2   0  668.03   79.29
 -10  -2   0  666.23   60.89
 -10   2  -1  310.77   48.40
  10   2   1  268.97   32.90
 -10   2  -1  247.78   33.40
 -10  -2  -1  208.48   42.20
 -10  -2  -1  243.68   28.20
 -10   2  -2  327.37   39.40
 -10   2  -2  304.27   52.39
  10  -2   2  399.16   42.60
 -10  -2  -2  363.06   38.60
 -10  -2  -2  320.37   49.60
 -10  -2  -3   35.60   11.80
 -10  -2  -3   48.00   21.30
 -10   2  -4  597.44   65.89
 -10  -2  -4  569.14   65.99
 -10  -2  -4  771.82   76.89
 -10   2  -5   30.30   13.40
 -10  -2  -5   18.10   23.20
 -10  -2  -5   27.50   12.90
 -10   2  -6    3.90   12.10
 -10  -2  -6  -26.50   25.40
 -10  -2  -6   15.50   15.10
 -10   3   8   -1.40   33.40
 -10   3   8  -34.30   39.60
  10  -3  -8   -1.10   13.50
 -10  -3   8   31.20   36.40
  10  -3  -8    5.90    7.90
 -10   3   7   82.89   37.50
 -10   3   7  -28.70   29.40
 -10  -3   7   29.80   36.00
  10  -3  -7   59.99   13.20
  10  -3  -7   32.70   15.30
 -10   3   6   12.30   27.80
 -10   3   6   39.60   28.60
 -10  -3   6    4.50   22.70
  10  -3  -6    5.20    6.20
 -10   3   5    8.00   25.50
 -10   3   5   29.20   21.90
  10  -3  -5   29.90    9.00
 -10  -3   5   86.19   30.90
 -10   3   4   14.70   21.20
 -10   3   4   29.10   19.30
  10  -3  -4    7.80    5.70
 -10  -3   4   25.70   27.90
 -10   3   3  712.93   80.59
 -10   3   3  631.94   85.89
 -10  -3   3  750.32   88.69
 -10   3   2   41.00   20.30
 -10   3   2   19.50   13.70
 -10  -3   2    8.70   17.90
 -10   3   1  193.98   61.29
 -10   3   1  119.69   23.70
 -10  -3   1  115.59   29.00
 -10   3   0  308.97   39.90
 -10   3   0  297.17   50.89
 -10  -3   0  309.07   30.90
 -10  -3   0  311.17   47.40
 -10   3  -1    3.80    7.00
 -10   3  -1  -19.30   14.70
 -10  -3  -1   19.50   16.70
 -10  -3  -1  -43.10   18.90
 -10  -3  -1    4.40    5.60
 -10   3  -2  492.05   66.49
 -10   3  -2  486.45   52.69
  10  -3   2  441.86   54.09
 -10  -3  -2  530.75   62.89
 -10  -3  -2  460.75   49.80
 -10   3  -3  334.07   41.20
 -10  -3  -3  335.17   49.80
 -10  -3  -3  323.67   39.70
 -10   3  -4   10.90    9.10
 -10  -3  -4   -2.70    9.50
 -10  -3  -4  -39.00   15.00
 -10   3  -5   -8.80   10.50
 -10  -3  -5  -14.00   18.70
 -10  -3  -5   10.60   13.30
 -10   3  -6  -26.90   12.30
 -10  -3  -6  -13.00   14.10
 -10  -3  -6   49.50   37.70
 -10   4   7   78.19   44.80
 -10   4   7   77.09   43.50
 -10  -4   7   68.19   40.90
  10  -4  -7   91.79   16.60
 -10   4   6  -61.99   26.10
 -10   4   6    3.90   26.10
  10  -4  -6   -2.50    5.80
 -10  -4   6  -31.60   26.60
 -10   4   5  -24.70   23.70
 -10   4   5   43.50   25.30
  10  -4  -5    2.00    5.10
 -10  -4   5   15.70   21.60
 -10   4   4   22.00   21.60
 -10   4   4    6.10   19.40
  10  -4  -4   50.29   11.20
 -10  -4   4   51.49   25.90
 -10   4   3  240.98   44.90
 -10   4   3  300.27   57.69
  10  -4  -3  306.07   31.00
 -10  -4   3  156.98   60.89
 -10   4   2   10.40   20.80
 -10   4   2   21.50   16.50
 -10  -4   2   26.10   18.60
  10  -4  -2   23.70    7.50
 -10   4   1  269.07   39.10
 -10   4   1  301.87   54.09
  10  -4  -1  268.27   28.80
 -10  -4   1  241.08   44.80
 -10   4   0   28.40   17.10
 -10   4   0   -8.10    7.90
  10  -4   0   -0.10    3.40
 -10  -4   0    5.20   14.30
 -10  -4   0    6.90   19.40
 -10  -4   0    4.70    4.80
 -10   4  -1  292.87   43.80
 -10   4  -1  279.97   36.20
 -10  -4  -1  237.88   29.70
 -10  -4  -1  161.68   43.40
  10  -4   1  284.87   27.10
 -10  -4  -1  206.98   40.90
 -10   4  -2  200.88   38.30
 -10   4  -2  185.38   30.70
 -10  -4  -2  186.28   37.30
  10  -4   2  229.38   23.00
 -10  -4  -2  179.58   26.30
  10  -4   2  181.08   31.30
 -10   4  -3   -4.70    9.30
 -10  -4  -3    7.00    9.80
 -10  -4  -3  -76.59   27.60
 -10   4  -4   -8.30    9.60
 -10  -4  -4  -38.60   17.00
 -10  -4  -4   -5.00   11.40
 -10   4  -5   20.80   16.00
 -10  -4  -5  -10.60   19.50
 -10  -4  -5   -6.50   13.50
 -10   5   7   97.89   54.59
 -10  -5   7   84.59   44.50
 -10   5   6   39.80   31.80
  10  -5  -6   37.60   12.00
 -10  -5   6   31.80   32.00
 -10   5   5  219.98   60.59
 -10   5   5  261.47   57.09
  10  -5  -5  308.27   32.70
 -10  -5   5  201.88   50.09
 -10   5   4   24.30   26.70
 -10   5   4   -5.90   21.20
  10  -5  -4    7.00    5.50
 -10  -5   4  -38.80   16.10
 -10   5   3   30.30   20.90
 -10   5   3   38.80   25.70
  10  -5  -3   29.00    8.40
 -10  -5   3   23.50   22.90
 -10   5   2  307.37   52.79
 -10   5   2  492.55   63.99
 -10  -5   2  293.57   55.69
  10  -5  -2  388.46   38.40
 -10   5   1  194.78   42.50
 -10   5   1  131.49   30.60
 -10  -5   1  135.49   32.30
  10  -5  -1  220.08   23.10
 -10   5   0   49.99   22.80
 -10   5   0   24.20   17.40
 -10  -5   0   40.70   18.80
 -10  -5   0   23.20   19.40
  10  -5   0   51.29   10.60
 -10  -5   0   24.80    8.20
 -10   5  -1   51.79   18.40
 -10  -5  -1  100.49   24.10
 -10  -5  -1   77.19   14.70
 -10   5  -2    3.50    9.90
 -10  -5  -2   -9.10    7.30
  10  -5   2  -23.50   21.80
 -10  -5  -2  -10.10   14.30
 -10   5  -3  495.85   59.09
 -10  -5  -3  509.45   64.19
 -10  -5  -3  444.96   55.69
 -10   5  -4   94.69   24.30
 -10  -5  -4  127.59   31.70
 -10  -5  -4   92.09   23.30
 -10   5  -5   -8.00   13.80
 -10  -5  -5   19.70   15.10
 -10  -5  -5   19.80   24.00
 -10   6   6  -22.70   33.20
 -10  -6   6    4.20   34.30
  10  -6  -6    3.80    6.80
 -10   6   5    4.80   27.50
  10  -6  -5   41.10   10.40
 -10  -6   5   75.99   34.60
 -10   6   4   28.10   26.60
 -10  -6   4   57.89   31.40
  10  -6  -4   83.89   16.00
 -10   6   3  111.29   40.40
  10  -6  -3  188.78   22.90
 -10  -6   3  161.48   40.50
 -10   6   2   15.40   15.50
  10  -6  -2   17.20    6.70
 -10   6   1  349.96   57.89
 -10  -6   1  315.37   58.49
  10  -6  -1  501.55   44.00
 -10   6   0   63.39   21.70
 -10  -6   0  113.99   25.40
 -10  -6   0   68.99   13.20
 -10   6  -1   63.29   20.40
 -10  -6  -1   47.90   13.60
 -10  -6  -1   70.39   22.10
 -10   6  -2  315.77   46.70
 -10  -6  -2  254.67   37.80
 -10  -6  -2  202.78   42.50
  10  -6   2  323.47   30.00
 -10   6  -3   16.50   15.70
 -10  -6  -3   20.80   19.70
 -10  -6  -3   31.10   14.20
 -10   6  -4   81.29   22.80
 -10  -6  -4   31.00   19.10
 -10  -6  -4   65.49   24.70
 -10   7   6   12.30   46.20
 -10  -7   6    7.80   36.20
  10  -7  -6    7.00    6.50
 -10   7   5   17.30   43.70
  10  -7  -5  110.09   20.50
 -10  -7   5  146.89   45.00
 -10   7   4    2.70   25.80
 -10  -7   4    3.50   24.60
  10  -7  -4   -8.80    5.50
 -10   7   3   17.10   28.20
  10  -7  -3   32.40   10.50
 -10  -7   3   45.70   32.80
 -10   7   2   59.09   29.40
  10  -7  -2   84.69   15.10
 -10  -7   2   24.70   21.20
 -10   7   1   20.00   20.40
  10  -7  -1   35.90   10.30
 -10  -7   1   69.09   27.40
 -10   7   0  -23.50   15.80
 -10  -7   0  -20.40   15.10
 -10  -7   0   -1.30   19.90
  10  -7   0   -2.00    6.50
 -10  -7   0   13.50    8.80
 -10   7  -1   25.20   20.60
 -10  -7  -1   31.80   22.80
 -10  -7  -1   30.00   14.90
  10  -7   1   37.60   10.10
 -10   7  -2   12.10   16.90
 -10  -7  -2    0.40   14.30
 -10  -7  -2   30.50   20.60
  10  -7   2   26.30    9.50
 -10   7  -3   63.49   22.30
 -10  -7  -3   30.80   26.80
 -10  -7  -3   51.19   20.50
 -10   8   5  -35.00   33.90
 -10  -8   5   21.10   34.90
  10  -8  -5   -1.40    7.50
 -10   8   4   18.00   39.80
 -10  -8   4    7.00   31.30
 -10   8   3    0.30   24.00
 -10  -8   3   -8.70   23.90
 -10   8   2   12.10   23.80
 -10  -8   2  -18.60   21.40
  10  -8  -2    4.40    7.60
 -10   8   1  143.49   42.30
  10  -8  -1  237.28   27.30
 -10  -8   1  170.28   39.60
 -10   8   0   68.89   31.10
 -10  -8   0   54.19   17.10
  10  -8   0   70.29   14.80
 -10  -8   0   50.49   26.30
 -10  -8  -1   35.00   15.20
 -10  -8  -1   66.19   39.70
  10  -8   1   27.00   10.50
 -10   8  -2  -17.80   24.00
 -10  -8  -2   10.00   19.70
  10  -8   2   49.10   12.60
 -10  -8  -2   -1.40   16.40
 -10   9   3   44.00   41.10
 -10  -9   3   25.80   29.30
  10  -9  -3   23.00   10.80
  10  -9  -2  430.56   44.10
 -10  -9   2  282.07   57.49
 -10   9   1   13.60   29.70
  10  -9  -1   13.40    8.60
 -10  -9   1    1.20   23.10
 -10   9   0  -55.99   24.10
  10  -9   0  -16.20    9.10
 -10  -9   0  -53.09   19.60
 -11   0   8   10.40   46.10
  11   0  -8   12.70    9.00
 -11   0   7   14.60   31.70
  11   0  -7    5.40    7.90
 -11   0   6  383.86   68.19
 -11   0   5   18.80   23.90
 -11   0   4  383.96   67.59
 -11   0   3   12.00   19.20
 -11   0   2  394.86   58.29
  11   0  -2  389.96   37.80
 -11   0   2  335.57   41.40
 -11   0   1   -3.50    7.10
 -11   0   1   -2.00   12.80
  11   0  -1   -0.50    5.70
 -11   0   0  351.26   63.09
 -11   0   0  448.36   44.70
  11   0   0  457.95   47.20
 -11   0  -2   20.30   19.20
 -11   0  -2   20.20    9.30
 -11   0  -3   18.90   17.30
 -11   0  -4   64.79   32.50
 -11   0  -4  135.59   23.90
 -11   0  -5    7.10   10.10
 -11   1   8   45.00   44.60
  11  -1  -8   38.90   15.90
 -11  -1   8   53.39   40.20
  11  -1  -8   46.90   14.90
 -11   1   7   74.59   38.10
  11  -1  -7   68.99   13.70
 -11  -1   7   97.19   40.40
  11  -1  -7   54.79   14.70
 -11   1   6  120.29   38.50
  11  -1  -6   59.29   14.60
 -11  -1   6   84.69   35.30
 -11   1   5    9.70   20.50
 -11   1   5   45.70   25.20
 -11  -1   5   21.60   23.90
  11  -1  -5   19.90    7.70
 -11   1   4  103.49   31.10
 -11   1   4  133.29   38.50
  11  -1  -4  185.98   20.20
 -11  -1   4  168.98   41.30
 -11   1   3   84.59   20.90
 -11   1   3   76.99   24.30
 -11  -1   3   55.29   26.40
  11  -1  -3   99.89   13.90
 -11   1   2   76.59   29.10
 -11   1   2   85.99   20.10
 -11  -1   2   91.79   29.20
  11  -1  -2  118.79   16.30
 -11   1   1  400.16   64.89
  11   1  -1  513.75   49.20
 -11  -1   1  505.85   69.39
  11  -1  -1  518.05   50.29
 -11  -1   1  485.75   48.10
 -11   1   0  450.85   72.69
 -11   1   0  585.64   55.09
  11   1   0  490.15   56.29
 -11  -1   0  551.84   51.39
 -11  -1   0  512.15   70.79
 -11   1  -1   28.40   10.30
 -11   1  -1  -11.50   18.00
 -11  -1  -1   22.10    8.00
 -11  -1  -1   28.90   20.10
 -11   1  -2  805.52   78.19
 -11   1  -2  818.02   91.49
 -11  -1  -2  772.82   91.19
 -11  -1  -2  806.42   76.89
 -11   1  -3  260.37   34.20
 -11   1  -3  223.58   43.30
 -11  -1  -3  318.47   51.89
 -11  -1  -3  256.67   33.50
 -11   1  -4   18.20   10.30
 -11  -1  -4   23.90   12.00
 -11  -1  -4   51.39   50.69
 -11   1  -5   25.00   12.00
 -11  -1  -5   43.20   27.80
 -11  -1  -5   18.30   13.40
 -11   2   8   68.79   47.00
  11  -2  -8   72.89   20.40
  11  -2  -8   57.29   13.90
 -11  -2   8   64.69   41.90
 -11   2   7   38.30   30.70
 -11   2   7   15.90   32.30
 -11  -2   7  -11.40   32.10
  11  -2  -7   15.70    7.90
  11  -2  -7  -13.30    9.90
 -11   2   6   83.79   33.40
 -11   2   6   41.30   28.10
 -11  -2   6   48.60   28.70
  11  -2  -6   63.89   13.40
 -11   2   5  353.16   60.49
 -11   2   5  541.05   74.39
 -11  -2   5  386.86   72.29
 -11   2   4  198.28   45.10
 -11   2   4  170.88   37.00
 -11  -2   4  181.58   41.30
 -11   2   3   25.50   16.40
 -11   2   3   29.80   24.10
  11  -2  -3   29.80    8.10
 -11   2   2  -14.30   15.20
 -11   2   2   17.30   11.90
 -11  -2   2   31.60   17.90
 -11   2   1  117.39   35.60
 -11   2   1  154.68   24.70
 -11  -2   1  153.68   39.30
 -11   2   0   -3.90    6.30
 -11   2   0   10.40   21.20
  11   2   0   -9.10    7.50
 -11  -2   0  -17.10   16.30
 -11  -2   0  -19.70   16.80
 -11   2  -1 3098.49  259.27
 -11   2  -1 2664.13  270.37
 -11  -2  -1 2837.52  272.87
 -11  -2  -1 3066.69  254.37
 -11   2  -2   63.59   24.70
 -11   2  -2   74.99   14.70
 -11  -2  -2   66.39   14.20
 -11  -2  -2   61.69   30.20
 -11   2  -3   -1.20   19.00
 -11   2  -3   37.30   13.40
 -11  -2  -3   24.70   23.10
 -11  -2  -3   20.50    9.80
  11  -2   3   39.70   12.40
 -11   2  -4  257.47   41.10
 -11  -2  -4  350.96   41.90
 -11  -2  -4  370.46   54.79
 -11   2  -5   64.39   25.20
 -11  -2  -5   20.10   27.30
 -11  -2  -5   30.80   16.00
 -11   3   7   -3.50   34.30
 -11   3   7    6.30   43.90
  11  -3  -7   40.30   14.20
 -11  -3   7   60.09   39.80
  11  -3  -7   47.80   14.40
 -11   3   6   -4.60   23.60
 -11   3   6    8.00   28.00
  11  -3  -6    3.60    6.60
 -11  -3   6   31.40   31.20
 -11   3   5  162.78   45.60
  11  -3  -5  254.67   28.40
 -11  -3   5  198.28   47.30
 -11   3   4  -14.70   14.70
 -11   3   4   -9.50   16.80
  11  -3  -4    6.80    5.40
 -11  -3   4   24.20   24.00
 -11   3   3   45.50   31.50
 -11   3   3   57.29   21.00
 -11  -3   3   87.99   31.30
 -11   3   2   -2.20   13.80
 -11   3   2   43.90   22.20
 -11  -3   2   23.00   31.90
 -11   3   1   85.39   24.00
 -11   3   1   95.09   30.80
 -11  -3   1   93.29   29.30
 -11   3   0   13.10   19.40
 -11   3   0    7.50   10.20
 -11  -3   0   56.39   22.50
 -11  -3   0    3.20   19.90
 -11  -3   0    9.70    5.00
 -11   3  -1   51.79   15.90
 -11   3  -1   27.80   20.90
 -11  -3  -1   47.50   10.00
 -11  -3  -1   29.60   19.80
 -11   3  -2  102.39   29.80
 -11   3  -2  182.18   26.70
 -11  -3  -2  154.38   33.00
 -11  -3  -2  145.09   22.50
 -11   3  -3  119.89   23.00
 -11  -3  -3  116.19   21.30
 -11  -3  -3  120.09   33.70
 -11   3  -4   77.29   19.80
 -11  -3  -4   87.59   20.50
 -11  -3  -4  147.59   38.10
 -11   3  -5  267.97   40.10
 -11  -3  -5  253.07   40.70
 -11  -3  -5  270.57   48.90
 -11   4   7  -22.10   37.00
 -11   4   7    6.70   34.50
  11  -4  -7    5.40    9.00
 -11  -4   7  -23.80   37.20
 -11   4   6   -9.80   25.80
 -11  -4   6  -23.80   31.20
  11  -4  -6   11.80    7.50
 -11   4   5  -14.90   23.10
 -11   4   5   -7.20   25.80
  11  -4  -5    2.00    6.00
 -11  -4   5   -8.90   23.40
 -11   4   4  -23.50   16.40
 -11   4   4   27.90   28.10
  11  -4  -4   10.30    6.10
 -11  -4   4   55.69   28.50
 -11   4   3  112.99   37.20
 -11   4   3   89.39   28.20
  11  -4  -3  138.59   18.40
 -11  -4   3   93.19   32.70
 -11   4   2   -9.20   13.30
 -11   4   2   16.20   22.10
  11  -4  -2    7.90    5.90
 -11  -4   2   -1.30   16.60
 -11   4   1  306.47   42.80
 -11   4   1  204.88   47.20
 -11  -4   1  170.08   42.30
  11  -4  -1  305.87   30.70
 -11   4   0  188.98   41.60
 -11   4   0  236.58   35.20
 -11  -4   0  207.48   40.10
 -11  -4   0  134.39   34.50
 -11  -4   0  210.38   23.90
  11  -4   0  295.67   27.20
 -11   4  -1  163.78   41.00
 -11   4  -1  260.87   40.00
  11  -4   1  299.27   27.90
 -11  -4  -1  172.78   40.40
 -11  -4  -1  225.68   28.40
 -11   4  -2   -5.20   10.30
 -11   4  -2  -11.70   18.70
 -11  -4  -2    9.90   19.70
 -11  -4  -2   -2.60    8.10
  11  -4   2    9.70    6.30
 -11   4  -3   19.90   13.70
 -11  -4  -3   53.39   27.80
 -11   4  -4   -6.90   11.80
 -11  -4  -4    4.90   11.30
 -11  -4  -4  -29.20   20.70
 -11   4  -5    3.80   15.90
 -11  -4  -5  -58.79   22.30
 -11  -4  -5   30.50   17.50
 -11   5   7   39.60   46.30
  11  -5  -7   76.89   16.30
 -11  -5   7   49.90   47.50
 -11   5   6   85.59   43.50
 -11  -5   6  -58.09   30.20
 -11   5   5   60.59   40.30
 -11   5   5  146.89   47.90
  11  -5  -5  157.28   21.70
 -11  -5   5  133.59   43.70
 -11   5   4   35.60   30.10
 -11  -5   4   46.30   28.70
  11  -5  -4   36.10   11.30
 -11   5   3  316.57   58.89
 -11   5   3  239.98   50.29
  11  -5  -3  279.47   31.10
 -11  -5   3  218.58   48.90
 -11   5   2   46.60   30.10
 -11   5   2   16.40   17.70
  11  -5  -2   23.60    7.30
 -11  -5   2   28.20   21.90
 -11   5   1  116.09   35.30
  11  -5  -1  128.19   18.60
 -11  -5   1  128.99   34.00
 -11   5   0   92.49   24.50
 -11   5   0  149.69   33.80
  11  -5   0  164.98   18.80
 -11  -5   0   38.20   26.40
 -11  -5   0  130.39   34.40
 -11  -5   0  118.49   17.00
 -11   5  -1   10.10   14.70
 -11   5  -1    5.70   19.90
 -11  -5  -1  -24.30   13.80
 -11  -5  -1    2.40    6.90
  11  -5   1    0.90    7.60
 -11   5  -2    3.30   14.40
  11  -5   2   20.40    7.00
 -11  -5  -2    3.80    8.80
 -11  -5  -2  -20.50   19.30
 -11   5  -3  -14.40   12.20
 -11  -5  -3   31.80   21.70
 -11  -5  -3    6.00   12.40
 -11   5  -4    3.40   15.00
 -11  -5  -4  -19.90   12.90
 -11  -5  -4  -12.50   24.70
 -11   6   6   -3.10   43.20
  11  -6  -6   40.10   12.00
 -11  -6   6   -3.40   43.90
 -11   6   5   38.50   33.20
  11  -6  -5   54.29   13.80
 -11  -6   5   61.89   36.70
 -11   6   4    6.50   30.00
 -11  -6   4  -18.20   29.70
  11  -6  -4  -10.70    5.40
 -11   6   3   28.50   21.20
  11  -6  -3    9.20    7.30
 -11  -6   3   73.39   30.30
 -11   6   2    8.00   18.40
 -11  -6   2   20.90   21.50
  11  -6  -2    4.80    6.70
 -11  -6   1  260.77   50.69
  11  -6  -1  267.47   30.80
 -11   6   0  -11.80   13.60
 -11  -6   0   -4.50   19.60
 -11  -6   0   -3.60    7.10
  11  -6   0    1.60    6.70
 -11   6  -1   41.80   20.00
 -11  -6  -1   38.00   12.10
  11  -6   1   48.00   11.00
 -11  -6  -1   28.90   23.40
 -11   6  -2  165.78   36.30
 -11  -6  -2  194.08   43.00
  11  -6   2  222.58   24.80
 -11   6  -3   33.80   36.30
 -11  -6  -3   12.00   25.70
 -11  -6  -3   48.50   17.10
 -11   7   5  133.29   47.70
  11  -7  -5  161.68   23.90
 -11  -7   5   39.10   42.20
 -11   7   4   -3.80   33.00
  11  -7  -4    0.40    7.90
 -11  -7   4   35.60   28.60
 -11   7   3  123.19   34.80
 -11  -7   3   63.89   32.00
  11  -7  -3   72.89   15.60
 -11   7   2  -16.30   22.80
  11  -7  -2   13.90    8.30
 -11  -7   2  -15.00   23.20
 -11  -7   1  -36.50   17.80
  11  -7  -1    1.60    6.80
 -11   7   0    1.00   18.70
 -11  -7   0    3.60   22.40
  11  -7   0   -1.10    6.80
 -11   7  -1  -13.90   17.70
  11  -7   1    6.10    9.10
 -11  -7  -1    1.20   21.10
 -11   7  -2   16.30   23.00
 -11  -7  -2   -0.40   12.50
 -11   7  -3   28.80   25.50
 -11  -7  -3   49.30   19.20
 -11  -7  -3   47.20   31.10
 -11   8   4   56.49   38.30
  11  -8  -4   -6.20    8.90
 -11  -8   4  -14.70   34.60
 -11  -8   3   40.70   29.70
 -11   8   2    3.50   33.50
 -11  -8   2   19.60   28.50
  11  -8  -2   35.50   12.00
 -11  -8   1  150.98   40.00
  11  -8  -1  212.88   27.60
 -11   8   0  -14.00   25.10
  11  -8   0  -12.30    7.40
 -11  -8   0   -1.10   22.50
 -11  -8   0    1.60   12.20
 -11   8  -1   98.69   33.00
 -11  -8  -1   56.79   19.50
 -11  -8  -1  112.79   37.00
 -12   0   7  -52.09   28.20
 -12   0   6   25.70   29.90
 -12   0   5   17.80   26.00
 -12   0   4    8.90   22.40
 -12   0   3   -8.80   18.50
 -12   0   2  -13.60    8.30
  12   0  -2   -7.90    5.70
 -12   0   1    8.60    9.60
 -12   0   1   -6.20   16.00
 -12   0   0   17.50   20.90
 -12   0   0    4.60    6.10
 -12   0  -1  -10.00   16.50
 -12   0  -2  341.87   63.29
 -12   0  -2  464.75   47.30
 -12   0  -3  -43.80   16.60
 -12   0  -4   57.99   35.40
 -12   0  -4   73.09   17.30
 -12   1   7  -18.80   44.40
  12  -1  -7    6.50    8.70
  12  -1  -7   -0.80    7.00
 -12  -1   7   -8.60   33.10
 -12   1   6   -0.50   24.20
 -12   1   6  -10.60   26.10
 -12  -1   6  -11.70   33.20
  12  -1  -6  -14.70   13.30
 -12   1   5   -6.00   21.20
 -12   1   5   31.80   27.20
  12  -1  -5    2.40    6.70
 -12  -1   5   10.20   22.80
 -12   1   4  147.79   34.40
 -12   1   4  172.88   45.90
  12  -1  -4  222.28   23.90
 -12  -1   4  243.68   54.49
 -12   1   3   18.00   23.90
 -12   1   3   57.49   19.60
  12  -1  -3   54.89   11.00
 -12  -1   3   69.29   30.90
 -12   1   2  855.01  111.99
 -12   1   2  692.03   76.79
 -12  -1   2  780.52   97.79
 -12   1   1   61.69   32.20
  12   1  -1   50.59   12.60
 -12   1   1   51.79   14.70
 -12  -1   1   89.59   29.10
 -12  -1   1   72.29   13.70
  12  -1  -1   74.29   16.40
 -12   1   0    3.30   18.60
  12   1   0   -7.20    9.60
 -12   1   0   -0.50    7.30
 -12  -1   0   19.80   23.00
 -12  -1   0  -25.30   19.10
 -12  -1   0   11.10    6.20
 -12   1  -1   56.89   13.90
 -12   1  -1   47.70   22.30
 -12  -1  -1   47.30   10.40
 -12  -1  -1   68.29   29.80
 -12   1  -2   54.89   14.60
 -12   1  -2  115.49   29.60
 -12  -1  -2   39.60   27.50
 -12  -1  -2   56.79   13.00
 -12   1  -3   10.40   21.90
 -12   1  -3   16.40    9.40
 -12  -1  -3   27.80   23.50
 -12  -1  -3   12.90    9.10
 -12   1  -4    4.20   10.40
 -12  -1  -4   -6.70   27.70
 -12  -1  -4    7.80   10.70
 -12   1  -5  152.68   28.90
 -12  -1  -5  196.68   44.90
 -12   2   7   28.30   39.50
 -12   2   7   17.00   31.40
  12  -2  -7    7.80    8.30
 -12  -2   7  -35.90   37.90
  12  -2  -7  -24.60    9.60
 -12   2   6  272.87   59.69
 -12  -2   6  237.68   61.39
  12  -2  -6  277.27   33.00
 -12   2   5    3.80   27.10
 -12   2   5  -11.10   22.70
 -12  -2   5   38.80   31.30
 -12   2   4   10.40   23.30
 -12   2   4  -11.60   20.80
  12  -2  -4   28.30    8.50
 -12  -2   4   15.70   25.00
 -12   2   3  703.83   90.69
 -12   2   3  590.64   74.09
 -12  -2   3  667.23   87.79
 -12   2   2   27.60   14.70
 -12  -2   2   49.99   28.40
 -12   2   1   38.40   24.40
 -12   2   1    3.60   10.10
 -12  -2   1   16.50   22.20
 -12   2   0   17.30   21.70
 -12   2   0   12.20    9.90
  12   2   0   -8.10    8.60
 -12  -2   0  -14.90   19.10
 -12  -2   0   11.20    6.20
 -12   2  -1  553.34   57.89
 -12   2  -1  638.14   76.09
 -12  -2  -1  544.85   52.79
 -12  -2  -1  370.76   70.99
 -12   2  -2   94.79   18.20
 -12   2  -2  118.09   34.90
 -12  -2  -2   97.89   17.10
 -12  -2  -2   69.79   31.80
 -12   2  -3  543.95   61.89
 -12   2  -3  550.74   70.89
 -12  -2  -3  591.94   60.89
 -12  -2  -3  606.24   79.29
 -12   2  -4   -4.90   11.20
 -12  -2  -4    7.70   30.00
 -12  -2  -4  -13.40    9.90
 -12   2  -5  -17.30   12.40
 -12   3   7  -34.10   30.90
 -12   3   7   -2.70   35.60
  12  -3  -7   23.40   10.30
  12  -3  -7   10.20   13.90
 -12   3   6  -70.59   27.90
 -12   3   6    9.70   26.10
  12  -3  -6    8.20    5.40
 -12  -3   6  -42.90   28.70
 -12   3   5   50.59   31.00
 -12   3   5   30.60   32.50
 -12  -3   5   33.70   31.50
  12  -3  -5   44.90   13.30
 -12   3   4   56.89   39.40
 -12   3   4  124.69   41.20
  12  -3  -4  170.58   21.70
 -12  -3   4   98.99   35.30
 -12   3   3   -4.80   21.90
 -12   3   3   -6.90   18.60
 -12  -3   3  -19.60   19.60
 -12   3   2   23.10   26.90
 -12   3   2   13.80   31.70
 -12  -3   2   30.90   22.00
 -12   3   1    6.40   13.60
 -12   3   1   38.70   26.20
 -12  -3   1   20.90   24.60
 -12   3   0  342.87   42.50
 -12   3   0  281.77   52.19
 -12  -3   0  314.07   30.70
 -12  -3   0  298.17   55.19
 -12  -3   0  179.68   43.30
 -12   3  -1   70.49   26.30
 -12  -3  -1  107.09   33.70
 -12  -3  -1   49.40   11.00
 -12   3  -2   41.50   22.70
 -12   3  -2   17.40   12.40
 -12  -3  -2   34.60   10.90
 -12  -3  -2   32.70   27.10
 -12   3  -3   -2.00   10.30
 -12  -3  -3    3.20    9.50
 -12  -3  -3    7.70   27.10
 -12   3  -4   70.39   21.00
 -12  -3  -4   59.79   18.80
 -12  -3  -4   55.29   32.50
 -12   4   7  -27.40   37.30
 -12   4   7    5.70   39.50
  12  -4  -7   38.40   13.40
 -12  -4   7   41.90   46.30
 -12   4   6  108.59   46.20
 -12   4   6  137.49   54.89
 -12  -4   6  166.18   54.39
  12  -4  -6  203.88   26.30
 -12   4   5   29.40   33.50
 -12   4   5  -27.70   26.80
 -12  -4   5   -3.80   28.60
  12  -4  -5   21.20   10.30
 -12   4   4  166.28   48.00
 -12   4   4  185.28   42.30
  12  -4  -4  174.08   23.60
 -12  -4   4  109.59   39.00
 -12   4   3  107.99   29.10
 -12   4   3   82.89   32.40
  12  -4  -3  137.79   19.30
 -12  -4   3   70.39   29.90
 -12   4   2   73.69   33.10
 -12   4   2   48.90   20.90
  12  -4  -2   66.29   14.10
 -12  -4   2   10.20   18.90
 -12   4   1  266.37   43.00
 -12  -4   1  275.87   54.29
  12  -4  -1  271.57   35.10
 -12   4   0    4.10   15.60
 -12   4   0    8.50   22.30
 -12  -4   0  -21.90   19.90
 -12  -4   0    9.00   23.30
 -12  -4   0   -5.00    5.60
  12  -4   0   23.30    9.40
 -12   4  -1  163.98   42.40
 -12   4  -1  139.29   27.10
 -12  -4  -1   88.69   15.70
 -12  -4  -1  137.39   36.50
 -12   4  -2  -46.30   22.00
 -12   4  -2  -17.20   10.50
  12  -4   2   -6.00    8.10
 -12  -4  -2    5.20    8.50
 -12  -4  -2   -7.00   21.40
 -12   4  -3   11.00   13.70
 -12  -4  -3   -0.80   25.00
 -12  -4  -3    8.00   12.90
 -12   4  -4   27.90   18.60
 -12  -4  -4   40.80   17.20
 -12  -4  -4   38.70   31.50
 -12   5   6  -14.00   38.20
 -12   5   6   56.99   40.10
  12  -5  -6   37.10   12.10
 -12  -5   6   97.89   49.99
 -12   5   5  255.27   60.59
 -12   5   5  329.07   73.19
 -12  -5   5  347.67   73.09
  12  -5  -5  463.35   45.60
 -12   5   4   33.70   29.50
 -12   5   4   31.20   32.40
 -12  -5   4  -22.60   21.70
  12  -5  -4   27.90   10.40
 -12   5   3  105.19   35.30
 -12   5   3  172.48   51.29
  12  -5  -3  152.88   21.50
 -12  -5   3   85.19   37.40
 -12   5   2    6.20   22.60
 -12   5   2   84.09   31.50
  12  -5  -2   57.09   13.20
 -12  -5   2   59.49   31.00
 -12   5   1   41.50   21.30
 -12   5   1   84.29   32.60
  12  -5  -1   67.99   13.70
 -12  -5   1   57.89   25.80
 -12   5   0   62.19   21.90
 -12   5   0  115.19   33.10
 -12  -5   0   81.69   31.50
  12  -5   0   81.39   14.70
 -12   5  -1  188.08   45.10
 -12   5  -1  133.39   29.80
 -12  -5  -1  155.58   23.40
 -12  -5  -1  148.09   38.90
 -12   5  -2    6.60   15.90
 -12  -5  -2    7.00    9.90
 -12  -5  -2   -8.00   24.40
  12  -5   2   19.80    9.00
 -12  -5  -3   22.80   29.00
 -12   6   5   -4.40   35.00
 -12  -6   5   78.19   34.90
  12  -6  -5   -2.60    7.90
 -12   6   4   77.99   38.70
  12  -6  -4   68.89   15.70
 -12  -6   4   91.59   36.20
 -12   6   3  331.97   66.59
  12  -6  -3  526.15   48.80
 -12  -6   3  352.96   67.19
 -12   6   2    6.00   21.90
  12  -6  -2    5.60    7.20
 -12  -6   2   11.20   23.10
 -12   6   1  107.19   31.80
 -12  -6   1  132.69   38.00
 -12   6   0   19.30   17.40
 -12  -6   0   42.70   25.10
  12  -6   0   25.90    9.30
 -12   6  -1  140.79   31.90
 -12  -6  -1  114.79   35.10
 -12  -6  -1  122.09   20.30
  12  -6   2    1.70   11.90
 -12  -6  -2    7.00   12.70
 -12  -6  -2  -54.99   21.60
 -12   6  -3   50.49   23.70
 -12  -6  -3   27.10   17.30
 -12  -6  -3   32.20   38.60
 -12   7   4   45.30   36.70
 -12  -7   4   -2.50   33.10
  12  -7  -4   -2.20    7.90
 -12   7   3  193.38   55.09
 -12  -7   3  245.08   57.39
  12  -7  -3  317.07   35.60
 -12   7   2  -23.50   23.00
 -12  -7   2   19.60   28.10
  12  -7  -2   15.80   10.10
 -12   7   1  -34.70   23.70
  12  -7  -1   11.00    8.80
 -12  -7   1   -1.20   21.80
 -12   7   0  -18.00   19.80
  12  -7   0    8.90   10.80
 -12  -7   0  -41.20   22.00
 -12   7  -1  -28.90   23.30
 -12   8   2   61.49   32.90
  12  -8  -2   52.79   15.20
 -12  -8   2   58.59   36.40
 -12   8   1   98.89   39.90
 -12  -8   1  101.09   42.10
  12  -8  -1  118.29   21.60
 -13   0   7  -77.09   34.50
 -13   0   6  198.18   52.99
 -13   0   5  -10.30   30.40
 -13   0   4  134.19   36.90
 -13   0   3   41.40   25.10
  13   0  -2   38.60   11.70
 -13   0   2   39.70   26.50
 -13   0   2   57.49   17.20
 -13   0   1   16.50   24.90
  13   0  -1   -5.90    8.90
 -13   0   0  -18.30   32.50
 -13   0   0    4.40    8.10
 -13   0  -1    4.70    9.20
 -13   0  -1  -31.40   19.80
 -13   0  -2   31.90   23.50
 -13   0  -3   -9.30    8.30
 -13   0  -4   17.80   12.50
 -13   0  -4   20.20   30.70
 -13   1   7  -19.80   40.30
 -13  -1   7    2.90   37.40
  13  -1  -7   32.50   12.10
 -13   1   6   30.00   32.30
 -13  -1   6  -11.30   32.20
 -13   1   5  -36.90   22.00
 -13  -1   5   19.60   26.70
 -13   1   4  -28.70   21.50
 -13   1   4   40.00   33.90
 -13  -1   4   91.79   37.40
 -13   1   3  -15.10   22.20
 -13   1   3  -29.00   16.90
 -13  -1   3   -0.30   20.10
  13  -1  -3  -17.20    9.50
 -13   1   2  143.39   40.40
 -13   1   2  122.59   26.40
 -13  -1   2  167.98   42.70
 -13   1   1  -36.70   17.60
  13   1  -1  -10.90    7.40
 -13   1   1   16.50   11.20
 -13  -1   1   32.50   26.20
 -13  -1   1   18.40    9.20
 -13  -1   1   -5.70   21.60
 -13   1   0  554.14   81.59
 -13   1   0  552.64   65.09
 -13  -1   0  573.74   81.39
 -13  -1   0  572.84   55.99
 -13   1  -1   11.10   23.80
 -13   1  -1   14.60   10.10
 -13  -1  -1   18.00    9.60
 -13  -1  -1   39.50   28.90
 -13   1  -2   -5.30    9.50
 -13   1  -2    4.40   22.70
 -13  -1  -2  -39.10   45.10
 -13  -1  -2   -5.00    7.40
 -13   1  -3   60.29   17.30
 -13   1  -3  126.79   33.30
 -13  -1  -3   70.49   17.50
 -13  -1  -3    6.30   38.00
 -13   1  -4   -6.50   14.00
 -13  -1  -4  -20.60   29.70
 -13  -1  -4    9.80   13.40
 -13   2   7  -20.90   41.00
  13  -2  -7   -2.70    7.30
 -13  -2   7  -36.80   43.70
 -13   2   6  215.08   75.39
 -13   2   6  113.99   38.50
 -13  -2   6  316.17   70.29
 -13   2   5  -32.40   22.80
 -13   2   5    6.60   28.30
 -13  -2   5  -25.80   27.60
 -13   2   4  204.48   53.49
 -13   2   4  145.49   35.90
 -13  -2   4  186.78   49.20
 -13   2   3  106.89   29.00
 -13   2   3  154.58   44.40
 -13  -2   3  205.18   48.20
 -13   2   2   43.10   18.90
 -13   2   2   48.10   27.00
 -13  -2   2   68.49   31.20
 -13   2   1  654.53   75.49
 -13   2   1  646.04   86.09
 -13  -2   1  550.64   83.09
  13   2   0   33.80   13.20
 -13   2   0   35.50   14.20
 -13   2   0   47.10   32.70
 -13  -2   0   37.50   10.90
 -13  -2   0   19.80   24.50
 -13  -2   0  -12.00   23.90
 -13   2  -1   19.10   20.20
 -13   2  -1   17.50   23.30
 -13  -2  -1   20.20   24.90
 -13   2  -2   53.49   16.00
 -13   2  -2   90.69   32.90
 -13  -2  -2   53.99   13.50
 -13  -2  -2   72.89   31.10
 -13   2  -3   54.09   17.50
 -13  -2  -3  147.49   36.20
 -13  -2  -3   53.49   15.30
 -13  -2  -4   41.90   32.40
 -13  -2  -4   75.29   19.80
 -13   3   6   56.99   39.80
 -13   3   6   17.30   35.00
  13  -3  -6   42.60   12.90
 -13  -3   6   30.20   48.10
 -13   3   5   68.29   38.80
 -13   3   5   62.09   32.60
  13  -3  -5   85.29   18.20
 -13  -3   5   76.89   35.10
 -13   3   4  214.98   48.30
 -13   3   4  337.67   61.79
 -13  -3   4  205.48   56.19
  13  -3  -4  350.36   36.70
 -13   3   3   37.60   23.30
 -13   3   3   28.40   31.80
 -13  -3   3   29.20   28.60
 -13   3   2  329.27   53.09
 -13   3   2  369.56   64.79
 -13  -3   2  370.06   66.89
 -13   3   1    2.90   12.10
 -13   3   1   71.89   29.90
 -13  -3   1   16.20   21.80
 -13   3   0   -8.50   24.30
 -13   3   0   19.40   15.50
 -13  -3   0    9.60    7.40
 -13  -3   0    0.80   26.30
 -13  -3   0   37.00   25.20
 -13   3  -1    4.80   11.50
 -13   3  -1    2.90   22.70
 -13  -3  -1  -25.30   23.20
 -13  -3  -1   -7.40    7.70
 -13   3  -2   55.49   28.80
 -13   3  -2   33.00   15.80
 -13  -3  -2   33.70   12.50
 -13  -3  -2   42.90   28.80
 -13   3  -3  -10.40   14.20
 -13  -3  -3    0.80   12.40
 -13   4   6   55.59   45.50
 -13   4   6  -11.40   37.50
 -13  -4   6    8.40   34.00
  13  -4  -6   88.29   17.50
 -13   4   5  -41.20   35.60
 -13  -4   5  -14.20   38.70
 -13   4   4   -0.90   25.60
 -13   4   4   39.80   30.20
 -13  -4   4   28.60   31.80
 -13   4   3  101.79   33.50
 -13   4   3  195.68   48.20
 -13  -4   3   44.90   36.00
  13  -4  -3  111.79   19.60
 -13   4   2   -2.60   25.40
 -13   4   2   -3.50   18.30
 -13  -4   2   19.60   26.90
  13  -4  -2   35.60   11.00
 -13   4   1  217.28   41.80
 -13   4   1  276.57   58.09
  13  -4  -1  345.07   35.10
 -13  -4   1  216.48   56.59
 -13   4   0  108.49   25.20
 -13   4   0  188.78   48.00
 -13  -4   0  101.79   35.30
 -13   4  -1   66.99   35.20
 -13   4  -1   61.69   21.50
 -13  -4  -1   66.19   30.20
  13  -4   1   67.99   15.50
 -13  -4  -1   32.60   10.60
 -13   4  -2   61.59   29.80
 -13   4  -2   15.60   17.20
  13  -4   2   90.09   15.30
 -13  -4  -2   44.70   32.70
 -13  -4  -2   48.40   14.40
 -13  -4  -3   -3.30   12.10
 -13  -4  -3  -14.80   31.80
 -13   5   5  328.37   73.79
 -13  -5   5  250.47   65.59
  13  -5  -5  399.16   43.70
 -13   5   4   18.20   33.00
 -13   5   4  -54.49   35.70
 -13   5   3  197.98   43.50
 -13   5   3  181.28   52.59
 -13  -5   3  174.78   50.89
 -13   5   2   54.09   25.00
 -13   5   2   62.69   40.40
  13  -5  -2   79.79   15.90
 -13   5   1   72.49   25.70
 -13   5   1   70.49   32.90
  13  -5  -1   88.89   17.10
 -13  -5   1   74.49   31.40
 -13   5   0  185.88   44.60
 -13   5   0   34.70   23.60
 -13  -5   0   92.19   35.90
 -13   5  -1   56.89   30.90
 -13   5  -1   17.20   21.50
 -13  -5  -1   81.09   30.40
 -13  -5  -1   38.70   12.10
 -13   5  -2  -12.20   17.30
  13  -5   2   -0.60   11.30
 -13  -5  -2  -27.00   25.10
 -13  -5  -2   -7.60   11.70
 -13   6   4   27.50   38.20
 -13  -6   4   14.20   32.70
  13  -6  -4    0.20    8.60
 -13   6   3  510.15   91.19
  13  -6  -3  502.55   54.19
 -13   6   2  134.39   46.50
 -13   6   2   19.40   27.20
  13  -6  -2   68.59   17.30
 -13  -6   2   58.09   33.60
 -13   6   1  431.66   67.79
 -13  -6   1  306.47   68.09
 -13   6   0  -18.80   20.60
  13  -6   0   14.30   11.90
 -13  -6   0   38.20   29.20
  13  -6   1  147.89   25.20
 -13  -6  -1  190.28   49.20
 -13   7   3   32.10   41.30
 -13   7   2  -43.50   28.70
 -13  -7   2   18.50   29.90
  13  -7  -2   19.40   10.80
  13  -7  -1   -8.30   10.40
 -13  -7   1   -3.80   28.60
 -13   7   0  -29.00   20.10
 -13  -7   0   13.70   29.00
  13  -7   0    5.60   12.80
 -14   0   6  249.68   66.99
 -14   0   5   -9.60   28.70
 -14   0   4  277.57   64.19
 -14   0   3  -14.30   30.10
 -14   0   2   27.70   27.10
 -14   0   2    7.90   14.60
 -14   0   1   25.30   28.50
 -14   0   1   -8.60   11.40
 -14   0   0  219.88   54.89
 -14   0  -1   21.50   25.60
 -14   0  -1    0.20   10.30
 -14   0  -2  237.28   52.89
 -14   0  -2  249.97   35.90
 -14   0  -3  -39.60   27.30
 -14   0  -3   14.80   14.30
 -14   1   6   44.50   43.10
 -14  -1   6   26.00   39.30
 -14   1   5   -9.90   40.40
 -14  -1   5   72.49   38.40
 -14   1   4  628.64   91.79
 -14  -1   4  446.96   83.19
 -14   1   3   11.30   33.80
 -14   1   3   18.00   34.50
 -14  -1   3   46.30   33.10
 -14   1   2  174.08   47.50
 -14  -1   2  192.48   50.99
 -14   1   1    3.40   27.40
 -14   1   1   35.20   14.30
  14   1  -1   -6.20   12.10
 -14  -1   1    8.40   25.10
 -14  -1   1   64.29   28.40
 -14  -1   1    9.80   11.10
 -14   1   0  286.27   39.00
 -14   1   0  175.18   50.29
 -14  -1   0  231.78   52.49
 -14  -1   0  312.07   34.90
 -14   1  -1   -7.40   23.60
 -14  -1  -1   -5.20    8.00
 -14  -1  -1   52.49   27.70
 -14   1  -2   37.00   16.20
 -14  -1  -2   93.79   40.50
 -14  -1  -2   40.80   14.40
 -14   1  -3   79.09   21.80
 -14   1  -3  100.39   45.00
 -14  -1  -3   96.99   43.80
 -14  -1  -3   70.59   18.60
 -14   2   6  146.59   58.49
 -14  -2   6  136.09   50.49
  14  -2  -6  188.38   28.40
 -14   2   5   20.90   29.00
 -14   2   5   30.50   50.79
 -14  -2   5   91.59   54.39
 -14   2   4   44.50   35.30
 -14   2   4   41.80   30.90
 -14  -2   4   77.89   38.70
 -14   2   3  160.08   35.20
 -14   2   3  199.48   51.59
 -14  -2   3  153.38   43.30
 -14   2   2  -21.80   30.90
 -14   2   2   42.70   28.00
 -14  -2   2  -38.90   29.00
 -14   2   1  -22.10   14.90
 -14   2   1   -0.80   23.30
 -14  -2   1   28.30   28.70
 -14   2   0  284.67   59.59
 -14   2   0  259.77   40.60
 -14  -2   0  224.58   52.29
 -14  -2   0  278.47   32.10
 -14   2  -1  260.07   53.49
 -14   2  -1  235.58   37.20
 -14  -2  -1  261.27   31.30
 -14  -2  -1  176.18   45.90
 -14   2  -2  147.09   38.90
 -14   2  -2  145.29   27.90
 -14  -2  -2  126.49   24.50
 -14  -2  -2  141.69   43.80
 -14   2  -3   33.80   31.60
 -14   2  -3   20.00   16.30
 -14  -2  -3  -41.30   33.00
 -14  -2  -3   25.40   13.30
 -14   3   6   43.70   41.80
  14  -3  -6    9.50   11.70
 -14   3   5    5.60   31.90
 -14   3   5   -6.90   30.20
 -14  -3   5   31.50   38.30
  14  -3  -5   25.20   13.20
 -14   3   4   88.29   46.60
 -14   3   4   58.79   33.20
 -14  -3   4  112.39   46.00
  14  -3  -4   91.19   17.60
 -14   3   3  144.59   54.39
 -14   3   3  127.79   35.70
 -14  -3   3  153.58   50.89
 -14   3   2  354.76   70.99
 -14   3   2  336.97   55.29
 -14  -3   2  285.17   62.79
 -14   3   1   31.20   29.10
 -14   3   1   47.40   21.30
 -14  -3   1   13.30   27.80
 -14   3   0   46.10   33.10
 -14   3   0   18.90   17.50
 -14  -3   0  -10.60   34.20
 -14   3  -1   38.00   29.80
 -14   3  -1   39.50   17.50
 -14  -3  -1   24.40   13.30
 -14  -3  -1   17.20   32.80
 -14   3  -2   36.90   31.60
 -14   3  -2    2.20   14.00
 -14  -3  -2  -25.60   31.00
 -14   4   5   66.09   47.60
 -14   4   5   88.69   46.10
  14  -4  -5   46.60   13.60
 -14  -4   5   99.49   47.10
 -14   4   4   72.39   65.59
 -14   4   4  -12.60   29.70
 -14  -4   4   20.10   36.20
 -14   4   3   62.29   34.10
 -14   4   3   88.19   41.90
 -14  -4   3   -2.80   49.30
  14  -4  -3   35.00   11.00
 -14   4   2   -1.60   24.70
 -14   4   2    7.30   23.10
 -14  -4   2   16.30   29.40
  14  -4  -2   16.20   12.30
 -14   4   1  115.79   27.20
 -14   4   1   76.39   36.60
  14  -4  -1  189.08   25.90
 -14  -4   1   79.29   39.40
 -14   4   0  -59.09   23.50
 -14   4   0   10.40   17.40
  14  -4   0  -11.80    8.70
 -14  -4   0  -53.49   28.10
 -14  -4   0   11.90    8.40
 -14   4  -1    7.40   33.10
 -14   4  -1   75.29   24.90
 -14  -4  -1   40.10   32.70
  14  -4   1  103.49   19.30
 -14   4  -2  -10.50   32.60
 -14   4  -2   -0.70   19.40
  14  -4   2   35.20   16.00
 -14  -4  -2   24.50   32.90
 -14   5   4  -14.80   37.60
 -14   5   4  -24.90   31.90
  14  -5  -4  -15.10    9.00
 -14  -5   4   11.80   33.20
 -14   5   3  -64.19   39.50
 -14   5   3   46.50   30.90
  14  -5  -3   16.00   11.60
 -14  -5   3  -33.20   28.70
 -14   5   2   32.00   25.50
 -14   5   2  -44.40   29.80
  14  -5  -2   31.70   11.90
 -14  -5   2    3.40   32.40
 -14   5   1   75.99   40.40
 -14   5   1   55.69   28.70
 -14  -5   1   75.09   36.90
 -14   5   0  -13.60   20.60
 -14   5   0   63.49   33.40
  14  -5   0   -9.60   11.50
 -14  -5   0    8.90   31.70
 -14   5  -1  167.98   36.70
 -14   5  -1  288.67   52.69
 -14  -5  -1  183.18   49.99
 -14   6   2   41.40   36.30
 -14   6   2  -29.30   26.60
  14  -6  -2    9.10   12.00
 -14  -6   2  -68.09   29.50
 -14   6   1   91.99   36.30
  14  -6  -1   85.19   19.80
 -14  -6   1   24.80   35.00
 -15   0   5  -66.49   31.20
 -15   0   4   45.30   40.80
 -15   0   3   12.60   30.00
 -15   0   2   24.50   30.90
 -15   0   1   29.20   30.60
 -15   0   1  -11.50   16.00
 -15   0   0  319.97   40.50
 -15   0   0  199.48   57.69
 -15   0  -1  -52.79   25.40
 -15   0  -1   -9.80   14.10
 -15   0  -2  138.49   46.30
 -15   0  -2  139.09   25.40
 -15   1   5  -11.90   35.80
 -15  -1   5  -24.10   36.90
 -15   1   4  216.78   57.99
 -15  -1   4  117.09   49.10
 -15   1   3  -56.69   26.60
 -15   1   3   11.00   32.50
 -15  -1   3   -5.10   30.40
 -15   1   2  785.22   85.59
 -15   1   2  651.43  104.49
 -15  -1   2  804.82  108.49
 -15  -1   1   34.10   36.30
 -15   1   0   66.79   21.70
 -15   1   0   81.69   40.20
 -15  -1   0  163.18   45.40
 -15  -1   0   87.09   23.70
 -15   1  -1   23.70   15.30
 -15   1  -1  -38.30   29.50
 -15  -1  -1   31.10   14.30
 -15  -1  -1   35.10   38.80
 -15   1  -2   -4.90   30.60
 -15   1  -2  -22.90   14.80
 -15  -1  -2  -15.20   33.20
 -15  -1  -2   -5.00   13.40
 -15   2   5   57.99   39.70
 -15  -2   5   -1.90   35.40
 -15   2   4   34.10   41.90
 -15  -2   4   -6.30   34.30
 -15   2   3  162.98   48.70
 -15   2   3  300.97   66.69
 -15   2   2   13.40   38.00
 -15   2   2   -1.40   19.70
 -15  -2   2  -15.80   33.10
 -15   2   1   30.10   21.80
 -15   2   1   19.60   31.40
 -15  -2   1   69.59   38.10
 -15   2   0   39.20   30.10
 -15   2   0   53.39   19.50
 -15  -2   0  -27.00   31.30
 -15  -2   0   23.50   12.70
 -15   2  -1  -13.00   28.20
 -15   2  -1   16.50   18.00
 -15  -2  -1    1.70   11.50
 -15  -2  -1   10.50   36.20
 -15   2  -2  142.59   32.20
 -15  -2  -2  236.58   33.10
 -15   3   4   76.69   46.50
 -15   3   4  -13.30   34.00
  15  -3  -4   45.60   13.80
 -15  -3   4   62.89   43.90
 -15   3   3   -6.10   42.90
 -15   3   3    4.00   28.00
 -15  -3   3  -39.90   35.40
 -15   3   2   61.69   30.10
 -15   3   2  105.29   34.20
 -15  -3   2   84.59   61.39
 -15   3   1  -21.50   33.80
 -15   3   1   79.39   26.70
 -15  -3   1   58.69   42.40
 -15   3   0   56.69   24.60
 -15   3   0  169.68   45.70
 -15  -3   0  148.79   47.80
 -15  -3   0   90.79   27.80
 -15   3  -1   44.70   23.20
 -15   3  -1   88.19   36.60
 -15  -3  -1    5.40   12.50
 -15  -3  -1   11.10   38.50
 -15   4   4  147.19   52.29
 -15   4   4   56.49   40.60
  15  -4  -4   94.19   19.90
 -15   4   3  152.38   42.10
 -15   4   3  227.18   57.89
 -15  -4   3  134.99   51.19
  15  -4  -3  209.28   30.90
 -15   4   2   16.80   25.80
 -15   4   2   38.00   37.00
  15  -4  -2    5.70   13.30
 -15  -4   2  119.09   46.70
 -15   4   1   -7.90   21.90
 -15   4   1   19.00   35.20
 -15  -4   1   57.29   39.80
  15  -4  -1   42.80   15.70
 -15   4   0  -22.70   21.90
 -15   4   0    4.00   31.40
 -15  -4   0   19.60   39.80
  15  -4   0    0.30   13.70
 -16   0   4   60.39   44.70
 -16   0   3  -62.19   36.40
 -16   0   2   42.90   36.90
 -16   0   1  -56.69   29.10
 -16   0   0   66.49   45.70
 -16   0   0   43.50   21.50
 -16   1   3  -14.60   37.20
 -16  -1   3   41.70   43.40
 -16  -1   2  199.18   57.49
 -16   1   1   38.30   38.60
 -16   1   1    3.80   20.80
 -16   1   0  141.39   29.70
 -16   1   0  122.79   48.30
 -16  -1   0   90.69   45.60
 -16  -1   0  148.59   27.70
 -16   2   3   19.40   35.40
 -16   2   3   53.99   42.20
 -16  -2   3   45.50   41.30
 -16   2   2    2.00   38.10
 -16   2   2  -26.50   23.70
 -16  -2   2   -8.00   35.10
 -16   2   1   38.20   38.70
 -16   2   1    0.60   25.80
 -16  -2   1   -6.80   34.20
 -16   2   0  107.19   29.90
   0   0   0    0.00    0.00
_computing_structure_solution     'SHELXT 2014/5 (Sheldrick, 2014)'
_computing_structure_solution     'SHELXT 2014/5 (Sheldrick, 2014)'
;
_shelx_hkl_checksum              19075
_shelx_res_file
;
TITL mo_pyd0523a_0ma_a.res in P2(1)/c
    t.res
    created by SHELXL-2016/6 at 00:51:52 on 07-Jul-2019
REM Old TITL mo_pyd0523a_0ma_a.res in P2(1)/c
REM SHELXT solution in P2(1)/c
REM R1 0.102, Rweak 0.004, Alpha 0.012, Orientation as input
REM Formula found by SHELXT: C8 Cl F3 N O
CELL 0.71073 12.7307 9.0363 7.4742 90 100.924 90
ZERR 4 0.0016 0.0012 0.0009 0 0.004 0
LATT 1
SYMM -X,0.5+Y,0.5-Z
SFAC C H Cl F N O
UNIT 32 20 4 12 4 4
L.S. 10
PLAN  20
SIZE 0.02 0.1 0.2
TEMP -153.14
HTAB C6 F2
HTAB C6 F3
acta
BOND $H
list 4
fmap 2
acta
htab
conf
REM <olex2.extras>
REM <HklSrc "%.\\t.hkl">
REM </olex2.extras>
WGHT    0.026200    0.502300
FVAR       0.95257
CL1   3    0.523555    0.714327    0.547116    11.00000    0.02095    0.03190 =
         0.03056   -0.00069    0.00766   -0.00249
F2    4    0.198818    0.377996    0.461104    11.00000    0.03735    0.02290 =
         0.02518   -0.00389    0.00891   -0.00017
F3    4    0.264688    0.362098    0.748018    11.00000    0.02460    0.02564 =
         0.03198    0.00628   -0.00123    0.00288
F1    4    0.099240    0.310423    0.648682    11.00000    0.02778    0.02107 =
         0.03955    0.00369    0.00759   -0.00511
O1    6    0.057802    0.584376    0.691463    11.00000    0.02154    0.02609 =
         0.02996    0.00004    0.00643   -0.00094
N1    5    0.094422    0.874412    0.670265    11.00000    0.02737    0.02218 =
         0.03379   -0.00118    0.00959    0.00070
C2    1    0.191640    0.833717    0.642556    11.00000    0.02330    0.02338 =
         0.01348    0.00019    0.00272    0.00164
C7    1    0.146683    0.566222    0.653293    11.00000    0.02019    0.02182 =
         0.01632    0.00061    0.00181    0.00029
C6    1    0.324872    0.648223    0.598765    11.00000    0.02374    0.01944 =
         0.01567    0.00053    0.00270    0.00067
AFIX  43
H6    2    0.345180    0.547756    0.589568    11.00000   -1.20000
AFIX   0
C1    1    0.221361    0.681884    0.629391    11.00000    0.02021    0.01984 =
         0.01448   -0.00065    0.00205    0.00004
C4    1    0.367787    0.907117    0.596011    11.00000    0.02877    0.02286 =
         0.02121    0.00129    0.00534   -0.00588
AFIX  43
H4    2    0.417990    0.983013    0.586013    11.00000   -1.20000
AFIX   0
C8    1    0.177513    0.402999    0.627253    11.00000    0.02284    0.02281 =
         0.02208    0.00104    0.00413   -0.00168
C5    1    0.396204    0.757971    0.582175    11.00000    0.02110    0.02576 =
         0.01512   -0.00034    0.00389   -0.00073
C3    1    0.268011    0.942913    0.623824    11.00000    0.03409    0.01684 =
         0.02506   -0.00045    0.00864    0.00014
AFIX  43
H3    2    0.249430    1.044290    0.630777    11.00000   -1.20000
AFIX   0
H1A   2    0.051270    0.813588    0.689098    11.00000    0.02220
H1B   2    0.084344    0.961350    0.684073    11.00000    0.04500
HKLF 4
REM  mo_pyd0523a_0ma_a.res in P2(1)/c
REM R1 =  0.0432 for    1374 Fo > 4sig(Fo)  and  0.0783 for all    1934 data
REM    135 parameters refined using      0 restraints
END
WGHT      0.0248      0.4881
REM Instructions for potential hydrogen bonds
HTAB C6 F2
HTAB C6 F3
EQIV $1 -x, y+1/2, -z+3/2
HTAB N1 F1_$1
HTAB N1 O1
HTAB N1 O1_$1
REM Highest difference peak  0.371,  deepest hole -0.317,  1-sigma level  0.081
Q1    1   0.5885  0.7995  0.6264  11.00000  0.05    0.37
Q2    1   0.0212  0.5010  0.7123  11.00000  0.05    0.30
Q3    1   0.0435  0.6403  0.5625  11.00000  0.05    0.29
Q4    1   0.1993  0.7474  0.6316  11.00000  0.05    0.29
Q5    1   0.3366  0.7173  0.4963  11.00000  0.05    0.28
Q6    1   0.2583  0.7214  0.7545  11.00000  0.05    0.27
Q7    1   0.5033  0.7763  0.6466  11.00000  0.05    0.27
Q8    1   0.4529  0.6198  0.4751  11.00000  0.05    0.26
Q9    1   0.4570  0.9383  0.6472  11.00000  0.05    0.26
Q10   1   0.3587  0.7090  0.7565  11.00000  0.05    0.25
Q11   1   0.2445  0.2936  0.8563  11.00000  0.05    0.25
Q12   1   0.4958  0.7708  0.3871  11.00000  0.05    0.25
Q13   1   0.3763  0.7073  0.6417  11.00000  0.05    0.25
Q14   1   0.4017  1.0590  0.3858  11.00000  0.05    0.25
Q15   1  -0.0131  0.5115  0.5755  11.00000  0.05    0.25
Q16   1   0.5663  0.7848  0.3246  11.00000  0.05    0.25
Q17   1   0.2177  1.0395  0.4934  11.00000  0.05    0.25
Q18   1   0.2918  0.6665  0.6655  11.00000  0.05    0.25
Q19   1   0.1566  0.2965  0.8078  11.00000  0.05    0.24
Q20   1   0.5396  0.7868  0.4508  11.00000  0.05    0.24
;
_shelx_res_checksum              95494
loop_
_space_group_symop_operation_xyz
'x, y, z'
'-x, y+1/2, -z+1/2'
'-x, -y, -z'
'x, -y-1/2, z-1/2'
loop_
_atom_site_type_symbol
_atom_site_label
_atom_site_fract_x
_atom_site_fract_y
_atom_site_fract_z
_atom_site_U_iso_or_equiv
_atom_site_adp_type
_atom_site_calc_flag
_atom_site_occupancy
Cl Cl1 0.52355(5) 0.71433(7) 0.54712(9) 0.0274(2) Uani d 1
F F2 0.19882(12) 0.37800(16) 0.46110(19) 0.0281(4) Uani d 1
F F3 0.26469(12) 0.36210(16) 0.7480(2) 0.0283(4) Uani d 1
F F1 0.09924(13) 0.31042(16) 0.6487(2) 0.0293(4) Uani d 1
O O1 0.05780(14) 0.5844(2) 0.6915(2) 0.0257(4) Uani d 1
N N1 0.0944(2) 0.8744(3) 0.6703(3) 0.0273(5) Uani d 1
C C2 0.1916(2) 0.8337(3) 0.6426(3) 0.0202(5) Uani d 1
C C7 0.1467(2) 0.5662(3) 0.6533(3) 0.0197(5) Uani d 1
C C6 0.3249(2) 0.6482(3) 0.5988(3) 0.0198(5) Uani d 1
H H6 0.345180 0.547756 0.589568 0.024 Uiso calc 1
C C1 0.2214(2) 0.6819(3) 0.6294(3) 0.0183(5) Uani d 1
C C4 0.3678(2) 0.9071(3) 0.5960(3) 0.0242(6) Uani d 1
H H4 0.417990 0.983013 0.586013 0.029 Uiso calc 1
C C8 0.1775(2) 0.4030(3) 0.6273(3) 0.0226(6) Uani d 1
C C5 0.3962(2) 0.7580(3) 0.5822(3) 0.0206(5) Uani d 1
C C3 0.2680(2) 0.9429(3) 0.6238(3) 0.0249(6) Uani d 1
H H3 0.249430 1.044290 0.630777 0.030 Uiso calc 1
H H1A 0.051(2) 0.814(3) 0.689(4) 0.022(8) Uiso d 1
H H1B 0.084(3) 0.961(4) 0.684(4) 0.045(10) Uiso d 1
loop_
_atom_site_aniso_label
_atom_site_aniso_U_11
_atom_site_aniso_U_22
_atom_site_aniso_U_33
_atom_site_aniso_U_12
_atom_site_aniso_U_13
_atom_site_aniso_U_23
Cl1 0.0210(4) 0.0319(4) 0.0306(4) -0.0025(3) 0.0077(3) -0.0007(3)
F2 0.0373(10) 0.0229(8) 0.0252(8) -0.0002(7) 0.0089(7) -0.0039(6)
F3 0.0246(8) 0.0256(8) 0.0320(8) 0.0029(6) -0.0012(7) 0.0063(7)
F1 0.0278(9) 0.0211(8) 0.0395(9) -0.0051(6) 0.0076(7) 0.0037(7)
O1 0.0215(10) 0.0261(10) 0.0300(10) -0.0009(8) 0.0064(8) 0.0000(8)
N1 0.0274(14) 0.0222(14) 0.0338(13) 0.0007(11) 0.0096(11) -0.0012(11)
C2 0.0233(14) 0.0234(12) 0.0135(11) 0.0016(11) 0.0027(10) 0.0002(10)
C7 0.0202(13) 0.0218(13) 0.0163(11) 0.0003(10) 0.0018(10) 0.0006(10)
C6 0.0237(14) 0.0194(13) 0.0157(11) 0.0007(10) 0.0027(10) 0.0005(10)
C1 0.0202(13) 0.0198(12) 0.0145(11) 0.0000(10) 0.0021(10) -0.0006(9)
C4 0.0288(15) 0.0229(13) 0.0212(13) -0.0059(11) 0.0053(11) 0.0013(10)
C8 0.0228(14) 0.0228(13) 0.0221(12) -0.0017(11) 0.0041(11) 0.0010(10)
C5 0.0211(13) 0.0258(13) 0.0151(12) -0.0007(11) 0.0039(10) -0.0003(10)
C3 0.0341(16) 0.0168(13) 0.0251(13) 0.0001(11) 0.0086(12) -0.0004(10)
loop_
_atom_type_symbol
_atom_type_description
_atom_type_scat_dispersion_real
_atom_type_scat_dispersion_imag
_atom_type_scat_source
C C 0.0033 0.0016 'International Tables Vol C Tables 4.2.6.8 and 6.1.1.4'
H H 0.0000 0.0000 'International Tables Vol C Tables 4.2.6.8 and 6.1.1.4'
Cl Cl 0.1484 0.1585 'International Tables Vol C Tables 4.2.6.8 and 6.1.1.4'
F F 0.0171 0.0103 'International Tables Vol C Tables 4.2.6.8 and 6.1.1.4'
N N 0.0061 0.0033 'International Tables Vol C Tables 4.2.6.8 and 6.1.1.4'
O O 0.0106 0.0060 'International Tables Vol C Tables 4.2.6.8 and 6.1.1.4'
loop_
_geom_angle_atom_site_label_1
_geom_angle_atom_site_label_2
_geom_angle_atom_site_label_3
_geom_angle
C2 N1 H1A 121(2)
C2 N1 H1B 117(2)
H1A N1 H1B 121(3)
N1 C2 C3 119.7(2)
N1 C2 C1 122.4(2)
C3 C2 C1 117.9(2)
O1 C7 C1 126.0(2)
O1 C7 C8 115.0(2)
C1 C7 C8 119.0(2)
C5 C6 C1 121.0(2)
C5 C6 H6 119.5
C1 C6 H6 119.5
C6 C1 C2 119.0(2)
C6 C1 C7 121.3(2)
C2 C1 C7 119.7(2)
C3 C4 C5 119.9(2)
C3 C4 H4 120.0
C5 C4 H4 120.0
F1 C8 F2 107.0(2)
F1 C8 F3 106.72(19)
F2 C8 F3 106.9(2)
F1 C8 C7 111.7(2)
F2 C8 C7 112.2(2)
F3 C8 C7 112.0(2)
C6 C5 C4 120.3(2)
C6 C5 Cl1 120.3(2)
C4 C5 Cl1 119.3(2)
C4 C3 C2 121.9(2)
C4 C3 H3 119.1
C2 C3 H3 119.1
loop_
_geom_bond_atom_site_label_1
_geom_bond_atom_site_label_2
_geom_bond_distance
Cl1 C5 1.736(3)
F2 C8 1.340(3)
F3 C8 1.343(3)
F1 C8 1.334(3)
O1 C7 1.229(3)
N1 C2 1.344(3)
N1 H1A 0.81(3)
N1 H1B 0.81(4)
C2 C3 1.411(4)
C2 C1 1.432(3)
C7 C1 1.447(3)
C7 C8 1.548(3)
C6 C5 1.366(4)
C6 C1 1.413(3)
C6 H6 0.9500
C4 C3 1.364(4)
C4 C5 1.404(4)
C4 H4 0.9500
C3 H3 0.9500
loop_
_geom_hbond_atom_site_label_D
_geom_hbond_atom_site_label_H
_geom_hbond_atom_site_label_A
_geom_hbond_site_symmetry_A
_geom_hbond_distance_DH
_geom_hbond_distance_HA
_geom_hbond_distance_DA
_geom_hbond_angle_DHA
N1 H1A O1 . 0.81(3) 2.07(3) 2.672(3) 131(3)
N1 H1A F1 2_556 0.81(3) 2.45(3) 3.084(3) 136(3)
N1 H1B O1 2_556 0.81(4) 2.45(3) 3.030(3) 130(3)
loop_
_geom_torsion_atom_site_label_1
_geom_torsion_atom_site_label_2
_geom_torsion_atom_site_label_3
_geom_torsion_atom_site_label_4
_geom_torsion
C5 C6 C1 C2 0.1(3)
C5 C6 C1 C7 -177.9(2)
N1 C2 C1 C6 179.5(2)
C3 C2 C1 C6 0.1(3)
N1 C2 C1 C7 -2.4(4)
C3 C2 C1 C7 178.1(2)
O1 C7 C1 C6 175.3(2)
C8 C7 C1 C6 -5.6(3)
O1 C7 C1 C2 -2.7(4)
C8 C7 C1 C2 176.4(2)
O1 C7 C8 F1 1.1(3)
C1 C7 C8 F1 -178.2(2)
O1 C7 C8 F2 121.2(2)
C1 C7 C8 F2 -58.0(3)
O1 C7 C8 F3 -118.6(2)
C1 C7 C8 F3 62.2(3)
C1 C6 C5 C4 0.2(4)
C1 C6 C5 Cl1 179.28(18)
C3 C4 C5 C6 -0.8(4)
C3 C4 C5 Cl1 -179.91(19)
C5 C4 C3 C2 1.1(4)
N1 C2 C3 C4 179.8(2)
C1 C2 C3 C4 -0.7(4)

_cod_database_fobs_code 1552129
