#------------------------------------------------------------------------------
#$Date: 2019-10-29 02:26:27 +0200 (Tue, 29 Oct 2019) $
#$Revision: 220329 $
#$URL: file:///home/coder/svn-repositories/cod/cif/1/55/24/1552497.cif $
#------------------------------------------------------------------------------
#
# This file is available in the Crystallography Open Database (COD),
# http://www.crystallography.net/
#
# All data on this site have been placed in the public domain by the
# contributors.
#
data_1552497
loop_
_publ_author_name
'Gu, Han'
'Ghosh, Saptarshi'
'Staples, Richard J.'
'Bane, Susan L.'
_publ_section_title
;
 \b-Hydroxy-Stabilized Boron-Nitrogen Heterocycles Enable Rapid and
 Efficient C-Terminal Protein Modification.
;
_journal_issue                   10
_journal_name_full               'Bioconjugate chemistry'
_journal_page_first              2604
_journal_page_last               2613
_journal_paper_doi               10.1021/acs.bioconjchem.9b00534
_journal_volume                  30
_journal_year                    2019
_chemical_absolute_configuration unk
_chemical_formula_moiety         'C16 H16 B N3 O3'
_chemical_formula_sum            'C16 H16 B N3 O3'
_chemical_formula_weight         309.13
_space_group_crystal_system      monoclinic
_space_group_IT_number           4
_space_group_name_Hall           'P 2yb'
_space_group_name_H-M_alt        'P 1 21 1'
_symmetry_space_group_name_Hall  'P 2yb'
_symmetry_space_group_name_H-M   'P 1 21 1'
_atom_sites_solution_hydrogens   mixed
_atom_sites_solution_primary     dual
_audit_creation_date             2018-11-05
_audit_creation_method
;
Olex2 1.2
(compiled 2018.05.29 svn.r3508 for OlexSys, GUI svn.r5506)
;
_cell_angle_alpha                90
_cell_angle_beta                 91.886(2)
_cell_angle_gamma                90
_cell_formula_units_Z            2
_cell_length_a                   5.95450(10)
_cell_length_b                   4.96270(10)
_cell_length_c                   25.4669(7)
_cell_measurement_reflns_used    3090
_cell_measurement_temperature    173(2)
_cell_measurement_theta_max      69.93
_cell_measurement_theta_min      5.21
_cell_volume                     752.15(3)
_computing_cell_refinement       'SAINT v8.34A (Bruker, 2013)'
_computing_data_collection       'COSMO (BRUKER, V1.61, 2009)'
_computing_data_reduction        'SAINT v8.34A (Bruker, 2013)'
_computing_molecular_graphics    'Olex2 (Dolomanov et al., 2009)'
_computing_publication_material
;
O. V. Dolomanov, L. J. Bourhis, R. J. Gildea, J. A. K. Howard and H. Puschmann,
OLEX2: a complete structure solution, refinement and analysis program.
J. Appl. Cryst. (2009). 42, 339-341.
;
_computing_structure_refinement  'ShelXL (Sheldrick, 2015)'
_computing_structure_solution    'ShelXT (Sheldrick, 2015)'
_diffrn_ambient_temperature      173(2)
_diffrn_detector_area_resol_mean 8.36
_diffrn_measured_fraction_theta_full 0.990
_diffrn_measured_fraction_theta_max 0.983
_diffrn_measurement_device_type  'Bruker APEX-II CCD'
_diffrn_measurement_method       '\f and \w scans'
_diffrn_radiation_monochromator  graphite
_diffrn_radiation_type           CuK\a
_diffrn_radiation_wavelength     1.54178
_diffrn_reflns_av_R_equivalents  0.0558
_diffrn_reflns_av_unetI/netI     0.0518
_diffrn_reflns_Laue_measured_fraction_full 0.990
_diffrn_reflns_Laue_measured_fraction_max 0.983
_diffrn_reflns_limit_h_max       7
_diffrn_reflns_limit_h_min       -6
_diffrn_reflns_limit_k_max       6
_diffrn_reflns_limit_k_min       -6
_diffrn_reflns_limit_l_max       30
_diffrn_reflns_limit_l_min       -30
_diffrn_reflns_number            7362
_diffrn_reflns_point_group_measured_fraction_full 0.964
_diffrn_reflns_point_group_measured_fraction_max 0.954
_diffrn_reflns_theta_full        67.679
_diffrn_reflns_theta_max         70.003
_diffrn_reflns_theta_min         5.213
_diffrn_source                   'sealed tube'
_diffrn_standards_number         0
_exptl_absorpt_coefficient_mu    0.777
_exptl_absorpt_correction_T_max  0.7533
_exptl_absorpt_correction_T_min  0.6101
_exptl_absorpt_correction_type   multi-scan
_exptl_crystal_colour            colourless
_exptl_crystal_colour_primary    colourless
_exptl_crystal_density_diffrn    1.365
_exptl_crystal_description       plate
_exptl_crystal_F_000             324
_exptl_crystal_recrystallization_method 'used as received'
_exptl_crystal_size_max          0.224
_exptl_crystal_size_mid          0.119
_exptl_crystal_size_min          0.022
_refine_diff_density_max         0.188
_refine_diff_density_min         -0.255
_refine_diff_density_rms         0.048
_refine_ls_abs_structure_details
;
 Refined as an inversion twin.
;
_refine_ls_abs_structure_Flack   0.2(4)
_refine_ls_extinction_method     none
_refine_ls_goodness_of_fit_ref   1.040
_refine_ls_hydrogen_treatment    mixed
_refine_ls_matrix_type           full
_refine_ls_number_parameters     225
_refine_ls_number_reflns         2719
_refine_ls_number_restraints     1
_refine_ls_restrained_S_all      1.040
_refine_ls_R_factor_all          0.0569
_refine_ls_R_factor_gt           0.0433
_refine_ls_shift/su_max          0.000
_refine_ls_shift/su_mean         0.000
_refine_ls_structure_factor_coef Fsqd
_refine_ls_weighting_details
'w=1/[\s^2^(Fo^2^)+(0.0542P)^2^] where P=(Fo^2^+2Fc^2^)/3'
_refine_ls_weighting_scheme      calc
_refine_ls_wR_factor_gt          0.0952
_refine_ls_wR_factor_ref         0.1021
_reflns_Friedel_coverage         0.725
_reflns_Friedel_fraction_full    0.931
_reflns_Friedel_fraction_max     0.917
_reflns_number_gt                2265
_reflns_number_total             2719
_reflns_threshold_expression     'I > 2\s(I)'
_cod_data_source_file            bc9b00534_si_002.cif
_cod_data_source_block           jh1018b
_cod_database_code               1552497
_shelx_shelxl_version_number     2018/3
_shelx_space_group_comment
;
The symmetry employed for this shelxl refinement is uniquely defined
by the following loop, which should always be used as a source of
symmetry information in preference to the above space-group names.
They are only intended as comments.
;
_shelx_estimated_absorpt_t_max   0.983
_shelx_estimated_absorpt_t_min   0.845
_olex2_refinement_description
;
1. Twinned data refinement
 Scales: 0.8
 0.2
2. Fixed Uiso
 At 1.2 times of:
  All C(H) groups, All C(H,H) groups
3.a Ternary CH refined with riding coordinates:
 C9(H9)
3.b Secondary CH2 refined with riding coordinates:
 C10(H10A,H10B)
3.c Aromatic/amide H refined with riding coordinates:
 C1(H1A), C4(H4), C5(H5), C6(H6), C7(H7), C12(H12), C13(H13), C15(H15), C16(H16)
;
_shelx_res_file
;
TITL jh1018b_a.res in P2(1)
    jh1018b.res
    created by SHELXL-2018/3 at 09:51:52 on 05-Nov-2018
REM Old TITL JH1018B in P2(1)
REM SHELXT solution in P2(1): R1 0.104, Rweak 0.023, Alpha 0.002
REM <I/s> 0.327 for 3 systematic absences, Orientation as input
REM Flack x = 0.209 ( 0.289 ) from 787 Parsons' quotients
REM Formula found by SHELXT: C16 B N3 O3
CELL 1.54178 5.9545 4.9627 25.4669 90 91.886 90
ZERR 2 0.0001 0.0001 0.0007 0 0.002 0
LATT -1
SYMM -X,0.5+Y,-Z
SFAC C H B N O
UNIT 32 32 2 6 6
EQIV $1 2-X,-0.5+Y,1-Z
EQIV $2 +X,1+Y,+Z
EQIV $3 1+X,+Y,+Z

L.S. 15
PLAN  5
SIZE 0.022 0.119 0.224
TEMP -100(2)
HTAB O3 O3_$1
HTAB N3 O1_$2
HTAB N3 O2_$3
BOND $H
CONF
fmap 2 53
acta
TWIN -1 0 0 0 -1 0 0 0 -1 2
REM <olex2.extras>
REM <HklSrc "%.\\JH1018B.hkl">
REM </olex2.extras>

WGHT    0.054200
BASF   0.18188
FVAR       0.48002
O1    5    0.481034    0.038023    0.217908    11.00000    0.01585    0.02123 =
         0.03680    0.00043    0.00215   -0.00125
H1    2    0.599177    0.044779    0.211762    11.00000    0.02996
O2    5   -0.129209    0.346285    0.287409    11.00000    0.01440    0.03459 =
         0.03567    0.00128    0.00131   -0.00138
O3    5    0.956939    0.871850    0.477866    11.00000    0.03037    0.02945 =
         0.03973   -0.00204   -0.01438   -0.00002
H3    2    0.993625    0.734582    0.493333    11.00000    0.05472
N1    4    0.113075    0.256261    0.220421    11.00000    0.01410    0.02580 =
         0.03128   -0.00066   -0.00282   -0.00194
N2    4   -0.050443    0.146016    0.186319    11.00000    0.01726    0.03612 =
         0.03590   -0.00814   -0.00607   -0.00593
N3    4    0.430238    0.499154    0.253003    11.00000    0.01186    0.01737 =
         0.03103    0.00222   -0.00051    0.00042
H3A   2    0.569191    0.465879    0.262961    11.00000    0.01855
H3B   2    0.421460    0.670051    0.243190    11.00000    0.00860
C1    1   -0.002782    0.169652    0.137336    11.00000    0.02628    0.04357 =
         0.03613   -0.01001   -0.00863   -0.00267
AFIX  43
H1A   2   -0.102251    0.083314    0.112735    11.00000   -1.20000
AFIX   0
C2    1    0.186817    0.314177    0.115538    11.00000    0.02643    0.03198 =
         0.03327   -0.00606   -0.00074    0.00053
C3    1    0.368469    0.397109    0.148313    11.00000    0.02207    0.02148 =
         0.03422   -0.00285    0.00223    0.00385
C4    1    0.534299    0.552908    0.126495    11.00000    0.02952    0.02868 =
         0.03425   -0.00056    0.00409   -0.00173
AFIX  43
H4    2    0.659116    0.610007    0.147875    11.00000   -1.20000
AFIX   0
C5    1    0.521293    0.627254    0.073819    11.00000    0.04769    0.03772 =
         0.03712    0.00209    0.01028   -0.00693
AFIX  43
H5    2    0.636127    0.735806    0.059737    11.00000   -1.20000
AFIX   0
C6    1    0.342213    0.544176    0.041780    11.00000    0.06366    0.04723 =
         0.02716    0.00202    0.00223   -0.00148
AFIX  43
H6    2    0.334888    0.594971    0.005798    11.00000   -1.20000
AFIX   0
C7    1    0.174637    0.387935    0.062021    11.00000    0.04306    0.05016 =
         0.03203   -0.00765   -0.00510    0.00102
AFIX  43
H7    2    0.051708    0.330232    0.040102    11.00000   -1.20000
AFIX   0
C8    1    0.056379    0.346311    0.267677    11.00000    0.01585    0.01773 =
         0.03066    0.00567   -0.00294    0.00204
C9    1    0.269734    0.450509    0.296106    11.00000    0.01433    0.01933 =
         0.03084    0.00208   -0.00179    0.00254
AFIX  13
H9    2    0.331867    0.301063    0.318560    11.00000   -1.20000
AFIX   0
C10   1    0.229689    0.689062    0.331264    11.00000    0.01971    0.02283 =
         0.03172   -0.00144   -0.00203    0.00136
AFIX  23
H10A  2    0.090967    0.657904    0.350774    11.00000   -1.20000
H10B  2    0.206013    0.851685    0.309257    11.00000   -1.20000
AFIX   0
C11   1    0.423718    0.739828    0.370316    11.00000    0.01644    0.02410 =
         0.02977   -0.00495    0.00155    0.00553
C12   1    0.433905    0.602793    0.417981    11.00000    0.02600    0.02748 =
         0.02922    0.00164    0.00249   -0.00551
AFIX  43
H12   2    0.317188    0.480550    0.426035    11.00000   -1.20000
AFIX   0
C13   1    0.610886    0.640856    0.454002    11.00000    0.03400    0.02745 =
         0.02701    0.00075    0.00047   -0.00107
AFIX  43
H13   2    0.616716    0.543187    0.486101    11.00000   -1.20000
AFIX   0
C14   1    0.778487    0.822119    0.442736    11.00000    0.02250    0.02390 =
         0.03045   -0.00497   -0.00502    0.00413
C15   1    0.773626    0.959798    0.395788    11.00000    0.01876    0.02221 =
         0.03745    0.00021    0.00127    0.00108
AFIX  43
H15   2    0.889776    1.083684    0.388196    11.00000   -1.20000
AFIX   0
C16   1    0.597163    0.916225    0.359467    11.00000    0.02060    0.02042 =
         0.02882   -0.00014    0.00069    0.00308
AFIX  43
H16   2    0.595520    1.008624    0.326786    11.00000   -1.20000
AFIX   0
B1    3    0.363108    0.285538    0.207295    11.00000    0.01514    0.01749 =
         0.03365   -0.00002   -0.00031   -0.00284
HKLF 4




REM  jh1018b_a.res in P2(1)
REM wR2 = 0.1021, GooF = S = 1.040, Restrained GooF = 1.040 for all data
REM R1 = 0.0433 for 2265 Fo > 4sig(Fo) and 0.0569 for all 2719 data
REM 225 parameters refined using 1 restraints

END

WGHT      0.0542      0.0000

REM Highest difference peak  0.188,  deepest hole -0.255,  1-sigma level  0.048
Q1    1   0.3669  0.3608  0.1794  11.00000  0.05    0.19
Q2    1  -0.1665  0.7557  0.2809  11.00000  0.05    0.18
Q3    1   0.2160  0.8333  0.2017  11.00000  0.05    0.17
Q4    1   0.6349  0.8036  0.4600  11.00000  0.05    0.15
Q5    1   0.5068  0.3985  0.1380  11.00000  0.05    0.15
;
_shelx_res_checksum              64380
_shelx_hkl_file
;
  -1   0   0  130.40    2.34
  -2   0   0  264.64    4.81
   2   0   0  256.52    5.18
  -3   0   0   20.30    1.04
   3   0   0   19.95    1.31
   4   0   0    0.44    0.85
  -4   0   0    0.71    0.63
   5   0   0   27.23    2.88
   5   0   0   30.17    2.46
   5   0   0   28.45    1.89
   5   0   0   26.99    2.35
   5   0   0   28.38    2.80
  -5   0   0   29.68    2.06
   5   0   0   26.71    3.20
   6   0   0   12.50    1.28
   6   0   0   15.76    2.44
   6   0   0   15.54    1.93
   6   0   0   16.91    2.30
   7   0   0    2.65    1.11
   7   0   0   -0.04    1.20
   0  -1   0   -0.08    0.33
  -1  -1   0  800.72   14.15
   1   1   0  817.77   15.05
   1   1   0  799.80   14.15
   2  -1   0    7.53    0.76
  -2  -1   0    8.38    0.82
   2   1   0    9.55    0.87
  -3  -1   0    8.65    1.01
   3  -1   0    7.16    1.03
   3   1   0    7.15    1.05
  -4  -1   0    5.09    1.05
   4  -1   0    6.88    1.23
   4   1   0    4.40    1.14
   4   1   0    3.51    1.16
  -4   1   0    5.18    0.72
   5  -1   0   18.25    2.82
   5  -1   0   20.67    2.04
   5  -1   0   22.11    2.75
   5  -1   0   22.89    2.66
   5   1   0   19.92    2.97
   5   1   0   16.55    2.32
   5   1   0   22.88    2.23
   5   1   0   22.14    2.91
   5   1   0   21.59    2.00
   6  -1   0   55.09    3.54
   6  -1   0   52.83    2.85
   6  -1   0   56.47    3.22
   6   1   0   49.76    2.78
   6   1   0   52.41    2.51
   6   1   0   51.98    3.07
   6   1   0   54.67    3.35
   7  -1   0    0.08    1.08
   7   1   0    1.31    1.24
   0  -2   0   28.90    1.49
   0  -2   0   29.26    1.32
   0   2   0   30.15    1.23
   1  -2   0  552.29   10.22
  -1  -2   0  549.09   10.90
  -1  -2   0  541.75   11.58
   1  -2   0  558.96   11.84
  -1   2   0  584.81   10.57
   1   2   0  556.62   11.02
   2  -2   0  137.99    3.90
   3  -2   0    2.81    1.00
  -4  -2   0   41.93    3.64
   4  -2   0   46.13    2.59
   4  -2   0   37.07    3.04
   4  -2   0   38.09    3.16
   4   2   0   44.64    3.60
   4   2   0   45.91    3.02
   5  -2   0    1.74    1.12
   5  -2   0    4.87    1.79
  -5  -2   0    2.68    1.66
   5  -2   0    2.59    1.69
   5  -2   0    3.32    1.43
   5   2   0    3.27    2.00
   5   2   0    5.53    1.48
   5   2   0    4.20    1.47
   6  -2   0    0.22    1.72
   6   2   0    0.74    1.16
   0  -3   0    0.00    0.76
   0  -3   0    0.21    0.64
   0   3   0    1.38    0.70
   1  -3   0   19.76    1.73
  -1  -3   0   22.40    1.70
   1  -3   0   22.73    1.09
  -1  -3   0   23.64    1.79
  -1   3   0   19.68    1.37
   1   3   0   21.43    1.64
   1   3   0   19.33    1.49
   2  -3   0   50.41    2.57
  -2  -3   0   50.87    2.90
  -2   3   0   47.93    1.80
   3  -3   0    0.05    1.37
   3  -3   0    0.92    1.26
   3  -3   0    2.26    1.36
  -3  -3   0   -0.68    1.75
   3   3   0    3.66    1.99
  -4  -3   0   12.00    2.13
   4  -3   0   15.34    2.58
   4  -3   0   14.49    2.12
   4   3   0   14.67    2.51
  -5  -3   0   31.77    3.01
   5  -3   0   32.50    2.68
   5   3   0   30.86    2.60
   5   3   0   28.31    2.91
  -6  -3   0   28.15    2.56
   6   3   0   34.14    2.03
   0  -4   0   21.93    2.65
   0  -4   0   20.23    1.62
   0  -4   0   20.17    2.62
   0  -4   0   23.49    1.71
   0  -4   0   25.71    2.35
   0   4   0   22.96    2.19
  -1  -4   0   24.56    2.73
   1  -4   0   30.58    2.41
  -1  -4   0   30.77    2.95
   1  -4   0   30.90    3.24
   1  -4   0   34.49    3.02
  -1  -4   0   32.93    2.00
  -1  -4   0   32.75    2.36
  -1  -4   0   31.51    2.42
   2  -4   0   13.91    2.04
  -2  -4   0   20.01    2.96
  -2  -4   0   12.64    1.82
  -2  -4   0   14.90    2.10
   2  -4   0   17.16    2.60
  -2  -4   0   13.39    1.96
   2   4   0   15.47    2.52
  -3  -4   0   18.95    2.66
   3  -4   0   20.75    3.02
  -3  -4   0   23.23    2.67
  -3  -4   0   29.73    3.30
   3   4   0   18.32    2.62
   4  -4   0    0.22    1.59
   4   4   0    0.80    1.51
   5   4   0    6.30    1.49
   0  -5   0   -0.20    1.55
   0  -5   0    0.23    1.46
   1  -5   0   12.74    2.09
  -1  -5   0   14.08    1.24
  -1  -5   0    6.61    1.91
   2  -5   0    1.71    1.96
   2  -5   0    0.63    1.42
  -2  -5   0    3.52    1.11
   2   5   0    0.23    1.56
  -3  -5   0    7.55    1.31
   3  -5   0    2.79    1.45
   3   5   0    2.65    1.43
   0   6   0    3.57    1.56
   7   0  -1    2.55    1.28
   7   0  -1    2.85    1.36
   6   0  -1   44.45    2.99
   6   0  -1   45.09    1.81
   6   0  -1   43.96    3.24
   6   0  -1   43.07    2.61
   5   0  -1    3.52    1.39
   5   0  -1    4.72    1.71
   5   0  -1    5.50    1.98
   5   0  -1    5.92    1.10
  -5   0   1    5.32    1.24
  -4   0   1   13.00    1.16
   4   0  -1   13.43    1.52
  -3   0   1    0.79    0.45
   3   0  -1    0.30    0.58
   2   0  -1   28.79    1.23
  -2   0   1   30.56    0.90
  -1   0   1  183.86    3.46
  -1   0  -1  294.40    5.19
   2   0   1  147.97    3.30
  -2   0  -1  146.51    2.94
  -3   0  -1   20.60    1.05
   3   0   1   19.09    1.32
   4   0   1    4.39    1.11
  -4   0  -1    4.09    0.78
   5   0   1   37.75    3.17
   5   0   1   36.40    2.44
   5   0   1   35.80    3.07
   5   0   1   37.22    2.37
   5   0   1   35.50    2.13
  -5   0  -1   35.83    2.26
   5   0   1   37.09    2.76
   6   0   1   67.59    4.03
   6   0   1   69.09    2.48
   6   0   1   68.76    3.38
   6   0   1   69.13    3.90
   6   0   1   67.29    3.49
   7   0   1    0.18    1.12
   7   0   1    1.59    1.01
   7  -1  -1    8.64    1.44
   7   1  -1    9.46    1.46
   7   1  -1    7.95    1.58
   6  -1  -1   45.83    3.32
   6  -1  -1   40.79    2.62
   6  -1  -1   47.02    2.99
   6   1  -1   42.78    3.20
   6   1  -1   45.13    3.44
   6   1  -1   47.58    2.35
   6   1  -1   46.55    2.84
   5  -1  -1   47.50    3.33
   5  -1  -1   44.54    3.22
  -5  -1   1   44.88    3.60
   5  -1  -1   48.38    2.90
   5  -1  -1   45.29    2.90
   5   1  -1   48.32    3.27
   5   1  -1   47.68    3.06
   5   1  -1   47.63    2.59
   5   1  -1   46.44    2.83
  -4  -1   1   49.60    2.13
   4  -1  -1   52.63    2.51
   4   1  -1   46.52    2.45
   4   1  -1   50.54    2.44
  -4   1   1   48.34    1.66
   3  -1  -1    0.19    0.65
  -3  -1   1    0.18    0.55
   3   1  -1    0.71    0.66
  -2  -1   1   35.99    1.35
   2  -1  -1   35.18    1.38
   2   1  -1   37.00    1.44
  -1  -1   1  318.14    5.85
   1   1  -1  315.40    6.20
   1   1  -1  310.38    5.83
   1   1  -1  311.92    6.23
   0  -1   1  448.78    8.33
   0  -1  -1  450.29    8.29
   0   1  -1  454.29    8.45
  -1  -1  -1  556.49   10.45
  -1  -1  -1  550.43    9.93
   1   1   1  564.66    9.96
  -2  -1  -1   42.90    1.45
   2  -1   1   39.37    1.48
   2   1   1   43.38    1.55
  -3  -1  -1    8.31    1.04
   3  -1   1    7.83    1.06
  -3   1  -1    8.68    0.66
   3   1   1    8.54    1.09
   4  -1   1  123.00    3.84
   4  -1   1  119.68    4.03
  -4  -1  -1  120.63    3.56
   4   1   1  118.69    4.00
   4   1   1  121.43    3.82
  -4   1  -1  120.65    3.03
   5  -1   1   76.62    4.28
   5  -1   1   75.53    3.85
   5  -1   1   77.96    3.56
   5  -1   1   83.03    4.38
   5   1   1   77.06    3.91
   5   1   1   69.60    3.92
   5   1   1   75.77    3.31
   5   1   1   81.33    3.54
   5   1   1   76.24    3.43
   5   1   1   75.57    4.03
   6  -1   1    2.82    1.72
   6  -1   1    2.63    1.59
   6  -1   1    0.31    1.09
   6  -1   1    1.07    1.39
   6   1   1    1.87    1.91
   6   1   1    2.92    1.05
   6   1   1    0.42    1.25
   6   1   1    0.26    1.43
   6   1   1    0.75    1.75
   7  -1   1    7.80    1.43
   7   1   1    6.62    1.16
   6  -2  -1   18.06    2.22
  -6  -2   1   18.86    2.91
   6   2  -1   16.11    1.65
   6   2  -1   17.48    2.10
   5  -2  -1   10.89    2.05
   5  -2  -1   10.07    2.00
   5  -2  -1    9.34    1.58
  -5  -2   1   11.17    2.01
   5   2  -1   11.79    2.04
   5   2  -1   11.73    2.01
   5   2  -1   11.29    2.02
   4  -2  -1    0.31    1.27
   4  -2  -1    2.51    1.13
  -4  -2   1    1.05    1.77
   4   2  -1    1.71    1.45
   3  -2  -1    4.21    1.11
   2  -2  -1   50.70    2.14
   1  -2  -1  101.47    3.08
  -1  -2   1   99.54    2.84
  -1  -2   1  101.45    2.88
   1   2  -1   99.59    2.74
   0  -2  -1   63.62    2.29
   0  -2   1   65.29    1.95
   0  -2  -1   66.92    1.91
   0  -2   1   67.64    2.25
   0   2   1   67.46    1.94
   0   2  -1   68.79    1.95
   1  -2   1   52.66    2.05
   1  -2   1   51.52    1.47
  -1  -2  -1   51.16    1.94
  -1  -2  -1   55.91    1.98
   1   2   1   53.88    1.82
  -1   2  -1   50.61    1.50
   1   2   1   54.35    1.74
   2  -2   1   42.12    2.03
  -2   2  -1   44.23    1.28
   3  -2   1   13.99    1.63
   3   2   1   12.67    1.48
   4  -2   1  111.08    3.92
   4  -2   1  105.00    4.17
   4  -2   1   95.86    4.68
   4  -2   1  105.07    4.45
  -4  -2  -1   99.02    4.68
   4   2   1  105.30    3.63
   4   2   1   98.43    4.09
   4   2   1   99.61    4.61
   5  -2   1    3.80    1.74
  -5  -2  -1    4.46    1.76
   5  -2   1    5.86    1.81
   5  -2   1    5.13    1.75
   5  -2   1    5.19    1.33
   5   2   1    6.76    1.82
   5   2   1    7.29    1.85
   5   2   1    6.05    1.47
   6  -2   1   18.22    2.22
   6   2   1   18.77    2.35
   6   2   1   17.93    2.16
  -6  -3   1   13.53    2.12
   6   3  -1   12.58    1.88
   5   3  -1    1.05    1.84
   5   3  -1    0.45    1.23
   4  -3  -1   21.94    3.02
  -4  -3   1   24.65    2.98
   4   3  -1   24.18    3.32
  -3  -3   1   21.01    2.71
   3  -3  -1   17.58    2.47
   3  -3  -1   24.68    2.86
  -3   3   1   19.01    1.41
   3   3  -1   23.63    2.78
   2  -3  -1    4.95    1.22
  -2   3   1    4.77    0.75
   1  -3  -1   12.63    1.52
  -1  -3   1   12.21    1.35
  -1  -3   1   14.89    1.66
   1   3  -1   14.58    1.51
  -1   3   1   10.10    1.08
   0  -3  -1   40.70    2.29
   0  -3   1   38.21    2.14
   0  -3   1   40.65    1.86
   0  -3  -1   39.52    1.76
   0   3  -1   43.16    1.97
   0   3   1   41.47    1.87
  -1  -3  -1   12.79    1.35
  -1  -3  -1   12.50    1.52
   1  -3   1    9.31    1.45
   1  -3   1   11.81    0.93
   1   3   1   11.72    1.30
  -1   3  -1   11.00    1.09
   1   3   1   13.18    1.43
  -2  -3  -1    3.61    1.21
   2  -3   1    2.74    1.08
  -2   3  -1    4.37    0.84
  -3  -3  -1   15.59    2.40
   3  -3   1   15.39    2.04
   3  -3   1    8.69    2.05
   3  -3   1   14.42    2.16
   3   3   1   12.85    2.08
   4  -3   1   17.26    2.48
   4  -3   1   18.42    2.52
  -4  -3  -1   16.04    2.57
   4   3   1   13.23    2.20
   4   3   1   17.86    3.04
  -5  -3  -1   12.48    1.97
   5  -3   1   12.65    2.20
   5   3   1    7.25    1.84
   5   3   1    9.28    1.58
  -6  -3  -1    5.29    1.28
   6   3   1    3.76    1.26
  -5  -4   1   -1.03    1.42
   5   4  -1   -0.33    1.31
   5   4  -1    0.48    0.97
   4  -4  -1    7.74    1.91
   4   4  -1    6.74    1.79
   3  -4  -1   36.09    2.97
  -3  -4   1   41.69    3.03
   3   4  -1   35.18    3.11
   2  -4  -1    6.31    1.76
  -2  -4   1    0.91    1.77
  -2  -4   1    7.31    1.56
  -2  -4   1    6.22    1.91
   2  -4  -1    8.26    2.15
  -2  -4   1    6.49    1.55
   1  -4  -1   29.68    2.68
   1  -4  -1   26.92    2.77
  -1  -4   1   28.58    2.85
  -1  -4   1   27.58    2.72
  -1  -4   1   30.90    2.04
  -1  -4   1   32.95    2.42
  -1  -4   1   32.48    2.28
   0  -4  -1   10.57    1.52
   0  -4   1    9.68    1.88
   0  -4  -1    7.21    1.60
   0  -4  -1    9.72    1.90
   0  -4   1   14.06    2.04
   0  -4  -1    8.70    2.08
   0  -4   1   10.74    1.54
   0  -4  -1    9.05    1.26
   0  -4   1    9.23    1.45
   0  -4   1   10.27    2.07
   0   4   1    9.95    1.83
   0   4  -1    9.77    1.62
  -1  -4  -1   12.38    2.08
  -1  -4  -1   13.96    2.66
  -1  -4  -1   14.60    2.00
  -1  -4  -1   13.93    1.97
  -1  -4  -1   15.87    2.35
   1  -4   1   13.04    2.31
  -1  -4  -1   13.42    1.58
   1  -4   1    9.40    1.83
   1  -4   1   15.98    2.26
   1   4   1   14.42    1.77
   2  -4   1    3.40    1.70
  -2  -4  -1    6.17    1.63
   2  -4   1    5.30    1.87
  -2  -4  -1    6.09    1.52
  -2  -4  -1    5.19    1.39
   2   4   1    2.97    1.72
  -3  -4  -1   21.12    2.59
  -3  -4  -1   24.64    2.82
  -3  -4  -1   21.47    3.08
   3  -4   1   28.58    2.78
   3   4   1   20.25    2.68
  -4  -4  -1    2.52    1.38
   4  -4   1   -0.94    1.52
   4   4   1   -0.93    1.81
   5  -4   1   -0.80    1.43
   5   4   1    0.63    1.33
   3  -5  -1   14.07    2.00
   3   5  -1   21.42    2.54
  -2  -5   1    1.06    1.49
  -2  -5   1    1.52    2.03
   2  -5  -1    2.49    1.53
  -2  -5   1    1.93    1.08
   2   5  -1    0.40    1.95
  -1  -5   1    6.37    1.80
   1  -5  -1    6.80    2.19
  -1  -5   1    6.49    1.12
   1  -5  -1    7.12    1.74
  -1   5   1    5.02    1.19
   0  -5   1    6.42    1.87
   0  -5  -1    4.54    1.79
   0  -5   1    5.27    1.80
   0  -5  -1    4.55    1.66
  -1  -5  -1   15.69    2.53
   1  -5   1   13.62    2.21
  -2  -5  -1    7.29    1.27
   2  -5   1    3.25    1.71
   2   5   1    4.40    1.62
  -3  -5  -1   14.56    1.53
   3  -5   1   10.87    1.91
   3   5   1    7.17    1.58
  -4  -5  -1    3.36    0.80
   4   5   1    2.20    0.99
   0   6  -1   -0.09    1.17
   0   6   1    1.31    1.40
   7   0  -2   12.07    1.91
   7   0  -2   13.14    1.67
   6   0  -2   40.33    2.54
   6   0  -2   39.08    1.60
   6   0  -2   40.03    3.19
   6   0  -2   41.34    3.19
   5   0  -2   12.17    2.23
  -5   0   2   10.37    1.34
   5   0  -2    8.11    1.41
   5   0  -2    9.83    1.91
   5   0  -2   11.96    1.48
  -4   0   2   -0.07    0.66
   4   0  -2    0.85    0.81
  -3   0   2   20.67    1.03
   3   0  -2   17.67    1.29
   2   0  -2    9.23    0.84
  -2   0   2    8.04    0.56
   1   0  -2  174.18    3.35
  -1   0  -2  218.70    3.98
   2   0   2  127.35    2.99
  -2   0  -2  127.68    2.67
   3   0   2   42.92    1.85
  -3   0  -2   41.39    1.47
  -4   0  -2   23.36    1.42
   4   0   2   24.20    1.80
   5   0   2  173.25    4.94
   5   0   2  174.10    5.35
   5   0   2  176.53    5.85
   5   0   2  166.97    5.27
   5   0   2  179.00    6.41
   5   0   2  173.16    6.43
   6   0   2    4.63    1.29
   6   0   2    3.59    1.86
   6   0   2    5.19    1.81
   6   0   2    4.55    0.92
   6   0   2    3.60    1.50
   7   0   2    1.08    1.32
   7   0   2    2.52    1.29
   7  -1  -2   20.27    2.07
   7   1  -2   20.21    1.99
   7   1  -2   17.14    1.67
   6  -1  -2   19.15    2.35
   6  -1  -2   19.59    2.51
   6   1  -2   13.54    2.01
   6   1  -2   17.38    1.64
   6   1  -2   12.68    1.78
   6   1  -2   18.27    2.72
   5  -1  -2   58.08    2.98
   5  -1  -2   51.67    3.48
   5  -1  -2   56.03    2.90
   5  -1  -2   55.47    3.22
  -5  -1   2   58.74    3.65
   5   1  -2   55.48    3.44
   5   1  -2   52.30    3.60
   5   1  -2   62.52    3.17
   5   1  -2   54.23    2.93
   4  -1  -2    7.16    1.28
  -4  -1   2    8.80    1.17
   4   1  -2    6.76    1.29
  -4   1   2    7.38    0.93
   4   1  -2    9.15    1.43
  -3  -1   2    8.12    0.97
   3  -1  -2    7.32    1.03
   3   1  -2    8.76    1.06
   2  -1  -2  200.63    4.27
  -2  -1   2  203.79    4.20
   2   1  -2  199.74    4.26
  -1  -1   2   85.04    2.01
   1   1  -2   87.12    2.30
   1   1  -2   85.10    2.14
   0  -1  -2  992.58   17.85
   0   1  -2 1000.00   18.29
  -1  -1  -2  119.15    2.56
  -1  -1  -2  117.67    2.82
  -1   1  -2  122.43    2.43
   1   1   2  118.12    2.59
  -2  -1  -2   48.06    1.57
   2  -1   2   43.61    1.57
   2   1   2   45.97    1.64
  -3  -1  -2   17.45    1.27
   3  -1   2   16.90    1.53
   3  -1   2   18.11    1.34
  -3   1  -2   18.73    0.89
   3   1   2   17.06    1.39
   4  -1   2   12.64    1.66
  -4  -1  -2   13.56    1.36
   4  -1   2   12.12    1.58
  -4   1  -2    8.01    1.11
   4   1   2   12.68    1.58
   5  -1   2   85.65    4.30
   5  -1   2   81.68    3.81
   5  -1   2   80.07    3.55
   5  -1   2   79.73    4.27
   5   1   2   86.66    3.54
   5   1   2   85.08    3.67
   5   1   2   94.97    3.78
   5   1   2   78.54    4.34
   5   1   2   86.58    4.12
   5   1   2   84.11    4.19
   6  -1   2   -0.35    1.08
   6  -1   2   -1.69    1.52
   6  -1   2    0.01    1.23
   6  -1   2    0.43    1.90
   6   1   2   -1.34    1.36
   6   1   2   -0.15    1.54
   6   1   2   -0.25    1.50
   6   1   2    0.70    1.37
   6   1   2   -0.31    0.92
   7  -1   2   -0.30    1.07
   7   1   2   -0.26    1.13
   6  -2  -2   17.57    2.22
  -6  -2   2   15.63    2.63
   6   2  -2   20.56    2.12
   6   2  -2   17.04    2.09
   5  -2  -2   13.43    2.20
   5  -2  -2   10.95    1.69
  -5  -2   2   13.05    2.32
   5  -2  -2   15.81    2.81
   5   2  -2   10.50    1.80
   5   2  -2    9.88    1.83
   5   2  -2    8.96    1.61
   4  -2  -2   39.81    3.19
   4  -2  -2   42.27    2.49
  -4  -2   2   44.11    3.53
   4   2  -2   42.88    3.11
   4   2  -2   34.39    3.45
   2  -2  -2   69.90    2.58
  -1  -2   2  613.36   11.91
  -1  -2   2  609.65   12.62
   1  -2  -2  618.62   12.89
   1   2  -2  604.75   11.99
   0  -2  -2   11.05    0.87
   0  -2  -2   11.05    1.09
   0  -2   2    8.71    0.99
   0  -2   2   10.95    1.03
   0   2  -2   10.21    0.91
   1  -2   2  107.67    3.20
  -1  -2  -2  101.75    2.87
  -1  -2  -2  105.27    3.00
   1  -2   2  105.29    2.46
   1   2   2  108.55    2.65
  -1   2  -2  106.46    2.54
   1   2   2  106.43    2.86
   2  -2   2   -0.19    0.65
  -2   2  -2    0.01    0.45
   3  -2   2   33.42    2.04
   3   2   2   32.97    1.89
  -4  -2  -2  126.82    5.30
   4  -2   2  121.54    4.94
   4  -2   2  142.03    4.40
   4  -2   2  128.42    4.64
   4  -2   2  125.35    5.39
   4   2   2  132.93    4.17
   4   2   2  128.75    5.47
   4   2   2  130.08    4.87
   4   2   2  137.71    4.92
   5  -2   2    9.48    1.77
   5  -2   2    7.12    1.60
  -5  -2  -2    9.18    1.92
   5  -2   2   12.14    2.45
   5  -2   2    9.57    1.90
   5   2   2    6.79    1.60
   5   2   2    5.11    1.61
   5   2   2    7.30    1.91
   6  -2   2    4.25    1.38
   6  -2   2    5.25    1.93
   6   2   2    4.62    1.18
   6   2   2    2.35    1.73
   6   2   2    2.33    1.28
  -6  -3   2   25.23    2.41
   6   3  -2   25.37    1.87
   5   3  -2   20.62    2.27
   4  -3  -2   13.64    2.33
  -4  -3   2   11.78    2.12
   4   3  -2    9.66    2.43
   4   3  -2   13.94    2.49
   3  -3  -2    2.51    1.77
  -3  -3   2    3.82    1.59
   3  -3  -2    4.46    1.56
   3   3  -2    4.41    1.74
   3   3  -2    3.35    1.91
   2  -3  -2   56.06    2.70
  -2   3   2   52.62    1.83
  -1  -3   2   18.76    1.66
  -1  -3   2   24.72    1.90
   1  -3  -2   21.67    1.79
  -1   3   2   22.77    1.38
   1   3  -2   20.76    1.73
   0  -3  -2    9.87    1.44
   0  -3   2    9.38    1.41
   0  -3  -2   10.40    1.17
   0  -3   2    9.97    1.25
   0   3   2   10.08    1.14
   0   3  -2    8.85    1.24
  -1  -3  -2    4.88    1.11
   1  -3   2    3.06    0.59
  -1  -3  -2    5.21    0.96
   1  -3   2    5.33    1.14
  -1   3  -2    3.75    0.79
   1   3   2    4.92    0.98
   1   3   2    3.58    0.79
   2  -3   2   29.41    2.07
  -2  -3  -2   28.94    2.40
   2   3   2   28.95    2.09
  -2   3  -2   27.76    1.58
   3  -3   2   34.71    3.10
   3  -3   2   35.23    3.15
  -3  -3  -2   36.98    3.22
   3   3   2   34.47    3.01
   4  -3   2   10.83    1.99
   4  -3   2    8.52    1.90
  -4  -3  -2   15.59    2.63
   4   3   2    9.66    2.01
   5  -3   2    5.06    1.98
  -5  -3  -2    2.89    1.89
   5   3   2    2.38    1.51
   5   3   2    1.27    1.57
  -6  -3  -2    1.01    1.50
   6   3   2    0.16    1.27
   6   3   2    1.28    1.19
   6   3   2    2.49    0.96
   5   4  -2    1.75    1.03
   4  -4  -2    8.56    2.33
   4   4  -2    5.25    1.98
   3  -4  -2    1.65    1.59
  -3  -4   2    3.09    1.39
   3   4  -2    5.47    1.72
   2  -4  -2    0.74    1.42
  -2  -4   2    1.79    1.70
  -2  -4   2   -0.04    1.31
  -2  -4   2    2.47    1.36
  -2  -4   2    1.37    1.39
   2  -4  -2    2.41    1.90
   1  -4  -2   11.81    2.19
  -1  -4   2   16.41    2.82
  -1  -4   2   17.42    3.12
  -1  -4   2   15.95    2.10
  -1  -4   2   14.72    1.82
   1  -4  -2   15.34    2.89
  -1  -4   2   18.19    2.25
   0  -4   2   38.29    2.20
   0  -4  -2   40.57    2.01
   0  -4   2   38.91    3.09
   0  -4   2   40.75    2.12
   0  -4  -2   40.89    3.52
   0  -4   2   42.03    2.82
   0  -4  -2   39.36    1.88
   0  -4  -2   42.65    2.77
   0  -4  -2   33.14    2.90
   0  -4   2   35.46    3.01
   0   4   2   36.27    2.40
  -1  -4  -2   31.82    2.96
   1  -4   2   37.04    2.84
  -1  -4  -2   35.68    3.51
  -1  -4  -2   35.26    1.93
  -1  -4  -2   36.13    2.43
   1  -4   2   31.28    3.32
   1  -4   2   38.59    3.30
  -1  -4  -2   38.36    2.43
   1   4   2   38.03    2.60
   2  -4   2   60.31    3.39
  -2  -4  -2   59.60    3.25
   2  -4   2   63.16    3.94
  -2  -4  -2   61.12    3.07
  -2  -4  -2   66.78    4.25
  -2  -4  -2   57.95    3.27
   2   4   2   61.24    4.04
  -3  -4  -2   24.88    2.65
  -3  -4  -2   28.36    3.06
  -3  -4  -2   20.64    2.85
   3  -4   2   24.89    2.78
   3   4   2   27.25    2.88
  -4  -4  -2    3.35    1.46
  -4  -4  -2    0.46    1.34
   4  -4   2   -0.38    1.56
   4   4   2    2.24    1.57
  -5  -4  -2    4.93    1.35
   5  -4   2    4.04    1.55
   5   4   2    5.92    1.29
   3  -5  -2    2.08    1.71
   3   5  -2   -0.77    1.49
  -2  -5   2    6.64    1.26
   2  -5  -2    2.97    1.97
  -2  -5   2    3.52    1.86
   2   5  -2    5.99    1.79
  -1  -5   2   12.10    1.37
   1  -5  -2    9.49    1.86
   1  -5  -2   12.20    1.99
  -1  -5   2   11.33    1.96
  -1   5   2   11.28    1.86
   0  -5  -2    4.07    1.69
   0  -5   2    4.67    1.74
   0  -5   2    6.19    1.88
   0  -5  -2    4.36    1.75
   1  -5   2   33.96    3.13
  -1  -5  -2   32.74    3.01
   1  -5   2   40.18    3.25
  -2  -5  -2    1.98    1.05
   2  -5   2    1.19    1.82
   2   5   2    0.15    1.43
  -3  -5  -2   16.57    1.59
   3  -5   2   16.47    2.01
   3   5   2   16.43    2.20
  -4  -5  -2    1.01    0.72
   4   5   2    3.79    1.26
   0   6  -2    0.83    1.19
   0   6   2    2.21    1.11
   7   0  -3   21.63    1.86
   7   0  -3   24.34    2.07
   6   0  -3   28.45    2.28
   6   0  -3   32.05    2.69
   6   0  -3   25.82    2.90
   5   0  -3   62.48    3.64
   5   0  -3   66.06    2.52
   5   0  -3   68.52    4.09
   5   0  -3   66.51    3.22
  -4   0   3    6.80    0.92
   4   0  -3    6.02    1.12
   3   0  -3   79.10    2.54
  -3   0   3   81.04    2.02
  -2   0   3  172.94    3.26
   2   0  -3  171.41    3.75
   1   0  -3  243.01    4.59
   0   0   3   88.83    1.76
  -1   0  -3    0.61    0.31
   2   0   3  553.26   10.09
  -2   0  -3  551.41    9.91
   3   0   3    7.04    1.04
  -3   0  -3    5.83    0.81
   4   0   3    3.69    1.06
   4   0   3    5.26    1.27
  -4   0  -3    2.99    0.79
   5   0   3   45.86    3.35
   5   0   3   48.25    2.75
   5   0   3   46.43    2.42
   5   0   3   45.93    3.69
   5   0   3   47.43    3.11
   5   0   3   44.89    2.81
   6   0   3   14.44    2.44
   6   0   3   13.90    2.26
   6   0   3   11.14    1.78
   6   0   3   12.70    1.76
   7   0   3    6.80    1.56
   7   0   3    3.95    1.10
   7  -1  -3    1.31    1.35
   7   1  -3    1.51    1.07
   7   1  -3    2.70    0.98
   6  -1  -3   60.36    3.65
   6  -1  -3   58.23    3.28
   6   1  -3   57.44    3.15
   6   1  -3   51.18    2.75
   6   1  -3   59.30    3.45
   5  -1  -3   23.58    2.77
   5  -1  -3   16.08    2.20
   5  -1  -3   18.57    2.82
   5   1  -3   19.09    2.70
   5   1  -3   20.04    2.63
   5   1  -3   23.79    2.13
   5   1  -3   19.04    2.26
   4  -1  -3   20.74    1.83
  -4  -1   3   20.35    1.63
  -4   1   3   19.88    1.20
   4   1  -3   21.54    1.82
   4   1  -3   19.59    1.74
  -3  -1   3   24.33    1.38
   3  -1  -3   22.42    1.45
   3   1  -3   22.16    1.49
   2  -1  -3  327.88    6.49
  -2  -1   3  339.28    6.42
   2   1  -3  323.01    6.79
   2   1  -3  336.96    6.47
  -1  -1   3  882.35   15.54
   1   1  -3  886.55   16.28
   1   1  -3  884.77   16.51
   0  -1  -3  823.63   15.05
   0   1  -3  844.29   15.45
  -1  -1  -3  152.19    3.49
  -1   1  -3  157.48    3.21
   1   1   3  157.02    3.26
   2  -1   3   66.63    2.00
  -2  -1  -3   69.30    1.97
  -2   1  -3   69.29    1.57
   2   1   3   67.86    2.00
  -3  -1  -3   51.23    1.93
   3  -1   3   49.47    2.29
   3  -1   3   48.79    2.02
  -3   1  -3   50.83    1.55
   3   1   3   49.64    2.06
   4  -1   3   42.57    2.52
   4  -1   3   47.18    2.41
  -4  -1  -3   42.64    2.25
  -4   1  -3   47.93    1.91
   4   1   3   45.46    2.48
   4   1   3   43.39    2.42
   5  -1   3   12.90    1.84
   5  -1   3   13.31    2.43
   5  -1   3   14.73    2.20
   5  -1   3   12.05    1.79
   5  -1   3   19.74    2.99
   5   1   3   12.46    2.06
   5   1   3   13.58    2.12
   5   1   3    7.90    1.48
   5   1   3   15.37    2.75
   5   1   3   12.01    1.81
   5   1   3   17.93    2.22
   6  -1   3   14.54    2.49
   6  -1   3   17.08    2.92
   6  -1   3   15.70    1.88
   6  -1   3   13.34    2.21
   6   1   3   14.00    1.53
   6   1   3   14.94    2.47
   6   1   3   16.22    2.28
   6   1   3   14.98    1.90
   7  -1   3   10.20    1.50
   7   1   3   11.72    1.70
   6  -2  -3   14.87    2.43
  -6  -2   3   18.24    2.61
   6   2  -3   19.66    2.43
   6   2  -3   19.92    2.19
  -5  -2   3   41.85    3.58
   5  -2  -3   42.24    3.45
   5  -2  -3   45.09    3.53
   5   2  -3   46.25    3.32
   5   2  -3   44.66    2.97
   5   2  -3   41.83    2.71
   4  -2  -3   24.94    2.88
   4  -2  -3   35.16    2.31
  -4  -2   3   28.52    2.81
   4   2  -3   30.37    3.11
   2  -2  -3   50.43    2.20
   2   2  -3   52.02    2.38
   1  -2  -3   19.30    1.41
  -1  -2   3   20.39    1.44
  -1  -2   3   21.08    1.23
   0  -2   3   43.02    1.78
   0  -2  -3   42.19    1.49
   0  -2  -3   42.01    1.83
   0  -2   3   39.57    1.55
   0   2  -3   42.48    1.56
  -1  -2  -3   60.18    2.15
   1  -2   3   60.31    2.26
   1  -2   3   58.59    1.76
  -1  -2  -3   61.00    2.17
  -1   2  -3   61.19    1.80
   1   2   3   61.25    2.01
   1   2   3   61.59    1.89
  -2  -2  -3   49.48    2.33
   2  -2   3   51.15    2.22
  -2   2  -3   55.20    1.70
   3  -2   3   30.25    2.01
   3   2   3   30.42    1.88
   4  -2   3   63.96    3.65
   4  -2   3   65.49    3.91
   4  -2   3   68.91    3.40
  -4  -2  -3   69.02    4.05
   4  -2   3   61.95    3.99
   4  -2   3   68.12    3.03
   4   2   3   69.65    2.97
   4   2   3   66.21    3.42
   4   2   3   67.20    3.40
   4   2   3   68.41    3.87
   4   2   3   69.85    3.70
  -5  -2  -3   40.64    3.48
   5  -2   3   48.24    3.25
   5  -2   3   40.38    2.60
   5  -2   3   46.85    2.94
   5  -2   3   40.65    3.53
   5   2   3   40.03    3.52
   5   2   3   48.84    2.91
   6  -2   3   10.58    1.86
   6  -2   3    9.98    1.79
   6   2   3   10.14    1.55
   6   2   3   11.42    2.01
   6   2   3   10.31    1.57
   6   3  -3    3.40    1.08
  -5  -3   3   15.78    2.42
   5   3  -3   13.27    2.09
  -4  -3   3    9.15    2.19
   4   3  -3    9.84    2.07
   4   3  -3   11.63    2.36
  -3  -3   3   12.58    2.28
   3   3  -3    7.63    2.14
   3   3  -3    8.05    2.29
   2  -3  -3   22.13    1.95
  -2   3   3   20.54    1.20
   1  -3  -3    7.86    1.30
  -1  -3   3    5.84    1.01
  -1  -3   3   10.49    1.50
   1   3  -3    7.98    1.23
  -1   3   3    8.72    1.15
   0  -3   3   48.77    2.09
   0  -3   3   53.82    2.56
   0  -3  -3   47.14    2.40
   0  -3  -3   46.72    1.87
   0   3   3   47.72    2.04
   0   3  -3   47.65    2.21
  -1  -3  -3  179.15    4.56
  -1  -3  -3  163.71    4.79
   1  -3   3  162.85    4.98
   1  -3   3  172.69    3.96
   1   3   3  173.52    4.25
   1   3   3  173.61    4.61
  -1   3  -3  161.38    4.25
   2  -3   3   27.42    2.12
  -2  -3  -3   26.78    2.31
  -2   3  -3   23.38    1.58
   2   3   3   29.99    2.12
   3  -3   3   17.03    2.40
  -3  -3  -3   18.45    3.21
   3  -3   3   17.02    2.70
   3   3   3   13.37    2.42
  -4  -3  -3   41.56    3.34
   4  -3   3   39.96    3.49
   4   3   3   40.61    3.17
   4   3   3   32.78    2.94
   4   3   3   39.79    3.25
  -5  -3  -3    8.36    1.72
   5  -3   3    6.61    2.00
   5   3   3    5.13    1.39
   5   3   3    4.35    1.72
   6  -3   3    4.69    1.37
   6   3   3    4.12    1.35
   6   3   3    5.58    1.08
   5   4  -3   15.63    2.00
   4   4  -3   17.78    2.57
   3  -4  -3   16.49    2.57
  -3  -4   3   10.01    1.99
   3   4  -3   14.37    2.54
  -2  -4   3    6.31    1.88
  -2  -4   3    9.02    1.96
  -2  -4   3    5.43    1.60
   2  -4  -3    5.36    1.68
   2  -4  -3    8.79    1.84
  -2  -4   3    7.64    1.66
  -1  -4   3   37.83    2.64
   1  -4  -3   35.06    3.08
  -1  -4   3   27.99    2.77
  -1  -4   3   34.58    2.30
  -1  -4   3   41.13    2.70
  -1  -4   3   34.63    2.97
   1  -4  -3   36.12    3.15
   0  -4  -3   26.93    3.22
   0  -4   3   28.45    2.54
   0  -4  -3   27.23    1.59
   0  -4   3   27.30    1.91
   0  -4  -3   30.25    1.84
   0  -4  -3   28.11    2.46
   0  -4   3   28.70    2.07
   0  -4   3   26.91    3.31
   0  -4  -3   24.46    2.70
   0  -4   3   22.64    2.66
   0   4   3   23.76    2.28
   0   4   3   26.29    1.97
   1  -4   3   17.37    2.42
  -1  -4  -3   15.76    1.53
  -1  -4  -3   14.53    1.96
  -1  -4  -3   16.96    1.96
   1  -4   3   19.86    2.86
  -1  -4  -3   17.31    2.57
  -1  -4  -3   13.96    1.89
  -1  -4  -3   18.95    2.50
   1  -4   3   20.09    3.15
   1   4   3   16.28    2.04
  -2  -4  -3   10.96    2.35
  -2  -4  -3   16.00    2.57
  -2  -4  -3   15.52    2.11
  -2  -4  -3   16.52    2.13
   2  -4   3   12.52    2.04
   2   4   3   14.82    1.94
   2   4   3   11.10    2.42
  -3  -4  -3   43.47    3.03
   3  -4   3   41.94    3.30
  -3  -4  -3   51.57    3.47
  -3  -4  -3   47.60    3.22
   3   4   3   45.64    3.42
  -4  -4  -3    5.99    1.51
  -4  -4  -3    3.31    1.55
   4  -4   3    3.43    1.68
   4   4   3    4.23    1.59
  -5  -4  -3    7.55    1.36
  -5  -4  -3    3.38    1.28
   5  -4   3    4.44    1.53
   5   4   3    2.83    1.44
   3  -5  -3   13.27    1.95
   3   5  -3   12.30    1.97
   2  -5  -3    1.94    1.79
  -2  -5   3    1.67    1.08
   2  -5  -3   -0.68    1.26
   2   5  -3    0.73    1.50
  -1  -5   3    5.81    1.07
   1  -5  -3    5.24    1.76
   1  -5  -3    8.74    1.78
   1   5  -3    7.37    1.58
  -1   5   3    6.87    1.49
   0  -5  -3   15.71    2.67
   0  -5  -3   26.84    2.76
   0  -5   3   22.00    2.84
   0   5   3   22.30    1.94
  -1  -5  -3   18.04    2.64
  -1  -5  -3   25.71    3.23
   1  -5   3   23.81    2.71
   1   5   3   24.85    3.08
   1   5   3   20.79    1.80
  -2  -5  -3    3.66    1.06
   2  -5   3    1.37    1.45
   2   5   3    4.89    1.69
   3  -5   3    1.36    1.39
  -3  -5  -3    3.69    1.01
   3   5   3    2.58    1.37
   4   5   3    1.48    1.02
   0  -6  -3    1.04    1.04
   0   6  -3    0.26    1.11
   0   6   3    1.45    1.31
   7   0  -4    1.56    1.02
   7   0  -4    2.06    1.21
   6   0  -4   43.13    3.22
   6   0  -4   40.79    2.52
   6   0  -4   38.24    3.19
   5   0  -4    1.47    0.88
   5   0  -4    0.64    1.24
   5   0  -4    0.37    1.27
   5   0  -4    2.15    1.35
   4   0  -4    0.70    0.82
  -4   0   4    1.17    0.70
   3   0  -4   90.74    2.78
  -3   0   4   88.56    2.19
  -2   0   4  183.81    3.44
   2   0  -4  178.09    3.95
   1   0  -4  627.49   11.46
  -1   0   4  636.15   10.92
   0   0   4    2.46    0.38
  -2   0  -4   -0.05    0.37
   2   0   4    0.43    0.51
  -3   0  -4  165.65    3.75
   3   0   4  165.72    4.20
   3   0   4  166.03    4.41
   4   0   4   44.21    2.45
   4   0   4   46.28    2.41
  -4   0  -4   44.70    1.99
   5   0   4  162.74    4.82
   5   0   4  157.79    5.42
   5   0   4  167.10    6.40
   5   0   4  165.75    5.23
   5   0   4  152.57    5.82
   5   0   4  161.63    5.17
   6   0   4   57.53    3.28
   6   0   4   48.44    2.79
   6   0   4   54.60    3.38
   6   0   4   55.45    3.59
   7   0   4    2.93    1.31
   7   0   4    2.78    1.01
   7   0   4    3.08    1.34
   7  -1  -4   13.76    1.66
   7   1  -4   13.07    1.66
   7   1  -4   18.43    1.65
   6  -1  -4    6.79    1.58
   6  -1  -4    6.52    1.62
   6  -1  -4    9.77    1.91
   6   1  -4    9.26    1.57
   6   1  -4    8.29    1.40
   6   1  -4    9.47    1.77
   5  -1  -4   44.06    3.26
   5  -1  -4   42.97    3.28
   5  -1  -4   42.50    2.79
   5   1  -4   46.39    2.60
   5   1  -4   41.43    2.77
   5   1  -4   43.95    2.95
   5   1  -4   38.02    3.69
   5   1  -4   39.95    3.31
   4  -1  -4   23.92    1.93
  -4  -1   4   28.45    1.78
   4   1  -4   25.97    1.97
   4   1  -4   28.93    2.03
  -4   1   4   24.60    1.19
  -3  -1   4  135.18    3.36
   3  -1  -4  131.57    3.63
   3   1  -4  136.72    3.67
  -2  -1   4   48.69    1.60
   2  -1  -4   48.52    1.76
   2   1  -4   46.23    1.66
   2   1  -4   44.41    1.79
  -1  -1   4  180.50    3.69
   1   1  -4  184.18    4.05
   1   1  -4  182.29    3.92
   0  -1  -4  536.80    9.98
   0   1  -4  545.01   10.26
  -1  -1  -4   51.31    1.72
   1   1   4   48.62    1.57
  -2  -1  -4    9.94    0.97
   2  -1   4    9.11    0.94
   2   1   4    8.30    1.00
  -2   1  -4   11.18    1.35
  -3  -1  -4   14.11    1.30
   3  -1   4   14.55    1.30
   3  -1   4   14.12    1.53
   3   1   4   14.23    1.52
  -3   1  -4   15.43    1.06
   3   1   4   13.90    1.39
  -4  -1  -4  112.00    3.63
   4  -1   4  118.29    3.84
   4  -1   4  114.63    4.02
   4   1   4  117.52    3.94
   4   1   4  118.57    3.92
   5  -1   4   34.59    3.49
   5  -1   4   32.34    3.00
   5  -1   4   34.22    2.62
   5  -1   4   29.94    3.03
   5   1   4   34.72    3.33
   5   1   4   34.60    2.43
   5   1   4   33.30    2.46
   5   1   4   35.41    2.72
   5   1   4   29.99    3.13
   5   1   4   37.68    3.08
   6  -1   4   -0.53    1.02
   6  -1   4    0.26    1.49
   6  -1   4    0.53    1.27
   6  -1   4    0.29    1.53
   6   1   4   -1.94    1.37
   6   1   4   -0.97    0.96
   6   1   4   -0.60    1.23
   6   1   4    0.91    1.45
   7   1   4    5.59    1.24
   6  -2  -4    5.55    1.64
   6   2  -4    5.72    1.38
   6   2  -4    5.26    1.71
   5  -2  -4    8.90    2.23
   5  -2  -4    3.46    1.60
  -5  -2   4    7.67    1.77
   5   2  -4    5.58    1.54
   5   2  -4    6.22    1.68
   5   2  -4    5.15    1.49
   4  -2  -4   31.32    2.25
  -4  -2   4   28.10    2.85
   4   2  -4   30.24    2.26
   4   2  -4   37.49    3.21
   2  -2  -4  110.82    3.49
   2   2  -4  117.65    3.59
  -1  -2   4  144.79    3.69
  -1  -2   4  137.93    3.66
   1  -2  -4  139.48    3.92
   0  -2  -4   58.13    2.26
   0  -2   4   59.43    1.98
   0  -2  -4   59.38    1.85
   0  -2   4   61.32    2.19
   0   2  -4   63.72    2.00
  -1  -2  -4  244.89    5.79
   1  -2   4  244.05    5.96
  -1  -2  -4  240.22    5.43
   1   2   4  246.86    5.48
   1   2   4  252.52    5.11
  -1   2  -4  246.51    5.23
  -2  -2  -4   24.19    1.88
   2  -2   4   26.30    1.68
   3  -2   4   31.38    2.09
   3   2   4   31.90    1.84
  -3   2  -4   29.41    2.31
   4  -2   4   40.30    3.38
   4  -2   4   46.05    2.75
   4  -2   4   37.13    2.95
   4  -2   4   41.24    2.79
   4  -2   4   42.72    3.08
  -4  -2  -4   38.54    3.79
   4   2   4   40.87    2.44
   4   2   4   41.25    2.93
   4   2   4   43.14    3.13
   4   2   4   42.27    3.32
   4   2   4   44.42    3.31
   5  -2   4   66.56    4.09
   5  -2   4   60.80    3.23
   5  -2   4   60.51    3.05
   5  -2   4   61.64    3.68
   5   2   4   57.03    3.26
   5   2   4   59.20    3.67
   6  -2   4    5.57    1.75
   6  -2   4    6.04    1.51
   6   2   4    3.63    1.47
   6   2   4    7.58    1.27
   6   2   4    4.54    1.33
   6   3  -4    7.44    1.20
   5   3  -4    1.21    1.28
   3   3  -4    7.68    2.14
   3   3  -4    7.16    1.97
   2  -3  -4   58.62    2.85
  -2   3   4   53.31    1.86
   1  -3  -4  261.67    6.92
  -1  -3   4  261.64    6.70
  -1  -3   4  263.59    6.44
  -1   3   4  271.52    5.92
   0  -3   4   44.37    2.05
   0  -3  -4   44.36    2.32
   0  -3  -4   45.33    1.83
   0  -3   4   47.42    2.37
   0   3  -4   45.01    2.13
   0   3   4   42.21    1.93
  -1  -3  -4   52.36    2.33
   1  -3   4   50.54    1.86
  -1  -3  -4   47.69    2.36
   1  -3   4   48.38    2.51
  -1   3  -4   47.89    2.09
   1   3   4   47.33    2.08
   1   3   4   48.04    2.21
  -2  -3  -4   12.90    1.85
   2  -3   4   11.88    1.73
   2   3   4    8.29    1.49
   3  -3   4   21.33    2.41
  -3  -3  -4   20.20    2.82
   3  -3   4   21.24    2.91
  -3   3  -4   23.51    2.69
   3   3   4   22.84    3.11
   4  -3   4   38.20    2.96
  -4  -3  -4   36.82    3.20
   4   3   4   40.95    3.22
   4   3   4   40.84    3.08
   5  -3   4    5.12    2.11
   5  -3   4    9.63    1.73
  -5  -3  -4    6.39    1.64
   5   3   4    8.90    1.77
   6  -3   4    7.76    1.39
   6   3   4    8.62    1.32
   6   3   4    5.83    1.37
   5   4  -4   -0.90    1.20
  -3  -4   4    8.01    1.73
   3  -4  -4   11.22    2.43
   3   4  -4    9.71    2.33
   3   4  -4    6.90    2.04
  -2  -4   4    2.65    1.67
  -2  -4   4    4.39    1.59
   2  -4  -4    4.90    1.62
  -2  -4   4    3.54    1.34
   2  -4  -4    2.88    1.83
  -1  -4   4   35.94    3.48
  -1  -4   4   31.59    2.41
   1  -4  -4   32.35    3.00
  -1  -4   4   34.34    3.16
   1  -4  -4   28.54    3.14
  -1  -4   4   30.44    2.59
  -1  -4   4   30.67    2.13
   1   4  -4   29.95    2.32
   0  -4  -4   25.99    2.75
   0  -4   4   33.11    3.14
   0  -4  -4   31.01    1.79
   0  -4   4   30.63    2.19
   0  -4  -4   27.94    1.56
   0  -4  -4   30.70    2.52
   0  -4   4   30.26    2.84
   0  -4  -4   28.73    3.75
   0  -4  -4   28.47    3.36
   0  -4   4   28.64    2.08
   0   4   4   32.33    2.39
   0   4  -4   29.88    2.35
  -1  -4  -4   19.73    1.98
  -1  -4  -4   18.23    3.21
  -1  -4  -4   22.49    2.62
  -1  -4  -4   21.77    2.21
  -1  -4  -4   18.66    1.53
   1  -4   4   24.53    3.01
   1  -4   4   20.14    2.66
  -1  -4  -4   21.76    2.87
  -1  -4  -4   24.09    2.09
   1   4   4   24.15    2.21
  -2  -4  -4   15.98    2.36
  -2  -4  -4   16.59    2.12
   2  -4   4   14.50    2.56
  -2  -4  -4   14.25    2.47
   2  -4   4   16.68    2.42
   2   4   4   11.97    2.13
  -2   4  -4   17.71    2.94
   2   4   4   17.18    2.18
  -3  -4  -4    4.23    1.61
   3  -4   4    6.27    1.90
  -3  -4  -4    6.55    1.47
  -3  -4  -4    7.10    1.76
  -3   4  -4    8.29    2.16
   3   4   4    7.46    1.89
  -4  -4  -4    1.12    1.28
   4  -4   4   -0.84    1.46
  -4  -4  -4    1.91    1.50
   4   4   4    0.98    1.80
   5  -4   4    5.03    1.57
  -5  -4  -4    8.42    1.70
  -5  -4  -4    7.62    1.30
   5   4   4    4.64    1.20
   3   5  -4   10.93    1.84
  -2  -5   4    9.34    1.55
   2  -5  -4    8.96    1.68
   2  -5  -4    9.49    2.14
   2   5  -4    9.31    1.87
   1  -5  -4    7.23    1.69
   1  -5  -4    4.54    2.04
  -1  -5   4    7.60    1.25
  -1   5   4    4.53    1.39
   0  -5  -4   18.99    2.81
   0  -5  -4   21.99    2.76
   0  -5   4   17.96    2.69
   0   5   4   16.54    2.03
  -1  -5  -4    2.32    1.59
   1  -5   4    3.68    1.84
   1   5   4    3.39    1.25
  -1   5  -4    0.63    1.34
   1   5   4    1.85    1.81
   2  -5   4   20.78    2.63
  -2  -5  -4   25.59    1.57
   2   5   4   26.55    2.90
   3  -5   4    4.60    1.47
  -3  -5  -4    5.18    1.62
  -3  -5  -4    5.42    1.01
   3   5   4    2.57    1.32
   7   0  -5   -0.68    1.06
   7   0  -5   -0.45    0.93
   6   0  -5   23.86    2.14
   6   0  -5   23.32    2.96
   6   0  -5   27.14    2.85
   5   0  -5    8.09    2.06
   5   0  -5    7.67    1.61
   5   0  -5    8.99    1.27
   5   0  -5    9.56    1.93
   4   0  -5    2.99    1.04
  -4   0   5    4.07    0.87
   3   0  -5   98.51    3.02
  -3   0   5  101.39    2.41
  -2   0   5    6.60    0.59
   2   0  -5    7.76    0.90
   2   0  -5    7.03    0.78
   1   0  -5  211.44    4.21
  -1   0   5  210.89    3.91
   0   0   5   15.49    0.75
  -2   0  -5   35.97    1.37
   2   0   5   37.64    1.51
   3   0   5   44.40    2.03
   3   0   5   49.56    2.28
  -3   0  -5   47.50    1.75
   4   0   5    9.59    1.45
   4   0   5    7.04    1.27
   5   0   5    4.87    2.22
   5   0   5    2.39    1.20
   5   0   5    2.31    1.04
   5   0   5    2.41    1.37
   5   0   5    0.76    1.60
   5   0   5    2.64    1.63
   6   0   5    2.90    1.55
   6   0   5    2.70    1.25
   6   0   5    1.03    1.35
   6   0   5    4.59    1.79
   7   0   5   16.07    1.82
   7   0   5   25.53    1.76
   7   0   5   18.81    1.88
   7  -1  -5   36.74    2.33
   7   1  -5   39.60    2.21
   7   1  -5   37.15    2.02
   6  -1  -5    9.82    1.69
   6  -1  -5    9.99    1.90
  -6  -1   5    6.26    2.03
   6   1  -5    8.09    1.54
   6   1  -5    5.88    1.11
   6   1  -5    6.05    1.34
   6   1  -5    5.02    1.86
   5  -1  -5   20.81    2.79
   5  -1  -5   18.68    2.63
   5  -1  -5   18.21    2.21
   5   1  -5   22.51    2.34
   5   1  -5   17.94    2.49
   5   1  -5   21.20    1.84
   5   1  -5   20.38    2.72
   5   1  -5   20.67    2.35
  -4  -1   5   10.31    1.46
   4  -1  -5    9.81    1.46
  -4   1   5   11.45    0.96
   4   1  -5   10.57    1.60
   4   1  -5   11.28    1.57
  -3  -1   5   13.70    1.13
   3  -1  -5   12.93    1.28
   3   1  -5   14.55    1.32
  -2  -1   5   62.78    1.88
   2  -1  -5   63.12    2.03
   2   1  -5   65.47    2.04
   2   1  -5   61.58    2.12
  -1  -1   5   53.37    1.59
   1  -1  -5   55.06    1.65
   1   1  -5   55.46    1.92
   0  -1  -5  207.13    4.18
   0   1   5  203.72    3.87
  -1  -1  -5    6.69    0.99
   1   1   5    6.97    0.88
   2  -1   5    2.61    0.67
   2   1   5    2.44    0.69
  -2   1  -5    3.52    0.93
   3  -1   5  123.55    3.46
   3  -1   5  118.60    3.81
   3   1   5  126.67    3.56
   3   1   5  119.00    3.70
   4  -1   5   60.50    2.73
   4  -1   5   52.54    2.87
   4   1   5   55.24    2.76
   4   1   5   57.08    2.82
   5  -1   5   59.37    3.34
   5  -1   5   68.85    3.39
   5  -1   5   55.44    3.70
   5  -1   5   70.87    4.13
   5   1   5   64.26    4.15
   5   1   5   63.69    3.18
   5   1   5   66.35    4.01
   5   1   5   62.20    3.33
   5   1   5   63.75    3.30
   5   1   5   65.21    3.49
   6  -1   5   24.35    2.42
   6  -1   5   23.03    2.64
   6  -1   5   28.18    2.78
   6  -1   5   22.97    2.06
   6   1   5   25.63    2.72
   6   1   5   24.17    2.06
   6   1   5   23.66    2.65
   6  -2  -5    3.25    1.89
   6   2  -5    1.29    1.29
   6   2  -5    1.73    1.16
  -5  -2   5   24.76    2.80
   5  -2  -5   22.18    3.00
   5   2  -5   20.97    2.44
   5   2  -5   18.00    2.11
   5   2  -5   21.81    2.37
   4   2  -5    5.27    1.78
   4   2  -5    7.08    2.00
   4   2  -5    7.44    1.39
   3   2  -5    4.12    1.53
   2  -2  -5   78.22    2.83
   2   2  -5   79.40    2.95
   1  -2  -5  185.00    4.77
  -1  -2   5  183.45    4.45
   0  -2   5  165.10    4.33
   0  -2  -5  164.28    3.70
   0  -2  -5  157.16    4.34
   0   2  -5  166.97    3.90
   1  -2   5  133.69    3.86
  -1  -2  -5  134.54    3.72
  -1  -2  -5  134.92    3.50
  -1   2  -5  134.57    3.31
   1   2   5  136.86    3.25
   2  -2   5   53.08    2.28
  -2  -2  -5   53.91    2.38
   2   2   5   56.12    1.98
   3  -2   5   21.07    1.89
   3   2   5   21.35    1.77
  -3   2  -5   20.51    2.12
   4  -2   5  104.58    4.28
  -4  -2  -5   99.31    4.72
   4  -2   5  101.00    4.69
   4  -2   5  100.28    4.52
   4  -2   5  103.90    4.71
   4  -2   5  111.44    4.09
   4   2   5  102.29    4.70
   4   2   5  106.76    4.45
   4   2   5  104.11    3.68
   4   2   5   94.76    4.43
   5  -2   5    2.93    1.26
   5  -2   5    6.82    2.23
   5  -2   5    5.85    1.66
   5   2   5    7.63    2.15
   5   2   5    3.30    1.36
   6  -2   5    7.48    1.51
   6   2   5    6.38    1.36
   6   2   5    5.55    1.24
   6   2   5    5.75    1.54
   6   3  -5   26.33    2.10
   5   3  -5    2.19    1.32
   3   3  -5   10.86    2.31
   2  -3  -5   68.85    3.18
   2   3  -5   63.29    4.01
   1  -3  -5   14.80    1.70
  -1  -3   5   15.95    1.92
   1   3  -5   14.71    1.78
   0  -3   5   10.51    1.50
   0  -3  -5   11.25    1.51
   0  -3  -5   10.31    1.16
   0  -3   5   13.84    1.45
   0   3   5   10.08    1.23
   0   3   5    9.14    1.12
   0   3  -5   11.63    1.39
  -1  -3  -5   14.11    1.73
   1  -3   5   15.44    1.34
  -1  -3  -5   15.01    1.62
   1  -3   5   15.75    1.72
  -1   3  -5   14.20    1.44
   1   3   5   16.42    1.57
   1   3   5   15.24    1.47
  -2  -3  -5   31.32    2.31
   2   3   5   32.00    2.12
  -3  -3  -5   44.48    3.32
   3  -3   5   36.55    3.42
   3  -3   5   40.82    3.35
   3   3   5   42.10    3.29
  -3   3  -5   45.60    3.31
  -4  -3  -5    0.77    1.45
   4  -3   5    1.57    1.71
   4   3   5    0.66    1.90
   4   3   5    0.31    1.43
   5  -3   5    9.68    1.94
   5  -3   5   13.11    2.18
  -5  -3  -5   12.66    1.92
   5   3   5   13.50    2.35
   6  -3   5    1.67    1.22
   6   3   5    2.60    1.01
   6   3   5    2.01    1.01
   5   4  -5    1.99    1.05
   3  -4  -5   11.02    2.09
   3   4  -5   11.05    2.39
   3   4  -5    8.59    1.94
  -2  -4   5    5.03    1.68
   2  -4  -5    6.22    1.71
   2  -4  -5    6.86    2.14
  -2  -4   5    7.07    1.72
  -2  -4   5    7.82    1.88
   2   4  -5    8.63    2.30
   1  -4  -5   27.63    3.21
  -1  -4   5   20.62    3.24
  -1  -4   5   20.81    2.05
  -1  -4   5   28.07    2.55
  -1  -4   5   23.20    2.46
  -1  -4   5   22.34    2.98
   1  -4  -5   19.23    2.64
   1   4  -5   23.09    2.17
   1   4  -5   21.01    2.72
   0  -4   5   35.70    3.44
   0  -4  -5   33.62    1.51
   0  -4   5   36.73    3.29
   0  -4  -5   33.13    3.10
   0  -4  -5   38.02    3.67
   0  -4  -5   33.17    2.43
   0  -4   5   35.82    2.34
   0  -4  -5   30.87    2.92
   0  -4  -5   38.00    1.90
   0  -4   5   32.46    2.18
   0   4  -5   36.32    3.46
   0   4   5   34.91    2.52
   0   4   5   33.45    2.03
  -1  -4  -5    9.68    1.93
   1  -4   5   11.67    1.37
  -1  -4  -5   11.22    1.69
  -1  -4  -5   11.20    2.31
   1  -4   5   15.23    2.78
  -1  -4  -5   13.37    1.73
  -1  -4  -5   10.58    1.24
  -1  -4  -5   11.86    2.34
   1  -4   5   11.93    2.38
  -1  -4  -5   10.21    1.53
   1   4   5   12.28    1.68
  -2  -4  -5   12.70    2.44
  -2  -4  -5   13.99    1.93
  -2  -4  -5   13.17    1.95
   2  -4   5   11.65    2.12
   2   4   5   14.61    2.07
   2   4   5   12.02    2.23
  -2   4  -5   16.95    2.88
  -3  -4  -5   14.78    1.94
  -3  -4  -5   15.41    2.69
   3  -4   5   11.93    2.18
  -3  -4  -5   14.71    2.09
   3   4   5   12.96    2.18
  -3   4  -5   19.37    3.13
  -4  -4  -5    1.91    1.56
   4  -4   5    1.59    1.48
  -4  -4  -5    1.96    1.33
  -4  -4  -5   -0.80    1.48
   4   4   5   -0.25    1.71
   5  -4   5    2.03    1.20
  -5  -4  -5    2.87    1.25
  -5  -4  -5    0.92    1.18
   5   4   5    0.67    1.07
   3   5  -5    8.82    1.69
   2  -5  -5    5.68    1.68
   2  -5  -5    4.52    1.50
  -2  -5   5    5.12    1.23
   2   5  -5    3.81    1.57
  -1  -5   5   10.10    1.94
   1  -5  -5    9.13    1.82
   1  -5  -5   10.07    1.85
  -1  -5   5   11.25    1.41
   1   5  -5   10.52    1.42
  -1   5   5   11.32    1.92
   0  -5   5   29.66    2.97
   0  -5  -5   21.75    2.75
   0   5   5   23.79    1.99
  -1  -5  -5    6.77    2.05
   1  -5   5    2.21    1.68
   1   5   5    3.22    1.10
  -1   5  -5    6.31    1.42
   1   5   5    5.51    1.94
   2  -5   5   24.73    2.53
  -2  -5  -5   23.75    1.48
   2   5   5   30.47    2.81
  -3  -5  -5    8.84    1.71
   3  -5   5    7.54    1.85
  -3  -5  -5    7.36    1.10
   3   5   5    6.88    1.65
   7   0  -6    1.13    0.94
   7   0  -6    1.97    1.11
   6   0  -6   10.93    2.00
   6   0  -6   12.26    2.00
   5   0  -6    1.48    0.83
   5   0  -6    2.27    1.63
   5   0  -6    3.72    1.48
   5   0  -6   -0.41    1.33
   4   0  -6    7.96    1.38
  -4   0   6    9.62    1.25
   3   0  -6  687.81   13.12
  -3   0   6  699.46   12.52
   2   0  -6    2.34    0.55
   2   0  -6    2.25    0.64
  -2   0   6    2.97    0.48
   1   0  -6  400.92    7.57
   1   0  -6  413.55    7.77
  -1   0   6  415.14    7.37
   0   0   6   86.27    2.03
   0   0  -6   90.53    2.28
   2   0   6    6.52    0.88
   3   0   6    4.52    0.99
   3   0   6    3.92    1.10
   4   0   6    7.88    1.24
   4   0   6   11.71    1.66
   5   0   6   18.50    2.45
   5   0   6   20.28    2.38
   5   0   6   19.91    1.82
   5   0   6   17.58    3.10
   5   0   6   19.12    2.32
   5   0   6   22.52    2.66
   6   0   6   19.70    2.02
   6   0   6   15.52    2.53
   6   0   6   21.82    2.84
   6   0   6   23.82    2.39
   7  -1  -6    9.55    1.44
   7   1  -6    6.91    1.24
   7   1  -6    9.40    1.46
   6  -1  -6    0.62    1.36
   6  -1  -6    1.99    1.79
   6   1  -6    1.34    1.23
   6   1  -6    2.67    1.37
   6   1  -6    2.25    0.84
   5  -1  -6    8.61    2.06
   5  -1  -6    9.05    1.72
   5  -1  -6   14.57    2.65
   5   1  -6    9.41    1.82
   5   1  -6    8.15    1.55
   5   1  -6   10.49    1.58
   5   1  -6    7.67    1.78
  -4  -1   6   27.46    1.78
   4  -1  -6   35.06    2.24
   4   1  -6   35.54    3.38
   4   1  -6   32.31    2.20
   4   1  -6   31.48    1.98
  -4   1   6   30.77    1.36
   3  -1  -6   26.55    1.65
  -3  -1   6   25.56    1.41
   3   1  -6   29.90    1.71
   2  -1  -6   88.38    2.81
   2  -1  -6   89.95    2.59
  -2  -1   6   93.21    2.41
   2   1  -6   91.17    2.56
   2   1  -6   91.07    2.68
   1  -1  -6  276.00    5.33
   1  -1  -6  286.78    5.59
  -1  -1   6  281.46    5.51
   1   1  -6  288.08    5.97
   1   1  -6  286.51    5.47
   0  -1  -6  308.16    6.04
   0   1   6  307.26    5.67
  -1  -1  -6  115.23    3.01
  -1   1  -6  114.33    3.39
   1   1   6  118.05    2.76
   2  -1   6   66.53    2.12
  -2   1  -6   68.51    2.52
   2   1   6   65.64    2.16
   3  -1   6   59.80    2.54
   3  -1   6   61.38    2.36
   3   1   6   61.12    2.45
   3   1   6   60.81    2.53
   4  -1   6   15.20    1.86
   4  -1   6   14.30    1.83
   4  -1   6   20.36    2.86
   4   1   6   14.27    1.71
   4   1   6   17.67    1.93
   5  -1   6   15.09    2.32
   5  -1   6   15.46    2.64
   5  -1   6   13.09    2.12
   5  -1   6   15.22    2.25
   5  -1   6   13.44    2.14
   5   1   6   12.03    1.84
   5   1   6   10.66    1.96
   5   1   6   15.65    2.01
   5   1   6   14.74    2.19
   5   1   6   14.07    2.16
   6  -1   6   12.41    1.97
   6  -1   6   14.72    2.31
   6  -1   6   11.35    1.69
   6  -1   6   11.88    1.83
   6   1   6   13.95    2.11
   6   1   6   12.71    1.59
   6   1   6   15.00    2.32
   6   2  -6    0.86    1.60
   6   2  -6    0.58    0.82
   6   2  -6    1.55    1.40
  -5  -2   6    9.44    2.16
   5  -2  -6    2.79    1.67
   5   2  -6    3.12    1.33
   5   2  -6    4.24    1.83
   4   2  -6   10.65    1.99
   4   2  -6   11.47    2.33
   4   2  -6   11.86    1.68
   3   2  -6    0.17    1.39
   2  -2  -6  311.59    7.44
   2   2  -6  308.23    7.20
  -1  -2   6  196.10    4.83
   1  -2  -6  204.59    5.16
   1   2  -6  197.51    5.11
   0  -2  -6   31.43    1.43
   0  -2  -6   34.62    1.80
   0   2  -6   35.44    1.54
   0   2   6   35.94    1.29
  -1  -2  -6  216.46    5.06
  -1  -2  -6  215.69    5.41
   1   2   6  217.17    4.69
  -2  -2  -6   27.56    2.01
   2   2   6   25.98    1.50
  -2   2  -6   31.23    2.18
   3  -2   6    8.54    1.39
  -3   2  -6    6.85    1.74
   3   2   6    8.03    1.35
  -4  -2  -6   34.20    3.57
   4  -2   6   30.18    3.15
   4  -2   6   28.52    2.49
   4  -2   6   27.50    2.77
   4  -2   6   32.95    2.51
   4  -2   6   32.14    3.12
   4   2   6   27.74    2.96
   4   2   6   33.34    2.36
   4   2   6   24.25    2.57
   5  -2   6    4.50    1.60
   5  -2   6    4.10    1.79
   5   2   6    3.58    1.45
   5   2   6    3.26    1.70
   5   2   6    4.04    1.08
   6  -2   6    2.46    1.28
   6   2   6    2.97    1.08
   6   2   6    1.72    1.15
   6   2   6    1.64    1.31
   6   3  -6    1.28    1.00
   5   3  -6   -0.56    1.19
  -4  -3   6   46.86    3.58
   4   3  -6   52.91    3.89
  -3  -3   6   37.53    3.28
   3   3  -6   38.51    3.53
   2  -3  -6   80.57    3.49
   2   3  -6   77.89    4.33
   1  -3  -6   54.30    2.67
  -1  -3   6   52.02    2.54
   1   3  -6   46.35    2.64
   1   3  -6   49.22    2.52
   0  -3  -6   15.94    1.35
   0  -3   6   14.81    1.53
   0  -3  -6   10.81    1.62
   0   3   6   14.04    1.46
   0   3   6   11.94    1.21
   0   3  -6   11.87    1.48
  -1  -3  -6    2.99    0.96
   1  -3   6    2.08    0.77
  -1  -3  -6    1.75    1.09
   1   3   6    1.18    0.88
  -1   3  -6    1.17    0.83
   1   3   6    1.92    0.88
   1   3   6    2.45    1.17
  -2  -3  -6   18.59    2.20
  -2   3  -6   14.50    2.37
   2   3   6   18.79    1.83
   3  -3   6    0.63    1.67
   3  -3   6    0.90    1.53
  -3  -3  -6    2.10    1.71
  -3  -3  -6    1.18    1.50
  -3   3  -6    2.92    1.76
   3   3   6    1.56    1.93
  -4  -3  -6   44.60    3.59
   4  -3   6   39.26    3.13
   4   3   6   44.32    3.30
   4   3   6   41.53    3.19
   5  -3   6    6.22    1.66
   5  -3   6    5.58    2.00
  -5  -3  -6    7.26    1.68
   5   3   6    6.00    1.61
   6  -3   6    2.23    1.18
   6   3   6    3.87    1.29
   6   3   6    3.78    1.01
   5   4  -6   -0.52    0.97
  -3  -4   6    3.86    1.81
   3  -4  -6    2.02    1.70
   3   4  -6    2.81    1.75
  -2  -4   6   21.04    2.85
  -2  -4   6   20.05    2.37
   2  -4  -6   23.17    2.68
  -2  -4   6   28.12    2.99
   2   4  -6   24.10    3.18
  -1  -4   6   17.79    2.79
  -1  -4   6   22.32    3.01
   1  -4  -6   20.92    2.91
  -1  -4   6   18.70    2.35
  -1  -4   6   18.83    2.15
  -1  -4   6   18.76    2.29
   1  -4  -6   20.36    3.05
   1   4  -6   16.79    2.98
   1   4  -6   21.24    2.06
   0  -4  -6   30.77    1.79
   0  -4  -6   32.13    3.28
   0  -4   6   33.94    2.43
   0  -4  -6   32.55    3.52
   0  -4  -6   33.28    3.09
   0  -4  -6   27.06    2.32
   0  -4   6   28.95    2.17
   0  -4   6   33.49    3.47
   0   4   6   30.82    2.45
   0   4  -6   35.60    3.11
   0   4  -6   26.72    3.34
   0   4  -6   37.96    2.49
   0   4   6   28.96    2.00
  -1  -4  -6   23.03    2.97
  -1  -4  -6   30.57    3.45
   1  -4   6   28.81    3.49
   1  -4   6   30.45    1.75
  -1  -4  -6   30.66    2.50
  -1  -4  -6   30.54    2.18
  -1  -4  -6   30.29    2.24
  -1   4  -6   29.49    2.69
   1   4   6   31.44    2.41
   2  -4   6    6.19    2.12
  -2  -4  -6    4.15    1.23
  -2  -4  -6    3.80    1.66
  -2  -4  -6    1.55    1.24
   2   4   6    4.27    2.19
  -2   4  -6    3.68    2.18
   2   4   6    4.13    1.50
   3  -4   6   29.99    2.81
  -3  -4  -6   23.42    3.09
  -3  -4  -6   27.07    2.37
  -3  -4  -6   28.43    2.87
  -3   4  -6   33.69    3.42
   3   4   6   31.01    3.14
   4  -4   6    3.72    1.56
  -4  -4  -6   -1.31    1.35
  -4  -4  -6    4.09    1.50
  -4  -4  -6    0.40    1.79
   4   4   6    0.51    1.55
   4   4   6    0.54    1.41
  -5  -4  -6    8.86    1.38
   5  -4   6    3.61    1.22
  -5  -4  -6    5.96    1.27
  -5  -4  -6    4.81    1.30
   5   4   6    3.25    1.14
   5   4   6    5.19    0.82
  -2  -5   6   14.03    1.68
   2  -5  -6   13.32    2.42
   2   5  -6   12.15    2.08
   1  -5  -6   -0.27    1.47
  -1  -5   6    0.84    0.94
   1  -5  -6    2.36    1.41
   1   5  -6    1.72    1.27
  -1   5   6    2.30    1.13
   0  -5  -6    0.94    1.47
   0  -5   6    2.89    1.72
   0   5  -6    3.05    1.39
   0   5   6    2.74    1.12
  -1  -5  -6    5.12    1.87
  -1  -5  -6    8.58    1.82
   1  -5   6    8.71    1.98
  -1   5  -6    8.50    1.41
   1   5   6    8.11    1.99
   1   5   6    9.04    1.48
   2  -5   6   18.43    2.39
  -2  -5  -6   15.66    1.22
  -2  -5  -6   15.30    2.70
   2   5   6   14.98    2.37
  -3  -5  -6    9.66    1.10
  -3  -5  -6    8.43    1.66
   3  -5   6    9.09    1.79
   3   5   6    7.63    1.57
   7   0  -7   -0.41    0.95
   6   0  -7    3.30    1.39
   6   0  -7    4.46    1.87
   5   0  -7    5.05    1.56
   5   0  -7    4.29    1.52
   5   0  -7    6.33    1.86
   5   0  -7    5.26    0.94
   4   0  -7    1.73    1.05
  -4   0   7    1.53    0.81
  -3   0   7  111.18    2.71
   3   0  -7  107.91    3.28
  -2   0   7  135.09    2.88
   2   0  -7  133.79    3.07
   2   0  -7  137.27    3.39
  -1   0   7   62.81    1.61
   1   0  -7   63.14    1.87
   1   0  -7   61.89    1.94
   0   0  -7    8.05    1.09
   0   0   7    7.15    0.84
   1   0   7   48.42    1.56
   3   0   7  347.38    7.91
   3   0   7  347.45    7.47
   4   0   7    3.48    1.10
   4   0   7    2.97    1.25
   5   0   7   34.48    2.54
   5   0   7   33.11    2.43
   5   0   7   32.67    3.15
   5   0   7   32.49    2.98
   5   0   7   32.67    2.43
   5   0   7   28.58    3.03
   6   0   7    3.23    1.37
   6   0   7    2.50    1.57
   6   0   7    0.36    1.19
   6   0   7    1.47    1.50
   7   1  -7    3.39    1.07
   6  -1  -7   18.32    2.31
   6   1  -7   17.85    2.34
   6   1  -7   18.67    1.43
   6   1  -7   19.63    2.24
   5  -1  -7   39.77    3.32
   5  -1  -7   37.35    2.63
   5   1  -7   39.07    2.43
   5   1  -7   30.49    2.42
   5   1  -7   38.40    3.09
   5   1  -7   34.96    2.78
   4  -1  -7    0.01    1.02
  -4  -1   7    1.73    1.00
   4   1  -7    2.16    0.97
  -4   1   7    1.33    0.67
   4   1  -7    0.76    1.55
   4   1  -7    1.42    0.97
   4   1  -7    1.39    1.53
  -3  -1   7   76.63    2.42
   3  -1  -7   78.79    2.78
   3   1  -7   82.44    2.79
  -2  -1   7  152.24    3.43
   2  -1  -7  147.69    3.64
   2  -1  -7  141.19    3.90
   2   1  -7  147.94    3.58
   2   1  -7  149.01    3.81
   1  -1  -7   27.70    1.52
   1  -1  -7   31.71    1.44
   1  -1  -7   28.56    1.07
  -1  -1   7   29.53    1.27
   1   1  -7   30.52    1.28
   1   1  -7   30.84    1.67
   0  -1  -7   62.51    1.85
   0  -1   7   66.00    1.79
   0   1   7   62.61    1.67
   0   1  -7   65.37    2.25
  -1  -1  -7   76.11    2.37
  -1   1  -7   73.81    2.61
   1   1   7   80.12    2.17
   2  -1   7  333.77    6.74
  -2   1  -7  333.53    7.79
   3  -1   7   39.29    2.15
   3  -1   7   40.80    1.98
   3   1   7   36.89    2.11
   3   1   7   40.68    2.07
   4  -1   7    5.21    2.27
   4  -1   7    5.14    1.39
   4  -1   7    4.04    1.19
   4   1   7    4.59    1.21
   4   1   7    4.22    1.29
   5  -1   7    9.87    2.00
   5  -1   7   15.40    2.81
   5  -1   7    8.85    1.60
   5  -1   7   15.46    2.40
   5  -1   7    8.23    1.68
   5   1   7   10.23    1.76
   5   1   7   10.00    1.78
   5   1   7    7.31    1.81
   5   1   7   10.87    1.69
   6  -1   7   12.66    2.08
   6  -1   7    8.87    1.75
   6  -1   7    8.31    1.51
   6   1   7   12.33    1.80
   6   1   7   10.61    1.65
   6   1   7    8.50    1.68
   6   2  -7    6.65    1.43
   6   2  -7    2.44    1.43
   6   2  -7    2.68    1.03
  -5  -2   7   25.99    2.77
   5   2  -7   25.82    2.15
   5   2  -7   19.02    2.47
   5   2  -7   18.03    2.41
   4   2  -7    3.19    1.87
   4   2  -7    2.42    1.32
   4   2  -7    2.12    1.62
   4   2  -7    3.84    1.29
   3   2  -7    7.66    1.48
   2  -2  -7   72.62    2.86
   2   2  -7   76.78    2.95
  -1  -2   7   17.09    1.58
   1  -2  -7   20.16    1.57
   1   2  -7   18.01    1.63
   0  -2  -7   36.81    1.94
   0  -2  -7   36.60    1.53
   0   2   7   35.02    1.35
   0   2  -7   36.10    2.01
  -1  -2  -7   52.09    2.17
  -1  -2  -7   54.47    2.30
  -1   2  -7   52.78    2.51
   1   2   7   56.26    1.98
  -2  -2  -7   29.16    1.98
   2   2   7   30.01    1.61
  -2   2  -7   32.48    2.28
   3  -2   7   39.93    2.40
   3   2   7   39.54    2.11
  -3   2  -7   40.00    2.74
   4  -2   7   12.43    2.02
  -4  -2  -7   14.75    2.51
   4  -2   7   16.94    2.44
   4  -2   7   14.57    2.61
   4  -2   7   16.32    2.16
   4   2   7   12.86    2.14
   4   2   7   16.76    2.11
   4   2   7   17.40    2.79
   5  -2   7    8.77    2.05
   5  -2   7    9.48    1.90
   5  -2   7    9.61    2.00
   5   2   7    9.32    1.31
   5   2   7   13.97    2.51
   6  -2   7   12.44    1.85
   6   2   7   13.44    1.91
   6   2   7   15.01    2.32
   6   3  -7    5.61    1.03
   6   3  -7    4.60    1.01
   5   3  -7    7.07    1.45
  -4  -3   7   14.97    2.63
   4   3  -7   10.40    2.38
   4   3  -7    8.02    2.17
   3  -3  -7    3.01    1.51
  -3  -3   7    2.98    2.01
   3   3  -7   -0.84    1.99
   3   3  -7    3.53    2.07
   2  -3  -7   19.83    2.16
   2   3  -7   17.13    2.59
   1  -3  -7   13.16    1.52
  -1  -3   7   15.49    1.97
   1   3  -7   15.53    2.11
   1   3  -7   15.58    1.74
   0  -3  -7   16.39    1.31
   0  -3   7   14.19    1.61
   0  -3  -7   14.66    1.78
   0   3  -7   16.00    1.62
   0   3   7   15.57    1.30
   0   3  -7   15.91    2.08
   1  -3   7  109.04    3.26
  -1  -3  -7  107.18    3.76
  -1  -3  -7  115.41    3.56
   1   3   7  106.87    3.93
  -1   3  -7  111.01    4.22
   1   3   7  103.92    3.57
   1   3   7  108.14    3.32
  -2  -3  -7    5.40    1.60
  -2  -3  -7    5.69    1.50
   2  -3   7    5.29    0.84
   2   3   7    5.89    1.33
  -2   3  -7    4.16    1.67
  -3  -3  -7   32.28    3.43
   3  -3   7   19.49    3.08
  -3  -3  -7   25.97    2.82
   3  -3   7   20.24    2.75
  -3   3  -7   27.80    3.01
   3   3   7   27.19    3.02
   4  -3   7   59.57    3.61
  -4  -3  -7   58.14    3.62
   4  -3   7   65.15    3.88
   4   3   7   50.98    3.41
   4   3   7   56.61    4.04
   5  -3   7    8.40    1.74
  -5  -3  -7    7.00    2.06
   5  -3   7    7.24    1.74
   5   3   7    8.71    1.68
   6  -3   7    0.48    1.10
   6   3   7    3.39    1.01
  -5  -4   7    1.52    1.05
   5   4  -7    2.53    1.01
  -4  -4   7   38.06    3.08
  -3  -4   7    1.27    1.66
   3  -4  -7    1.84    1.88
   3   4  -7   -1.41    1.54
  -2  -4   7   12.67    2.06
   2  -4  -7   10.46    2.24
  -2  -4   7   11.83    2.09
  -2  -4   7    9.91    1.65
   2   4  -7   11.99    2.14
  -1  -4   7   10.14    1.64
  -1  -4   7    9.70    1.66
  -1  -4   7   10.34    2.50
   1  -4  -7   10.48    2.38
   1  -4  -7   13.26    2.22
  -1  -4   7   10.08    1.76
   1   4  -7    5.60    1.72
   1   4  -7    8.35    1.62
   0  -4  -7   28.16    3.02
   0  -4   7   25.17    1.46
   0  -4  -7   21.45    2.77
   0  -4   7   29.28    3.35
   0  -4  -7   25.20    1.68
   0  -4  -7   24.68    2.98
   0  -4   7   28.49    2.11
   0  -4   7   28.22    2.23
   0   4  -7   23.13    2.84
   0   4   7   23.77    2.29
   0   4  -7   26.71    2.94
   0   4  -7   20.36    2.20
   1  -4   7   20.17    1.32
  -1  -4  -7   22.91    2.11
  -1  -4  -7   22.89    1.81
  -1  -4  -7   19.98    3.26
  -1  -4  -7   20.54    3.26
   1  -4   7   19.67    1.73
   1  -4   7   19.58    3.10
  -1  -4  -7   22.51    2.41
  -1   4  -7   19.43    2.45
   1   4   7   23.65    2.22
  -2  -4  -7   10.96    1.67
  -2  -4  -7   10.84    1.75
   2  -4   7   13.21    2.48
  -2  -4  -7    9.37    1.99
  -2   4  -7   15.22    2.53
   2   4   7   16.42    2.18
   2   4   7   12.93    2.45
  -3  -4  -7   38.39    2.81
  -3  -4  -7   43.82    2.84
   3  -4   7   41.10    3.12
  -3  -4  -7   47.02    3.53
   3   4   7   44.54    3.45
  -3   4  -7   37.52    3.67
   4  -4   7    8.55    1.82
  -4  -4  -7    7.36    1.71
  -4  -4  -7   11.19    1.49
  -4  -4  -7    5.52    1.60
   4   4   7    7.24    1.81
   4   4   7    7.77    1.74
   5  -4   7   12.85    1.68
  -5  -4  -7   11.61    1.78
  -5  -4  -7    9.72    1.50
   5   4   7   12.22    1.86
   2  -5  -7    4.98    1.56
   2   5  -7    6.70    1.81
   1  -5  -7    1.89    1.54
   1  -5  -7    0.22    1.25
  -1   5   7    2.35    1.36
   0  -5   7   13.30    2.20
   0  -5  -7   16.84    2.94
   0   5   7   18.27    2.66
   0   5   7   12.72    1.62
  -1  -5  -7    1.81    1.48
  -1  -5  -7    0.12    1.90
   1  -5   7    0.82    1.97
   1   5   7   -0.21    1.13
   1   5   7    1.11    1.66
  -2  -5  -7    5.03    1.83
   2  -5   7    6.57    1.84
  -2   5  -7    7.98    1.37
   3  -5   7    3.92    1.40
  -3  -5  -7    2.05    0.69
  -3  -5  -7    2.01    1.42
   3   5   7    3.40    1.37
   7   0  -8   12.47    1.77
   6   0  -8    6.85    1.68
   6   0  -8    3.62    1.67
   5   0  -8   31.44    2.30
   5   0  -8   30.53    2.76
   5   0  -8   31.56    1.70
   5   0  -8   32.53    2.84
   5   0  -8   30.86    2.96
  -4   0   8   11.53    1.33
   4   0  -8   12.44    1.72
   3   0  -8   26.89    1.76
  -3   0   8   29.18    1.31
  -2   0   8   13.00    0.93
   2   0  -8    9.73    0.96
   2   0  -8   13.43    1.17
   1   0  -8   18.04    1.19
  -1   0   8   18.53    1.01
   1   0  -8   18.01    1.24
   0   0   8    0.12    0.50
   0   0  -8    0.28    0.64
   1   0   8    2.04    0.62
  -1   0  -8    3.02    0.84
  -2   0  -8  751.02   15.58
   3   0   8   13.59    1.68
   3   0   8   11.65    1.43
   4   0   8   23.71    2.11
   4   0   8   23.51    2.24
   5   0   8    0.39    1.16
   5   0   8    1.57    1.39
   5   0   8    0.44    1.21
   5   0   8   -0.37    0.79
   5   0   8    0.06    1.55
   5   0   8   -0.20    1.74
   5   0   8   -0.02    1.50
   6   0   8   23.87    2.64
   6   0   8   23.30    2.37
   6   0   8   21.73    2.41
   6  -1  -8    5.10    1.87
   6   1  -8    1.70    1.26
   6   1  -8    6.25    1.60
   6   1  -8    7.15    1.10
   5  -1  -8    4.19    1.48
   5  -1  -8    4.33    1.87
   5   1  -8    5.09    1.34
   5   1  -8    2.02    1.35
   5   1  -8    4.74    1.39
   5   1  -8    4.76    1.60
   5   1  -8    6.04    1.84
  -4  -1   8    1.50    1.00
   4  -1  -8    1.96    1.12
   4   1  -8    1.93    0.93
   4   1  -8    0.47    1.16
   4   1  -8    0.73    1.55
   4   1  -8    3.39    1.89
  -4   1   8    3.31    0.75
   4   1  -8    1.57    1.68
  -3  -1   8   19.61    1.38
   3  -1  -8   21.40    1.58
   3   1  -8   17.21    1.56
   2  -1  -8   89.82    2.98
   2  -1  -8   92.42    2.74
  -2  -1   8   94.09    2.52
   2   1  -8   93.25    2.71
   2   1  -8   90.36    2.82
  -1  -1   8   61.77    1.87
   1  -1  -8   61.53    2.30
   1  -1  -8   62.19    1.76
   1   1  -8   62.66    2.30
  -1   1   8   62.65    1.48
   1   1  -8   64.95    1.96
   0  -1  -8  431.69    8.61
   0  -1   8  469.02    8.54
   0  -1  -8  441.78    9.62
   0   1   8  435.22    8.18
   0   1  -8  453.36    9.69
   0   1  -8  436.78    8.92
  -1  -1  -8   82.29    2.70
  -1  -1  -8   79.84    2.51
  -1   1  -8   78.50    2.78
   1   1   8   81.54    2.30
   2  -1   8  146.89    3.65
   2  -1   8  145.91    4.06
  -2   1  -8  148.34    4.27
   3  -1   8   67.37    2.61
   3  -1   8   68.88    2.93
   3   1   8   69.61    2.62
   3   1   8   63.74    2.76
   4  -1   8   38.84    2.87
   4  -1   8   36.04    3.41
   4  -1   8   36.09    2.94
   4  -1   8   39.06    3.69
   4  -1   8   39.36    2.68
   4  -1   8   41.78    2.52
   4   1   8   41.05    3.60
   4   1   8   36.79    2.57
   4   1   8   41.29    2.61
   4   1   8   38.20    2.61
   5  -1   8   24.62    2.27
   5  -1   8   22.51    2.77
   5  -1   8   22.57    2.84
   5  -1   8   21.09    2.56
   5   1   8   24.00    2.55
   5   1   8   23.76    2.54
   5   1   8   20.25    2.74
   5   1   8   26.00    2.38
   6  -1   8    0.47    1.50
   6  -1   8   -0.06    1.20
   6  -1   8    1.29    1.43
   6   1   8    0.86    1.03
   6   1   8    1.79    1.37
   6   1   8    3.16    1.26
   6   2  -8    4.06    0.93
   6   2  -8    5.05    1.27
   6   2  -8    5.28    1.38
  -5  -2   8   23.29    2.84
   5   2  -8   23.63    1.93
   5   2  -8   23.34    2.61
   5   2  -8   21.59    2.17
   5   2  -8   25.67    2.57
   4   2  -8    7.74    1.97
   4   2  -8    9.50    1.50
   4   2  -8   12.29    1.99
   4   2  -8   19.34    3.23
   4   2  -8   11.93    2.54
   4   2  -8   10.74    1.91
   3   2  -8    8.95    1.72
   3   2  -8    8.91    1.96
   2  -2  -8   28.68    1.89
   2   2  -8   27.48    2.28
  -1  -2   8   18.06    1.57
   1  -2  -8   17.15    1.55
   1   2  -8   14.45    1.60
   0  -2  -8   41.07    1.68
   0  -2  -8   41.60    2.21
   0   2   8   42.14    1.51
   0   2  -8   37.88    2.12
  -1  -2  -8  150.20    4.01
  -1  -2  -8  154.10    4.38
   1   2   8  152.63    3.74
  -1   2  -8  146.25    4.54
  -2  -2  -8   27.74    2.05
   2   2   8   34.79    1.85
  -2   2  -8   33.28    2.36
  -3   2  -8   33.36    2.65
   3   2   8   29.92    2.11
   4  -2   8   17.95    2.56
   4  -2   8   19.74    2.59
   4  -2   8   17.88    2.52
   4   2   8   17.19    2.79
   4   2   8   17.91    2.09
   4   2   8   17.36    2.17
   5  -2   8   20.28    2.55
   5  -2   8   22.04    2.77
   5   2   8   20.51    2.70
   5   2   8   19.68    1.72
   6  -2   8   27.73    2.43
   6   2   8   24.51    1.98
   6   2   8   26.62    2.24
   6   3  -8    1.19    1.04
   6   3  -8    1.92    0.73
  -5  -3   8    2.50    1.51
   5   3  -8    2.55    1.41
   5   3  -8    3.39    1.26
   5   3  -8    3.79    1.69
  -4  -3   8   29.04    3.47
   4   3  -8   25.61    3.02
   4   3  -8   26.78    2.47
   4   3  -8   31.53    2.71
   4   3  -8   22.73    2.80
   3  -3  -8    2.46    1.53
   3  -3  -8    5.80    2.23
  -3  -3   8    8.35    2.21
   3   3  -8    4.85    2.15
   3   3  -8    5.98    1.72
   3   3  -8    3.37    1.81
   2  -3  -8   23.18    2.24
   2  -3  -8   19.33    2.81
   2   3  -8   19.01    3.11
   1  -3  -8   63.79    3.02
  -1  -3   8   67.40    3.02
  -1   3   8   66.50    2.11
   1   3  -8   65.72    2.88
   1   3  -8   62.50    3.07
   0  -3  -8   25.17    1.50
   0  -3   8   25.86    1.95
   0  -3  -8   27.44    2.14
   0   3  -8   24.65    2.27
   0   3   8   23.91    1.52
  -1  -3  -8   76.21    2.87
   1  -3   8   75.17    2.64
  -1  -3  -8   71.64    3.20
  -1   3  -8   78.68    3.57
   1   3   8   72.56    2.98
   1   3   8   63.98    3.07
   1   3   8   70.75    2.75
  -2  -3  -8   17.50    2.48
   2  -3   8   15.49    1.34
  -2  -3  -8   16.50    2.19
   2  -3   8   16.35    2.98
   2   3   8   16.75    1.87
  -2   3  -8   19.46    2.53
   3  -3   8   50.49    3.54
   3  -3   8   56.77    3.84
  -3  -3  -8   58.21    3.59
  -3  -3  -8   59.77    3.61
   3   3   8   57.63    3.78
  -3   3  -8   63.89    3.77
   3   3   8   58.28    4.15
  -4  -3  -8   22.73    2.84
   4  -3   8   21.58    2.96
   4  -3   8   26.55    2.81
   4   3   8   26.26    3.19
   4   3   8   28.11    3.04
  -5  -3  -8    5.69    2.06
   5  -3   8    6.66    1.77
   5  -3   8    2.64    1.39
   5   3   8    4.24    1.09
   5   3   8    3.99    1.52
  -5  -4   8   -0.55    1.24
   5   4  -8   -0.01    0.89
  -4  -4   8    4.97    1.57
   4   4  -8    4.59    1.20
   3  -4  -8   68.01    3.94
  -3  -4   8   71.25    4.50
   3   4  -8   71.77    4.44
  -2  -4   8   14.32    2.19
  -2  -4   8   14.43    2.40
   2  -4  -8   14.30    2.21
   2   4  -8   14.43    2.69
   1  -4  -8   36.90    3.94
  -1  -4   8   35.31    2.53
   1  -4  -8   39.74    3.45
  -1  -4   8   37.09    2.81
  -1  -4   8   33.44    2.48
  -1  -4   8   33.09    3.56
   1   4  -8   38.34    2.53
   1   4  -8   30.67    2.97
   0  -4  -8   17.99    3.13
   0  -4   8   17.55    2.52
   0  -4   8   24.16    2.27
   0  -4   8   19.74    2.18
   0  -4  -8   19.41    2.85
   0  -4   8   20.87    1.42
   0  -4  -8   23.90    3.37
   0   4  -8   18.87    2.19
   0   4  -8   23.52    2.79
   0   4   8   16.17    1.88
   0   4  -8   15.89    3.05
  -1  -4  -8    4.23    2.10
  -1  -4  -8    5.83    1.21
  -1  -4  -8    5.01    1.75
  -1  -4  -8    3.11    1.59
   1  -4   8    3.04    0.91
   1  -4   8    9.40    2.27
   1  -4   8    5.09    1.86
   1   4   8    3.59    1.33
   1   4   8    3.42    2.25
  -1   4  -8    3.84    1.91
  -2  -4  -8    1.11    1.03
   2  -4   8    0.14    1.59
  -2  -4  -8    0.15    1.90
  -2  -4  -8    0.80    1.25
   2   4   8    2.36    1.33
  -2   4  -8   -0.94    2.03
   2   4   8    0.61    1.53
  -3  -4  -8    0.89    1.25
  -3  -4  -8    2.27    1.25
   3  -4   8   -0.67    1.58
  -3  -4  -8   -0.25    1.60
   3   4   8   -0.43    1.60
   4  -4   8    1.72    1.38
  -4  -4  -8    1.32    1.26
  -4  -4  -8    3.04    1.55
  -4  -4  -8    1.33    1.25
   4   4   8    0.89    1.43
   4   4   8    0.98    1.53
  -5  -4  -8   26.34    1.78
   5  -4   8   23.52    1.78
  -5  -4  -8   25.83    1.58
   5   4   8   24.92    1.83
  -3  -5   8   11.39    1.54
   2  -5  -8    2.58    1.67
   1  -5  -8    1.12    1.37
  -1   5   8    1.69    1.01
   0  -5  -8   56.75    3.55
   0  -5  -8   66.15    3.90
   0  -5  -8   61.11    2.46
   0  -5   8   60.85    3.96
   0  -5   8   63.05    3.61
   0   5   8   62.85    3.00
   0   5  -8   64.20    4.13
   0   5   8   56.21    3.49
  -1  -5  -8    4.01    1.92
   1  -5   8    0.84    1.49
  -1  -5  -8    3.41    1.57
  -1   5  -8    3.73    1.71
   1   5   8    2.26    1.07
   1   5   8    5.19    1.72
  -2  -5  -8   15.38    2.22
   2  -5   8   21.09    2.56
   2   5   8   22.20    2.50
  -3  -5  -8    0.88    0.60
  -3  -5  -8    0.07    1.21
   3  -5   8   -0.80    1.13
  -3  -5  -8    0.01    1.06
   3   5   8    2.08    1.22
   6   0  -9    2.70    1.62
   6   0  -9    0.61    1.24
   5   0  -9    0.76    1.92
   5   0  -9   -0.01    0.68
   5   0  -9    2.30    1.37
   5   0  -9    0.30    1.12
   5   0  -9    0.56    1.65
   4   0  -9    3.70    1.92
   4   0  -9    3.92    1.22
  -4   0   9    3.89    0.88
   3   0  -9    9.19    1.33
  -3   0   9    7.16    1.02
  -2   0   9    4.77    0.65
   2   0  -9    5.09    0.79
   2   0  -9    4.80    0.91
  -1   0   9   91.59    2.29
   1   0  -9   91.39    2.58
   1   0  -9   91.06    2.51
   0   0  -9   -0.71    0.77
   0   0  -9    0.06    0.70
   0   0   9    1.32    0.57
  -1   0  -9   97.87    2.99
  -1   0  -9  103.84    3.28
  -2   0  -9   21.04    1.72
   3   0   9   83.87    2.94
   3   0   9   80.22    3.17
   4   0   9    4.31    1.33
   4   0   9    5.05    2.23
   4   0   9    4.53    1.23
   5   0   9    0.68    1.34
   5   0   9    1.18    0.88
   5   0   9   -0.12    1.34
   5   0   9    2.18    1.85
   5   0   9   -0.62    1.53
   5   0   9    2.40    1.52
   5   0   9   -1.17    1.00
   6   0   9    1.02    1.46
   6   0   9    2.15    1.83
   6   0   9   -1.06    1.49
   6  -1  -9    9.35    1.78
   6  -1  -9    7.95    1.42
   6   1  -9   14.33    2.43
   6   1  -9    9.30    1.15
   6   1  -9   12.26    1.91
   5  -1  -9   20.32    2.30
   5  -1  -9   24.10    2.64
   5   1  -9   26.38    2.52
   5   1  -9   20.41    1.82
   5   1  -9   21.10    2.68
   5   1  -9   20.97    2.88
   5   1  -9   19.74    2.42
   4  -1  -9   38.26    2.27
  -4  -1   9   37.23    2.22
   4  -1  -9   41.02    2.92
   4  -1  -9   34.78    3.39
   4   1  -9   33.49    3.42
   4   1  -9   35.00    3.39
   4   1  -9   36.22    1.94
   4   1  -9   38.96    2.45
  -4   1   9   38.99    1.66
   4   1  -9   39.82    3.14
   3  -1  -9   50.12    2.34
  -3  -1   9   48.73    2.01
   3   1  -9   46.26    2.28
  -3   1   9   48.04    1.42
   3   1  -9   51.45    2.33
   3   1  -9   52.52    2.31
  -2  -1   9   16.31    1.21
   2  -1  -9   14.40    1.48
   2  -1  -9   15.27    1.38
   2   1  -9   17.25    1.56
   2   1  -9   17.07    1.40
  -1  -1   9   42.55    1.60
   1  -1  -9   42.57    1.50
   1  -1  -9   41.82    1.97
   1   1  -9   37.03    1.98
   1   1  -9   39.35    2.07
  -1   1   9   39.87    1.28
   0  -1  -9   82.22    2.36
   0  -1  -9   80.29    2.80
   0   1  -9   81.81    2.84
   0   1   9   81.16    2.15
   0   1  -9   86.59    2.77
  -1  -1  -9  155.78    4.24
  -1  -1  -9  155.12    3.99
   1   1   9  156.67    3.64
  -1   1  -9  148.84    4.30
   2  -1   9   19.39    1.34
  -2  -1  -9   21.04    1.69
  -2   1  -9   15.39    1.86
   3  -1   9   13.01    1.56
   3  -1   9   21.78    1.98
   3   1   9   20.20    1.77
   4  -1   9    8.74    2.18
   4  -1   9    3.45    1.56
   4  -1   9    4.98    1.47
   4  -1   9    7.96    1.65
   4  -1   9    6.58    2.38
   4  -1   9    5.04    1.92
   4   1   9    5.63    1.50
   4   1   9    6.57    1.46
   4   1   9    4.74    2.09
   4   1   9    6.58    1.85
   4   1   9    6.09    1.55
   5  -1   9   17.54    2.41
   5  -1   9   14.27    2.38
   5  -1   9   16.76    2.59
   5  -1   9   13.59    2.15
   5   1   9    8.77    2.02
   5   1   9   17.96    2.84
   5   1   9   18.03    2.59
   5   1   9   18.61    2.46
   6  -1   9    0.45    1.36
   6   1   9    0.56    1.39
   6   1   9    1.67    1.38
   6   1   9    1.11    0.93
  -6  -2   9   11.25    1.74
   6   2  -9    9.80    1.31
   6   2  -9   10.94    1.82
   6   2  -9    7.02    1.36
  -5  -2   9   25.40    2.84
   5   2  -9   18.67    2.19
   5   2  -9   21.48    1.82
   5   2  -9   17.24    2.43
   5   2  -9   23.56    2.55
   4   2  -9    6.56    1.53
   4   2  -9    6.14    1.80
   4   2  -9    8.58    1.94
   4   2  -9    5.49    1.74
   4   2  -9    6.14    2.37
   4   2  -9    7.34    1.35
   3   2  -9    3.44    1.42
   3   2  -9    3.71    1.55
   3   2  -9    6.99    2.10
   2  -2  -9   83.68    3.15
   2   2  -9   81.16    3.25
   1  -2  -9   29.23    2.03
   1   2  -9   26.30    1.84
  -1   2   9   26.87    1.11
   0  -2  -9  141.42    3.59
   0  -2  -9  140.57    4.27
   0   2  -9  138.08    4.25
   0   2   9  141.81    3.31
  -1  -2  -9   19.26    1.68
  -1  -2  -9   18.13    1.56
   1   2   9   18.99    1.42
  -1   2  -9   20.86    1.95
  -2  -2  -9  143.39    4.47
   2   2   9  150.94    4.02
  -2   2  -9  152.89    4.88
  -3   2  -9    1.50    1.47
   3   2   9    4.75    1.33
   4  -2   9   13.67    2.27
   4  -2   9   15.71    2.53
   4  -2   9   15.21    2.54
   4   2   9   16.94    2.21
   4   2   9   19.31    3.23
   4   2   9   14.24    2.35
   5  -2   9   10.67    2.06
   5  -2   9    9.40    1.90
   5   2   9    7.47    1.87
   5   2   9    8.36    1.22
   6  -2   9    4.46    1.23
   6   2   9    5.28    1.26
   6   2   9    1.97    1.25
  -6  -3   9    2.04    1.04
   6   3  -9    0.44    0.79
   6   3  -9   -0.46    0.72
  -5  -3   9    1.71    1.48
   5   3  -9    2.80    1.64
   5   3  -9   -0.34    1.08
   5   3  -9   -0.73    1.19
  -4  -3   9   16.85    2.73
   4   3  -9   13.29    2.12
   4   3  -9   10.08    1.99
   4   3  -9   17.36    2.76
   4   3  -9   14.09    2.19
   3  -3  -9   34.34    2.76
  -3  -3   9   34.80    3.21
   3  -3  -9   29.88    3.70
   3   3  -9   29.04    2.93
   3   3  -9   35.38    3.67
   3   3  -9   29.34    3.47
  -2  -3   9   38.76    3.39
   2  -3  -9   37.62    2.66
   2  -3  -9   35.47    3.18
   2  -3  -9   32.84    3.18
   2   3  -9   37.31    3.80
   2   3  -9   36.23    3.55
  -2   3   9   38.23    1.55
   1  -3  -9   13.62    1.94
  -1  -3   9   17.11    2.10
   1   3  -9   14.37    2.48
   1   3  -9   12.50    2.04
  -1   3   9   13.73    1.23
   1   3  -9   11.29    1.63
   0  -3  -9   36.69    1.83
   0  -3  -9   41.56    2.54
   0  -3   9   41.88    2.31
   0   3  -9   34.42    2.56
   0   3   9   37.69    1.86
   1  -3   9  141.07    3.97
  -1  -3  -9  139.49    4.12
  -1  -3  -9  128.51    4.48
   1   3   9  129.67    4.31
   1   3   9  142.45    4.62
   1   3   9  140.95    3.98
  -1   3  -9  139.80    4.96
  -2  -3  -9   13.87    1.98
  -2  -3  -9   13.09    1.84
   2  -3   9   12.41    2.23
   2  -3   9   14.62    2.58
  -2  -3  -9   13.27    2.41
   2  -3   9   10.87    1.36
   2   3   9   10.67    2.00
   2   3   9   12.79    2.13
  -2   3  -9   10.84    2.01
  -3  -3  -9    7.84    1.83
  -3  -3  -9    8.28    1.93
   3  -3   9    6.93    1.83
   3  -3   9    9.65    1.83
   3   3   9    9.76    2.29
  -3   3  -9    7.08    2.17
   3   3   9    4.35    1.81
  -4  -3  -9   25.39    3.04
   4  -3   9   32.17    3.10
  -4  -3  -9   26.78    3.45
   4  -3   9   28.54    2.77
   4   3   9   24.51    3.04
   4   3   9   25.61    2.72
   5  -3   9    1.64    1.36
  -5  -3  -9    1.99    1.72
   5  -3   9    3.20    1.85
   5   3   9    1.20    0.83
   5   3   9    3.41    1.47
  -5  -4   9   -0.05    0.87
   5   4  -9   -0.03    0.87
  -4  -4   9   22.84    2.55
   4   4  -9   28.90    2.74
   4   4  -9   24.71    2.48
   4   4  -9   27.92    1.88
   3  -4  -9   14.40    2.24
  -3  -4   9   14.59    2.25
   3   4  -9   13.47    2.53
   2  -4  -9    0.15    1.49
  -2  -4   9   -0.07    1.91
  -2  -4   9    1.06    1.52
   2   4  -9    2.40    1.62
   1  -4  -9   18.80    2.88
   1  -4  -9   10.73    2.00
  -1  -4   9   14.26    2.52
   1  -4  -9   14.08    1.50
  -1  -4   9   12.15    2.12
  -1  -4   9   12.64    1.96
   1   4  -9   14.81    2.54
   0  -4  -9   25.25    3.00
   0  -4   9   30.54    2.64
   0  -4   9   32.45    2.36
   0  -4   9   29.07    3.34
   0  -4  -9   33.11    3.14
   0  -4  -9   35.12    3.12
   0  -4   9   31.07    1.80
   0  -4  -9   37.21    2.97
   0   4   9   36.38    2.56
   0   4  -9   34.89    3.15
   0   4  -9   41.02    3.28
   0   4  -9   33.20    2.52
  -1  -4  -9   15.51    1.69
  -1  -4  -9   16.55    2.68
  -1  -4  -9   17.76    2.66
  -1  -4  -9   18.00    2.50
   1  -4   9   16.51    2.48
   1  -4   9   20.91    3.36
   1  -4   9   15.05    1.32
   1   4   9   23.29    3.70
   1   4   9   23.60    2.22
  -1   4  -9   22.69    2.82
  -1   4  -9   12.13    2.07
   2  -4   9   30.71    2.86
   2  -4   9   27.32    3.02
  -2  -4  -9   27.66    3.17
  -2  -4  -9   28.40    2.45
  -2  -4  -9   28.89    2.01
   2   4   9   31.95    3.26
  -2   4  -9   32.22    3.40
   2   4   9   32.97    2.44
  -3  -4  -9   15.65    2.00
   3  -4   9   10.49    1.90
  -3  -4  -9   15.67    2.77
   3  -4   9   13.04    2.21
  -3  -4  -9   14.89    2.29
   3   4   9   18.25    2.48
   3   4   9   11.43    2.05
  -4  -4  -9    8.43    1.70
  -4  -4  -9    7.35    1.53
   4  -4   9    7.35    1.63
  -4  -4  -9    7.29    1.39
   4  -4   9    7.92    1.93
   4   4   9    6.29    1.63
   4   4   9    7.41    1.67
  -3  -5   9    9.82    1.48
   3  -5  -9    9.22    1.48
   3   5  -9   10.78    1.73
   2  -5  -9    2.82    1.40
  -2  -5   9    2.67    1.12
   2   5  -9    1.13    1.83
   1  -5  -9   38.85    3.04
  -1  -5   9   41.33    2.03
  -1   5   9   44.38    2.58
   1   5  -9   39.59    2.98
   0  -5  -9   15.46    1.40
   0  -5  -9   14.18    2.41
   0  -5   9   19.88    3.01
   0  -5  -9   10.83    2.37
   0   5   9   10.82    1.59
   0   5  -9   17.87    2.98
   0   5   9   15.69    2.10
   1  -5   9   11.34    1.91
  -1  -5  -9   10.67    2.12
  -1  -5  -9   10.93    1.63
  -1  -5  -9    7.76    1.78
  -1   5  -9    8.09    1.89
   1   5   9   10.13    1.70
   1   5   9    8.36    2.10
  -2  -5  -9    9.52    1.71
  -2  -5  -9    9.70    1.54
   2  -5   9   13.23    2.19
   2   5   9   12.79    2.23
   2   5   9    7.80    1.93
  -2   5  -9   10.56    1.40
  -2   5  -9   10.68    2.18
  -3  -5  -9   14.00    2.09
  -3  -5  -9   16.95    1.71
   3  -5   9   16.13    1.83
   3   5   9   15.87    2.22
   6   0 -10    1.73    1.27
   5   0 -10   41.25    3.14
   5   0 -10   38.69    1.74
   5   0 -10   37.12    3.54
   5   0 -10   40.77    2.85
  -4   0  10   15.73    1.55
   4   0 -10   15.02    2.25
   4   0 -10   14.54    1.68
   4   0 -10   12.11    2.24
  -3   0  10   -0.01    0.63
   3   0 -10   -0.06    0.85
   2   0 -10    0.44    0.72
   2   0 -10    0.84    0.78
  -2   0  10    0.30    0.56
   1   0 -10  561.16   10.74
  -1   0  10  557.28   10.19
   1   0 -10  542.65   11.83
   0   0 -10   27.39    1.59
   0   0 -10   28.84    1.91
   0   0  10   27.57    1.31
  -1   0 -10    3.68    1.00
  -2   0 -10   56.44    2.55
   3   0  10  127.41    4.15
   3   0  10  129.68    4.01
   4   0  10    0.13    1.23
   4   0  10    1.10    1.45
   4   0  10    2.36    1.71
   4   0  10   -0.02    1.90
   4   0  10    0.24    1.06
   4   0  10    0.50    0.95
   5   0  10   36.26    2.91
   5   0  10   33.03    2.81
   5   0  10   36.01    1.70
   5   0  10   36.13    3.29
   5   0  10   38.95    3.51
   6   0  10   -0.60    1.40
   6   0  10    0.11    1.41
  -6  -1  10    9.62    1.74
   6  -1 -10    8.47    1.68
   6   1 -10    7.15    1.58
   6   1 -10    9.12    1.05
   6   1 -10    9.89    1.76
   5  -1 -10    1.74    2.13
   5  -1 -10   -0.13    1.45
   5  -1 -10    1.08    1.52
   5   1 -10   -0.94    1.56
   5   1 -10    3.27    1.79
   5   1 -10    0.93    1.56
   5   1 -10   -0.63    1.05
   5   1 -10   -1.11    1.24
   4  -1 -10   17.32    1.96
  -4  -1  10   13.58    1.84
   4  -1 -10    7.87    2.11
   4   1 -10   16.78    2.66
   4   1 -10    8.70    1.90
   4   1 -10   14.11    1.54
   4   1 -10   15.28    1.99
  -4   1  10   16.07    1.42
   4   1 -10   18.64    2.96
   3  -1 -10  129.88    3.98
  -3  -1  10  143.18    3.68
   3   1 -10  138.30    3.88
  -3   1  10  131.97    2.94
   3   1 -10  134.91    3.97
   3   1 -10  122.08    3.93
  -2  -1  10   65.13    2.13
   2  -1 -10   60.11    2.62
   2  -1 -10   65.33    2.41
   2   1 -10   70.69    2.39
   2   1 -10   67.13    2.56
  -2   1  10   64.88    1.71
   1  -1 -10   12.69    1.12
   1  -1 -10   13.43    1.44
  -1  -1  10   13.52    1.17
   1   1 -10   14.77    1.67
   1   1 -10   11.07    1.56
  -1   1  10   13.45    0.94
   0  -1 -10   24.71    1.42
   0  -1 -10   26.28    1.81
   0   1 -10   25.17    1.92
   0   1  10   24.61    1.29
  -1  -1 -10   38.27    2.03
  -1  -1 -10   38.58    2.17
  -1   1 -10   40.69    2.14
   1   1  10   39.36    1.71
  -2  -1 -10   34.74    2.11
  -2   1 -10   29.23    2.08
   3  -1  10    4.81    1.24
   3   1  10    5.14    1.24
   4  -1  10    7.05    1.74
   4  -1  10   10.12    2.14
   4  -1  10    8.71    2.17
   4  -1  10    7.55    1.96
   4  -1  10    6.06    1.99
   4  -1  10    6.02    1.43
   4  -1  10    6.85    1.12
   4   1  10    7.02    1.67
   4   1  10    8.16    1.62
   4   1  10    5.65    1.85
   4   1  10    9.05    2.17
   5  -1  10   19.43    3.03
   5  -1  10   18.74    3.00
   5  -1  10   16.75    2.74
   5  -1  10   17.83    2.42
   5   1  10   15.19    2.66
   5   1  10   20.22    2.66
   6  -1  10    1.10    1.36
   6   1  10    0.74    1.34
  -6  -2  10    0.02    1.29
   6   2 -10    0.18    1.39
   6   2 -10   -0.98    0.77
   6   2 -10    0.30    1.08
  -5  -2  10   13.73    2.50
   5   2 -10   16.77    2.36
   5   2 -10   14.30    1.95
   5   2 -10   11.00    2.06
   5   2 -10   16.71    1.65
   4   2 -10   27.37    1.91
   4   2 -10   26.81    2.99
   4   2 -10   25.20    3.28
   4   2 -10   29.24    2.41
   4   2 -10   30.02    3.80
   4   2 -10   33.81    3.36
   3   2 -10    2.48    1.45
   3   2 -10    1.75    1.24
   3   2 -10    4.93    2.07
   2  -2 -10   68.59    2.96
   2   2 -10   70.33    3.26
  -2   2  10   72.21    1.81
   1  -2 -10    2.46    1.02
  -1   2  10    1.18    0.56
   1   2 -10    1.18    1.09
   0  -2 -10    1.32    0.98
   0  -2 -10    0.97    0.80
   0   2 -10    1.09    0.97
   0   2  10    1.99    0.67
  -1  -2 -10   39.61    2.32
  -1  -2 -10   36.52    2.01
  -1   2 -10   36.43    2.31
   1   2  10   38.67    1.91
  -2  -2 -10   26.00    2.27
  -2   2 -10   31.35    2.44
   2   2  10   27.16    1.99
   2   2  10   28.65    1.93
   3  -2  10    2.35    1.55
   3   2  10    3.91    1.21
   3   2  10    1.39    1.58
  -3   2 -10    4.22    1.67
   4  -2  10   53.88    3.87
   4  -2  10   49.79    3.53
   4   2  10   52.68    3.69
   4   2  10   52.44    3.42
   4   2  10   52.14    3.03
   4   2  10   50.74    4.03
   5  -2  10    8.41    2.30
   5  -2  10    9.12    1.75
   5   2  10    8.64    1.93
   5   2  10   10.03    1.52
   6  -2  10    3.87    1.14
   6   2  10    5.85    1.53
   6   2  10    4.64    1.17
  -5  -3  10    4.97    1.56
   5   3 -10    4.88    1.24
   5   3 -10    5.41    1.50
   5   3 -10    2.57    1.26
   5   3 -10    4.19    1.63
  -4  -3  10    8.00    1.95
   4   3 -10    3.12    1.70
   4   3 -10    7.27    1.81
   4   3 -10    5.48    1.87
   4   3 -10    7.81    1.70
   3  -3 -10   61.17    3.46
   3  -3 -10   61.75    3.89
  -3  -3  10   62.08    4.34
   3   3 -10   61.73    4.28
   3   3 -10   57.07    3.40
   3   3 -10   58.62    4.33
   2  -3 -10   32.42    2.61
  -2  -3  10   28.25    3.24
   2  -3 -10   31.38    3.20
   2  -3 -10   30.17    3.12
   2   3 -10   28.25    3.65
  -2   3  10   31.40    1.51
   2   3 -10   33.52    3.52
   1  -3 -10    2.83    1.31
   1   3 -10    4.51    1.52
   1   3 -10    4.57    2.09
  -1   3  10    3.66    0.85
   1   3 -10    5.19    1.37
   0  -3  10   16.11    1.98
   0  -3 -10   14.87    1.98
   0  -3 -10   13.68    1.49
   0   3 -10   18.07    2.20
   0   3 -10   13.12    1.79
   0   3  10   16.43    1.50
   1  -3  10   20.85    1.84
  -1  -3 -10   17.42    1.85
  -1  -3 -10   16.77    2.07
   1   3  10   13.74    1.80
  -1   3 -10   16.55    2.29
   1   3  10   17.19    1.97
  -2  -3 -10   30.24    2.52
  -2  -3 -10   26.13    3.39
  -2  -3 -10   29.60    2.85
   2  -3  10   30.73    1.75
   2  -3  10   29.16    1.83
   2  -3  10   27.90    2.98
   2  -3  10   28.33    2.67
   2   3  10   26.15    2.22
  -2   3 -10   29.32    2.84
   2   3  10   31.02    3.64
   3  -3  10   45.47    3.89
  -3  -3 -10   41.65    3.32
   3  -3  10   43.03    3.24
  -3  -3 -10   43.96    3.77
   3   3  10   50.23    3.81
   3   3  10   47.73    3.40
  -3   3 -10   49.90    3.62
   4  -3  10   18.00    2.49
  -4  -3 -10   16.53    2.25
  -4  -3 -10   24.49    3.72
   4  -3  10   20.30    3.23
   4   3  10   22.14    2.90
   4   3  10   17.23    2.53
   5  -3  10    6.14    1.62
   5  -3  10    1.44    1.30
  -5  -3 -10    3.99    2.13
   5   3  10    6.62    1.86
   5   3  10    5.02    0.88
  -4  -4  10    9.38    1.68
   4   4 -10   13.38    2.05
   4   4 -10   14.28    2.25
   3  -4 -10    2.56    1.75
   3   4 -10    3.21    1.65
   3   4 -10    4.45    1.95
   2  -4 -10    6.50    1.75
  -2  -4  10    6.62    1.81
  -2  -4  10    5.27    1.41
   2   4 -10    6.18    1.85
  -1  -4  10    4.94    1.69
  -1  -4  10    5.65    1.77
   1  -4 -10    5.01    1.02
  -1  -4  10    3.99    1.35
   1  -4 -10    6.12    1.79
   1  -4 -10    4.55    2.25
   1   4 -10    4.85    1.67
   1   4 -10    2.94    1.29
   0  -4  10    7.90    1.18
   0  -4  10   11.49    1.82
   0  -4 -10   11.11    2.08
   0  -4 -10   11.91    2.06
   0  -4  10    9.12    1.89
   0  -4  10    9.12    2.33
   0  -4 -10    9.88    2.08
   0   4 -10   10.34    1.81
   0   4 -10    8.48    1.95
   0   4 -10    8.49    1.94
   0   4  10    9.25    1.60
   1  -4  10    4.06    1.71
   1  -4  10    3.29    0.95
  -1  -4 -10    4.56    1.04
  -1  -4 -10    3.30    1.70
  -1  -4 -10    5.50    1.82
   1  -4  10    4.92    1.72
  -1  -4 -10    4.45    2.02
   1  -4  10    4.56    1.84
   1   4  10    5.80    1.52
  -1   4 -10    6.04    1.77
  -1   4 -10    3.86    1.22
   1   4  10    5.33    1.94
  -2  -4 -10   27.07    2.30
  -2  -4 -10   25.49    1.77
   2  -4  10   23.62    2.82
  -2  -4 -10   25.46    3.53
   2  -4  10   25.59    3.47
   2   4  10   21.39    2.92
  -2   4 -10   32.27    3.46
   2   4  10   29.77    2.31
  -3  -4 -10   20.32    2.07
   3  -4  10   20.11    2.68
   3  -4  10   15.91    2.62
  -3  -4 -10   14.72    1.75
  -3  -4 -10   17.00    2.30
   3   4  10   18.47    2.74
   3   4  10   14.90    2.48
  -4  -4 -10    8.85    1.27
  -4  -4 -10   14.65    2.03
  -4  -4 -10   10.19    1.72
   4  -4  10    8.10    1.62
   4  -4  10   10.99    1.75
   4   4  10    8.48    1.71
   4   4  10   10.40    1.70
   3  -5 -10    2.77    1.47
  -3  -5  10    2.46    0.86
   3   5 -10    5.83    1.15
  -2  -5  10    3.87    1.20
   2  -5 -10    4.92    1.52
   2   5 -10    3.56    1.82
  -1  -5  10   10.96    2.14
  -1  -5  10    7.60    1.21
   1  -5 -10   10.97    1.86
  -1   5  10   10.38    1.81
   1   5 -10    6.76    1.77
   0  -5  10   14.12    2.28
   0  -5 -10    7.70    1.81
   0  -5  10   13.07    2.24
   0  -5 -10   12.22    2.00
   0  -5 -10   10.24    1.17
   0   5 -10    8.18    1.35
   0   5  10    9.74    1.61
   0   5 -10   13.79    2.45
  -1  -5 -10   25.29    2.66
  -1  -5 -10   27.64    1.97
   1  -5  10   29.75    2.46
  -1  -5 -10   27.54    2.94
   1  -5  10   31.53    2.87
  -1   5 -10   29.83    1.91
   1   5  10   27.10    2.99
   1   5  10   29.43    2.09
  -1   5 -10   29.08    3.34
   2  -5  10   19.41    2.63
  -2  -5 -10   19.15    1.94
  -2  -5 -10   13.50    2.02
   2   5  10   12.90    2.01
  -2   5 -10   16.74    2.60
   2   5  10   13.41    2.16
  -3  -5 -10    1.40    1.05
   3  -5  10    2.58    1.20
  -3  -5 -10    4.50    1.09
   3   5  10    5.17    1.43
   6   0 -11   19.05    2.21
   5   0 -11    0.47    1.52
   5   0 -11    0.13    0.74
   5   0 -11   -2.34    1.18
   5   0 -11   -0.06    1.49
   4   0 -11   10.41    1.91
   4   0 -11   10.55    1.66
  -4   0  11   11.96    1.44
   4   0 -11    9.70    1.76
   3   0 -11   16.55    1.04
   3   0 -11   16.49    1.68
  -3   0  11   17.38    1.36
  -2   0  11   11.86    1.08
   2   0 -11   11.44    1.27
   2   0 -11   12.53    1.34
  -1   0  11   -0.12    0.58
   1   0 -11   -0.10    0.89
   1   0 -11    0.20    0.80
   0   0 -11   39.96    2.14
   0   0 -11   43.55    1.98
   0   0  11   41.84    1.60
  -1   0 -11   44.84    2.25
  -2   0 -11   57.40    2.67
   3   0  11   81.17    3.16
   4   0  11    9.46    1.72
   4   0  11   10.71    1.86
   4   0  11   10.76    1.32
   4   0  11   10.33    1.75
   4   0  11   12.61    2.42
   4   0  11   10.79    2.24
   5   0  11   19.26    2.87
   5   0  11   22.31    2.69
   5   0  11   18.69    2.40
   5   0  11   22.97    2.98
   5   0  11   19.29    1.39
   6   0  11    6.57    1.69
  -6  -1  11    8.18    1.95
   6  -1 -11    8.35    1.88
   6   1 -11    8.09    1.58
   6   1 -11    5.73    1.33
   6   1 -11    7.26    0.82
   5  -1 -11   29.87    3.15
   5  -1 -11   28.47    3.06
   5   1 -11   34.36    3.09
   5   1 -11   27.67    3.12
   5   1 -11   30.92    2.19
   5   1 -11   35.05    2.92
  -4  -1  11    2.95    1.21
   4  -1 -11    2.70    1.86
   4  -1 -11    4.58    1.42
   4   1 -11    3.11    1.91
   4   1 -11    4.12    1.02
  -4   1  11    4.09    0.87
   4   1 -11    1.86    2.08
   4   1 -11    3.18    1.50
   4   1 -11    3.14    1.20
   4   1 -11    6.87    1.78
   3  -1 -11    1.65    1.02
  -3  -1  11    1.74    0.88
   3   1 -11   -0.22    0.98
   3   1 -11    1.06    0.96
   3   1 -11    4.21    1.09
  -3   1  11    1.95    0.58
   2  -1 -11   80.14    3.12
  -2  -1  11   84.43    2.60
   2  -1 -11   81.86    2.84
   2   1 -11   83.22    2.96
   2   1 -11   82.44    2.76
  -2   1  11   84.06    2.15
   1  -1 -11   62.83    2.59
   1  -1 -11   60.79    2.01
  -1  -1  11   63.95    2.16
   1   1 -11   57.79    2.63
   1   1 -11   61.00    2.49
  -1   1  11   62.21    1.87
   0  -1 -11  203.55    4.73
   0  -1 -11  201.28    5.46
   0   1  11  210.50    4.49
   0   1 -11  205.23    5.49
  -1  -1 -11   11.08    1.54
  -1  -1 -11   10.34    1.69
  -1   1 -11    9.74    1.59
   1   1  11    8.49    1.07
  -2  -1 -11  104.23    3.71
  -2   1 -11  112.55    3.89
   3  -1  11   95.95    3.36
   3   1  11   91.47    3.44
   4  -1  11    6.53    1.97
   4  -1  11    9.92    1.99
   4  -1  11   10.64    1.89
   4  -1  11   11.14    1.94
   4  -1  11    8.60    1.19
   4  -1  11    9.56    2.12
   4   1  11    9.36    1.98
   4   1  11   10.59    1.70
   4   1  11    7.81    1.77
   4   1  11    5.64    1.77
   5  -1  11    0.39    1.37
   5  -1  11    4.97    1.92
   5  -1  11   -0.05    1.54
   5  -1  11    3.99    1.71
   5   1  11    3.53    1.74
   5   1  11    2.98    1.76
   6  -1  11    4.89    1.76
   6   1  11    4.91    1.50
  -6  -2  11    2.93    1.34
   6   2 -11    1.90    1.21
   6   2 -11    2.32    0.94
   6   2 -11    1.90    1.07
  -5  -2  11   -0.64    1.31
   5   2 -11    4.10    1.46
   5   2 -11    1.90    1.19
   5   2 -11    2.54    1.87
   4  -2 -11    2.84    1.80
   4   2 -11    0.07    1.46
   4   2 -11    1.47    1.98
   4   2 -11    0.03    1.98
   4   2 -11    1.03    2.02
   4   2 -11    0.57    1.07
   4   2 -11    1.94    1.09
   3  -2 -11   29.61    3.30
   3   2 -11   37.90    2.73
   3   2 -11   32.59    2.54
   3   2 -11   34.77    3.77
   3   2 -11   31.17    3.40
   3   2 -11   38.99    3.33
   2  -2 -11   -1.18    1.02
   2   2 -11   -0.03    1.17
  -2   2  11   -0.41    0.55
   1  -2 -11    9.02    1.43
   1  -2 -11    7.90    1.00
   1   2 -11   10.21    1.76
  -1   2  11    9.63    1.06
   0  -2 -11   55.52    2.85
   0  -2 -11   56.22    2.24
   0   2  11   60.70    2.08
   0   2 -11   54.02    2.72
  -1  -2 -11  113.69    3.66
  -1  -2 -11  116.37    3.92
  -1   2 -11  112.82    4.12
   1   2  11  113.12    3.38
  -2  -2 -11   39.50    2.63
  -2   2 -11   44.78    2.82
   2   2  11   35.88    2.20
   2   2  11   36.51    2.11
   3  -2  11   31.25    3.40
   3  -2  11   31.59    3.22
  -3   2 -11   31.21    2.90
   3   2  11   29.17    3.21
   3   2  11   32.20    2.19
   3   2  11   27.80    3.28
   4  -2  11   51.40    3.64
   4  -2  11   48.72    3.62
   4   2  11   47.68    3.32
   4   2  11   49.76    3.03
   4   2  11   46.75    3.59
   4   2  11   52.41    3.90
   5  -2  11   -1.01    1.34
   5  -2  11    1.92    1.61
   5   2  11    2.84    1.57
   5   2  11    1.89    0.97
   6  -2  11    0.73    1.07
   6   2  11    2.60    1.25
  -5  -3  11    0.55    1.34
   5   3 -11    2.40    1.22
   5   3 -11   -1.23    1.06
   5   3 -11    0.32    1.20
   5   3 -11    1.56    1.20
  -4  -3  11   32.10    3.13
   4   3 -11   28.46    3.11
   4   3 -11   34.92    3.07
   4   3 -11   31.58    2.48
   4   3 -11   30.32    2.40
   3  -3 -11   36.94    3.73
  -3  -3  11   35.00    3.37
   3  -3 -11   45.83    3.87
  -3  -3  11   35.54    3.44
   3   3 -11   33.24    3.83
   3   3 -11   39.95    3.34
   3   3 -11   40.94    3.37
   2  -3 -11   32.21    3.09
   2  -3 -11   24.11    2.82
  -2  -3  11   29.18    2.93
   2  -3 -11   35.09    2.73
  -2   3  11   36.28    1.67
   2   3 -11   38.04    3.83
   2   3 -11   33.55    3.18
   1  -3 -11   26.17    3.22
   1  -3 -11   23.05    3.33
  -1  -3  11   30.88    3.24
   1  -3 -11   24.90    2.36
   1   3 -11   25.36    2.53
   1   3 -11   24.39    2.09
   1   3 -11   21.77    2.80
  -1   3  11   24.30    1.65
   0  -3 -11    9.09    1.70
   0  -3  11    8.48    1.58
   0  -3 -11    8.98    1.39
   0   3 -11    9.90    1.66
   0   3 -11    7.60    1.76
   0   3  11    9.12    1.25
  -1  -3 -11    7.30    1.36
  -1  -3 -11   10.67    2.29
   1  -3  11    5.58    1.32
  -1  -3 -11    6.67    1.61
   1   3  11    8.25    1.31
  -1   3 -11    8.58    1.71
   1   3  11    9.44    1.57
  -2  -3 -11    2.75    1.49
  -2  -3 -11    0.93    1.30
  -2  -3 -11    2.45    1.71
   2  -3  11   -0.05    1.03
   2  -3  11    1.51    1.05
  -2  -3 -11    2.85    1.68
   2  -3  11    2.80    1.92
   2  -3  11    1.99    2.02
  -2   3 -11    1.64    1.69
   2   3  11    1.59    1.32
   2   3  11    1.59    2.11
  -3  -3 -11   32.63    3.23
   3  -3  11   31.06    3.23
  -3  -3 -11   36.38    3.36
   3  -3  11   30.14    3.16
   3   3  11   35.33    3.01
   3   3  11   32.17    3.08
  -3   3 -11   31.23    2.96
  -4  -3 -11    0.40    1.96
  -4  -3 -11    2.19    1.68
   4  -3  11    3.29    1.55
   4  -3  11    0.80    1.59
   4   3  11   -2.23    1.48
   4   3  11    0.56    1.44
  -5  -3 -11   18.82    2.42
   5  -3  11   13.36    1.86
   5  -3  11   11.72    2.10
   5   3  11   15.48    2.06
   5   3  11   10.36    1.26
  -4  -4  11    5.14    1.73
  -4  -4  11    7.71    1.57
   4   4 -11    8.92    1.71
   4   4 -11    6.49    1.23
   4   4 -11    6.81    1.87
   3  -4 -11   10.53    2.40
  -3  -4  11    7.98    1.73
   3   4 -11   14.74    2.50
   3   4 -11   10.57    1.84
   2  -4 -11   10.52    2.03
  -2  -4  11   10.90    1.97
  -2  -4  11   10.83    1.69
  -2  -4  11    9.41    1.90
   2  -4 -11    7.77    1.91
   2   4 -11   15.47    2.77
   1  -4 -11   54.13    3.68
   1  -4 -11   59.63    3.74
   1  -4 -11   56.13    2.27
  -1  -4  11   53.10    2.93
  -1  -4  11   52.57    2.99
  -1  -4  11   49.62    3.62
   1   4 -11   63.53    4.14
   1   4 -11   56.73    4.27
   0  -4  11   18.72    1.60
   0  -4 -11   17.66    1.93
   0  -4 -11   18.22    2.31
   0  -4 -11   16.80    2.67
   0  -4  11   16.78    2.02
   0  -4 -11   17.14    2.73
   0  -4  11   18.37    2.53
   0   4  11   16.39    2.06
   0   4 -11   19.43    2.00
   0   4 -11   17.82    2.63
   0   4 -11   16.66    2.89
  -1  -4 -11   31.92    3.55
  -1  -4 -11   32.57    3.07
  -1  -4 -11   29.37    2.94
   1  -4  11   29.46    2.99
   1  -4  11   28.07    1.73
  -1  -4 -11   26.11    1.81
   1  -4  11   28.58    2.76
   1  -4  11   31.30    2.95
  -1   4 -11   29.69    2.43
   1   4  11   25.29    2.29
  -1   4 -11   29.84    3.16
   1   4  11   35.03    3.71
   2  -4  11   20.15    2.69
  -2  -4 -11   21.05    2.07
   2  -4  11   21.03    2.94
  -2  -4 -11   16.92    2.97
  -2  -4 -11   18.66    1.40
   2   4  11   22.40    3.36
   2   4  11   22.00    2.05
  -2   4 -11   20.61    2.83
  -3  -4 -11    9.21    1.57
   3  -4  11   14.77    2.44
  -3  -4 -11   11.68    2.02
  -3  -4 -11   10.28    1.56
   3  -4  11   13.31    2.33
   3   4  11    8.80    1.87
   3   4  11    9.31    2.13
  -4  -4 -11   10.73    1.45
   4  -4  11   18.27    2.42
  -4  -4 -11   16.05    2.16
   4  -4  11   15.59    2.08
  -4  -4 -11   17.22    1.74
   4   4  11   14.92    2.50
   4   4  11   17.95    2.05
  -3  -5  11   12.78    1.35
   3   5 -11   12.43    1.71
  -2  -5  11    0.32    0.98
  -2  -5  11    2.50    1.66
   2  -5 -11    0.93    1.28
   2   5 -11   -1.10    1.61
  -1  -5  11    5.54    1.03
   1  -5 -11    6.83    1.72
  -1  -5  11    5.96    1.60
   1   5 -11    7.04    1.77
  -1   5  11    4.90    1.35
   0  -5 -11    6.07    1.73
   0  -5  11    5.66    1.52
   0  -5 -11    5.26    0.84
   0  -5 -11    3.88    1.61
   0   5 -11    3.37    1.66
   0   5 -11    4.24    1.23
   0   5  11    6.14    1.44
  -1  -5 -11    2.26    1.53
   1  -5  11    1.10    1.35
  -1  -5 -11    2.00    1.08
   1  -5  11    4.97    1.74
   1   5  11    2.65    0.99
  -1   5 -11    1.22    1.90
  -1   5 -11    1.39    1.14
  -2  -5 -11    2.81    1.11
  -2  -5 -11    3.13    1.57
   2  -5  11    5.20    1.30
   2   5  11    3.43    1.57
  -2   5 -11    3.58    1.71
   2   5  11    1.97    1.56
  -2   5 -11    1.60    0.85
   3  -5  11    2.68    1.01
  -3  -5 -11    5.82    1.14
  -3  -5 -11    4.15    1.17
   6   0 -12    2.10    1.61
   6   0 -12    2.07    1.29
   5   0 -12   23.04    2.57
   5   0 -12   21.69    3.09
   5   0 -12   21.86    1.34
   5   0 -12   19.05    2.19
   4   0 -12   24.47    2.99
   4   0 -12   25.09    1.95
  -4   0  12   25.63    1.78
   4   0 -12   24.43    2.08
   4   0 -12   26.23    3.05
   3   0 -12    0.92    0.58
   3   0 -12    2.85    1.12
  -3   0  12    1.07    0.78
   2   0 -12    1.12    0.90
  -2   0  12   -0.19    0.53
   2   0 -12    0.83    0.80
   1   0 -12   52.89    2.15
   1   0 -12   52.67    2.48
  -1   0  12   51.50    1.82
   0   0  12  325.72    6.55
   0   0 -12  322.69    7.11
   0   0 -12  327.38    7.82
  -1   0 -12   20.21    1.84
  -1   0 -12   21.79    1.84
  -2   0 -12   -0.37    1.04
   3   0  12    2.00    1.07
   4   0  12    1.25    1.43
   4   0  12    4.02    1.59
   4   0  12    2.55    1.63
   4   0  12    0.69    1.01
   4   0  12    2.54    1.44
   5   0  12    1.73    1.65
   5   0  12    2.19    1.63
   5   0  12    2.80    1.00
   6   0  12   20.55    2.40
  -6  -1  12   12.53    1.82
   6   1 -12   12.45    2.16
   5  -1 -12    7.95    2.19
   5  -1 -12   11.29    2.30
   5   1 -12    9.99    2.02
   5   1 -12    8.02    1.80
   5   1 -12   12.69    2.25
   5   1 -12    9.84    1.49
   4  -1 -12   55.19    3.68
  -4  -1  12   60.90    2.85
   4  -1 -12   56.15    3.04
   4   1 -12   59.23    3.11
   4   1 -12   67.60    3.96
   4   1 -12   70.24    3.35
   4   1 -12   60.92    2.36
  -4   1  12   61.93    2.29
   4   1 -12   61.79    4.05
   4   1 -12   51.57    3.69
  -3  -1  12   56.73    2.41
   3  -1 -12   55.03    2.67
  -3   1  12   56.76    1.87
   3   1 -12   54.13    2.61
   3   1 -12   58.91    2.65
   3   1 -12   50.73    2.44
   2  -1 -12   22.12    1.93
  -2  -1  12   22.95    1.55
  -2   1  12   25.17    1.24
   2   1 -12   23.10    1.70
   2   1 -12   26.65    1.97
  -1  -1  12  128.41    3.52
   1  -1 -12  143.33    3.55
   1  -1 -12  150.66    4.40
  -1   1  12  140.37    3.37
   1   1 -12  143.04    4.38
   1   1 -12  143.76    4.16
   0  -1 -12    5.69    0.96
   0  -1 -12    3.80    1.14
   0   1 -12    4.20    1.13
   0   1  12    5.53    0.84
  -1  -1 -12   12.36    1.68
  -1  -1 -12   13.60    1.69
   1   1  12   15.17    1.37
  -1   1 -12   14.50    1.98
  -2  -1 -12   32.34    2.37
  -2   1 -12   33.80    2.42
   3  -1  12   38.28    2.33
   3   1  12   41.03    2.49
   4  -1  12   12.84    2.05
   4  -1  12   15.84    2.29
   4  -1  12   10.06    1.89
   4  -1  12   17.33    3.09
   4  -1  12   13.75    2.43
   4  -1  12   13.62    1.42
   4   1  12   18.38    2.61
   4   1  12   14.97    2.27
   4   1  12   13.60    2.12
   4   1  12   14.90    2.24
   5  -1  12    6.36    1.74
   5  -1  12    8.22    1.96
   5   1  12    8.70    1.92
   5   1  12    5.44    1.73
   6  -1  12    6.29    1.41
   6   1  12    8.25    1.57
  -6  -2  12    9.88    1.56
   6   2 -12   12.50    1.95
   6   2 -12   10.70    0.98
   6   2 -12   11.98    1.70
  -5  -2  12   24.62    2.73
   5   2 -12   26.43    2.17
   5   2 -12   21.85    2.58
   5   2 -12   28.06    2.61
   4  -2 -12   39.41    3.48
   4   2 -12   45.08    3.25
   4   2 -12   47.37    3.53
   4   2 -12   48.41    3.54
   4   2 -12   43.69    2.10
   4   2 -12   44.10    2.65
   4   2 -12   42.26    3.70
   3  -2 -12   27.30    2.87
  -3  -2  12   26.64    3.27
   3  -2 -12   26.86    3.38
  -3   2  12   27.04    1.40
   3   2 -12   26.60    2.32
   3   2 -12   28.71    2.44
   3   2 -12   21.89    2.85
   3   2 -12   26.74    3.12
   3   2 -12   29.07    3.66
   3   2 -12   30.13    2.68
   2  -2 -12   85.59    3.54
  -2   2  12   83.08    2.38
   2   2 -12   88.93    3.61
   1  -2 -12   33.57    2.31
   1  -2 -12   32.32    1.45
  -1   2  12   31.11    1.49
   1   2 -12   32.95    2.41
   0  -2 -12   35.29    1.82
   0  -2 -12   35.13    2.39
   0   2  12   33.66    1.71
   0   2 -12   35.63    2.36
  -1  -2 -12    0.05    0.92
  -1  -2 -12    1.23    1.18
   1   2  12    1.17    0.90
  -1   2 -12   -0.09    1.08
   2   2  12    3.90    1.28
  -2   2 -12    5.99    1.62
   3  -2  12    3.22    1.68
   3  -2  12    2.81    1.62
   3  -2  12    3.38    1.10
  -3   2 -12    5.63    2.13
   3   2  12    1.94    1.60
   3   2  12    1.81    1.26
   3   2  12    5.66    1.88
   4  -2  12   42.21    3.43
   4  -2  12   49.76    3.24
   4   2  12   50.23    3.99
   4   2  12   51.51    3.11
   4   2  12   50.67    3.25
   4   2  12   49.20    3.75
   5  -2  12   27.14    2.55
   5  -2  12   23.77    2.74
   5   2  12   20.52    1.66
   5   2  12   30.09    3.10
   6  -2  12    1.67    1.03
   6   2  12    1.20    1.34
  -5  -3  12    7.70    1.58
   5   3 -12    6.54    1.41
   5   3 -12    6.70    1.32
   5   3 -12    8.10    1.73
  -4  -3  12   14.40    2.62
   4   3 -12   16.27    2.05
   4   3 -12   17.70    2.46
   4   3 -12   15.57    2.53
   4   3 -12   15.24    2.69
  -3  -3  12   14.57    2.29
  -3  -3  12   21.68    3.19
   3  -3 -12   20.69    3.04
   3  -3 -12   20.62    2.93
   3   3 -12   18.74    3.04
   3   3 -12   16.77    2.78
   3   3 -12   17.51    2.39
   3   3 -12   17.53    2.95
   2  -3 -12    7.23    2.12
   2  -3 -12    5.19    1.76
   2  -3 -12    4.28    1.71
  -2  -3  12    4.18    1.60
   2   3 -12    8.95    2.54
  -2   3  12    4.54    1.02
   2   3 -12    4.79    1.75
   1  -3 -12   18.44    2.73
   1  -3 -12   22.12    3.34
  -1  -3  12   24.69    3.20
   1  -3 -12   21.36    2.15
   1   3 -12   24.65    2.78
  -1   3  12   22.49    1.77
   1   3 -12   25.88    2.52
   0  -3  12    2.03    1.77
   0  -3  12    1.63    1.38
   0  -3 -12    1.37    1.62
   0  -3 -12    2.76    1.42
   0  -3 -12    1.10    1.60
   0  -3 -12    2.36    0.96
   0   3 -12    3.29    1.59
   0   3  12    1.01    0.98
   0   3 -12    2.64    1.13
  -1  -3 -12   75.10    2.80
   1  -3  12   72.48    4.25
   1  -3  12   71.45    3.07
  -1  -3 -12   79.93    3.24
   1  -3  12   79.34    3.17
   1  -3  12   79.75    4.64
  -1  -3 -12   75.09    4.32
  -1  -3 -12   82.94    3.59
   1   3  12   64.89    3.28
  -1   3 -12   67.48    3.56
   1   3  12   69.87    3.16
  -2  -3 -12   33.22    2.82
  -2  -3 -12   35.87    3.20
   2  -3  12   39.34    2.24
  -2  -3 -12   36.80    3.06
   2  -3  12   40.22    3.65
   2  -3  12   39.61    2.11
  -2  -3 -12   40.67    2.90
   2  -3  12   30.38    2.74
  -2   3 -12   43.15    3.38
   2   3  12   31.61    3.82
   2   3  12   37.08    2.41
   3  -3  12    6.18    1.88
   3  -3  12    6.55    1.77
  -3  -3 -12    4.13    2.17
  -3  -3 -12    5.54    1.95
   3   3  12    8.73    2.19
  -3   3 -12    5.57    2.16
   3   3  12    1.77    2.03
   4  -3  12   14.77    2.23
  -4  -3 -12   19.35    2.81
   4  -3  12   21.91    2.38
  -4  -3 -12   18.40    2.47
   4   3  12   17.32    2.93
   4   3  12   16.58    2.44
   4   3  12   25.10    2.86
   5  -3  12   26.57    2.47
   5  -3  12   25.48    2.38
  -5  -3 -12   27.98    2.43
   5   3  12   30.03    2.33
   5   3  12   25.49    1.55
  -4  -4  12    7.12    1.52
  -4  -4  12    7.74    1.69
   4   4 -12    8.99    1.68
  -3  -4  12   34.03    3.03
   3  -4 -12   26.25    2.85
  -3  -4  12   29.18    2.67
   3   4 -12   27.38    2.90
   3   4 -12   25.86    2.43
   2  -4 -12   14.06    2.14
  -2  -4  12   15.83    2.61
  -2  -4  12    9.31    1.69
   2  -4 -12   14.75    2.31
  -2  -4  12   10.65    1.98
   2  -4 -12    8.53    2.04
   2   4 -12   12.39    2.27
   2   4 -12   10.62    2.22
   1  -4 -12   20.60    2.89
  -1  -4  12   17.07    2.08
   1  -4 -12   15.58    1.36
  -1  -4  12   17.00    2.01
  -1  -4  12   17.87    2.73
   1  -4 -12   17.05    2.83
   1  -4 -12   17.67    2.79
   1   4 -12   18.67    2.94
   1   4 -12   15.74    2.70
   0  -4 -12   18.33    2.79
   0  -4 -12   20.26    2.78
   0  -4  12   22.03    2.96
   0  -4 -12   15.85    1.71
   0  -4  12   19.46    1.87
   0  -4 -12   19.42    2.36
   0  -4  12   16.35    1.77
   0   4 -12   22.91    2.84
   0   4 -12   16.58    2.51
   0   4  12   17.26    2.13
   0   4 -12   18.24    1.96
  -1  -4 -12    0.94    2.02
  -1  -4 -12   -0.77    0.79
  -1  -4 -12    1.77    1.41
   1  -4  12    0.47    1.89
  -1  -4 -12   -1.93    2.00
  -1  -4 -12   -0.29    1.83
   1  -4  12   -0.76    0.82
   1  -4  12    0.76    1.61
   1  -4  12   -0.16    1.72
  -1   4 -12    0.29    1.04
   1   4  12   -0.04    1.29
  -1   4 -12    0.16    1.95
  -2  -4 -12    6.64    1.96
  -2  -4 -12    5.34    1.29
  -2  -4 -12    2.80    1.77
   2  -4  12    4.05    1.64
   2  -4  12    5.72    1.97
  -2   4 -12    6.02    2.11
   2   4  12    4.82    1.26
   2   4  12    3.74    2.20
  -3  -4 -12    1.85    1.27
  -3  -4 -12    0.25    1.54
   3  -4  12    1.81    1.55
   3  -4  12    3.55    1.49
  -3  -4 -12    0.78    0.88
   3   4  12    1.72    1.92
   3   4  12    0.82    1.47
   4  -4  12    4.48    1.47
  -4  -4 -12    1.67    0.75
   4  -4  12    4.05    1.28
  -4  -4 -12    3.83    1.67
  -4  -4 -12    4.90    1.13
   4   4  12    2.08    1.56
   4   4  12    1.45    1.12
   4   4  12    4.53    1.50
  -3  -5  12   -0.52    0.60
   3   5 -12    0.71    0.92
   2  -5 -12    2.07    1.54
  -2  -5  12    3.00    0.97
  -2  -5  12    2.06    1.35
   2   5 -12    4.40    1.79
  -1  -5  12    1.61    0.80
   1  -5 -12    0.34    1.28
   1  -5 -12    3.20    1.54
  -1  -5  12    4.15    1.71
   1   5 -12    2.35    1.56
  -1   5  12    2.83    1.14
   0  -5 -12   22.58    2.83
   0  -5  12   14.32    2.54
   0  -5 -12   14.74    2.26
   0  -5 -12   17.29    1.07
   0   5  12   18.02    1.77
   0   5 -12   25.02    2.43
   1  -5  12    8.80    1.74
  -1  -5 -12   12.10    1.43
  -1  -5 -12    6.78    1.69
   1  -5  12    9.60    1.76
   1   5  12    9.77    1.54
  -1   5 -12    7.85    1.51
  -1   5 -12    9.05    2.14
  -2  -5 -12   25.16    1.76
  -2  -5 -12   25.48    2.26
   2  -5  12   29.15    2.50
   2   5  12   30.93    2.53
   2   5  12   24.04    2.11
  -2   5 -12   25.99    2.17
   6   0 -13   -0.86    1.11
   6   0 -13    0.40    1.46
   5   0 -13    1.91    0.67
   5   0 -13    1.92    1.42
   5   0 -13    3.62    1.63
   4   0 -13   21.25    1.82
   4   0 -13   21.12    2.26
   4   0 -13   19.34    3.01
  -4   0  13   18.40    1.76
   4   0 -13   23.09    3.02
  -3   0  13    1.34    0.78
   3   0 -13    2.62    0.64
   3   0 -13    1.06    0.79
   3   0 -13    3.03    1.17
   2   0 -13   21.59    1.58
   2   0 -13   19.98    1.72
  -2   0  13   19.96    1.30
   1   0 -13   28.42    1.97
  -1   0  13   32.23    1.60
   1   0 -13   30.08    1.82
   0   0 -13    1.81    1.01
   0   0  13    0.91    0.66
   0   0 -13    0.46    0.93
  -1   0 -13   14.39    1.77
  -2   0 -13    2.90    1.24
   3   0  13    1.83    1.09
   4   0  13   28.89    2.55
   4   0  13   33.96    3.08
   4   0  13   34.13    2.10
   4   0  13   32.93    3.24
   5   0  13    1.66    1.83
   5   0  13    3.88    0.93
   5   0  13    1.29    1.69
   6   0  13    1.56    1.36
  -6  -1  13    2.53    1.34
   6   1 -13    1.16    1.19
   5  -1 -13    8.28    1.89
   5   1 -13    6.89    2.04
   5   1 -13   10.83    1.62
   5   1 -13    8.46    1.80
   4  -1 -13   -0.99    1.42
   4  -1 -13    0.39    1.38
   4   1 -13   -1.74    1.43
   4   1 -13    1.87    2.06
   4   1 -13    0.98    0.83
   4   1 -13    0.52    1.46
   4   1 -13    0.41    2.12
   4   1 -13    1.53    1.37
  -3  -1  13   11.40    1.69
   3  -1 -13   12.57    1.78
   3   1 -13   14.09    1.81
  -3   1  13   15.82    1.29
   3   1 -13   16.86    1.97
   3   1 -13   12.99    1.64
   3   1 -13   15.40    2.43
   2  -1 -13   10.16    1.79
  -2  -1  13   13.02    1.44
   2   1 -13   12.28    1.76
  -2   1  13   10.11    1.08
  -1  -1  13  177.31    4.40
   1  -1 -13  180.04    5.24
   1  -1 -13  184.16    4.32
   1   1 -13  179.81    4.95
   1   1 -13  179.52    5.24
  -1   1  13  178.59    4.12
   0  -1 -13   82.95    2.74
   0  -1 -13   81.40    3.30
   0   1 -13   82.06    3.25
   0   1  13   82.90    2.55
  -1  -1 -13  123.59    3.85
  -1  -1 -13  121.77    4.11
   1   1  13  119.46    3.40
  -1   1 -13  117.57    4.20
  -2  -1 -13   37.97    2.57
  -2   1 -13   38.27    2.61
   3  -1  13   37.52    3.09
   3  -1  13   47.23    2.52
  -3   1 -13   38.88    3.07
   3   1  13   47.58    3.30
   3   1  13   37.40    2.48
   4  -1  13    4.78    1.13
   4  -1  13    7.44    1.89
   4  -1  13    3.37    1.88
   4  -1  13    1.76    1.68
   4   1  13    5.28    1.71
   4   1  13    3.78    1.72
   4   1  13    5.26    2.02
   4   1  13    3.94    1.62
   5  -1  13    1.48    1.57
   5  -1  13    1.49    1.52
   5   1  13    1.37    1.52
   5   1  13    2.42    1.88
   5   1  13    2.10    1.64
   6  -1  13    8.44    1.43
   6   1  13   10.42    1.56
  -6  -2  13    6.58    1.33
   6   2 -13    3.61    1.39
   6   2 -13    3.79    1.18
   6   2 -13    4.87    0.79
  -5  -2  13    1.73    1.37
   5   2 -13    0.61    1.54
   5   2 -13    1.05    1.32
   5   2 -13    2.67    1.57
   4  -2 -13    0.71    2.05
   4   2 -13    6.14    1.88
   4   2 -13    0.21    1.58
   4   2 -13    3.27    0.98
   4   2 -13    4.37    1.40
   4   2 -13    5.22    2.54
   4   2 -13    1.47    1.74
   3  -2 -13   48.40    3.70
   3  -2 -13   52.46    3.79
  -3  -2  13   46.59    3.42
   3   2 -13   51.56    3.09
   3   2 -13   53.86    4.00
   3   2 -13   50.48    3.82
   3   2 -13   56.33    3.93
  -3   2  13   51.77    1.90
   3   2 -13   55.26    3.10
   3   2 -13   55.27    3.29
   2  -2 -13   33.34    2.52
   2   2 -13   32.34    3.36
  -2   2  13   31.96    1.57
   2   2 -13   34.10    2.67
   1  -2 -13    0.40    0.68
   1  -2 -13    2.46    1.25
   1   2 -13   -0.64    1.19
  -1   2  13    1.22    0.80
   0  -2 -13    0.88    0.85
   0  -2 -13    0.65    1.24
   0   2 -13    1.36    1.17
   0   2  13    0.44    0.77
  -1  -2 -13   35.03    2.51
  -1  -2 -13   38.68    2.39
   1   2  13   32.94    2.39
   1   2  13   32.88    2.14
  -1   2 -13   37.50    2.63
  -2   2 -13   10.85    1.95
   2   2  13   11.86    1.65
   3  -2  13   62.67    2.68
   3  -2  13   64.10    3.84
   3  -2  13   64.62    3.86
   3   2  13   61.04    4.25
  -3   2 -13   62.00    3.82
   3   2  13   68.40    4.13
   3   2  13   58.01    2.81
   4  -2  13   11.00    1.91
   4  -2  13   11.95    2.20
   4   2  13   14.94    2.52
   4   2  13   12.00    2.41
   4   2  13   14.88    2.61
   4   2  13   16.75    2.95
   4   2  13   10.98    2.10
   5  -2  13    2.57    1.39
   5  -2  13    2.75    1.55
   5   2  13    1.38    0.78
   5   2  13    6.24    1.62
   6  -2  13    5.60    1.05
   6   2  13    6.04    1.19
  -5  -3  13   18.47    2.28
   5   3 -13   16.47    1.94
   5   3 -13   16.24    1.74
   5   3 -13   18.97    1.93
  -4  -3  13   22.49    2.89
   4   3 -13   19.81    2.60
   4   3 -13   23.20    1.93
   4   3 -13   26.19    2.47
   4   3 -13   23.65    2.71
  -3  -3  13    3.00    1.91
   3  -3 -13    0.22    1.78
   3  -3 -13    4.94    1.89
  -3  -3  13    4.01    1.79
   3   3 -13    0.43    1.98
   3   3 -13    3.91    1.65
   3   3 -13    4.68    1.87
   3   3 -13    1.90    1.40
  -2  -3  13   28.60    3.23
   2  -3 -13   28.78    2.89
   2  -3 -13   27.44    2.69
   2  -3 -13   20.82    2.76
   2   3 -13   27.11    3.08
   2   3 -13   25.53    3.16
   1  -3 -13   29.18    2.12
   1  -3 -13   33.53    3.53
   1  -3 -13   30.55    3.47
  -1  -3  13   30.17    3.33
   1  -3 -13   36.90    2.71
  -1  -3  13   26.96    3.19
  -1   3  13   34.46    1.98
   1   3 -13   26.86    2.83
   0  -3 -13   18.34    3.13
   0  -3 -13   19.77    3.19
   0  -3 -13   15.97    1.65
   0  -3  13   15.67    2.53
   0  -3  13   16.49    2.24
   0  -3  13   20.62    2.54
   0  -3 -13   17.32    2.28
   0   3  13   19.00    2.07
   0   3 -13   15.88    1.72
   0   3  13   19.08    1.89
   0   3 -13   16.63    2.52
  -1  -3 -13   14.12    2.51
   1  -3  13   15.35    2.83
  -1  -3 -13   10.71    1.45
   1  -3  13   15.35    2.76
  -1  -3 -13   12.67    2.23
   1  -3  13   11.56    1.97
  -1  -3 -13   13.82    1.96
  -1  -3 -13    9.62    1.60
  -1  -3 -13   12.65    2.34
   1  -3  13   12.35    1.97
   1  -3  13   11.85    2.04
  -1   3 -13    9.61    2.01
   1   3  13    9.61    1.68
  -2  -3 -13   63.28    3.18
   2  -3  13   57.88    2.70
  -2  -3 -13   65.97    3.61
   2  -3  13   62.68    4.25
  -2  -3 -13   60.30    3.63
  -2  -3 -13   58.82    4.06
   2  -3  13   61.19    3.88
   2  -3  13   58.94    2.65
   2   3  13   53.95    4.20
  -2   3 -13   54.64    3.53
   2   3  13   65.60    3.05
  -3  -3 -13    4.05    1.63
  -3  -3 -13    4.26    1.81
  -3  -3 -13    6.14    1.80
   3  -3  13    2.79    1.55
   3  -3  13    3.06    1.76
   3   3  13    0.87    2.00
  -3   3 -13    1.44    2.12
   3   3  13    2.38    1.61
   4  -3  13   31.44    2.68
   4  -3  13   28.94    2.85
  -4  -3 -13   34.27    2.88
   4   3  13   38.23    3.04
   4   3  13   28.44    3.05
   4   3  13   34.23    2.63
  -5  -3 -13    1.47    1.10
   5  -3  13   -1.96    0.97
   5  -3  13   -0.94    1.22
   5   3  13    1.06    1.14
   5   3  13    0.26    0.63
  -4  -4  13    4.70    1.56
   4   4 -13    3.71    0.77
   4   4 -13    2.39    1.31
   4   4 -13    2.20    1.34
   3  -4 -13    3.62    1.69
  -3  -4  13    4.80    1.87
  -3  -4  13    8.78    1.65
   3   4 -13    5.72    1.75
   3   4 -13    1.74    1.57
   3   4 -13    7.53    1.76
  -2  -4  13   12.04    2.21
   2  -4 -13   12.07    2.14
  -2  -4  13   10.28    1.94
  -2  -4  13   10.49    1.66
   2  -4 -13   10.10    2.30
   2   4 -13   10.84    2.08
   2   4 -13    9.27    2.09
   1  -4 -13    4.45    0.90
  -1  -4  13    6.12    1.61
   1  -4 -13    8.25    2.03
   1  -4 -13    6.36    2.18
  -1  -4  13    5.41    1.84
  -1  -4  13    7.46    1.49
   1  -4 -13    5.97    1.86
   1   4 -13    6.71    2.05
   1   4 -13    3.37    1.76
   0  -4  13   15.65    1.74
   0  -4 -13   17.79    2.75
   0  -4 -13   17.13    2.74
   0  -4  13   17.02    2.46
   0  -4  13    9.34    1.61
   0  -4 -13   15.81    2.30
   0  -4 -13   13.64    1.85
   0   4 -13   12.45    2.42
   0   4  13   14.04    2.18
   0   4 -13   12.89    2.19
   0   4 -13   18.18    2.04
  -1  -4 -13   24.72    1.48
  -1  -4 -13   23.84    2.94
   1  -4  13   25.65    2.89
   1  -4  13   22.91    1.65
  -1  -4 -13   17.95    2.91
  -1  -4 -13   23.82    2.30
   1  -4  13   23.84    2.75
  -1   4 -13   24.56    2.17
   1   4  13   20.01    2.05
  -1   4 -13   23.46    2.74
   2  -4  13    4.21    2.23
   2  -4  13    0.30    1.85
  -2  -4 -13    1.86    1.64
  -2  -4 -13    3.12    1.83
  -2  -4 -13    1.28    1.10
   2   4  13    2.33    1.27
   2   4  13    2.17    1.75
   2   4  13    0.26    1.62
   3  -4  13    2.49    1.59
  -3  -4 -13   -1.57    1.14
   3  -4  13   -0.25    1.37
  -3  -4 -13    1.37    1.84
  -3  -4 -13    1.51    0.74
   3   4  13    1.47    1.87
   3   4  13   -0.27    1.43
   4  -4  13    0.73    1.07
   4  -4  13   -0.14    1.18
  -4  -4 -13    0.29    0.83
  -4  -4 -13   -0.84    1.40
   4   4  13    1.13    1.06
   4   4  13    0.80    1.42
   4   4  13    0.27    0.99
  -2  -5  13    0.21    0.82
  -2  -5  13    0.59    1.19
   2  -5 -13    1.30    1.21
   2   5 -13   -1.55    1.18
   2   5 -13    1.51    1.56
  -1  -5  13    4.26    1.45
   1  -5 -13    0.92    1.48
   1  -5 -13    2.06    1.55
  -1  -5  13    0.87    0.75
  -1   5  13    3.18    1.29
   1   5 -13    2.37    1.79
   0  -5 -13    7.19    1.73
   0  -5  13    6.86    1.76
   0  -5 -13    5.88    1.49
   0   5  13    9.00    1.65
   0   5 -13    7.38    1.67
   1  -5  13    2.88    1.48
  -1  -5 -13    3.94    1.47
  -1  -5 -13    2.11    0.85
   1   5  13    2.50    1.05
  -1   5 -13    2.05    1.82
  -1   5 -13    2.10    1.02
   2  -5  13   11.75    1.93
  -2  -5 -13   11.96    1.28
  -2  -5 -13   10.70    1.84
   2   5  13   11.28    2.03
  -2   5 -13   12.94    2.23
   6   0 -14    0.77    1.17
   6   0 -14    1.48    1.41
   5   0 -14    1.37    1.33
   5   0 -14    3.52    1.61
   5   0 -14    0.35    0.55
   4   0 -14    0.85    1.01
   4   0 -14    0.06    1.41
   4   0 -14   -0.02    1.20
   4   0 -14   -1.62    1.67
   3   0 -14    2.49    0.66
  -3   0  14    1.54    0.87
   3   0 -14    1.46    1.04
   3   0 -14    0.70    0.78
   2   0 -14   27.79    1.83
  -2   0  14   28.01    1.57
   1   0 -14   81.58    3.22
   1   0 -14   80.82    2.89
  -1   0  14   83.65    2.56
   0   0 -14  116.97    3.92
   0   0  14  102.33    2.98
   0   0 -14  115.74    3.62
  -1   0 -14    1.84    1.12
  -2   0 -14   20.68    2.20
   3   0  14   36.88    3.24
   3   0  14   44.87    2.43
   4   0  14   36.57    2.17
   4   0  14   41.75    2.67
   4   0  14   39.61    3.36
   4   0  14   42.86    2.67
   4   0  14   38.23    3.64
   5   0  14   30.31    2.97
   5   0  14   32.19    1.61
   5   0  14   32.24    3.07
   6   0  14   27.01    2.31
  -6  -1  14    4.41    1.42
   6   1 -14    2.97    1.25
   5  -1 -14   18.86    3.09
   5   1 -14   17.14    2.41
   5   1 -14   17.05    2.78
   5   1 -14   16.48    1.73
   4  -1 -14    1.86    1.22
   4  -1 -14    2.48    1.99
   4   1 -14    3.80    0.95
   4   1 -14    5.24    1.95
   4   1 -14   -0.18    1.29
   4   1 -14    3.52    1.45
   4   1 -14    3.48    1.61
   4   1 -14    2.36    2.11
   3  -1 -14   32.29    3.00
  -3  -1  14   30.76    2.04
   3   1 -14   39.58    2.41
   3   1 -14   33.92    2.36
   3   1 -14   34.96    2.15
   3   1 -14   38.11    3.22
   3   1 -14   34.52    3.44
   3   1 -14   31.83    3.21
  -3   1  14   38.14    1.70
   2  -1 -14    3.94    1.29
  -2  -1  14    4.60    1.07
  -2   1  14    5.36    0.90
   2   1 -14    7.55    1.50
   1  -1 -14   57.84    2.27
  -1  -1  14   55.66    2.35
   1  -1 -14   59.89    2.90
   1   1 -14   60.80    2.92
   1   1 -14   59.86    2.96
  -1   1  14   61.72    2.15
   0  -1 -14   27.23    1.82
   0  -1 -14   27.39    2.23
   0   1 -14   27.89    2.40
   0   1  14   26.45    1.60
  -1  -1 -14   20.64    1.89
  -1  -1 -14   22.94    2.18
  -1   1 -14   19.98    2.14
  -2  -1 -14   16.15    2.06
  -2   1 -14   19.16    2.31
   3  -1  14    9.59    2.24
   3  -1  14    8.75    1.43
   3  -1  14   13.64    1.81
   3   1  14   11.29    2.25
  -3   1 -14    9.04    2.09
   3   1  14    7.79    1.56
   4  -1  14    5.65    1.15
   4  -1  14    4.13    1.61
   4  -1  14   -0.01    1.33
   4  -1  14    4.79    1.65
   4   1  14    2.68    1.37
   4   1  14    4.11    1.92
   4   1  14    6.29    2.12
   4   1  14    2.59    1.61
   5  -1  14   17.14    2.52
   5  -1  14   21.19    2.67
   5   1  14   18.22    2.63
   5   1  14   16.62    2.78
   5   1  14   14.24    1.73
   6  -1  14    0.34    1.06
   6   1  14    0.97    1.38
  -6  -2  14   10.38    1.78
   6   2 -14   10.34    1.52
   6   2 -14    8.75    0.79
  -5  -2  14    0.50    1.29
   5  -2 -14    4.59    2.02
   5   2 -14    0.91    1.45
   5   2 -14    1.26    1.08
   5   2 -14   -1.14    1.22
   4  -2 -14   34.79    3.34
   4   2 -14   41.71    3.39
   4   2 -14   38.77    3.55
   4   2 -14   38.25    3.04
   4   2 -14   32.60    3.33
   4   2 -14   39.78    2.49
   3  -2 -14   25.64    3.28
  -3  -2  14   28.08    3.31
   3  -2 -14   19.67    3.14
   3   2 -14   22.65    3.32
  -3   2  14   25.46    1.63
   3   2 -14   25.20    3.02
   3   2 -14   24.18    2.28
   3   2 -14   24.08    2.53
   3   2 -14   19.01    3.01
   3   2 -14   25.44    2.32
   2  -2 -14   75.08    3.97
   2  -2 -14   64.00    3.92
   2  -2 -14   69.45    3.50
  -2   2  14   67.42    2.40
   2   2 -14   62.92    4.10
   2   2 -14   72.60    4.25
   2   2 -14   71.13    3.70
   1  -2 -14    1.16    0.75
   1  -2 -14    1.68    1.40
   1   2 -14    2.07    1.30
  -1   2  14    2.73    0.89
   0  -2 -14   20.61    2.03
   0  -2 -14   21.28    1.67
   0   2  14   21.05    1.73
   0   2 -14   25.46    2.36
  -1  -2 -14   26.60    2.45
  -1  -2 -14   27.65    2.20
   1   2  14   21.25    1.87
  -1   2 -14   25.43    2.51
   1   2  14   24.21    2.20
  -2  -2 -14   -0.32    1.37
   2  -2  14    1.97    2.03
   2   2  14   -0.28    0.93
   2   2  14   -2.77    1.75
  -2   2 -14   -2.81    1.49
   3  -2  14    7.63    2.19
   3  -2  14    6.94    1.38
   3  -2  14    9.04    2.09
   3   2  14    9.06    2.38
   3   2  14    8.24    1.66
  -3   2 -14    8.70    2.18
   3   2  14    4.95    1.77
   4  -2  14   43.68    3.51
   4  -2  14   42.49    2.99
   4   2  14   46.51    3.19
   4   2  14   48.45    3.67
   4   2  14   48.30    3.41
   5  -2  14    2.00    1.50
   5  -2  14    3.70    1.39
   5   2  14    3.27    0.81
   5   2  14    6.64    1.67
  -5  -3  14    0.59    1.15
   5   3 -14   -1.66    0.90
   5   3 -14    1.09    0.98
   5   3 -14    1.37    1.41
  -4  -3  14    5.59    1.98
   4   3 -14    2.76    1.68
   4   3 -14    3.67    1.65
   4   3 -14    7.05    1.63
   4   3 -14    6.57    1.11
   3  -3 -14    2.15    1.76
  -3  -3  14    1.73    1.45
   3  -3 -14    0.36    1.68
   3   3 -14    1.99    1.76
   3   3 -14    0.82    1.32
   3   3 -14    1.63    1.50
   3   3 -14   -1.36    1.53
   2  -3 -14  130.67    5.57
   2  -3 -14  157.58    5.40
  -2  -3  14  126.79    5.49
   2  -3 -14  141.01    5.47
   2   3 -14  140.12    6.07
   2   3 -14  139.34    5.33
   2   3 -14  142.55    5.81
   1  -3 -14   26.92    1.88
   1  -3 -14   22.35    3.00
   1  -3 -14   24.85    3.27
  -1  -3  14   24.58    2.81
  -1  -3  14   24.57    3.62
   1  -3 -14   28.24    2.62
  -1   3  14   29.16    2.04
   1   3 -14   26.79    2.84
   0  -3 -14   21.71    2.49
   0  -3  14   17.30    2.90
   0  -3 -14   21.85    3.21
   0  -3  14   18.64    2.91
   0  -3  14   20.65    2.47
   0  -3 -14   14.71    2.72
   0  -3 -14   17.08    1.44
   0  -3  14   17.34    2.62
   0  -3 -14   17.53    1.72
   0  -3 -14   14.58    2.03
   0   3 -14   23.30    2.71
   0   3  14   15.54    2.13
   0   3 -14   17.20    1.76
   0   3  14   17.80    2.11
  -1  -3 -14   12.73    1.93
   1  -3  14    8.68    1.56
   1  -3  14    7.49    1.90
   1  -3  14   11.08    1.94
  -1  -3 -14   11.23    2.37
  -1  -3 -14    6.87    1.42
  -1  -3 -14    8.73    1.35
  -1  -3 -14    9.38    1.75
  -1  -3 -14   11.09    2.50
   1   3  14   14.43    2.11
  -1   3 -14   13.29    2.16
   2  -3  14    2.89    1.65
   2  -3  14    1.45    1.02
  -2  -3 -14    2.55    1.25
  -2  -3 -14    3.45    1.61
  -2  -3 -14    3.81    1.73
   2  -3  14    4.53    2.15
   2   3  14    3.77    1.27
  -2   3 -14    3.23    2.04
   2   3  14    3.00    1.69
  -3  -3 -14    9.05    1.97
  -3  -3 -14   10.14    1.95
   3  -3  14   14.65    2.23
  -3  -3 -14    8.01    1.61
   3  -3  14   11.36    2.04
   3   3  14   13.34    2.17
  -3   3 -14   10.59    2.60
   3   3  14   11.85    2.09
   4  -3  14   16.95    2.09
  -4  -3 -14   15.79    2.27
   4  -3  14   12.59    2.34
   4   3  14   15.34    2.16
   4   3  14    9.02    1.83
   4   3  14   18.72    2.49
   4   3  14    8.42    1.70
   5  -3  14    1.51    1.49
  -5  -3 -14    0.74    0.95
   5  -3  14    2.30    1.11
   5   3  14    4.17    1.22
   5   3  14    1.34    0.46
  -4  -4  14    4.13    1.44
   4   4 -14    2.56    1.31
  -3  -4  14   11.31    1.78
  -3  -4  14   12.00    2.00
   3  -4 -14   11.69    2.13
   3   4 -14    6.64    2.08
   3   4 -14    7.47    1.77
   3   4 -14   10.59    1.79
  -2  -4  14    0.86    1.49
  -2  -4  14    0.31    1.50
   2  -4 -14   -0.25    1.54
  -2  -4  14    0.84    1.54
   2  -4 -14    0.77    1.60
   2   4 -14    0.31    1.89
   2   4 -14   -0.73    1.49
   2   4 -14    2.16    1.65
   1  -4 -14   23.75    1.34
  -1  -4  14   20.25    2.20
   1  -4 -14   22.79    2.90
  -1  -4  14   20.49    2.76
   1  -4 -14   26.72    3.33
   1  -4 -14   22.97    2.98
  -1  -4  14   20.89    2.17
   1   4 -14   17.75    2.64
   1   4 -14   15.51    2.78
   0  -4 -14    6.55    1.90
   0  -4  14    5.24    1.10
   0  -4 -14    3.86    1.16
   0  -4 -14    4.97    1.87
   0  -4  14    6.53    1.49
   0  -4  14    4.10    1.59
   0  -4 -14    2.94    2.18
   0   4  14    6.61    1.44
   0   4 -14    6.32    2.21
   0   4 -14    5.88    1.84
   0   4 -14    4.83    1.24
  -1  -4 -14    4.53    1.80
   1  -4  14    5.47    1.67
  -1  -4 -14    4.41    1.48
   1  -4  14    4.19    1.05
  -1   4 -14    3.41    1.28
  -1   4 -14    1.43    1.67
  -1   4 -14    6.24    2.26
   1   4  14    4.08    1.18
   2  -4  14    1.86    1.86
  -2  -4 -14    1.29    1.06
  -2  -4 -14    0.08    1.59
   2  -4  14    3.48    1.71
  -2  -4 -14   -1.76    1.54
   2   4  14   -0.12    1.62
  -2   4 -14    1.57    1.02
   3  -4  14    7.49    1.68
  -3  -4 -14   10.14    1.61
  -3  -4 -14    8.19    1.73
   3  -4  14    8.32    1.64
   3   4  14    7.11    1.90
   3   4  14    6.59    1.61
   4  -4  14    7.74    1.28
  -4  -4 -14    9.08    1.28
   4  -4  14   10.21    1.77
   4   4  14   10.37    1.41
   4   4  14   11.87    1.56
  -2  -5  14   -0.05    1.12
  -2  -5  14    1.19    0.84
   2  -5 -14    0.19    1.08
   2   5 -14    0.38    1.15
  -1  -5  14    3.70    0.74
   1  -5 -14    3.68    1.54
   1  -5 -14    6.83    1.91
  -1  -5  14    5.59    1.65
  -1   5  14    3.91    1.07
   1   5 -14    7.24    1.93
   0  -5 -14   14.38    2.40
   0  -5  14   16.55    2.08
   0  -5 -14   13.35    2.24
   0   5 -14   18.18    2.19
   0   5  14   15.73    1.79
   1  -5  14   10.14    1.85
  -1  -5 -14   11.15    1.08
  -1  -5 -14    8.28    1.52
  -1   5 -14   11.35    1.99
   1   5  14   13.26    2.07
  -2  -5 -14    5.42    1.31
  -2  -5 -14   10.48    1.21
   2   5  14    4.90    1.22
   6   0 -15    3.94    1.30
   6   0 -15    6.51    1.56
   5   0 -15    8.12    1.95
   5   0 -15   13.58    2.34
   4   0 -15   26.49    2.78
   4   0 -15   25.45    2.56
   4   0 -15   27.74    2.03
   4   0 -15   27.53    2.96
   3   0 -15    0.43    0.83
   3   0 -15    2.04    1.63
  -3   0  15    1.64    0.98
   3   0 -15    0.43    0.63
  -2   0  15    1.25    0.79
   2   0 -15    0.42    1.02
  -1   0  15   19.33    1.50
   1   0 -15   26.12    2.12
   1   0 -15   23.82    1.89
   0   0  15   46.02    2.02
   0   0 -15   48.84    2.66
   0   0 -15   48.45    2.53
  -1   0 -15    7.89    1.47
  -2   0 -15   50.74    2.93
   3   0  15   -1.28    1.04
   3   0  15   -0.87    1.69
   3   0  15   -0.56    1.29
   4   0  15    3.42    1.55
   4   0  15    5.82    1.39
   4   0  15    2.37    2.11
   4   0  15    2.78    1.34
   4   0  15    3.38    1.09
   5   0  15    1.96    1.93
   5   0  15    2.12    0.83
   5   0  15    2.43    1.71
   6   0  15   -1.18    1.08
  -6  -1  15   10.17    1.89
   6   1 -15    5.87    1.35
   5  -1 -15   -0.17    1.50
   5   1 -15    2.53    1.40
   5   1 -15    1.32    1.73
   5   1 -15    0.26    0.93
   4  -1 -15   11.45    2.03
   4   1 -15   13.93    2.57
   4   1 -15   15.04    2.47
   4   1 -15   14.06    1.93
   4   1 -15   15.75    1.26
   4   1 -15   15.00    2.73
  -3  -1  15   29.01    2.26
   3  -1 -15   26.94    2.91
   3  -1 -15   33.24    3.05
   3   1 -15   33.41    2.21
  -3   1  15   34.79    1.71
   3   1 -15   31.59    3.67
   3   1 -15   33.34    1.78
   3   1 -15   35.24    2.30
   3   1 -15   34.98    3.47
   3   1 -15   36.66    3.75
   2  -1 -15  109.76    4.04
  -2  -1  15   99.25    3.28
  -2   1  15  105.77    3.05
   2   1 -15  105.97    3.79
   1  -1 -15   34.88    2.48
   1  -1 -15   36.24    1.95
  -1   1  15   34.33    1.80
   1   1 -15   37.02    2.57
   1   1 -15   36.78    2.40
   0  -1 -15   25.04    1.92
   0  -1 -15   25.79    2.32
   0   1 -15   26.89    2.24
   0   1  15   30.01    1.80
  -1  -1 -15   37.86    2.78
  -1  -1 -15   35.75    2.50
  -1   1 -15   37.44    2.69
   1   1  15   33.91    2.21
  -2  -1 -15   21.17    2.32
  -2   1 -15   20.19    2.43
   3  -1  15   17.69    2.01
   3  -1  15   18.92    1.96
   3  -1  15   18.45    2.72
   3  -1  15   19.10    2.20
   3  -1  15   16.13    2.83
   3   1  15   18.38    2.81
   3   1  15   19.15    2.70
   3   1  15   19.56    1.95
  -3   1 -15   13.45    2.16
   4  -1  15    9.56    1.94
   4  -1  15    9.71    1.52
   4  -1  15    9.88    1.97
   4   1  15   11.33    1.81
   4   1  15   10.47    1.90
   4   1  15    8.05    1.90
   4   1  15    8.50    1.69
   5  -1  15    4.69    1.63
   5  -1  15    3.05    1.52
   5   1  15    2.88    1.50
   5   1  15    3.24    1.64
   5   1  15    2.03    1.19
   6  -1  15    0.81    1.14
   6   1  15    3.45    1.30
   5  -2 -15    1.86    1.84
  -5  -2  15    4.68    1.51
   5   2 -15    4.77    1.88
   5   2 -15    3.75    1.15
   4  -2 -15    3.14    2.16
   4   2 -15    2.56    1.21
   4   2 -15    4.84    2.08
   4   2 -15    2.13    1.62
   4   2 -15    6.67    2.01
   4   2 -15    2.20    1.83
   3  -2 -15   54.41    3.81
   3  -2 -15   53.11    3.83
  -3  -2  15   52.76    3.87
   3   2 -15   56.57    4.34
   3   2 -15   55.65    3.77
   3   2 -15   53.47    3.15
   3   2 -15   54.21    4.43
   3   2 -15   50.46    3.39
   3   2 -15   50.54    2.75
   2  -2 -15   18.08    2.80
   2  -2 -15   17.44    2.36
   2  -2 -15   20.20    2.61
  -2  -2  15   18.92    3.00
   2   2 -15   16.63    2.88
  -2   2  15   23.83    1.67
   2   2 -15   19.66    2.72
   1  -2 -15    4.60    1.39
   1  -2 -15    3.44    0.85
   1   2 -15    3.77    2.00
   1   2 -15    4.09    1.53
  -1   2  15    2.90    0.96
   0  -2 -15    8.49    1.77
   0  -2 -15   10.42    1.54
   0   2  15    6.72    1.24
   0   2 -15    8.56    1.64
   0   2  15    9.19    1.61
   0   2 -15    7.22    1.67
  -1  -2 -15   25.69    2.36
  -1  -2 -15   26.22    2.61
  -1   2 -15   23.09    2.30
   1   2  15   25.77    2.23
   2  -2  15    9.79    2.28
  -2  -2 -15   12.29    2.17
   2  -2  15   14.78    2.08
   2  -2  15   15.06    2.35
  -2  -2 -15   14.48    2.28
   2   2  15   16.18    2.65
   2   2  15   12.50    1.75
  -2   2 -15   10.81    2.18
  -3  -2 -15   49.90    3.76
   3  -2  15   45.31    3.52
   3  -2  15   52.97    2.59
   3  -2  15   47.89    3.52
   3   2  15   46.01    2.85
  -3   2 -15   47.26    3.63
   3   2  15   44.49    3.68
   3   2  15   45.77    3.43
   4  -2  15    4.35    1.87
   4  -2  15    5.67    1.60
   4   2  15    8.60    2.18
   4   2  15    6.33    1.77
   4   2  15    5.75    1.60
   5  -2  15    1.35    1.24
   5  -2  15    1.02    1.43
   5   2  15    3.08    1.46
   5   2  15    1.77    1.56
   5   2  15    1.61    0.66
  -5  -3  15    1.67    1.10
   5   3 -15    5.52    1.29
   5   3 -15    5.92    1.11
   5   3 -15    4.17    1.03
   4  -3 -15    8.53    2.21
  -4  -3  15   12.02    2.11
   4   3 -15   11.93    2.20
   4   3 -15   10.65    1.64
   4   3 -15    7.35    1.81
   3  -3 -15    6.49    1.97
  -3  -3  15   11.30    2.19
   3  -3 -15   10.76    2.30
   3   3 -15    4.82    1.82
   3   3 -15    8.45    1.97
   3   3 -15    8.42    1.76
   3   3 -15    8.19    1.78
   2  -3 -15   25.95    2.82
  -2  -3  15   29.57    3.41
   2  -3 -15   21.06    2.75
   2  -3 -15   26.07    3.08
   2   3 -15   27.18    3.05
   2   3 -15   22.27    3.12
   2   3 -15   25.05    2.92
  -1  -3  15   29.75    3.33
   1  -3 -15   34.58    3.72
  -1  -3  15   32.31    3.07
   1  -3 -15   32.16    2.57
   1  -3 -15   32.58    3.10
   1  -3 -15   31.21    2.14
   1   3 -15   33.81    3.31
   0  -3 -15   22.32    2.57
   0  -3 -15   24.29    1.84
   0  -3  15   17.37    2.80
   0  -3 -15   20.69    3.33
   0  -3  15   23.13    2.79
   0  -3 -15   19.96    1.53
   0  -3  15   24.57    3.05
   0  -3  15   19.55    2.59
   0  -3 -15   21.37    2.43
   0  -3 -15   24.36    3.00
   0   3 -15   21.47    2.95
   0   3  15   25.36    2.47
   0   3 -15   21.29    1.83
   0   3 -15   22.61    2.89
  -1  -3 -15    3.44    1.34
  -1  -3 -15    5.45    2.16
  -1  -3 -15    2.27    1.75
  -1  -3 -15    2.14    0.78
   1  -3  15    2.93    1.64
   1  -3  15    4.56    1.26
   1  -3  15    4.66    1.71
  -1  -3 -15    1.63    1.15
  -1  -3 -15    3.02    1.82
   1   3  15    2.35    1.37
  -1   3 -15    5.52    1.94
  -2  -3 -15   22.96    2.11
   2  -3  15   22.23    2.93
   2  -3  15   20.11    1.90
  -2  -3 -15   20.76    2.53
  -2  -3 -15   18.92    3.30
   2   3  15   16.96    2.80
   2   3  15   22.19    2.11
  -2   3 -15   17.90    2.72
  -3  -3 -15    2.27    1.22
  -3  -3 -15    2.92    1.83
   3  -3  15    1.93    2.05
   3  -3  15    1.72    1.46
  -3  -3 -15    1.22    1.62
   3   3  15    2.01    1.60
  -3   3 -15    2.62    2.30
   3   3  15    2.75    1.70
   4  -3  15    6.18    1.40
   4  -3  15    7.75    1.69
  -4  -3 -15    6.63    1.38
  -4  -3 -15    5.83    1.63
   4   3  15    4.47    1.58
   4   3  15    6.80    1.50
   4   3  15    7.06    1.53
   5  -3  15    3.37    1.46
   5  -3  15    2.88    0.99
  -5  -3 -15    1.23    0.98
   5   3  15    1.12    1.27
  -4  -4  15   10.85    1.59
   4   4 -15    8.93    1.72
  -3  -4  15    6.56    1.72
   3  -4 -15    7.35    1.81
  -3  -4  15    7.03    1.58
   3   4 -15    4.48    1.87
   3   4 -15    3.17    1.86
   3   4 -15    8.39    1.27
  -2  -4  15    3.67    1.47
  -2  -4  15    3.70    1.89
   2  -4 -15    3.48    1.68
   2  -4 -15    2.00    1.56
  -2  -4  15    3.84    1.51
   2   4 -15    2.55    2.02
   2   4 -15    3.30    1.73
   2   4 -15    2.40    1.54
  -1  -4  15    8.13    1.65
  -1  -4  15    8.87    1.44
   1  -4 -15   11.90    2.33
   1  -4 -15    9.96    1.01
   1  -4 -15   11.75    2.25
   1  -4 -15   11.43    2.20
  -1  -4  15    7.75    1.77
  -1   4  15    8.19    1.90
   1   4 -15    7.54    1.92
   1   4 -15   10.08    2.16
   0  -4 -15    5.88    2.26
   0  -4  15   10.53    1.78
   0  -4 -15    8.71    1.36
   0  -4 -15   11.48    2.03
   0  -4 -15    6.54    2.02
   0  -4  15    6.96    1.08
   0  -4  15    6.09    1.66
   0   4 -15    8.05    1.97
   0   4 -15    7.35    2.48
   0   4  15    7.55    1.66
   1  -4  15    3.31    0.92
  -1  -4 -15    2.49    1.40
  -1  -4 -15    4.06    1.78
   1  -4  15    5.51    1.67
   1   4  15    0.97    0.97
  -1   4 -15    4.75    1.20
  -1   4 -15    3.48    1.67
  -2  -4 -15   56.57    3.55
  -2  -4 -15   52.79    2.28
  -2  -4 -15   46.68    3.03
   2  -4  15   53.10    3.20
   2   4  15   50.10    3.34
  -2   4 -15   49.80    2.66
  -3  -4 -15    1.07    0.93
  -3  -4 -15   -0.23    1.68
   3  -4  15    0.82    1.32
   3  -4  15    1.28    1.57
  -3   4 -15    0.50    0.82
   3   4  15   -0.05    1.60
  -4  -4 -15    2.74    0.73
   4   4  15    4.72    0.97
  -2  -5  15    7.21    0.92
   2  -5 -15    7.11    1.38
   2   5 -15    7.03    1.18
  -1  -5  15    1.21    1.15
   1  -5 -15    1.56    1.31
   1  -5 -15    2.81    1.20
   1   5 -15    3.26    1.32
   0  -5 -15   12.14    1.95
   0  -5 -15    9.89    1.80
   0  -5  15   12.75    1.85
   0   5  15   10.57    1.56
   0   5 -15   15.39    2.53
   1  -5  15    8.06    1.46
  -1  -5 -15   11.30    1.88
  -1  -5 -15   10.66    1.02
  -1   5 -15    9.33    1.74
   1   5  15   12.26    1.91
   6   0 -16    1.87    1.37
   6   0 -16    3.33    1.43
   5   0 -16    5.51    1.59
   5   0 -16    8.99    1.79
   4   0 -16   47.34    3.71
   4   0 -16   47.28    3.65
   4   0 -16   42.52    2.26
   3   0 -16    6.09    1.01
   3   0 -16   10.72    2.02
  -3   0  16    7.78    1.27
   3   0 -16    5.60    1.61
  -2   0  16   14.73    1.53
   2   0 -16   14.10    1.59
   1   0 -16   28.97    2.34
   1   0 -16   28.18    2.08
  -1   0  16   30.92    1.85
   0   0  16    0.64    0.92
   0   0 -16   -0.78    1.11
   0   0 -16    0.24    1.10
  -1   0 -16   -0.06    1.21
  -2   0 -16    7.98    1.67
   3   0  16   25.78    2.71
   3   0  16   30.15    2.37
   3   0  16   21.84    2.80
   4   0  16    1.19    1.45
   4   0  16   -0.38    0.91
   4   0  16    0.85    1.93
   4   0  16   -1.82    1.18
   4   0  16    1.88    1.48
   5   0  16   22.87    1.34
   5   0  16   24.14    2.98
   5   0  16   28.54    2.71
   6   0  16   12.96    1.66
  -6  -1  16   -1.38    1.28
   6   1 -16    1.64    1.09
   5  -1 -16    4.76    1.74
   5   1 -16    5.86    1.56
   5   1 -16    5.34    1.99
   5   1 -16    5.07    1.14
   4  -1 -16    1.30    1.45
   4   1 -16    3.22    1.57
   4   1 -16    1.89    1.98
   4   1 -16    3.28    1.73
  -3  -1  16  101.26    3.77
   3  -1 -16  108.77    3.44
   3  -1 -16  108.06    4.77
   3  -1 -16  107.34    4.73
   3   1 -16  108.97    5.10
   3   1 -16  106.27    2.89
   3   1 -16  108.93    3.75
   3   1 -16  110.76    4.90
   3   1 -16  108.66    3.71
  -3   1  16  106.93    3.16
   3   1 -16  101.94    4.83
   2  -1 -16   27.05    2.40
  -2  -1  16   25.54    1.90
   2  -1 -16   26.57    1.40
  -2   1  16   27.19    1.65
   2   1 -16   28.02    2.41
   1  -1 -16    8.78    1.65
   1  -1 -16   12.54    1.54
   1   1 -16   11.93    1.77
   1   1 -16    8.40    1.56
  -1   1  16    9.95    1.42
   0  -1 -16    0.45    1.07
   0  -1 -16    0.00    1.06
   0   1 -16    0.99    1.27
   0   1  16    0.72    0.95
   0   1  16    1.81    1.22
  -1  -1 -16    0.99    1.15
  -1  -1 -16    0.24    1.30
   1   1  16    2.08    1.08
  -1   1 -16   -0.12    1.40
  -2  -1 -16  120.58    4.58
   2   1  16  121.06    5.35
  -2   1 -16  114.35    4.65
   3  -1  16    7.74    1.83
   3  -1  16    8.37    1.40
   3  -1  16    8.76    1.65
   3  -1  16   11.62    1.97
   3   1  16    4.94    1.32
   3   1  16    4.17    1.66
  -3   1 -16    6.46    1.94
   3   1  16    6.63    1.88
   4  -1  16   38.75    3.25
   4  -1  16   39.76    2.19
   4  -1  16   40.67    3.47
   4   1  16   35.80    3.18
   4   1  16   41.38    2.73
   4   1  16   39.41    3.10
   5  -1  16    3.39    1.55
   5  -1  16    1.78    1.41
   5   1  16    2.49    1.66
   5   1  16    2.86    1.07
   5   1  16    2.06    1.81
  -5  -2  16    2.90    1.30
   5  -2 -16    1.61    1.47
   5   2 -16    3.78    1.37
   5   2 -16    3.71    1.22
   4  -2 -16   35.48    3.27
   4   2 -16   22.89    2.90
   4   2 -16   25.26    1.86
   4   2 -16   31.98    3.96
   4   2 -16   29.72    2.96
   4   2 -16   27.82    3.01
   3  -2 -16   37.35    3.18
  -3  -2  16   38.12    3.57
   3  -2 -16   36.13    3.18
   3   2 -16   35.90    3.42
   3   2 -16   43.96    3.36
   3   2 -16   33.53    3.66
   3   2 -16   40.34    2.91
   3   2 -16   36.42    2.31
   2  -2 -16   62.00    3.82
   2  -2 -16   60.76    3.64
   2  -2 -16   63.34    2.75
  -2  -2  16   68.17    4.12
   2  -2 -16   74.72    3.73
   2   2 -16   69.29    4.54
   2   2 -16   66.97    4.27
  -2   2  16   67.40    2.60
   2   2 -16   61.83    3.65
   1  -2 -16    0.36    1.89
   1  -2 -16    3.18    1.89
   1  -2 -16    2.18    1.28
  -1  -2  16    3.23    1.63
   1  -2 -16    2.85    0.91
   1   2 -16    0.78    1.90
   1   2 -16    1.09    1.45
  -1   2  16    2.85    1.07
   0  -2 -16   11.88    1.98
   0  -2 -16   12.53    1.66
   0   2  16   11.64    2.03
   0   2 -16   13.79    2.32
   0   2  16   10.14    1.48
  -1  -2 -16   44.14    3.16
  -1  -2 -16   51.52    2.73
  -1  -2 -16   46.10    3.97
   1   2  16   49.26    2.81
  -1   2 -16   40.30    3.19
  -2  -2 -16    1.63    1.71
   2  -2  16   -0.68    1.86
   2  -2  16    2.90    1.69
   2  -2  16    1.82    1.10
  -2  -2 -16    2.37    1.62
  -2  -2 -16    1.33    1.41
   2   2  16    0.80    1.93
  -2   2 -16   -0.01    1.83
   3  -2  16  147.89    5.87
   3  -2  16  134.45    4.27
  -3  -2 -16  143.69    5.42
  -3   2 -16  144.56    5.45
   3   2  16  144.13    5.66
   4  -2  16    1.86    1.43
   4  -2  16   -0.38    1.54
   4   2  16    0.93    1.34
   4   2  16   -0.67    1.83
   4   2  16    0.40    1.47
   5  -2  16    0.97    1.19
   5  -2  16    2.37    1.64
   5   2  16    4.65    1.60
   5   2  16   -0.53    1.13
  -5  -3  16    4.20    1.29
   5   3 -16    4.88    1.14
   5   3 -16    4.13    0.90
   4  -3 -16   -0.02    1.81
  -4  -3  16    1.79    1.70
   4   3 -16    1.61    1.72
   4   3 -16    2.22    1.71
   4   3 -16   -0.59    1.16
  -3  -3  16   16.61    3.02
   3  -3 -16   15.98    2.73
   3  -3 -16   18.43    2.59
   3   3 -16   15.86    2.34
   3   3 -16   15.98    2.28
   3   3 -16   14.50    2.64
   3   3 -16   14.20    2.59
  -2  -3  16   13.75    2.50
   2  -3 -16   15.04    2.28
   2  -3 -16   13.74    2.15
   2  -3 -16   13.19    2.32
   2   3 -16   15.59    2.67
   2   3 -16   13.88    2.44
   2   3 -16   13.70    2.41
   1  -3 -16   12.31    1.95
  -1  -3  16   10.43    1.98
   1  -3 -16   10.04    1.46
  -1  -3  16   14.49    2.67
   1  -3 -16    9.63    2.21
   1  -3 -16   11.23    2.04
   1   3 -16   10.44    2.02
   0  -3 -16   17.31    2.99
   0  -3 -16   16.78    1.36
   0  -3  16   18.57    2.95
   0  -3 -16   18.38    2.93
   0  -3 -16   14.84    1.79
   0  -3 -16   19.15    2.66
   0  -3  16   18.68    2.77
   0  -3  16   16.36    2.54
   0  -3 -16   22.15    2.34
   0   3 -16   18.22    2.16
   0   3 -16   21.02    2.94
   0   3 -16   20.55    2.94
   0   3  16   21.12    2.31
  -1  -3 -16    4.12    1.81
   1  -3  16    1.07    1.55
   1  -3  16    5.05    1.73
  -1  -3 -16    3.33    1.83
   1  -3  16    3.13    1.32
  -1  -3 -16    1.90    1.74
  -1  -3 -16    2.36    1.11
  -1   3 -16    0.12    1.53
   1   3  16    4.24    1.44
  -2  -3 -16    9.13    1.96
   2  -3  16   10.82    2.23
  -2  -3 -16    7.69    1.26
  -2  -3 -16    7.81    1.75
   2  -3  16   11.91    1.67
  -2   3 -16    9.80    2.45
   2   3  16   10.40    1.77
   2   3  16    9.44    1.99
   3  -3  16    7.03    1.60
   3  -3  16   10.35    2.04
  -3  -3 -16    7.36    1.52
  -3  -3 -16    9.50    1.91
  -3  -3 -16    6.99    1.71
   3   3  16    6.35    2.07
   4  -3  16    9.88    1.72
  -4  -3 -16    9.17    1.73
  -4  -3 -16    8.43    1.46
   4  -3  16    7.01    1.70
   4   3  16    9.18    1.64
   4   3  16    9.70    1.74
   4   3  16    7.09    1.51
  -4  -4  16   22.45    1.95
   4   4 -16   16.72    1.44
   3  -4 -16    1.68    1.68
   3  -4 -16    0.97    1.23
  -3  -4  16    1.08    1.30
  -3  -4  16    4.40    1.25
   3   4 -16    1.19    1.43
   3   4 -16    2.30    1.18
   3   4 -16   -0.20    1.47
   3   4 -16    1.09    1.29
  -2  -4  16    4.27    1.49
  -2  -4  16    1.85    1.79
  -2  -4  16    6.18    1.57
   2  -4 -16    2.69    1.53
   2  -4 -16    3.01    1.85
   2   4 -16    3.18    1.57
   2   4 -16    4.82    1.67
   2   4 -16    3.71    1.54
  -1  -4  16    8.96    1.75
  -1  -4  16   10.95    1.82
   1  -4 -16    8.98    1.81
  -1  -4  16    8.05    1.40
   1  -4 -16    5.22    2.32
   1   4 -16    5.86    1.91
   1   4 -16   10.48    1.93
  -1   4  16    7.75    1.67
   0  -4  16    0.54    0.87
   0  -4 -16    0.12    0.92
   0  -4 -16    3.35    1.84
   0  -4 -16   -0.81    1.46
   0  -4  16    0.17    1.36
   0  -4  16    1.08    1.22
   0   4  16   -0.26    1.06
   0   4 -16   -0.44    1.31
   1  -4  16   -1.30    0.77
   1  -4  16    1.24    1.71
  -1  -4 -16    1.62    1.63
  -1  -4 -16    0.61    1.26
   1   4  16   -0.30    0.90
  -1   4 -16    1.84    1.81
  -1   4 -16    0.02    1.01
   2  -4  16   26.73    2.54
  -2  -4 -16   19.76    2.20
  -2  -4 -16   31.53    3.31
  -2  -4 -16   23.10    1.52
   2   4  16   24.27    2.58
  -2   4 -16   25.06    1.92
  -3  -4 -16    1.69    1.66
  -3  -4 -16    3.91    0.91
   3  -4  16    3.15    1.35
  -3   4 -16    2.21    0.99
   3   4  16    2.30    1.31
  -1  -5  16    2.01    1.26
   1  -5 -16    1.97    1.47
   1  -5 -16    3.28    1.23
   0  -5 -16    2.21    1.46
   0  -5  16    0.84    0.99
   0  -5 -16   -0.02    1.34
   0   5  16    3.38    1.69
   0   5 -16    0.24    1.45
  -1  -5 -16   22.98    1.01
  -1  -5 -16   21.41    1.90
   1   5  16   23.08    2.02
   6   0 -17    1.02    1.31
   5   0 -17    7.55    1.69
   5   0 -17    4.48    1.72
   4   0 -17   25.42    2.93
   4   0 -17   22.99    1.76
   4   0 -17   19.10    2.58
   3   0 -17   33.72    3.27
  -3   0  17   31.63    2.13
   3   0 -17   33.47    1.78
   3   0 -17   30.84    2.55
   2   0 -17    5.00    1.27
  -2   0  17    6.04    1.15
   1   0 -17   17.27    1.95
   1   0 -17   14.63    2.07
  -1   0  17   13.74    1.63
   0   0 -17    3.22    1.36
   0   0 -17    1.91    1.33
  -1   0 -17    9.30    1.71
   2   0  17   16.33    2.99
  -2   0 -17   13.17    2.27
   3   0  17    5.61    1.71
   3   0  17    4.75    1.80
   3   0  17    2.26    1.10
   3   0  17    1.84    1.63
   4   0  17   22.94    2.74
   4   0  17   21.92    1.93
   4   0  17   22.87    2.91
   4   0  17   22.50    1.82
   5   0  17   -0.21    1.33
   5   0  17   -0.27    1.30
   5   0  17   -0.28    0.69
  -6  -1  17    1.33    1.31
   6   1 -17    1.35    1.24
   5  -1 -17    5.68    1.67
   5   1 -17    7.40    1.95
   5   1 -17    8.79    1.23
   5   1 -17   11.23    1.98
   4  -1 -17   41.09    3.39
   4   1 -17   36.96    3.40
   4   1 -17   40.48    3.38
   4   1 -17   45.71    2.93
   3  -1 -17   81.76    4.25
   3  -1 -17   77.34    2.95
   3   1 -17   84.05    4.75
   3   1 -17   83.45    4.53
   3   1 -17   83.64    4.36
   3   1 -17   76.98    3.35
   3   1 -17   82.33    3.31
   2  -1 -17   29.15    3.32
   2  -1 -17   24.46    1.45
   2  -1 -17   25.02    2.49
   2  -1 -17   25.63    3.20
   2   1 -17   28.92    3.34
   2   1 -17   24.42    2.27
  -2   1  17   27.12    1.74
   1  -1 -17   93.59    3.99
   1  -1 -17   86.28    2.97
   1   1 -17   84.81    3.83
   1   1 -17   87.05    3.66
  -1   1  17   91.27    3.06
  -1   1  17   80.78    3.70
   0  -1 -17   27.24    2.20
   0  -1 -17   24.74    2.26
   0   1  17   24.01    2.23
   0   1 -17   24.69    2.41
   0   1  17   23.64    1.95
  -1  -1 -17   59.28    3.22
  -1  -1 -17   59.69    3.40
  -1   1 -17   63.71    3.45
   2  -1  17    8.72    2.21
   2  -1  17   10.34    1.71
  -2  -1 -17   10.90    1.94
  -2   1 -17    8.85    1.99
   2   1  17    9.86    2.04
   3  -1  17   46.12    2.75
   3  -1  17   46.37    2.80
   3  -1  17   39.42    2.32
   3  -1  17   44.71    3.34
   3   1  17   38.49    3.42
   3   1  17   39.33    3.32
   3   1  17   40.77    2.85
  -3   1 -17   43.49    3.29
   4  -1  17    8.62    1.85
   4  -1  17    9.46    1.36
   4  -1  17    7.57    1.79
   4   1  17   11.91    2.09
   4   1  17    7.59    1.79
   4   1  17   11.45    1.65
   5  -1  17    7.42    1.54
   5  -1  17    8.40    1.72
   5   1  17   12.77    2.19
   5   1  17    7.72    1.51
   5   1  17    8.86    1.29
  -5  -2  17    3.36    1.19
   5  -2 -17    3.69    1.43
   5   2 -17    2.67    0.95
   5   2 -17    1.61    1.20
   4  -2 -17    4.11    1.78
   4   2 -17    6.00    2.23
   4   2 -17    1.92    1.74
   4   2 -17    1.96    1.63
   4   2 -17    3.34    1.61
   4   2 -17    5.57    1.16
   3  -2 -17   17.59    3.06
   3  -2 -17   18.14    2.74
  -3  -2  17   14.08    2.54
   3   2 -17   14.01    2.09
   3   2 -17   20.26    3.25
   3   2 -17   18.93    2.55
   3   2 -17   17.28    1.77
   3   2 -17   16.71    2.73
   2  -2 -17    9.37    1.48
   2  -2 -17    5.25    1.91
   2  -2 -17    9.22    1.96
   2  -2 -17    4.97    1.74
  -2  -2  17    5.55    1.73
  -2   2  17    7.77    1.33
   2   2 -17    7.45    2.46
   2   2 -17    8.38    2.56
   2   2 -17    6.28    1.84
   2   2 -17    5.98    1.95
   1  -2 -17   17.58    2.92
   1  -2 -17   15.86    2.24
   1  -2 -17   15.76    1.42
  -1  -2  17   18.54    2.92
   1  -2 -17   16.39    3.01
   1  -2 -17   14.85    2.25
  -1   2  17   16.49    1.91
   1   2 -17   18.99    3.16
   1   2 -17   16.14    2.51
   0  -2 -17   12.02    2.07
   0  -2 -17   13.03    2.45
   0  -2 -17   11.63    2.24
   0  -2  17   17.33    2.92
   0  -2 -17    7.88    1.01
   0  -2 -17    7.80    1.43
   0   2  17    8.60    1.44
   0   2  17    9.50    1.69
   0   2 -17   15.30    2.45
  -1  -2 -17    3.60    1.29
  -1  -2 -17    9.48    2.43
  -1  -2 -17    4.21    1.84
   1  -2  17    8.43    1.93
  -1  -2 -17    6.20    1.64
  -1  -2 -17    3.92    1.39
   1   2  17    6.71    1.98
  -1   2 -17    7.11    1.96
   1   2  17    5.25    1.37
   2  -2  17   35.81    2.88
  -2  -2 -17   38.42    2.79
  -2  -2 -17   35.85    3.00
   2  -2  17   39.79    2.64
   2  -2  17   40.65    3.50
  -2  -2 -17   35.98    3.21
   2   2  17   37.81    3.31
  -2   2 -17   37.39    3.11
   3  -2  17    7.12    1.87
  -3  -2 -17    5.55    1.73
   3  -2  17    7.72    1.31
   3   2  17    7.19    1.90
   3   2  17    5.05    1.61
  -3   2 -17    8.36    2.28
   4  -2  17   -0.05    1.55
   4  -2  17   -2.52    1.61
  -4  -2 -17   -1.16    1.52
   4   2  17    2.02    1.80
   4   2  17    1.86    1.42
   4   2  17    1.45    1.32
  -5  -2 -17    0.80    1.26
   5  -2  17    0.36    1.17
   5  -2  17    0.47    1.22
   5   2  17    1.60    1.43
   5   2  17   -0.37    1.30
   5   2  17   -0.66    0.94
   5   3 -17    0.72    0.99
   5   3 -17    0.06    0.67
   4  -3 -17    4.86    1.93
  -4  -3  17    4.62    1.73
   4   3 -17    8.48    1.67
   4   3 -17    8.30    1.34
   4   3 -17    5.58    1.59
   3  -3 -17    5.55    1.86
  -3  -3  17    6.28    1.96
   3  -3 -17    5.74    1.79
   3   3 -17    5.67    1.76
   3   3 -17    2.51    1.76
   3   3 -17    5.90    1.58
   3   3 -17    4.14    1.40
   2  -3 -17   10.76    2.14
   2  -3 -17   14.75    2.16
  -2  -3  17    8.64    2.01
   2  -3 -17   10.30    1.91
   2   3 -17   17.12    2.32
   2   3 -17   10.05    2.20
   2   3 -17   11.02    2.28
   1  -3 -17    3.32    2.03
  -1  -3  17    1.51    1.46
  -1  -3  17    0.37    2.16
   1  -3 -17   -0.28    1.90
   1  -3 -17    3.45    1.00
   1  -3 -17    2.58    1.58
   1   3 -17    2.46    1.65
   0  -3 -17   66.45    3.30
   0  -3  17   64.61    3.77
   0  -3 -17   54.78    3.93
   0  -3  17   71.83    4.22
   0  -3  17   54.75    3.58
   0  -3 -17   65.19    4.28
   0   3 -17   63.00    3.96
   0   3  17   64.32    3.43
   0   3 -17   72.24    4.08
  -1  -3 -17   23.90    2.54
   1  -3  17   27.58    3.15
  -1  -3 -17   21.36    2.73
  -1  -3 -17   20.74    2.97
   1  -3  17   19.77    2.48
  -1  -3 -17   18.39    1.81
   1  -3  17   18.48    2.30
   1   3  17   17.45    1.92
  -1   3 -17   19.96    3.10
  -1   3 -17   22.11    2.00
   2  -3  17   19.43    3.25
   2  -3  17   12.70    1.72
  -2  -3 -17   11.82    2.09
  -2  -3 -17   13.41    2.19
  -2  -3 -17   15.20    1.70
  -2   3 -17   16.80    2.77
   2   3  17   17.97    2.79
   3  -3  17    4.97    1.65
  -3  -3 -17    1.82    1.14
  -3  -3 -17    3.43    1.37
   3   3  17   -0.42    1.45
  -4  -3 -17    8.64    1.72
   4  -3  17    9.68    1.65
  -4  -3 -17   10.82    1.66
   4  -3  17    8.08    1.61
   4   3  17    8.83    1.43
   4   3  17    6.00    1.37
  -3  -4  17   13.25    2.22
  -3  -4  17    8.10    1.49
   3  -4 -17    7.70    1.74
   3  -4 -17    7.70    1.43
   3   4 -17    3.73    1.25
   3   4 -17    5.41    1.47
   3   4 -17    8.98    1.39
  -2  -4  17    8.74    1.75
  -2  -4  17    9.86    1.71
   2  -4 -17    8.50    1.72
  -2  -4  17    8.73    1.58
   2  -4 -17    8.11    1.90
   2   4 -17    4.79    1.54
   2   4 -17    6.72    1.77
   2   4 -17    9.23    1.56
   1  -4 -17   -0.41    1.34
  -1  -4  17    1.12    1.07
  -1  -4  17    2.23    1.33
   1  -4 -17   -0.14    1.57
  -1  -4  17    0.07    1.22
   1   4 -17    1.10    1.83
  -1   4  17    0.20    1.07
   1   4 -17    1.59    1.40
   0  -4  17    8.49    1.65
   0  -4 -17    6.26    1.24
   0  -4  17    6.17    1.44
   0  -4 -17    7.80    2.00
   0  -4 -17    9.22    2.04
   0   4 -17    5.90    1.96
   0   4  17    6.59    1.51
  -1  -4 -17    0.15    1.17
   1  -4  17   -1.01    0.76
  -1  -4 -17    1.25    1.63
   1  -4  17    0.79    1.38
  -1   4 -17   -1.06    1.30
   1   4  17    0.45    1.11
   1   4  17   -0.68    1.64
  -2  -4 -17    0.33    1.13
  -2  -4 -17    0.37    0.68
  -2  -4 -17    0.87    1.53
  -2   4 -17    2.57    1.73
   2   4  17    0.64    1.72
  -2   4 -17    0.52    0.97
   3  -4  17    2.92    1.59
  -3  -4 -17    2.40    1.55
  -3  -4 -17    3.64    0.77
   3   4  17    2.10    1.18
  -1  -5  17    1.71    1.23
   0  -5 -17    5.31    1.18
   0   5  17    4.69    1.58
   6   0 -18   -0.03    1.20
   5   0 -18    8.42    2.02
   4   0 -18    2.29    0.98
   4   0 -18    0.30    1.52
   3   0 -18  235.88    6.55
   3   0 -18  224.70    7.35
   3   0 -18  209.36    4.91
   2   0 -18   11.17    2.15
  -2   0  18   12.56    1.55
   2   0 -18   11.85    1.85
   1   0 -18    2.76    1.29
  -1   0  18    2.96    1.10
   1   0 -18    2.14    1.48
   0   0 -18    0.49    1.35
   0   0 -18    0.28    1.39
  -1   0 -18  103.08    4.27
   2   0  18  171.42    6.18
  -2   0 -18  174.45    5.76
   3   0  18    0.33    1.62
   3   0  18    0.60    1.50
   3   0  18    1.37    1.36
   3   0  18    2.87    1.33
   4   0  18    2.26    1.47
   4   0  18    1.09    0.89
   4   0  18   -0.73    1.45
   5   0  18    3.20    1.67
   5   0  18    4.04    1.45
   5  -1 -18    2.10    1.36
   5   1 -18    0.05    0.75
   5   1 -18   -0.04    1.21
   5   1 -18    0.78    1.64
   4  -1 -18    8.48    1.98
   4   1 -18    6.59    1.86
   4   1 -18    6.61    1.60
   4   1 -18    7.86    2.04
   3  -1 -18   12.10    1.53
   3  -1 -18    9.69    2.22
   3   1 -18   11.22    2.01
   3   1 -18   14.60    2.71
   3   1 -18   14.08    2.54
   3   1 -18   12.90    1.89
   3   1 -18    9.09    1.72
   2  -1 -18   20.40    3.18
   2  -1 -18   17.59    2.72
   2  -1 -18   16.53    2.45
   2  -1 -18   18.63    2.28
   2   1 -18   18.29    2.42
   2   1 -18   20.99    3.26
   2   1 -18   17.48    2.81
   2   1 -18   22.30    2.02
  -2   1  18   21.12    1.75
   1  -1 -18    5.45    1.54
   1  -1 -18    4.98    1.30
  -1   1  18    3.99    1.19
   1   1 -18    5.47    1.63
  -1   1  18    5.97    1.50
   1   1 -18    5.60    1.64
   0  -1 -18    2.86    1.68
   0  -1 -18    6.28    1.53
   0   1 -18    3.19    1.32
   0   1  18    4.49    1.17
   0   1  18    4.15    1.36
  -1  -1 -18   55.35    3.37
  -1  -1 -18   60.87    3.48
  -1   1 -18   60.36    3.46
  -2  -1 -18   38.24    3.84
   2  -1  18   30.59    3.04
   2  -1  18   31.15    3.17
   2  -1  18   34.92    2.96
  -2  -1 -18   33.09    2.88
  -2   1 -18   34.81    3.08
   2   1  18   35.63    3.21
   3  -1  18   97.89    3.83
   3  -1  18   89.26    3.31
   3  -1  18   96.31    3.96
   3  -1  18   96.89    4.42
   3   1  18   87.64    3.95
   3   1  18   89.77    4.53
  -3   1 -18   87.51    4.27
   3   1  18   90.21    4.34
   4  -1  18    2.78    1.06
   4  -1  18    1.49    1.56
   4   1  18    2.26    1.24
   4   1  18    4.06    1.63
   5  -1  18   16.53    2.20
   5  -1  18   12.59    2.15
   5   1  18   14.90    1.26
   5   1  18   13.57    2.42
   5   1  18   11.93    1.83
   5  -2 -18   10.50    1.88
  -5  -2  18    8.09    1.53
   5   2 -18   10.81    1.21
   5   2 -18    6.94    1.43
   4  -2 -18   12.62    2.38
   4   2 -18    8.61    1.88
   4   2 -18   15.01    1.50
   4   2 -18   12.41    2.10
   4   2 -18   13.52    1.94
   4   2 -18   21.13    2.99
   3  -2 -18   10.32    1.93
  -3  -2  18   14.43    2.59
   3  -2 -18   10.39    2.06
   3   2 -18   12.13    2.35
   3   2 -18    9.35    2.20
   3   2 -18    8.11    2.02
   3   2 -18    9.90    1.78
   3   2 -18   10.68    1.65
  -2  -2  18    9.72    2.21
   2  -2 -18    7.65    1.29
   2  -2 -18    3.89    1.74
   2  -2 -18    5.73    2.01
   2  -2 -18    6.96    1.88
   2   2 -18    7.88    2.04
   2   2 -18    5.17    2.01
   2   2 -18    8.36    2.03
   2   2 -18    8.13    1.70
   1  -2 -18   15.51    2.61
  -1  -2  18   14.26    2.11
   1  -2 -18   16.22    2.69
   1  -2 -18   13.48    1.48
   1  -2 -18   12.85    2.29
   1  -2 -18   17.59    2.10
   1   2 -18   16.49    2.63
  -1   2  18   17.97    2.11
   1   2 -18   15.56    2.63
   1   2 -18   16.96    2.43
   0  -2 -18   19.99    3.29
   0  -2 -18   15.11    2.09
   0  -2  18   19.42    3.03
   0  -2 -18   18.00    2.70
   0  -2 -18   20.18    2.71
   0  -2 -18   16.82    1.80
   0  -2 -18   22.86    2.95
   0   2  18   16.26    2.50
   0   2 -18   20.23    2.72
   0   2  18   16.52    2.26
   0   2 -18   19.53    3.05
   0   2  18   17.41    2.18
  -1  -2 -18    6.03    1.63
  -1  -2 -18    8.90    2.14
  -1  -2 -18    4.86    1.64
   1  -2  18    3.16    2.00
   1  -2  18    5.50    1.81
  -1  -2 -18    4.18    1.14
  -1  -2 -18    4.60    1.99
  -1   2 -18    3.80    1.82
   1   2  18    5.53    1.42
   1   2  18    9.69    2.02
  -2  -2 -18    2.92    1.87
   2  -2  18    3.30    1.74
   2  -2  18    2.41    1.19
   2  -2  18    7.14    2.14
  -2  -2 -18    4.26    1.52
  -2  -2 -18    4.95    2.00
  -2   2 -18    3.19    1.82
   2   2  18    2.33    1.75
  -3  -2 -18    5.90    1.57
   3  -2  18    5.33    1.87
   3  -2  18    5.60    1.18
  -3   2 -18    4.42    2.20
   3   2  18    2.24    1.66
   4  -2  18    6.10    1.72
  -4  -2 -18    0.55    1.45
   4  -2  18    4.41    1.86
   4   2  18    1.30    1.39
   4   2  18    5.48    1.63
   5  -2  18    3.07    1.23
  -5  -2 -18    2.24    1.10
   5  -2  18    3.68    1.16
   5   2  18    2.27    0.94
   5   2  18    3.05    1.06
   4  -3 -18    0.94    1.38
   4   3 -18    0.31    1.27
   4   3 -18    2.86    1.33
   4   3 -18    2.23    1.08
  -3  -3  18   16.56    2.46
   3  -3 -18   12.77    2.35
   3  -3 -18   15.60    2.43
   3   3 -18   14.59    1.78
   3   3 -18   12.57    2.11
   3   3 -18   14.08    2.44
   3   3 -18   14.43    2.01
   2  -3 -18    9.49    2.18
   2  -3 -18   10.47    2.03
   2  -3 -18   10.96    2.37
  -2  -3  18    6.62    1.83
   2   3 -18   10.15    2.39
   2   3 -18    9.56    2.12
   2   3 -18    8.68    1.67
  -1  -3  18   19.40    3.03
   1  -3 -18   15.39    2.85
   1  -3 -18   28.58    3.05
  -1  -3  18   29.14    3.24
   1  -3 -18   24.08    1.94
   1  -3 -18   24.16    2.50
  -1   3  18   24.50    2.53
   1   3 -18   26.01    2.81
   0  -3  18    3.04    1.61
   0  -3  18    2.24    1.69
   0  -3 -18    2.23    2.02
   0  -3 -18    2.37    2.06
   0  -3 -18    3.45    1.45
   0  -3  18    4.99    1.91
   0  -3 -18    2.22    2.29
   0   3  18    0.45    1.09
   0   3 -18    3.24    1.71
   0   3 -18    0.80    1.54
  -1  -3 -18   10.45    2.37
  -1  -3 -18   10.00    2.26
  -1  -3 -18    5.47    1.67
   1  -3  18    7.32    1.31
   1  -3  18    8.66    1.62
  -1  -3 -18    9.43    1.63
  -1   3 -18    6.30    1.94
   1   3  18    7.97    2.08
   1   3  18    7.52    1.53
  -1   3 -18    8.08    1.59
  -2  -3 -18    5.28    1.23
  -2  -3 -18    8.28    1.24
   2  -3  18    8.07    1.26
  -2  -3 -18    7.93    2.22
   2  -3  18    8.37    1.98
   2   3  18    3.78    1.84
  -2   3 -18    6.35    2.09
  -3  -3 -18   17.89    1.98
  -3  -3 -18   13.99    1.74
   3  -3  18   20.45    2.44
   3   3  18   16.45    2.46
   4  -3  18   21.33    2.15
  -4  -3 -18   23.47    1.87
  -4  -3 -18   21.41    1.61
   4   3  18   19.47    2.32
   4   3  18   24.08    1.86
   3  -4 -18    0.71    1.31
  -3  -4  18    3.88    1.23
  -3  -4  18    1.78    1.39
   3  -4 -18    2.26    1.57
   3   4 -18    0.38    1.36
   3   4 -18    0.76    0.70
   3   4 -18    1.43    1.06
  -2  -4  18    9.25    1.69
  -2  -4  18    7.80    1.47
   2  -4 -18    7.74    1.54
   2  -4 -18    7.68    1.65
  -2  -4  18    9.01    1.50
   2   4 -18    9.10    1.63
   2   4 -18    4.44    1.56
   2   4 -18    5.53    1.33
  -1  -4  18    3.01    1.21
  -1  -4  18    0.85    0.96
   1  -4 -18    2.17    1.35
  -1  -4  18    0.06    1.15
   1  -4 -18    1.60    1.85
   1   4 -18    0.89    1.50
   1   4 -18    0.56    1.28
  -1   4  18    1.88    1.10
   0  -4 -18   13.45    2.47
   0  -4 -18    9.11    1.35
   0  -4  18   12.66    2.06
   0  -4  18   12.25    1.62
   0  -4 -18   16.62    3.00
   0   4  18   10.27    1.73
   0   4 -18   10.74    2.04
  -1  -4 -18    3.26    1.58
  -1  -4 -18    2.40    0.97
   1  -4  18    2.55    0.78
   1   4  18    2.06    1.64
  -1   4 -18    1.91    1.32
   1   4  18    1.79    1.15
  -2  -4 -18    3.50    1.52
  -2  -4 -18    2.40    1.15
  -2   4 -18    0.19    1.33
   2   4  18    0.45    1.65
  -3  -4 -18    0.27    0.98
   3   4  18   -1.16    1.04
  -3   4 -18    0.38    1.06
   5   0 -19    2.40    1.42
   4   0 -19   24.88    1.86
   4   0 -19   26.83    2.90
   3   0 -19    3.37    1.30
   3   0 -19    6.75    2.30
   2   0 -19   75.71    3.14
   2   0 -19   75.54    3.33
   2   0 -19   81.54    4.06
  -2   0  19   75.56    3.10
   2   0 -19   80.40    4.73
  -1   0  19    7.47    1.42
   1   0 -19   13.28    2.08
   1   0 -19   16.15    2.16
   0   0 -19   -0.48    1.49
   0   0 -19    1.42    1.30
  -1   0 -19   25.78    2.71
   2   0  19   -0.95    1.86
  -2   0 -19   -1.60    1.68
   3   0  19    6.68    1.83
   3   0  19    5.93    1.68
   3   0  19    4.08    1.35
   3   0  19    7.56    2.25
   4   0  19    5.19    0.99
   4   0  19    2.12    1.48
   4   0  19    4.94    1.72
   5   0  19    2.32    1.26
   5  -1 -19    2.90    1.43
   5   1 -19    9.16    1.80
   5   1 -19    5.63    1.66
   5   1 -19    3.21    0.73
   4  -1 -19   55.56    3.65
   4   1 -19   54.72    3.67
   4   1 -19   59.13    3.77
   4   1 -19   55.02    2.87
   3  -1 -19   78.18    4.24
   3  -1 -19   78.01    2.97
   3   1 -19   91.79    3.20
   3   1 -19   72.91    3.95
   3   1 -19   76.52    4.29
   3   1 -19   81.87    4.55
   2  -1 -19   30.54    2.84
   2  -1 -19   28.74    3.29
   2  -1 -19   23.81    2.41
   2  -1 -19   26.03    3.35
   2   1 -19   28.26    2.89
   2   1 -19   24.03    3.05
  -2   1  19   26.25    1.89
   2   1 -19   23.19    2.56
   2   1 -19   25.05    1.94
   1  -1 -19    7.35    1.43
   1  -1 -19    7.29    2.46
   1  -1 -19    8.13    2.22
   1  -1 -19   10.38    2.03
   1   1 -19    3.87    1.72
  -1   1  19   10.57    1.72
  -1   1  19    5.28    1.22
   1   1 -19    8.94    2.00
   1   1 -19    6.73    1.68
   0  -1 -19    9.85    1.47
   0  -1 -19    7.41    1.63
   0  -1 -19    9.42    2.03
   0  -1 -19   10.99    2.23
   0   1 -19    5.72    1.80
  -1  -1 -19   36.70    3.11
  -1  -1 -19   34.44    2.86
  -1  -1 -19   40.78    2.96
   1   1  19   29.92    3.15
  -1   1 -19   36.84    3.09
  -2  -1 -19   25.90    2.81
  -2  -1 -19   23.71    2.98
   2  -1  19   23.64    2.71
   2  -1  19   26.73    3.31
   2  -1  19   25.97    3.01
   2   1  19   26.63    3.46
  -2   1 -19   28.69    2.99
   3  -1  19   13.18    2.11
   3  -1  19   12.77    2.11
   3  -1  19   16.59    1.81
   3   1  19    9.57    1.73
   3   1  19   18.30    2.75
  -3   1 -19   14.86    2.44
   3   1  19   14.16    2.22
   4  -1  19    2.16    0.98
   4  -1  19    2.22    1.56
   4   1  19    1.15    1.50
   4   1  19   -2.51    1.26
   4   1  19    0.57    1.17
   5  -1  19    5.04    1.39
   5   1  19    5.37    1.55
   5   1  19    3.73    0.82
   5  -2 -19    2.26    1.28
  -5  -2  19    2.54    1.05
   5   2 -19    2.97    0.89
   5   2 -19    1.43    1.29
   4  -2 -19    3.67    1.61
   4   2 -19    0.87    1.29
   4   2 -19    0.78    1.94
   4   2 -19    2.89    1.56
   4   2 -19    2.04    1.59
   4   2 -19    3.70    0.85
   3  -2 -19   18.01    2.83
   3  -2 -19   21.95    2.76
  -3  -2  19   17.69    2.75
   3   2 -19   25.40    2.45
   3   2 -19   13.75    2.66
   3   2 -19   19.25    2.79
   3   2 -19   21.27    1.73
   2  -2 -19   32.03    2.05
   2  -2 -19   28.82    3.02
   2  -2 -19   34.68    3.08
   2  -2 -19   28.79    3.15
  -2  -2  19   31.20    3.01
   2   2 -19   27.94    2.60
   2   2 -19   25.65    3.18
   2   2 -19   27.94    2.96
   2   2 -19   31.20    2.63
   2   2 -19   29.91    3.16
   1  -2 -19   11.59    2.19
   1  -2 -19   10.76    1.99
   1  -2 -19   11.20    1.91
  -1  -2  19    9.20    1.86
   1  -2 -19   14.11    2.09
   1   2 -19   10.90    1.88
   1   2 -19    9.84    2.11
  -1   2  19   14.38    2.30
   1   2 -19   14.26    2.48
   0  -2 -19   13.48    1.70
   0  -2 -19   26.08    2.90
   0  -2  19   14.24    2.31
   0  -2 -19   16.48    2.22
   0  -2 -19   15.36    2.47
   0  -2 -19   17.80    2.75
   0  -2 -19   16.05    2.10
   0  -2  19   22.02    2.79
   0   2 -19   16.17    2.68
   0   2  19   14.17    2.81
   0   2  19   17.27    2.28
   0   2  19   11.80    2.10
   0   2 -19   15.31    2.39
   1  -2  19   24.10    2.84
  -1  -2 -19   21.63    2.62
  -1  -2 -19   21.71    3.06
   1  -2  19   17.60    2.49
  -1  -2 -19   23.17    1.98
  -1  -2 -19   28.01    2.96
  -1  -2 -19   20.96    2.45
   1   2  19   25.50    2.34
  -1   2 -19   23.82    3.00
   1   2  19   26.60    3.50
   2  -2  19   19.45    2.23
   2  -2  19   16.81    2.36
  -2  -2 -19   18.81    2.73
   2  -2  19   12.95    2.18
  -2  -2 -19   20.59    2.39
   2   2  19   17.17    2.71
   2   2  19   16.90    2.15
  -2   2 -19   15.26    2.59
  -3  -2 -19   11.11    1.75
   3  -2  19    5.99    1.83
   3  -2  19    8.74    1.41
   3   2  19    5.44    1.73
  -4  -2 -19    4.49    1.60
   4  -2  19    4.27    1.66
   4   2  19    4.16    1.36
   4   2  19    4.92    1.42
  -5  -2 -19    5.34    0.97
   5  -2  19    4.71    1.19
   5   2  19    4.79    0.83
   4  -3 -19    3.60    1.42
   4   3 -19    2.07    1.22
   4   3 -19   -0.84    1.06
   4   3 -19   -0.43    1.42
  -3  -3  19   16.04    2.67
   3  -3 -19   16.09    2.51
   3  -3 -19   13.93    2.27
   3   3 -19   15.89    1.92
   3   3 -19   16.65    1.67
   3   3 -19   11.33    1.95
   3   3 -19   12.44    2.31
   2  -3 -19    0.53    1.57
   2  -3 -19    1.05    1.51
  -2  -3  19    0.83    1.50
   2   3 -19    1.82    1.29
   2   3 -19    2.49    1.69
   2   3 -19    6.31    2.07
  -1  -3  19    5.30    1.81
   1  -3 -19    6.70    1.99
   1  -3 -19    7.37    1.83
   1  -3 -19    5.91    1.99
   1  -3 -19    4.95    1.21
  -1  -3  19    5.68    1.90
   1   3 -19    3.64    2.17
   1   3 -19    3.34    1.79
   1   3 -19    7.96    1.90
  -1   3  19    3.73    1.29
   0  -3 -19   22.10    3.38
   0  -3  19   21.93    2.82
   0  -3 -19   16.59    2.93
   0  -3 -19   19.11    2.52
   0  -3 -19   20.49    2.00
   0  -3  19   26.50    3.08
   0  -3  19   25.17    2.99
   0   3  19   15.49    2.00
   0   3 -19   21.39    2.64
   0   3  19   16.99    3.05
   0   3 -19   18.50    3.01
  -1  -3 -19   11.93    2.29
   1  -3  19   19.11    2.31
  -1  -3 -19   17.30    1.72
   1  -3  19   12.81    1.74
  -1  -3 -19   17.38    2.13
  -1  -3 -19   16.39    2.26
   1   3  19   17.64    2.84
   1   3  19   11.60    1.74
  -1   3 -19   15.70    2.94
  -1   3 -19   12.31    2.50
  -2  -3 -19    2.06    1.62
   2  -3  19    5.98    2.08
   2  -3  19    1.88    0.97
  -2  -3 -19    1.67    0.69
  -2  -3 -19    2.74    1.19
  -2   3 -19    1.79    1.07
   2   3  19    0.54    1.61
  -3  -3 -19    1.29    0.78
  -3  -3 -19    1.55    1.28
   3  -3  19    2.88    1.46
   3   3  19    2.09    1.38
  -4  -3 -19    3.54    1.18
  -4  -3 -19    3.57    0.68
   4  -3  19    5.25    1.31
   4   3  19    5.21    1.13
   4   3  19    3.00    1.33
  -3  -4  19    1.98    1.12
   3  -4 -19    2.89    1.06
  -3  -4  19    4.10    1.37
   3   4 -19    0.26    0.97
  -2  -4  19    9.17    1.51
   2  -4 -19   12.14    2.06
   2  -4 -19    9.12    1.50
  -2  -4  19   12.06    1.94
  -2  -4  19   13.80    1.78
   2   4 -19    6.18    1.77
   2   4 -19    7.17    1.50
   2   4 -19    9.96    1.60
  -1  -4  19    5.63    1.54
   1  -4 -19    3.76    1.61
  -1  -4  19    5.47    1.60
   1  -4 -19    5.18    1.51
  -1  -4  19    4.67    1.05
   1   4 -19    3.59    1.56
   1   4 -19    5.94    1.63
   1   4 -19    4.01    1.40
  -1   4  19    6.40    1.46
   0  -4  19    9.27    1.41
   0  -4  19    7.10    1.47
   0  -4 -19    8.60    1.72
   0  -4 -19   11.30    2.04
   0  -4 -19    7.15    1.12
   0   4 -19    8.91    1.65
   0   4  19    9.15    1.60
   0   4 -19    5.70    1.63
   0   4  19   14.97    2.64
  -1  -4 -19    5.15    1.15
   1  -4  19    3.50    0.67
  -1  -4 -19    6.22    1.87
   1   4  19    2.86    1.17
   1   4  19    5.79    2.06
  -1   4 -19    5.03    1.54
  -2  -4 -19    1.70    1.35
  -2  -4 -19    0.39    0.95
   2   4  19   -0.04    1.34
  -2   4 -19    1.04    1.19
   5   0 -20   25.14    2.38
   4   0 -20   23.29    1.70
   4   0 -20   20.91    2.76
   3   0 -20   76.69    3.58
   3   0 -20   70.99    4.19
   2   0 -20    2.75    2.16
  -2   0  20   -0.87    1.26
   2   0 -20   -0.40    1.09
   2   0 -20    1.46    1.29
   2   0 -20    0.95    1.39
   1   0 -20    8.28    1.71
   1   0 -20    5.23    1.52
   1   0 -20    4.43    1.66
   1   0 -20    6.25    1.28
   0   0 -20    3.52    1.75
   0   0 -20    3.60    1.52
   0   0 -20    3.62    1.74
  -1   0 -20   58.71    3.37
  -1   0 -20   62.44    3.61
   2   0  20  177.16    6.26
   2   0  20  166.03    5.92
  -2   0 -20  166.30    5.73
   3   0  20    0.06    1.24
   3   0  20    2.16    1.47
   3   0  20   -0.68    1.87
   3   0  20    1.53    1.63
   4   0  20    1.69    0.82
   4   0  20    0.21    1.42
   4   0  20    1.27    1.30
   5   0  20   -0.15    1.13
   5  -1 -20    2.12    1.58
   5   1 -20    2.35    1.49
   5   1 -20    0.08    0.58
   5   1 -20   -1.63    1.27
   4  -1 -20   16.99    2.70
   4   1 -20   16.46    2.39
   4   1 -20   25.51    2.90
   4   1 -20   17.86    1.88
   3  -1 -20    2.47    1.70
   3  -1 -20    0.03    0.90
   3   1 -20   -0.69    1.50
   3   1 -20    1.89    1.47
   3   1 -20    1.24    1.10
   3   1 -20    1.27    2.15
   2  -1 -20   13.20    2.21
   2  -1 -20    9.92    2.23
   2  -1 -20   16.17    2.16
   2   1 -20   17.36    2.47
   2   1 -20   14.75    1.77
   2   1 -20   13.62    2.16
   2   1 -20   12.31    2.30
   1  -1 -20    1.99    1.83
   1  -1 -20    4.13    1.49
   1  -1 -20    5.13    2.38
   1  -1 -20    1.84    1.26
   1  -1 -20    2.06    1.09
   1  -1 -20    2.64    1.69
   1   1 -20    0.89    1.66
   1   1 -20    2.56    1.23
   1   1 -20    0.82    2.09
   1   1 -20    2.06    1.72
   1   1 -20    1.48    1.61
  -1   1  20    2.48    1.27
   0  -1 -20    1.20    1.48
   0  -1 -20    0.03    1.41
   0  -1 -20    3.69    1.50
   0  -1 -20    0.83    1.05
   0   1 -20    2.02    1.69
   0   1 -20    2.45    1.56
  -1  -1 -20   58.51    3.52
  -1  -1 -20   59.83    3.73
  -1  -1 -20   63.08    3.21
  -1  -1 -20   50.52    3.55
   1   1  20   51.27    3.61
  -1   1 -20   56.52    3.62
  -2  -1 -20   84.84    3.98
  -2  -1 -20   74.36    3.76
   2  -1  20   75.19    3.76
   2  -1  20   83.26    4.23
   2  -1  20   85.05    4.42
  -2   1 -20   88.28    4.25
   2   1  20   82.45    4.23
  -3  -1 -20    9.71    2.22
   3  -1  20   15.26    2.06
   3  -1  20   11.44    1.66
   3  -1  20   12.12    2.10
   3   1  20   13.67    2.16
   3   1  20   15.68    2.68
   4  -1  20    2.63    1.58
   4  -1  20    3.69    1.01
   4   1  20    5.91    1.52
   4   1  20    4.77    1.56
   4   1  20    5.07    1.13
   5  -1  20   14.78    2.14
   5   1  20   11.52    0.86
   5   1  20    9.85    1.67
  -5  -2  20    9.17    1.36
   5  -2 -20    9.74    1.60
   5   2 -20    6.06    1.36
   5   2 -20    9.37    1.04
   4  -2 -20    4.64    1.66
   4   2 -20   11.77    2.41
   4   2 -20    4.84    1.61
   4   2 -20    5.41    1.35
  -3  -2  20   20.35    2.77
   3  -2 -20   16.63    2.55
   3  -2 -20   22.67    3.27
   3   2 -20   19.56    1.33
   3   2 -20   18.54    2.02
   3   2 -20   14.86    2.64
  -2  -2  20   15.79    2.65
   2  -2 -20   11.10    1.56
   2  -2 -20   11.89    2.30
   2  -2 -20   14.48    2.23
   2  -2 -20   16.32    2.81
   2   2 -20   11.95    2.36
   2   2 -20   12.64    2.13
   2   2 -20   12.99    2.08
   2   2 -20   13.79    2.14
   1  -2 -20    3.72    1.90
   1  -2 -20    4.22    1.28
  -1  -2  20    3.85    1.52
   1  -2 -20    1.37    1.61
   1  -2 -20    2.96    1.72
   1   2 -20    5.87    1.80
  -1   2  20    4.42    1.59
   1   2 -20    2.66    1.83
   0  -2 -20   22.51    1.87
   0  -2 -20   22.73    2.67
   0  -2 -20   31.98    3.16
   0  -2 -20   17.73    2.55
   0  -2  20   26.77    3.28
   0  -2 -20   24.22    2.97
   0  -2  20   21.20    3.11
   0   2 -20   24.00    2.64
   0   2  20   23.74    2.48
   1  -2  20   87.97    4.05
  -1  -2 -20   85.93    3.03
  -1  -2 -20   85.40    3.90
  -1  -2 -20   95.72    4.40
   1  -2  20   85.77    4.60
  -1   2 -20   86.58    4.19
   1   2  20   73.28    4.31
   2  -2  20   32.33    3.44
  -2  -2 -20   26.87    2.34
   2  -2  20   22.68    2.05
  -2  -2 -20   27.63    2.58
   2  -2  20   24.03    2.27
  -2   2 -20   23.96    2.82
   2   2  20   27.38    3.55
  -3  -2 -20    4.37    1.66
  -3  -2 -20    3.34    1.49
   3  -2  20    3.81    1.19
   3  -2  20    7.65    1.94
   3   2  20    4.55    2.06
   3   2  20    2.86    1.98
  -4  -2 -20    3.30    1.19
   4  -2  20    4.61    1.52
   4   2  20    4.50    1.20
   4   2  20    2.72    1.48
   4   2  20    3.67    1.35
   4  -3 -20   -0.98    1.19
   4   3 -20    1.76    1.10
   4   3 -20    0.78    1.02
   3  -3 -20   13.95    2.46
   3  -3 -20    8.34    2.04
  -3  -3  20   11.25    2.05
   3   3 -20    9.34    1.21
   3   3 -20   10.45    2.03
   3   3 -20    8.15    1.74
   3   3 -20   11.91    1.75
   2  -3 -20    2.54    1.55
  -2  -3  20    2.16    1.88
  -2  -3  20    1.36    2.31
   2  -3 -20    1.30    1.65
   2   3 -20    1.11    1.52
   2   3 -20    1.97    1.52
   2   3 -20    1.20    1.44
   2   3 -20    2.23    1.17
  -1  -3  20    8.71    1.84
   1  -3 -20   11.83    1.55
  -1  -3  20   11.65    2.01
   1  -3 -20   19.25    3.13
   1  -3 -20   13.20    2.28
   1  -3 -20   15.06    2.61
   1   3 -20   11.07    1.85
  -1   3  20   13.13    2.19
   1   3 -20   12.96    2.41
   1   3 -20   13.36    2.38
   0  -3 -20   28.75    3.44
   0  -3  20   29.73    3.01
   0  -3 -20   28.21    3.09
   0  -3  20   23.86    2.45
   0  -3 -20   26.54    2.04
   0  -3 -20   23.98    2.96
   0  -3  20   28.31    2.69
   0   3 -20   19.36    2.97
   0   3  20   25.63    3.09
   0   3 -20   24.73    2.74
   0   3  20   29.93    2.58
  -1  -3 -20    6.11    1.46
  -1  -3 -20    3.83    1.68
   1  -3  20    9.87    1.83
   1  -3  20    4.53    1.11
  -1  -3 -20    5.51    1.02
   1   3  20    6.04    1.97
   1   3  20    3.48    1.30
  -1   3 -20    7.24    2.05
   2  -3  20    5.49    1.11
  -2  -3 -20    4.21    1.19
  -2  -3 -20    4.98    1.95
   2   3  20    6.19    1.90
  -3  -3 -20    1.67    1.14
  -3  -3 -20    3.16    0.67
   3  -3  20    4.25    1.44
   3   3  20    3.33    1.36
   4  -3  20    5.11    1.50
  -4  -3 -20    3.96    1.00
   4   3  20    5.26    0.92
   2  -4 -20    4.72    1.39
   2  -4 -20    3.58    1.22
  -2  -4  20    3.83    1.29
  -2  -4  20    6.03    1.26
  -2  -4  20    5.51    1.08
   2   4 -20    3.59    1.15
   2   4 -20    4.05    1.09
   2   4 -20    5.31    1.58
  -1  -4  20   22.60    1.92
   1  -4 -20   18.90    2.25
  -1  -4  20   20.17    1.44
   1  -4 -20   19.59    2.31
  -1  -4  20   16.60    2.25
   1   4 -20   16.79    2.15
   1   4 -20   20.92    2.20
  -1   4  20   18.28    1.84
   1   4 -20   16.66    2.09
   0  -4  20    3.55    1.27
   0  -4 -20    5.44    1.88
   0  -4 -20    6.91    1.05
   0  -4 -20    5.59    1.50
   0  -4  20    7.75    1.23
   0   4  20    7.85    1.41
   0   4  20    8.65    2.15
   0   4 -20    5.81    1.65
   0   4 -20    5.69    1.56
  -1  -4 -20    2.95    1.41
  -1  -4 -20    2.68    1.01
  -1   4 -20    2.58    1.33
   1   4  20    5.18    1.71
  -2  -4 -20   10.73    1.35
  -2  -4 -20   15.82    2.11
  -2   4 -20   11.41    1.66
   2   4  20   16.11    2.03
   5   0 -21    1.64    1.33
   4   0 -21   -0.74    0.75
   4   0 -21   -0.38    1.43
   3   0 -21   19.85    2.85
   3   0 -21   14.99    1.94
   2   0 -21   20.80    2.60
   2   0 -21   14.79    1.87
   2   0 -21   15.38    2.10
   2   0 -21   19.24    2.99
   1   0 -21   34.69    2.12
   1   0 -21   36.95    2.79
   1   0 -21   38.05    2.89
   1   0 -21   37.63    3.70
   1   0 -21   30.90    2.69
   0   0 -21    2.24    1.68
   0   0 -21    3.19    1.63
   0   0 -21    3.22    1.69
   0   0 -21    1.91    1.39
  -1   0 -21   58.07    3.69
  -1   0 -21   51.90    3.23
  -2   0 -21    1.51    2.02
   2   0  21    2.72    1.65
   2   0  21   -0.94    1.76
   3   0  21   25.03    2.52
   3   0  21   20.50    2.77
   3   0  21   20.23    2.39
   4   0  21    1.79    1.44
   4   0  21    1.51    1.14
   5   0  21    1.41    1.11
   5  -1 -21    4.85    1.57
   5   1 -21    2.62    1.11
   5   1 -21    5.06    1.44
   4  -1 -21   19.28    2.62
  -4  -1  21   16.46    2.32
   4   1 -21   12.86    1.58
   4   1 -21   13.51    2.05
   4   1 -21   13.64    2.21
   3  -1 -21    3.05    1.64
  -3  -1  21    6.96    1.83
   3  -1 -21    3.15    1.02
   3   1 -21    3.58    1.78
   3   1 -21    3.50    1.11
   3   1 -21    6.54    2.16
   3   1 -21    4.40    1.51
   2  -1 -21    2.73    1.98
   2  -1 -21    6.34    1.81
   2  -1 -21    7.99    1.65
   2   1 -21    7.79    1.78
   2   1 -21    7.06    2.11
   2   1 -21    6.17    2.05
   2   1 -21    6.07    1.12
   1  -1 -21   -0.16    0.97
   1  -1 -21    0.85    1.63
   1  -1 -21    0.60    1.85
   1  -1 -21    0.46    1.32
   1  -1 -21    1.54    1.69
   1   1 -21   -0.03    1.35
   1   1 -21    0.53    1.79
   1   1 -21    2.09    2.17
   1   1 -21    0.20    1.78
   1   1 -21   -0.65    1.68
   0  -1 -21    1.25    1.51
   0  -1 -21    0.70    0.97
   0  -1 -21    0.60    1.85
   0  -1 -21    2.68    1.55
   0  -1 -21    1.26    1.89
   0   1 -21    0.23    1.34
   0   1 -21    2.62    1.83
  -1  -1 -21  110.78    4.05
  -1  -1 -21  127.12    5.16
   1  -1  21  137.80    6.02
  -1  -1 -21  106.35    4.67
  -1   1 -21  126.07    5.10
   1   1  21  114.47    5.03
  -2  -1 -21    9.12    1.65
  -2  -1 -21   13.30    2.36
   2  -1  21   10.37    1.90
   2  -1  21    6.68    2.21
   2  -1  21    9.19    2.30
   2   1  21    7.29    1.99
  -2   1 -21    7.06    2.35
  -3  -1 -21    8.53    1.82
   3  -1  21   12.15    1.73
   3  -1  21   13.90    2.55
   3  -1  21   11.01    1.55
   3   1  21   14.84    2.52
   3   1  21   11.17    2.36
  -4  -1 -21    3.85    1.47
   4  -1  21   -0.11    1.35
   4  -1  21   -0.26    0.83
   4   1  21    2.63    1.28
   4   1  21    1.31    0.84
   4   1  21    2.44    1.33
   5  -1  21    3.49    1.16
   4  -2 -21   22.92    2.76
  -4  -2  21   13.93    2.32
   4   2 -21   17.03    2.46
   4   2 -21   19.15    1.86
   3  -2 -21   14.70    2.44
  -3  -2  21   21.27    2.62
   3   2 -21   14.34    2.41
   3   2 -21   16.97    1.99
   3   2 -21   11.84    2.17
   2  -2 -21    6.20    1.13
   2  -2 -21    6.47    1.88
   2  -2 -21    6.67    1.91
  -2  -2  21    5.58    2.06
   2  -2 -21    7.70    2.18
   2   2 -21    6.25    1.41
   2   2 -21    5.67    1.65
   2   2 -21    3.17    1.77
   2   2 -21    6.55    1.45
  -2   2  21    3.35    1.34
  -1  -2  21    8.54    1.81
   1  -2 -21    8.66    1.68
   1  -2 -21   14.40    2.66
   1  -2 -21   14.54    2.27
   1  -2 -21    9.21    2.24
   1   2 -21   11.13    2.46
  -1   2  21   13.79    2.27
   1   2 -21   10.68    1.63
   0  -2 -21    0.71    0.99
   0  -2 -21    0.30    1.33
   0  -2  21    1.05    2.25
   0  -2 -21   -0.27    2.16
   0  -2 -21    1.17    2.10
   0  -2 -21   -1.38    1.87
   0  -2  21    0.51    1.80
   0   2  21   -0.38    1.04
   0   2 -21    1.30    1.59
  -1  -2 -21   10.06    1.72
  -1  -2 -21   10.27    2.06
   1  -2  21    9.91    1.69
   1  -2  21   13.23    2.27
  -1  -2 -21   10.79    1.34
   1   2  21    9.69    2.25
  -1   2 -21    7.54    1.92
   2  -2  21   23.91    2.40
  -2  -2 -21   26.48    2.45
  -2  -2 -21   21.44    2.03
   2  -2  21   20.05    1.90
   2  -2  21   27.08    3.41
  -2   2 -21   20.75    2.79
   2   2  21   24.03    2.98
   3  -2  21    0.69    1.01
  -3  -2 -21    0.93    0.98
   3  -2  21    0.60    1.59
  -3  -2 -21    1.41    1.40
   3   2  21    1.22    2.29
   3   2  21    2.82    1.62
  -4  -2 -21    1.10    0.90
  -4  -2 -21    2.37    1.31
   4  -2  21    1.51    1.28
   4   2  21    2.07    1.22
   4   2  21    1.06    0.94
   4   2  21    2.14    1.23
   4   3 -21    3.92    1.01
   4   3 -21    3.62    1.21
  -3  -3  21   -0.42    1.27
   3  -3 -21   -0.06    1.34
   3   3 -21    0.66    1.24
   3   3 -21   -0.37    1.15
   3   3 -21    0.50    1.20
   2  -3 -21    3.50    1.76
   2  -3 -21    5.10    1.59
  -2  -3  21    5.41    2.20
  -2  -3  21   -0.04    1.36
   2   3 -21    3.74    1.09
   2   3 -21    4.04    1.50
   2   3 -21    2.36    1.52
   2   3 -21    2.43    1.51
  -2   3  21    2.81    1.28
   1  -3 -21    5.07    1.74
  -1  -3  21    5.00    1.69
   1  -3 -21    4.72    1.04
  -1  -3  21    4.56    1.51
   1  -3 -21    3.40    1.85
  -1   3  21    7.08    1.65
   1   3 -21    4.22    1.69
   1   3 -21    5.61    1.88
   1   3 -21    4.59    1.64
   0  -3  21    6.23    1.76
   0  -3 -21    6.23    1.34
   0  -3 -21    6.77    1.76
   0  -3  21    6.89    1.66
   0  -3 -21    6.31    2.17
   0  -3  21    6.22    1.64
   0   3  21    6.75    1.99
   0   3  21    7.25    1.60
   0   3 -21    3.30    1.62
   1  -3  21    0.50    0.87
  -1  -3 -21    0.68    1.47
   1  -3  21    1.74    1.51
  -1  -3 -21    1.37    0.80
  -1  -3 -21    1.42    1.22
  -1   3 -21    1.04    1.44
   1   3  21    1.40    1.81
  -2  -3 -21    6.51    1.67
   2  -3  21    6.60    1.08
  -2  -3 -21    8.20    1.38
  -2   3 -21    5.06    1.91
   2   3  21    8.00    1.77
  -3  -3 -21    1.26    1.01
   3  -3  21    5.11    1.51
   3   3  21    2.65    1.25
  -2  -4  21    3.16    0.87
   2  -4 -21    3.14    1.19
  -2  -4  21    2.35    1.19
  -2  -4  21    3.50    1.18
   2  -4 -21    3.12    1.22
   2   4 -21    1.81    1.08
   2   4 -21    2.00    0.80
  -1  -4  21    9.87    1.28
  -1  -4  21    8.12    1.02
   1  -4 -21    9.21    1.71
  -1  -4  21    8.86    1.62
   1  -4 -21   12.92    2.37
  -1   4  21   12.39    1.79
   1   4 -21    9.94    1.73
   1   4 -21    6.77    1.53
   1   4 -21    9.25    1.71
   0  -4  21   13.74    1.21
   0  -4 -21   15.27    2.03
   0  -4 -21   12.11    0.93
   0  -4  21    9.02    1.58
   0  -4 -21   15.19    2.00
   0   4 -21   11.93    1.87
   0   4  21   13.79    2.51
   0   4 -21   11.76    2.13
   0   4  21    9.77    1.67
  -1  -4 -21    3.02    1.27
  -1  -4 -21    1.33    0.84
  -1   4 -21    2.08    1.15
   1   4  21    3.28    1.53
  -2  -4 -21    0.73    0.70
   2   4  21    2.11    1.25
   5   0 -22   10.79    1.81
   4   0 -22   42.31    2.94
   4   0 -22   33.40    1.68
   3   0 -22    1.05    1.58
   3   0 -22    1.33    1.34
   2   0 -22   -0.95    1.79
   2   0 -22    0.35    0.91
   2   0 -22    0.84    1.34
   1   0 -22    1.87    1.64
   1   0 -22    4.40    0.95
   1   0 -22    0.67    2.16
   1   0 -22    2.49    1.48
   1   0 -22    5.35    2.04
   0   0 -22   -1.39    1.86
   0   0 -22    0.15    1.65
   0   0 -22   -0.08    1.23
   0   0 -22    3.36    1.85
  -1   0 -22    8.64    1.95
  -1   0 -22    9.72    2.33
  -2   0 -22   65.82    3.95
   2   0  22   65.56    4.17
   2   0  22   74.31    4.55
  -2   0 -22   69.14    4.31
   3   0  22   26.71    2.36
   3   0  22   30.81    3.02
   3   0  22   27.15    2.54
   4   0  22   12.81    1.51
   4   0  22   15.05    2.20
   5  -1 -22    6.01    1.25
   5   1 -22    6.65    1.61
   4  -1 -22    6.48    1.66
  -4  -1  22    5.19    1.41
   4   1 -22    1.04    1.28
   4   1 -22    4.85    1.64
   4   1 -22    2.56    1.15
  -3  -1  22   10.65    1.95
   3  -1 -22   15.74    2.73
   3  -1 -22   10.79    1.47
   3   1 -22   11.12    1.76
   3   1 -22    8.20    2.25
   3   1 -22   12.95    1.44
   3   1 -22   12.54    2.36
   2  -1 -22    6.00    1.49
   2  -1 -22    8.12    2.17
   2   1 -22    5.09    1.07
   2   1 -22    6.86    1.69
   2   1 -22    5.10    1.85
   2   1 -22    5.40    1.94
   1  -1 -22    5.03    1.83
   1  -1 -22    3.72    2.05
   1  -1 -22    5.70    1.84
   1  -1 -22    2.96    1.06
   1   1 -22    5.12    1.95
   1   1 -22    3.64    1.33
   1   1 -22    8.18    2.17
   0  -1 -22    9.34    1.40
   0  -1 -22   14.60    2.30
   0  -1  22    8.10    1.88
   0  -1 -22    9.45    2.21
   0  -1 -22    7.65    1.65
   0   1 -22    9.42    2.23
   0   1 -22    8.49    1.82
  -1  -1 -22    6.79    1.84
   1  -1  22   11.16    2.52
  -1  -1 -22    7.14    1.44
  -1  -1 -22    6.88    1.80
  -1   1 -22    6.20    2.18
   1   1  22    8.39    2.46
  -2  -1 -22    5.12    2.14
   2  -1  22    4.59    1.85
   2  -1  22    4.50    1.62
   2  -1  22    1.83    1.68
  -2  -1 -22    4.53    1.42
   2   1  22    3.82    1.80
  -2   1 -22    2.75    2.22
   3  -1  22    1.61    0.95
  -3  -1 -22   -0.37    1.28
   3  -1  22    1.85    1.57
   3  -1  22    1.71    1.46
   3   1  22    2.51    1.62
   3   1  22    0.50    1.57
   4  -1  22    1.60    1.63
  -4  -1 -22    1.72    1.28
   4  -1  22    1.80    0.76
   4   1  22    1.32    1.34
   4   1  22    0.05    0.61
   4   1  22    1.87    1.12
   4  -2 -22   -0.44    1.27
   4   2 -22   -0.17    0.86
   4   2 -22   -0.08    1.07
  -3  -2  22    6.53    1.93
   3  -2 -22    5.97    1.80
   3   2 -22    6.61    1.76
   3   2 -22    3.27    1.65
   3   2 -22    7.62    1.23
  -2  -2  22   -0.10    1.46
   2  -2 -22    0.26    1.61
   2  -2 -22    0.99    0.86
   2  -2 -22   -1.02    1.51
   2   2 -22   -2.24    1.47
   2   2 -22    1.39    1.05
   2   2 -22   -1.43    1.48
   2   2 -22    2.41    1.52
   1  -2 -22    4.62    1.71
  -1  -2  22    0.74    1.53
   1  -2 -22    1.74    1.15
   1  -2 -22    3.79    1.87
   1  -2 -22   -0.25    1.65
   1   2 -22    3.17    1.71
   1   2 -22    1.89    1.23
   1   2 -22    3.18    2.26
   0  -2 -22   30.80    3.23
   0  -2 -22   28.27    1.79
   0  -2  22   29.92    2.88
   0  -2 -22   29.90    3.57
   0  -2 -22   25.89    2.84
   0  -2  22   23.80    3.16
   0  -2 -22   24.74    2.77
   0   2 -22   26.03    2.95
   0   2 -22   30.85    2.85
  -1  -2 -22    8.25    1.96
   1  -2  22    9.57    1.86
   1  -2  22   12.60    2.47
  -1  -2 -22   10.26    1.70
  -1  -2 -22    8.79    2.07
  -1  -2 -22   11.93    1.25
  -1   2 -22    8.76    2.22
   1   2  22   10.93    2.12
   2  -2  22   10.51    1.82
  -2  -2 -22    7.16    1.82
   2  -2  22   11.13    1.66
  -2  -2 -22    6.47    1.08
   2   2  22   11.06    2.09
  -3  -2 -22    2.08    1.03
   3  -2  22    4.76    1.82
   3  -2  22    3.61    0.93
  -3  -2 -22    2.54    1.38
   3   2  22    0.34    1.48
   3   2  22    0.04    1.68
  -4  -2 -22    4.72    1.43
   4  -2  22    4.54    1.53
  -4  -2 -22    4.21    0.93
   4   2  22    4.62    1.21
   4   2  22    2.42    1.17
   4   2  22    3.66    0.86
  -3  -3  22    5.97    1.39
   3  -3 -22    3.79    1.72
   3   3 -22    3.31    1.18
   3   3 -22    2.76    1.24
   3   3 -22    9.01    1.37
  -2  -3  22   10.94    1.81
  -2  -3  22    6.90    1.55
   2  -3 -22    9.96    1.78
   2  -3 -22   10.61    1.82
   2   3 -22   11.52    1.62
   2   3 -22    8.71    1.54
   2   3 -22    7.57    1.63
   2   3 -22    5.35    1.72
  -1  -3  22    0.07    1.21
  -1  -3  22    0.78    1.36
   1  -3 -22    1.43    1.85
   1  -3 -22   -0.51    1.59
   1  -3 -22    0.49    0.80
  -1   3  22    0.93    1.36
   1   3 -22   -1.04    1.20
   1   3 -22    1.28    1.76
   1   3 -22   -0.23    1.50
   0  -3  22   26.12    2.11
   0  -3 -22   24.55    3.18
   0  -3  22   21.75    2.32
   0  -3  22   18.33    2.34
   0  -3 -22   26.33    2.64
   0  -3 -22   23.09    2.01
   0   3 -22   22.53    2.72
   0   3  22   23.09    2.35
   1  -3  22    0.83    0.80
   1  -3  22    0.85    1.37
  -1  -3 -22   -1.30    1.03
  -1  -3 -22   -0.31    1.40
   1   3  22    2.85    1.77
  -2  -3 -22    9.81    1.33
   2  -3  22    7.67    0.98
  -2  -3 -22    4.91    1.45
   2   3  22    9.41    2.11
   3  -3  22    2.96    1.39
  -3  -3 -22    2.76    0.82
   3   3  22    3.18    1.57
   3   3  22    1.77    1.23
  -1  -4  22    7.26    1.02
  -1  -4  22    4.58    1.08
   1  -4 -22    7.63    1.36
   1  -4 -22    4.83    1.32
   1   4 -22    4.37    0.99
   1   4 -22    8.16    1.58
   0  -4  22   -0.16    0.66
   0  -4 -22    0.52    1.14
   0  -4  22   -0.56    0.85
   0   4 -22    0.10    1.40
   0   4 -22    1.57    1.09
  -1  -4 -22    7.90    1.02
  -1  -4 -22    9.52    1.56
   1   4  22    7.61    1.46
  -1   4 -22    3.62    1.25
   5   0 -23   28.08    1.95
  -4   0  23   38.51    2.64
   4   0 -23   39.39    3.03
   4   0 -23   33.72    1.40
   3   0 -23    4.00    1.66
   3   0 -23    5.17    1.40
   2   0 -23   34.89    1.83
   2   0 -23   31.75    3.34
   2   0 -23   33.87    1.96
   2   0 -23   29.07    2.70
   1   0 -23    4.88    0.92
   1   0 -23   10.60    2.08
   1   0 -23    6.29    2.15
   1   0 -23    6.18    1.56
   0   0 -23    1.68    1.02
   0   0 -23    1.47    1.77
   0   0 -23    2.09    1.60
  -1   0 -23   38.62    3.08
  -1   0 -23   41.77    2.81
  -2   0 -23    2.15    2.14
  -2   0 -23    0.56    1.49
   2   0  23    0.81    2.15
   2   0  23    0.79    2.00
   3   0  23   -1.65    1.45
   3   0  23    0.14    1.31
   3   0  23    0.36    1.19
   4   0  23    4.96    1.46
   4   0  23    2.15    1.13
   4  -1 -23   20.26    2.62
  -4  -1  23   17.46    2.07
   4   1 -23   18.03    2.71
   4   1 -23   13.75    2.05
   4   1 -23   16.90    1.59
   3  -1 -23    8.06    1.80
   3  -1 -23    3.26    0.90
  -3  -1  23    3.11    1.56
   3   1 -23    2.45    1.57
   3   1 -23    6.54    1.79
   2  -1 -23    3.88    1.37
   2  -1 -23    5.39    1.79
  -2  -1  23    3.45    1.75
   2   1 -23    3.70    1.40
   2   1 -23    3.82    1.76
   2   1 -23    4.24    1.44
   1  -1 -23    2.35    1.69
   1  -1 -23    0.80    0.85
   1  -1 -23   -0.88    1.64
   1  -1 -23   -2.29    1.53
   1   1 -23    0.71    1.66
   1   1 -23    0.47    1.13
   1   1 -23    3.00    2.11
   0  -1 -23   40.17    1.82
   0  -1 -23   38.28    3.00
   0  -1  23   36.24    3.20
   0  -1 -23   37.72    3.23
   0  -1 -23   42.63    2.73
   0   1 -23   40.30    3.28
   0   1 -23   38.61    2.90
   1  -1  23   24.59    3.29
  -1  -1 -23   21.87    2.11
  -1  -1 -23   20.18    2.62
  -1  -1 -23   22.61    2.82
  -1   1 -23   22.83    3.24
  -1   1 -23   24.91    3.10
  -2  -1 -23   34.72    3.12
   2  -1  23   38.26    3.50
  -2  -1 -23   39.49    2.48
   2  -1  23   32.75    2.79
   2  -1  23   34.77    2.65
  -2  -1 -23   34.60    3.24
  -2   1 -23   38.33    3.49
   2   1  23   35.56    3.09
   3  -1  23    6.71    1.02
   3  -1  23    9.68    1.77
   3  -1  23    8.02    1.61
  -3  -1 -23    6.46    1.37
   3   1  23   12.72    2.01
   3   1  23    8.75    1.85
  -4  -1 -23    3.99    1.11
   4  -1  23    4.67    1.38
   4   1  23    4.04    0.67
   4   1  23    3.84    1.05
   4   1  23    5.34    1.42
   4  -2 -23    9.85    1.69
   4   2 -23   10.71    1.29
   3  -2 -23   24.87    2.74
  -3  -2  23   23.22    2.46
   3   2 -23   19.23    2.19
   3   2 -23   20.83    1.55
   3   2 -23   19.20    2.31
   2  -2 -23    2.70    1.67
  -2  -2  23    4.06    1.90
   2  -2 -23    4.26    0.93
   2   2 -23    4.32    1.51
   2   2 -23    5.98    1.11
   2   2 -23    5.91    1.81
  -1  -2  23   17.15    2.58
   1  -2 -23   11.60    2.40
   1  -2 -23   15.83    2.82
   1  -2 -23   15.32    2.00
   1   2 -23   12.99    2.25
   1   2 -23   16.84    2.23
   1   2 -23   14.90    2.57
   0  -2 -23   12.39    2.00
   0  -2  23   15.00    2.45
   0  -2  23   11.04    1.95
   0  -2 -23   15.13    1.40
   0  -2 -23   11.99    2.05
   0  -2 -23   14.25    2.51
   0   2 -23   12.34    2.04
   0   2 -23   16.22    2.40
   1  -2  23   16.02    2.35
   1  -2  23   17.74    2.49
  -1  -2 -23   15.47    1.94
  -1  -2 -23   16.38    2.43
   1   2  23   16.23    2.68
  -2  -2 -23    1.50    0.81
   2  -2  23    1.05    0.86
   2  -2  23    1.15    1.40
  -2  -2 -23    0.10    1.39
   2   2  23    2.00    1.69
   3  -2  23   -0.85    0.78
  -3  -2 -23   -0.77    0.90
  -3  -2 -23   -0.10    1.08
   3  -2  23   -1.29    1.28
   3   2  23    1.58    1.43
   3   2  23   -0.98    1.33
  -4  -2 -23    2.08    1.11
  -4  -2 -23    2.49    0.64
   4   2  23    2.39    0.96
   4   2  23    2.58    0.60
   4   2  23    1.80    1.04
  -3  -3  23    2.59    1.38
  -3  -3  23    2.73    1.27
   3  -3 -23    2.52    1.50
   3   3 -23    0.38    1.23
   2  -3 -23   -0.83    1.34
  -2  -3  23    2.87    1.37
  -2  -3  23   -0.19    1.45
   2   3 -23    0.91    0.78
   2   3 -23    1.12    1.22
   2   3 -23    0.82    1.11
  -1  -3  23    0.98    1.19
  -1  -3  23    1.70    1.34
   1  -3 -23    1.41    1.53
   1  -3 -23    0.87    0.66
   1  -3 -23    0.02    1.48
   1   3 -23   -1.03    1.04
   1   3 -23    1.04    1.31
   0  -3 -23    4.85    1.16
   0  -3  23    4.23    1.26
   0  -3 -23    6.94    1.92
   0  -3 -23    3.30    1.58
   0  -3  23    3.24    1.47
   0  -3  23    4.58    1.38
   0   3 -23    5.17    1.55
  -1  -3 -23   15.61    2.49
   1  -3  23    8.32    1.46
  -1  -3 -23   11.32    1.66
   1   3  23   10.34    1.92
  -2  -3 -23    7.14    0.96
   2  -3  23    6.14    0.76
  -2  -3 -23    4.48    1.28
   2   3  23    7.55    1.70
  -3  -3 -23    8.65    0.85
   3   3  23   12.32    1.94
   1  -4 -23   11.06    1.66
   0  -4 -23   14.24    1.92
   0  -4  23   12.26    0.79
   0   4 -23   10.70    1.61
  -4   0  24    1.31    1.53
   4   0 -24    3.02    1.38
   3   0 -24    0.75    1.78
   3   0 -24    0.66    1.14
   2   0 -24   -1.37    1.26
   2   0 -24    1.19    0.75
   1   0 -24   21.78    2.70
   1   0 -24   24.06    2.30
   1   0 -24   24.15    1.42
   1   0 -24   26.63    3.03
   0   0 -24    5.84    1.76
   0   0 -24    2.85    2.06
   0   0 -24    4.70    1.16
  -1   0 -24  100.68    4.76
  -1   0 -24   96.05    3.88
  -1   0 -24   90.97    4.59
   2   0  24    0.44    2.03
   2   0  24    1.31    2.14
  -2   0 -24    0.00    1.31
   3   0  24    7.99    1.56
  -3   0 -24   14.99    2.49
   3   0  24   20.91    2.71
   3   0  24   10.75    1.81
  -4   0 -24    1.28    1.08
   4   0  24    1.53    0.80
   4   0  24    1.34    1.19
  -4  -1  24   -0.62    1.37
   4  -1 -24   -0.31    1.20
   4   1 -24   -1.35    1.56
   4   1 -24   -0.98    0.73
  -3  -1  24    6.82    1.67
   3  -1 -24    6.56    0.97
   3  -1 -24    7.99    1.82
   3   1 -24    7.63    1.45
  -2  -1  24   11.15    2.01
   2  -1 -24   15.16    1.94
   2  -1 -24   13.88    2.14
   2   1 -24   13.92    1.89
   2   1 -24   16.41    2.79
   2   1 -24   13.21    1.83
  -1  -1  24    5.95    1.77
   1  -1 -24    6.73    1.60
   1  -1 -24    6.50    1.85
   1  -1 -24   10.35    1.33
   1   1 -24    4.62    1.25
   1   1 -24    8.33    2.36
   1   1 -24    6.22    1.57
   0  -1 -24   16.57    2.59
   0  -1  24   13.93    2.17
   0  -1 -24   11.43    2.13
   0  -1 -24   13.03    1.93
   0   1 -24   18.91    2.78
   0   1 -24   19.17    2.34
   0   1 -24   10.32    2.36
  -1  -1 -24   11.65    1.87
   1  -1  24   12.92    2.33
  -1  -1 -24   12.78    1.60
  -1  -1 -24   15.58    2.54
  -1   1 -24   19.41    2.84
  -1   1 -24   12.74    2.55
  -2  -1 -24   22.57    2.21
   2  -1  24   20.69    2.37
   2  -1  24   17.18    2.13
  -2  -1 -24   19.90    2.58
   2   1  24   23.01    2.80
   3  -1  24   -0.07    0.66
  -3  -1 -24    1.14    1.24
   3  -1  24   -0.76    1.17
   3  -1  24    2.03    1.68
   3   1  24    1.80    1.45
   3   1  24    1.06    1.53
  -4  -1 -24    3.98    0.91
   4  -1  24    9.44    1.45
   4   1  24    7.62    1.15
   4   1  24    7.69    1.51
   4  -2 -24   -0.89    1.25
   4   2 -24    1.01    0.80
  -3  -2  24    0.33    1.20
   3  -2 -24    0.87    1.42
   3   2 -24   -0.32    1.24
   3   2 -24    0.40    0.77
   3   2 -24    0.20    1.19
   2  -2 -24    2.08    1.56
  -2  -2  24    3.31    1.49
   2  -2 -24    1.05    0.74
   2   2 -24    1.67    1.06
   2   2 -24    1.92    1.45
   2   2 -24    1.44    0.81
   1  -2 -24   12.24    1.75
  -1  -2  24    7.59    1.68
   1  -2 -24    9.64    1.89
   1   2 -24    7.07    1.44
   1   2 -24    4.31    2.06
   1   2 -24    8.88    1.93
   0  -2 -24   23.49    2.88
   0  -2  24   26.94    2.71
   0  -2 -24   31.29    2.45
   0  -2  24   26.94    2.94
   0   2 -24   26.60    2.42
   1  -2  24    5.40    1.65
  -1  -2 -24    4.30    1.66
  -1  -2 -24    3.49    1.15
   1  -2  24    4.79    1.49
   1   2  24    5.41    2.21
   2  -2  24   18.25    1.36
   2  -2  24   13.66    1.68
  -2  -2 -24   20.51    2.03
  -2  -2 -24   16.61    1.17
   2   2  24   23.17    3.05
  -3  -2 -24    0.35    0.94
   3  -2  24   -0.06    1.46
  -3  -2 -24    0.06    0.63
   3   2  24    0.03    1.28
   3   2  24   -1.26    1.37
   3  -3 -24    5.19    1.18
   3   3 -24    3.56    0.98
  -2  -3  24    1.44    1.13
   2  -3 -24    1.98    1.36
  -2  -3  24    1.38    1.38
   2   3 -24   -0.96    1.03
   2   3 -24    0.74    0.60
  -1  -3  24    2.20    1.18
   1  -3 -24    4.33    1.72
  -1  -3  24    2.38    1.22
   1   3 -24    1.98    1.24
   1   3 -24    2.27    1.01
   0  -3  24    6.51    1.12
   0  -3  24    4.33    1.35
   0  -3 -24    5.74    1.79
   0  -3 -24    4.53    1.05
   0  -3  24    3.06    1.25
   0   3 -24    5.51    1.36
   0   3 -24    3.98    1.40
   1  -3  24   16.59    1.59
  -1  -3 -24   15.56    1.63
   1   3  24   16.05    2.63
  -2  -3 -24    2.89    1.23
   2   3  24    2.19    1.66
   4   0 -25    0.07    1.44
  -4   0  25    1.65    1.11
   3   0 -25    0.27    1.73
   3   0 -25   -0.85    0.97
   2   0 -25   25.19    2.27
   1   0 -25    0.18    1.97
   1   0 -25    1.24    1.25
   1   0 -25    0.69    1.46
   0   0 -25    2.11    1.63
   0   0 -25    0.28    0.89
   0   0 -25    1.48    1.50
  -1   0 -25    1.98    1.27
  -1   0 -25   -2.07    2.17
  -1   0 -25   -0.40    1.42
   2   0  25   -1.60    1.48
  -2   0 -25   -0.36    1.07
   2   0  25   -0.41    1.59
   3   0  25   -1.61    0.86
   3   0  25    0.71    1.32
   3   0  25    1.73    1.57
  -3   0 -25    1.32    1.42
   4   0  25    0.75    0.60
  -4   0 -25   -1.08    0.85
   4   0  25    0.08    1.05
   4  -1 -25    4.53    1.23
  -3  -1  25   -0.19    1.25
   3  -1 -25    1.31    1.39
   3   1 -25   -0.04    1.22
  -2  -1  25   -1.70    1.17
   2  -1 -25    1.15    1.12
   2  -1 -25    2.56    1.94
   2   1 -25    2.60    1.14
   2   1 -25    0.19    1.42
   1  -1 -25   -0.24    1.50
  -1  -1  25    2.32    1.52
   1   1 -25    0.83    0.97
   1   1 -25    2.04    1.56
   0  -1 -25   10.22    2.04
   0  -1 -25   15.00    1.76
   0  -1  25   13.27    2.42
   0   1 -25   12.76    1.81
   0   1 -25   12.64    2.58
   0   1 -25   12.64    2.05
  -1  -1 -25    1.26    0.86
   1  -1  25    0.62    1.73
  -1  -1 -25   -0.02    1.19
  -1   1 -25    0.73    1.24
  -2  -1 -25    0.58    1.39
   2  -1  25   -0.16    1.85
   2  -1  25   -0.70    1.23
  -2  -1 -25    1.30    1.08
  -2   1 -25   -0.57    1.32
   2   1  25   -2.53    1.56
   3  -1  25    0.48    0.86
  -3  -1 -25    0.95    1.39
  -3  -1 -25    0.46    0.98
   3  -1  25   -0.59    1.29
   3   1  25    2.36    1.36
   3   1  25   -0.24    1.72
   3   1  25    0.46    1.21
  -3  -2  25    3.36    1.51
   3  -2 -25    1.05    1.60
   3   2 -25   -0.13    1.29
   3   2 -25    1.02    1.20
   2  -2 -25    5.09    1.90
  -2  -2  25    2.31    1.38
   2   2 -25    2.21    1.34
   2   2 -25    2.09    1.22
   1  -2 -25    7.33    1.76
   1  -2 -25    5.04    1.20
  -1  -2  25    7.45    1.57
   1   2 -25    7.47    2.02
   1   2 -25    6.42    1.28
   1   2 -25    6.28    1.60
   0  -2  25   10.47    1.80
   0  -2 -25   15.86    1.92
   0  -2  25   16.17    2.75
   0   2 -25   11.29    1.90
   0   2 -25   10.87    2.05
  -1  -2 -25    5.52    1.60
  -1  -2 -25    7.59    1.11
   1  -2  25    9.23    1.45
   1  -2  25   11.20    2.06
  -1   2 -25    4.95    1.48
   2  -2  25   17.39    1.58
  -2  -2 -25   17.61    1.78
   2   2  25   21.45    2.72
  -3  -2 -25    5.04    1.08
   3   2  25    9.24    1.38
   3   2  25    4.98    1.35
   2  -3 -25    0.61    1.16
  -2  -3  25    0.98    1.04
  -2  -3  25    1.81    0.97
   2   3 -25   -0.29    1.19
  -1  -3  25    0.54    1.01
   1  -3 -25    4.98    1.61
  -1  -3  25    0.20    1.26
  -1  -3  25   -0.01    1.09
   1   3 -25    0.56    1.15
   1   3 -25    0.94    0.87
   0  -3 -25   -0.17    0.72
   0  -3  25    0.48    1.28
   0  -3 -25   -0.65    1.43
   0  -3  25    1.02    1.27
   0  -3  25    0.90    0.83
   0   3 -25   -0.01    0.99
   0   3 -25    0.35    1.18
  -1  -3 -25    0.07    0.96
   1  -3  25   -0.53    0.82
  -1   3 -25    1.31    1.42
  -1   3 -25    1.84    1.09
  -2  -3 -25    1.08    1.01
  -3   0  26    0.18    1.30
   3   0 -26    1.77    1.63
   3   0 -26    1.57    0.86
   2   0 -26   -1.18    1.26
   1   0 -26   15.87    1.78
   1   0 -26   14.09    2.30
   0   0 -26   12.75    1.41
   0   0 -26   11.79    1.78
  -1   0 -26    7.75    1.73
  -1   0 -26   11.67    1.54
  -2   0 -26   -2.38    1.47
   2   0  26    0.79    1.36
  -2   0 -26   -2.00    0.93
  -3   0 -26    4.64    1.09
   3   0  26    3.95    1.24
   3   0  26    4.70    0.88
   3   0  26    5.88    1.65
   3  -1 -26    1.40    1.30
  -3  -1  26    2.99    1.27
   3   1 -26    1.11    0.96
   2  -1 -26    5.75    1.70
   2  -1 -26    4.25    1.28
  -2  -1  26    6.22    1.56
   2   1 -26    5.72    1.06
   2   1 -26    5.71    1.53
   1  -1 -26    9.23    1.78
  -1  -1  26    6.32    1.58
   1   1 -26    7.75    1.27
   1   1 -26   11.70    1.98
   0  -1  26    7.91    1.91
   0  -1 -26    6.75    1.24
   0  -1 -26    8.18    2.09
   0   1 -26    8.23    1.66
   0   1 -26    8.00    1.37
   1  -1  26    6.21    1.76
  -1  -1 -26    6.61    1.13
  -1  -1 -26    5.15    1.43
  -1   1 -26    6.76    1.49
  -2  -1 -26    3.23    0.88
  -2  -1 -26    3.68    1.34
   2  -1  26    5.22    1.27
   2  -1  26    3.13    1.81
  -2   1 -26    3.51    1.29
   2   1  26    5.14    1.74
   2   1  26    9.16    1.92
   3  -1  26    0.32    0.86
  -3  -1 -26    1.20    0.76
   3  -1  26    0.20    1.18
  -3  -1 -26   -0.09    1.34
   3   1  26    1.87    1.67
   3   1  26    0.13    0.92
   3   1  26    0.80    1.15
  -3   1 -26    0.09    1.09
   3  -2 -26    2.34    1.19
  -3  -2  26    2.07    1.12
   3   2 -26    2.18    0.87
   2  -2 -26    0.17    1.34
  -2  -2  26    1.41    1.12
   2   2 -26    1.37    1.45
   2   2 -26    1.30    0.99
   1  -2 -26    3.52    1.79
  -1  -2  26    4.08    1.64
   1  -2 -26    2.10    1.08
  -1  -2  26    2.89    1.58
   1   2 -26    2.30    1.51
   1   2 -26    2.23    0.86
   1   2 -26    1.35    1.60
   1   2 -26    4.30    1.45
   0  -2  26   11.93    1.97
   0  -2 -26    9.90    1.59
   0  -2  26    8.14    1.59
   0   2 -26    4.19    1.47
   0   2 -26    7.89    1.41
   0   2 -26    6.31    1.75
   1  -2  26    6.55    1.62
  -1  -2 -26   17.50    2.16
   1  -2  26   10.03    1.67
  -1  -2 -26    9.75    1.00
  -1   2 -26   11.72    1.98
   2  -2  26    8.17    1.29
  -2  -2 -26    8.14    1.11
  -2   2 -26    4.95    1.35
   2   2  26    6.26    1.61
  -1  -3  26    8.14    1.33
  -1  -3  26   10.39    1.49
  -1  -3  26   12.68    1.41
   1  -3 -26   12.10    1.73
   1   3 -26    7.08    1.29
   1   3 -26    9.40    1.13
   0  -3  26   13.04    1.51
   0  -3  26   15.20    1.03
   0  -3 -26   13.46    1.05
   0   3 -26    7.74    1.56
  -1  -3 -26    2.59    0.86
   1  -3  26    1.95    0.70
  -1   3 -26    2.29    1.03
  -1   3 -26    0.94    1.23
   3   0 -27    0.14    0.70
  -3   0  27   -0.42    1.19
   2   0 -27    2.73    1.29
   1   0 -27    1.80    0.88
   1   0 -27   -0.19    1.37
   0   0 -27   48.04    1.70
   0   0 -27   45.15    2.54
  -1   0 -27    0.77    0.85
  -1   0 -27    0.75    1.17
  -2   0 -27    2.38    0.84
   2   0  27    2.59    1.30
  -2   0 -27    1.88    1.39
   3   0  27    0.73    1.18
   3   0  27    0.31    0.59
   3   0  27    0.65    1.34
  -3   0 -27   -0.20    0.84
   3  -1 -27   -1.04    1.30
  -3  -1  27   -0.74    1.11
   3   1 -27   -0.20    0.84
  -2  -1  27    7.15    1.49
   2  -1 -27    9.11    1.18
   2   1 -27    7.92    1.48
   1  -1 -27   13.31    1.70
  -1  -1  27   15.64    2.58
   1   1 -27   13.43    1.80
   0  -1  27    8.72    1.76
   0  -1 -27    9.23    1.76
   0  -1 -27   12.97    1.29
   0   1 -27   13.91    1.96
   0   1 -27   10.76    1.43
   1  -1  27    2.66    1.44
  -1  -1 -27    1.56    1.02
  -1   1 -27    2.33    1.49
  -1   1 -27    0.71    1.15
   2  -1  27    3.43    1.32
   2  -1  27    2.11    0.92
  -2  -1 -27    1.88    1.27
  -2  -1 -27    1.53    0.63
   2   1  27    0.72    1.46
  -2   1 -27    3.73    1.08
  -3  -1 -27    1.12    0.54
   3  -1  27    1.53    0.71
  -3  -1 -27    2.33    0.88
   3   1  27    1.44    1.29
  -3   1 -27    0.74    0.84
   3   1  27    1.27    0.71
  -2  -2  27    0.76    1.33
   2  -2 -27   -0.15    1.45
  -1  -2  27    4.78    1.52
  -1  -2  27    4.78    1.36
   1  -2 -27    5.02    0.83
   1   2 -27    4.40    0.69
   1   2 -27    4.13    1.54
   1   2 -27    6.13    1.21
   1   2 -27    5.58    1.35
   0  -2 -27   -0.02    1.08
   0  -2  27    0.57    1.12
   0   2 -27    0.23    0.94
   0   2 -27    0.36    1.39
  -1  -2 -27    4.88    1.25
   1  -2  27    4.33    1.03
   1  -2  27    4.67    1.30
  -1   2 -27    6.56    1.14
   2  -2  27    2.59    0.91
  -2  -2 -27    2.95    0.64
  -2   2 -27    2.55    1.02
   3   0 -28    1.14    0.49
  -3   0  28    1.03    1.14
  -2   0  28    0.27    1.32
   2   0 -28    1.93    0.88
   1   0 -28   -1.25    1.47
  -1   0  28    0.19    1.29
   0   0 -28    5.72    1.22
  -1   0 -28   12.41    1.19
  -1   0 -28   14.49    1.97
   1   0  28   14.51    2.50
  -2   0 -28    3.70    0.92
   2   0  28    5.11    1.32
  -2   0 -28    5.19    1.28
  -3  -1  28    3.94    1.33
   3   1 -28    1.49    0.71
  -2  -1  28    8.40    1.42
   2  -1 -28    8.06    1.00
   2   1 -28    6.59    1.31
  -1  -1  28    0.20    1.17
   1  -1 -28    1.40    1.11
   1   1 -28    1.74    1.03
   1   1 -28    0.90    0.91
   0  -1 -28   -1.02    1.15
   0  -1  28    3.67    1.72
   0   1 -28    0.53    1.03
   0   1 -28    0.09    0.67
   1  -1  28    0.82    1.40
  -1  -1 -28    1.81    0.93
  -1   1 -28    0.33    1.23
  -1   1 -28   -0.14    0.89
   2  -1  28   24.13    1.71
   2  -1  28   20.82    1.38
  -2  -1 -28   19.75    1.58
   2   1  28   20.11    2.01
  -2   1 -28   20.44    1.76
  -2  -2  28    4.31    1.08
   1  -2 -28    9.65    0.96
  -1  -2  28   14.72    2.18
  -1  -2  28   12.86    2.01
   0  -2  28    3.67    1.25
   0  -2  28    4.57    1.44
   0  -2 -28    3.48    1.00
   0   2 -28    3.54    1.48
   0   2 -28    3.01    0.83
   1  -2  28    3.87    1.09
  -1  -2 -28    2.71    0.97
   1  -2  28    2.48    0.68
  -1   2 -28    2.82    0.94
  -1   2 -28    1.66    1.41
   2   0 -29    0.03    0.84
  -2   0  29   -0.56    1.14
   1   0 -29    0.55    1.03
  -1   0  29   -0.69    1.40
   0   0 -29    2.83    0.94
   1   0  29    1.27    1.40
  -1   0 -29   -1.55    0.79
   2   0  29   10.33    1.46
   2   0  29    7.84    1.48
  -2   0 -29    9.53    1.32
  -2   0 -29    8.40    0.87
  -2  -1  29    1.74    1.01
   2   1 -29    1.33    0.86
  -1  -1  29   -0.97    1.30
   1  -1 -29    0.02    0.95
   0  -1 -29    5.08    1.19
   0  -1  29    5.01    1.69
   0   1 -29    4.34    1.23
   1  -1  29    9.04    1.42
  -1  -1 -29    7.37    0.92
  -1   1 -29    7.47    1.10
  -1   1 -29    8.94    1.45
  -2  -1 -29    0.19    0.54
   2  -1  29   -0.61    0.96
  -2   1 -29    0.32    0.71
   2   1  29    2.00    1.18
  -1  -2  29    7.31    1.43
   0  -2  29    2.14    1.50
   0  -2  29    5.69    1.02
   0  -2 -29    4.18    0.79
   0   2 -29    4.74    1.03
   2   0 -30   17.83    1.23
  -2   0  30   17.04    1.66
   1   0 -30    2.98    0.99
  -1   0  30    4.25    1.32
   0   0 -30    3.56    1.23
   0   0 -30    3.34    0.61
   1   0  30    0.13    1.05
  -1   0 -30   -0.25    0.67
   1  -1 -30    2.08    0.72
   1   1 -30    1.37    1.04
   0  -1 -30    1.30    0.83
   0  -1  30    0.81    1.11
   0   1 -30    0.64    0.88
   1  -1  30    8.15    1.30
  -1   1 -30    4.70    1.07
   0   0   0    0.00    0.00
;
_shelx_hkl_checksum              15627
_olex2_diffrn_ambient_temperature_device 'Oxford Cryosystems'
_olex2_exptl_crystal_mounting_method
'The crystal was mounted on a nylon loop with paratone oil'
_olex2_submission_original_sample_id '2  Tyrosine hydrazide DAB'
_olex2_submission_special_instructions 'No special instructions were received'
loop_
_space_group_symop_operation_xyz
'x, y, z'
'-x, y+1/2, -z'
loop_
_atom_site_label
_atom_site_type_symbol
_atom_site_fract_x
_atom_site_fract_y
_atom_site_fract_z
_atom_site_U_iso_or_equiv
_atom_site_adp_type
_atom_site_occupancy
_atom_site_site_symmetry_order
_atom_site_calc_flag
_atom_site_refinement_flags_posn
O1 O 0.4810(4) 0.0380(5) 0.21791(10) 0.0246(5) Uani 1 1 d .
H1 H 0.599(7) 0.045(9) 0.2118(15) 0.030(12) Uiso 1 1 d .
O2 O -0.1292(3) 0.3463(5) 0.28741(9) 0.0282(6) Uani 1 1 d .
O3 O 0.9569(4) 0.8718(6) 0.47787(10) 0.0335(6) Uani 1 1 d .
H3 H 0.994(9) 0.735(11) 0.493(2) 0.055(15) Uiso 1 1 d .
N1 N 0.1131(4) 0.2563(6) 0.22042(11) 0.0238(6) Uani 1 1 d .
N2 N -0.0504(4) 0.1460(7) 0.18632(12) 0.0299(7) Uani 1 1 d .
N3 N 0.4302(4) 0.4992(6) 0.25300(11) 0.0201(6) Uani 1 1 d .
H3A H 0.569(6) 0.466(7) 0.2630(13) 0.019(9) Uiso 1 1 d .
H3B H 0.421(5) 0.670(7) 0.2432(12) 0.009(8) Uiso 1 1 d .
C1 C -0.0028(6) 0.1697(9) 0.13734(15) 0.0355(9) Uani 1 1 d .
H1A H -0.102251 0.083314 0.112735 0.043 Uiso 1 1 calc R
C2 C 0.1868(6) 0.3142(8) 0.11554(14) 0.0306(8) Uani 1 1 d .
C3 C 0.3685(5) 0.3971(7) 0.14831(13) 0.0259(8) Uani 1 1 d .
C4 C 0.5343(6) 0.5529(7) 0.12649(14) 0.0307(8) Uani 1 1 d .
H4 H 0.659116 0.610007 0.147875 0.037 Uiso 1 1 calc R
C5 C 0.5213(7) 0.6273(9) 0.07382(16) 0.0406(10) Uani 1 1 d .
H5 H 0.636127 0.735806 0.059737 0.049 Uiso 1 1 calc R
C6 C 0.3422(8) 0.5442(9) 0.04178(15) 0.0460(10) Uani 1 1 d .
H6 H 0.334888 0.594971 0.005798 0.055 Uiso 1 1 calc R
C7 C 0.1746(7) 0.3879(10) 0.06202(15) 0.0419(10) Uani 1 1 d .
H7 H 0.051708 0.330232 0.040102 0.050 Uiso 1 1 calc R
C8 C 0.0564(5) 0.3463(7) 0.26768(12) 0.0215(7) Uani 1 1 d .
C9 C 0.2697(5) 0.4505(6) 0.29611(13) 0.0216(7) Uani 1 1 d .
H9 H 0.331867 0.301063 0.318560 0.026 Uiso 1 1 calc R
C10 C 0.2297(5) 0.6891(7) 0.33126(13) 0.0248(7) Uani 1 1 d .
H10A H 0.090967 0.657904 0.350774 0.030 Uiso 1 1 calc R
H10B H 0.206013 0.851685 0.309257 0.030 Uiso 1 1 calc R
C11 C 0.4237(5) 0.7398(7) 0.37032(13) 0.0234(7) Uani 1 1 d .
C12 C 0.4339(6) 0.6028(7) 0.41798(13) 0.0275(8) Uani 1 1 d .
H12 H 0.317188 0.480550 0.426035 0.033 Uiso 1 1 calc R
C13 C 0.6109(6) 0.6409(8) 0.45400(14) 0.0295(8) Uani 1 1 d .
H13 H 0.616716 0.543187 0.486101 0.035 Uiso 1 1 calc R
C14 C 0.7785(5) 0.8221(7) 0.44274(13) 0.0257(7) Uani 1 1 d .
C15 C 0.7736(5) 0.9598(7) 0.39579(14) 0.0261(8) Uani 1 1 d .
H15 H 0.889776 1.083684 0.388196 0.031 Uiso 1 1 calc R
C16 C 0.5972(5) 0.9162(7) 0.35947(13) 0.0233(7) Uani 1 1 d .
H16 H 0.595520 1.008624 0.326786 0.028 Uiso 1 1 calc R
B1 B 0.3631(6) 0.2855(8) 0.20730(15) 0.0221(8) Uani 1 1 d .
loop_
_atom_site_aniso_label
_atom_site_aniso_U_11
_atom_site_aniso_U_22
_atom_site_aniso_U_33
_atom_site_aniso_U_23
_atom_site_aniso_U_13
_atom_site_aniso_U_12
O1 0.0158(12) 0.0212(13) 0.0368(13) 0.0004(10) 0.0021(10) -0.0013(11)
O2 0.0144(10) 0.0346(14) 0.0357(13) 0.0013(11) 0.0013(9) -0.0014(11)
O3 0.0304(13) 0.0294(15) 0.0397(14) -0.0020(12) -0.0144(11) 0.0000(13)
N1 0.0141(12) 0.0258(15) 0.0313(15) -0.0007(12) -0.0028(11) -0.0019(12)
N2 0.0173(13) 0.0361(17) 0.0359(17) -0.0081(13) -0.0061(12) -0.0059(14)
N3 0.0119(13) 0.0174(17) 0.0310(15) 0.0022(11) -0.0005(11) 0.0004(12)
C1 0.0263(18) 0.044(2) 0.036(2) -0.0100(17) -0.0086(16) -0.0027(18)
C2 0.0264(16) 0.032(2) 0.0333(19) -0.0061(15) -0.0007(14) 0.0005(17)
C3 0.0221(16) 0.0215(18) 0.0342(18) -0.0028(14) 0.0022(14) 0.0038(15)
C4 0.0295(17) 0.029(2) 0.0342(19) -0.0006(15) 0.0041(15) -0.0017(17)
C5 0.048(2) 0.038(2) 0.037(2) 0.0021(18) 0.0103(19) -0.007(2)
C6 0.064(3) 0.047(2) 0.027(2) 0.0020(18) 0.0022(19) -0.001(3)
C7 0.043(2) 0.050(3) 0.032(2) -0.0076(18) -0.0051(17) 0.001(2)
C8 0.0158(14) 0.0177(17) 0.0307(17) 0.0057(13) -0.0029(12) 0.0020(14)
C9 0.0143(14) 0.0193(17) 0.0308(17) 0.0021(13) -0.0018(13) 0.0025(13)
C10 0.0197(16) 0.0228(18) 0.0317(17) -0.0014(14) -0.0020(14) 0.0014(15)
C11 0.0164(15) 0.0241(18) 0.0298(17) -0.0049(13) 0.0015(13) 0.0055(14)
C12 0.0260(17) 0.027(2) 0.0292(18) 0.0016(14) 0.0025(15) -0.0055(16)
C13 0.0340(19) 0.0275(18) 0.0270(18) 0.0007(14) 0.0005(15) -0.0011(17)
C14 0.0225(16) 0.0239(19) 0.0305(18) -0.0050(14) -0.0050(13) 0.0041(16)
C15 0.0188(15) 0.0222(19) 0.0374(19) 0.0002(14) 0.0013(14) 0.0011(15)
C16 0.0206(16) 0.0204(17) 0.0288(17) -0.0001(13) 0.0007(13) 0.0031(14)
B1 0.0151(16) 0.0175(19) 0.034(2) 0.0000(14) -0.0003(15) -0.0028(15)
loop_
_atom_type_symbol
_atom_type_description
_atom_type_scat_dispersion_real
_atom_type_scat_dispersion_imag
_atom_type_scat_source
C C 0.0181 0.0091 'International Tables Vol C Tables 4.2.6.8 and 6.1.1.4'
H H 0.0000 0.0000 'International Tables Vol C Tables 4.2.6.8 and 6.1.1.4'
B B 0.0090 0.0039 'International Tables Vol C Tables 4.2.6.8 and 6.1.1.4'
N N 0.0311 0.0180 'International Tables Vol C Tables 4.2.6.8 and 6.1.1.4'
O O 0.0492 0.0322 'International Tables Vol C Tables 4.2.6.8 and 6.1.1.4'
loop_
_geom_angle_atom_site_label_1
_geom_angle_atom_site_label_2
_geom_angle_atom_site_label_3
_geom_angle
B1 O1 H1 113(4)
C14 O3 H3 111(4)
N2 N1 B1 124.1(3)
C8 N1 N2 120.0(3)
C8 N1 B1 115.9(3)
C1 N2 N1 113.2(3)
H3A N3 H3B 108(3)
C9 N3 H3A 112(2)
C9 N3 H3B 109(2)
C9 N3 B1 105.9(2)
B1 N3 H3A 107(2)
B1 N3 H3B 114(2)
N2 C1 H1A 116.3
N2 C1 C2 127.4(3)
C2 C1 H1A 116.3
C3 C2 C1 120.4(3)
C3 C2 C7 120.8(4)
C7 C2 C1 118.6(3)
C2 C3 B1 114.6(3)
C4 C3 C2 118.0(3)
C4 C3 B1 127.3(3)
C3 C4 H4 119.4
C3 C4 C5 121.1(4)
C5 C4 H4 119.4
C4 C5 H5 119.8
C6 C5 C4 120.5(4)
C6 C5 H5 119.8
C5 C6 H6 120.0
C7 C6 C5 120.1(4)
C7 C6 H6 120.0
C2 C7 H7 120.2
C6 C7 C2 119.5(4)
C6 C7 H7 120.2
O2 C8 N1 128.7(3)
O2 C8 C9 123.4(3)
N1 C8 C9 108.0(3)
N3 C9 C8 104.3(3)
N3 C9 H9 107.8
N3 C9 C10 115.2(3)
C8 C9 H9 107.8
C10 C9 C8 113.6(3)
C10 C9 H9 107.8
C9 C10 H10A 109.0
C9 C10 H10B 109.0
C9 C10 C11 112.8(3)
H10A C10 H10B 107.8
C11 C10 H10A 109.0
C11 C10 H10B 109.0
C12 C11 C10 120.0(3)
C16 C11 C10 121.9(3)
C16 C11 C12 118.1(3)
C11 C12 H12 119.3
C13 C12 C11 121.4(3)
C13 C12 H12 119.3
C12 C13 H13 120.3
C14 C13 C12 119.3(3)
C14 C13 H13 120.3
C13 C14 O3 121.7(3)
C15 C14 O3 117.7(3)
C15 C14 C13 120.6(3)
C14 C15 H15 120.2
C14 C15 C16 119.6(3)
C16 C15 H15 120.2
C11 C16 C15 121.0(3)
C11 C16 H16 119.5
C15 C16 H16 119.5
O1 B1 N1 110.4(3)
O1 B1 N3 108.5(3)
O1 B1 C3 116.6(3)
N1 B1 N3 97.1(3)
N1 B1 C3 106.5(3)
C3 B1 N3 115.9(3)
loop_
_geom_bond_atom_site_label_1
_geom_bond_atom_site_label_2
_geom_bond_distance
O1 H1 0.73(4)
O1 B1 1.436(5)
O2 C8 1.229(4)
O3 H3 0.81(5)
O3 C14 1.388(4)
N1 N2 1.395(4)
N1 C8 1.337(4)
N1 B1 1.543(4)
N2 C1 1.294(5)
N3 H3A 0.87(4)
N3 H3B 0.89(4)
N3 C9 1.499(4)
N3 B1 1.615(5)
C1 H1A 0.9500
C1 C2 1.462(5)
C2 C3 1.406(5)
C2 C7 1.411(5)
C3 C4 1.385(5)
C3 B1 1.602(5)
C4 H4 0.9500
C4 C5 1.391(5)
C5 H5 0.9500
C5 C6 1.384(6)
C6 H6 0.9500
C6 C7 1.377(6)
C7 H7 0.9500
C8 C9 1.531(4)
C9 H9 1.0000
C9 C10 1.508(5)
C10 H10A 0.9900
C10 H10B 0.9900
C10 C11 1.520(4)
C11 C12 1.391(5)
C11 C16 1.389(5)
C12 H12 0.9500
C12 C13 1.387(5)
C13 H13 0.9500
C13 C14 1.381(5)
C14 C15 1.377(5)
C15 H15 0.9500
C15 C16 1.394(4)
C16 H16 0.9500
loop_
_geom_hbond_atom_site_label_D
_geom_hbond_atom_site_label_H
_geom_hbond_atom_site_label_A
_geom_hbond_distance_DH
_geom_hbond_distance_HA
_geom_hbond_distance_DA
_geom_hbond_angle_DHA
_geom_hbond_site_symmetry_A
_geom_hbond_publ_flag
O3 H3 O3 0.81(5) 1.96(5) 2.766(2) 170(5) 2_746 yes
N3 H3A O2 0.87(4) 1.97(4) 2.841(3) 173(3) 1_655 yes
N3 H3B O1 0.89(4) 1.97(4) 2.839(4) 166(3) 1_565 yes
loop_
_geom_torsion_atom_site_label_1
_geom_torsion_atom_site_label_2
_geom_torsion_atom_site_label_3
_geom_torsion_atom_site_label_4
_geom_torsion
O2 C8 C9 N3 -161.5(3)
O2 C8 C9 C10 -35.2(5)
O3 C14 C15 C16 -179.9(3)
N1 N2 C1 C2 -5.5(6)
N1 C8 C9 N3 19.8(3)
N1 C8 C9 C10 146.0(3)
N2 N1 C8 O2 0.5(5)
N2 N1 C8 C9 179.2(3)
N2 N1 B1 O1 -83.6(4)
N2 N1 B1 N3 163.6(3)
N2 N1 B1 C3 43.8(4)
N2 C1 C2 C3 14.0(6)
N2 C1 C2 C7 -160.7(4)
N3 C9 C10 C11 -76.0(4)
C1 C2 C3 C4 -174.6(3)
C1 C2 C3 B1 8.0(5)
C1 C2 C7 C6 174.4(4)
C2 C3 C4 C5 0.5(5)
C2 C3 B1 O1 92.6(3)
C2 C3 B1 N1 -31.1(4)
C2 C3 B1 N3 -137.8(3)
C3 C2 C7 C6 -0.3(6)
C3 C4 C5 C6 -0.7(6)
C4 C3 B1 O1 -84.5(4)
C4 C3 B1 N1 151.9(3)
C4 C3 B1 N3 45.2(4)
C4 C5 C6 C7 0.3(7)
C5 C6 C7 C2 0.2(6)
C7 C2 C3 C4 0.0(5)
C7 C2 C3 B1 -177.3(3)
C8 N1 N2 C1 153.2(3)
C8 N1 B1 O1 96.9(4)
C8 N1 B1 N3 -16.0(4)
C8 N1 B1 C3 -135.7(3)
C8 C9 C10 C11 163.7(3)
C9 N3 B1 O1 -87.3(3)
C9 N3 B1 N1 27.0(3)
C9 N3 B1 C3 139.3(3)
C9 C10 C11 C12 -85.5(4)
C9 C10 C11 C16 92.9(4)
C10 C11 C12 C13 178.8(3)
C10 C11 C16 C15 -179.9(3)
C11 C12 C13 C14 1.2(5)
C12 C11 C16 C15 -1.5(5)
C12 C13 C14 O3 178.7(3)
C12 C13 C14 C15 -1.5(5)
C13 C14 C15 C16 0.3(5)
C14 C15 C16 C11 1.3(5)
C16 C11 C12 C13 0.3(5)
B1 N1 N2 C1 -26.4(5)
B1 N1 C8 O2 -180.0(3)
B1 N1 C8 C9 -1.3(4)
B1 N3 C9 C8 -29.4(3)
B1 N3 C9 C10 -154.7(3)
B1 C3 C4 C5 177.5(3)
loop_
_twin_individual_id
_twin_individual_mass_fraction_refined
1 0.8
2 0.2
