#------------------------------------------------------------------------------
#$Date: 2019-11-04 17:29:51 +0200 (Mon, 04 Nov 2019) $
#$Revision: 223162 $
#$URL: file:///home/coder/svn-repositories/cod/cif/1/55/27/1552729.cif $
#------------------------------------------------------------------------------
#
# This file is available in the Crystallography Open Database (COD),
# http://www.crystallography.net/
#
# All data on this site have been placed in the public domain by the
# contributors.
#
data_1552729
loop_
_publ_author_name
'Borley, William'
'Watson, Brandon'
'Nizhnik, Yakov P.'
'Zeller, Matthias'
'Rosokha, Sergiy V.'
_publ_section_title
;
 Complexes of Diiodine with Heteroaromatic <i>N</i>-Oxides: Effects of
 Halogen-Bond Acceptors in Halogen Bonding.
;
_journal_issue                   32
_journal_name_full               'The journal of physical chemistry. A'
_journal_page_first              7113
_journal_page_last               7123
_journal_paper_doi               10.1021/acs.jpca.9b05549
_journal_volume                  123
_journal_year                    2019
_chemical_formula_moiety         'C8 H6 N2 O, I2'
_chemical_formula_sum            'C8 H6 I2 N2 O'
_chemical_formula_weight         399.95
_space_group_crystal_system      monoclinic
_space_group_IT_number           14
_space_group_name_Hall           '-P 2yn'
_space_group_name_H-M_alt        'P 1 21/n 1'
_atom_sites_solution_hydrogens   geom
_atom_sites_solution_primary     direct
_atom_sites_solution_secondary   difmap
_audit_creation_method           SHELXL-2018/1
_cell_angle_alpha                90
_cell_angle_beta                 95.818(4)
_cell_angle_gamma                90
_cell_formula_units_Z            4
_cell_length_a                   4.4017(5)
_cell_length_b                   19.811(3)
_cell_length_c                   11.9038(11)
_cell_measurement_reflns_used    5447
_cell_measurement_temperature    150(2)
_cell_measurement_theta_max      33.1884
_cell_measurement_theta_min      3.5331
_cell_volume                     1032.7(2)
_computing_cell_refinement       'SAINT V8.37A (Bruker, 2016)'
_computing_data_collection       'Apex3 v2016.9-0 (Bruker, 2016)'
_computing_data_reduction        'SAINT V8.37A (Bruker, 2016)'
_computing_structure_refinement
;  
SHELXL-2018/1 (Sheldrick, 2015, 2018), 
SHELXLE Rev882 (H\"ubschle et al., 2011)
;
_computing_structure_solution    'SHELXS-97 (Sheldrick, 2008)'
_diffrn_ambient_temperature      150(2)
_diffrn_measured_fraction_theta_full 0.995
_diffrn_measured_fraction_theta_max 0.933
_diffrn_measurement_device_type  'Bruker AXS D8 Quest CMOS diffractometer'
_diffrn_measurement_method       'omega and phi scans'
_diffrn_radiation_monochromator  'Triumph curved graphite crystal'
_diffrn_radiation_type           MoK\a
_diffrn_radiation_wavelength     0.71073
_diffrn_reflns_av_R_equivalents  0.0440
_diffrn_reflns_av_unetI/netI     0.0357
_diffrn_reflns_Laue_measured_fraction_full 0.995
_diffrn_reflns_Laue_measured_fraction_max 0.933
_diffrn_reflns_limit_h_max       6
_diffrn_reflns_limit_h_min       -5
_diffrn_reflns_limit_k_max       28
_diffrn_reflns_limit_k_min       -27
_diffrn_reflns_limit_l_max       12
_diffrn_reflns_limit_l_min       -18
_diffrn_reflns_number            14227
_diffrn_reflns_point_group_measured_fraction_full 0.995
_diffrn_reflns_point_group_measured_fraction_max 0.933
_diffrn_reflns_theta_full        25.242
_diffrn_reflns_theta_max         33.273
_diffrn_reflns_theta_min         3.591
_diffrn_source                   'sealed tube X-ray source'
_exptl_absorpt_coefficient_mu    6.053
_exptl_absorpt_correction_T_max  0.7465
_exptl_absorpt_correction_T_min  0.5329
_exptl_absorpt_correction_type   multi-scan
_exptl_absorpt_process_details
;
 SADABS 2016/2: Krause, L., Herbst-Irmer, R., Sheldrick G.M. & Stalke D.,
 J. Appl. Cryst. 48 (2015) 3-10
;
_exptl_crystal_colour            red
_exptl_crystal_density_diffrn    2.572
_exptl_crystal_description       block
_exptl_crystal_F_000             728
_exptl_crystal_size_max          0.210
_exptl_crystal_size_mid          0.180
_exptl_crystal_size_min          0.160
_refine_diff_density_max         1.211
_refine_diff_density_min         -0.965
_refine_diff_density_rms         0.167
_refine_ls_extinction_method     none
_refine_ls_goodness_of_fit_ref   1.093
_refine_ls_hydrogen_treatment    constr
_refine_ls_matrix_type           full
_refine_ls_number_parameters     118
_refine_ls_number_reflns         3715
_refine_ls_number_restraints     0
_refine_ls_restrained_S_all      1.093
_refine_ls_R_factor_all          0.0422
_refine_ls_R_factor_gt           0.0263
_refine_ls_shift/su_max          0.001
_refine_ls_shift/su_mean         0.000
_refine_ls_structure_factor_coef Fsqd
_refine_ls_weighting_details
'w=1/[\s^2^(Fo^2^)+(0.0125P)^2^+0.5846P] where P=(Fo^2^+2Fc^2^)/3'
_refine_ls_weighting_scheme      calc
_refine_ls_wR_factor_gt          0.0474
_refine_ls_wR_factor_ref         0.0512
_reflns_Friedel_coverage         0.000
_reflns_number_gt                2956
_reflns_number_total             3715
_reflns_threshold_expression     'I > 2\s(I)'
_cod_data_source_file            jp9b05549_si_003.cif
_cod_data_source_block           RS58_0m
_cod_original_sg_symbol_H-M      'P 21/n'
_cod_database_code               1552729
_shelx_shelxl_version_number     2018/1
_shelx_space_group_comment
;
The symmetry employed for this shelxl refinement is uniquely defined
by the following loop, which should always be used as a source of
symmetry information in preference to the above space-group names.
They are only intended as comments.
;
_shelx_estimated_absorpt_t_min   0.363
_shelx_estimated_absorpt_t_max   0.444
_shelx_res_file
;
TITL RS58_0m in P2(1)/n
    RS58_0m.res
    created by SHELXL-2018/1 at 08:05:57 on 17-Feb-2018
CELL 0.71073   4.40170  19.81060  11.90380  90.0000  95.8175  90.0000
ZERR    4.00   0.00050   0.00260   0.00110   0.0000   0.0042   0.0000
LATT  1
SYMM 0.5-X, 0.5+Y, 0.5-Z
SFAC C H N O I
UNIT 32 24 8 4 8
LIST 6 ! automatically inserted. Change 6 to 4 for CHECKCIF!!
TEMP -123.140
SIZE 0.21 0.18 0.16
L.S. 4
BOND $H
ACTA
CONF
FMAP 2
PLAN 20
WGHT    0.012500    0.584600
FVAR       0.27887
C1    1    0.714257    0.457900    0.863957    11.00000    0.02374    0.01978 =
         0.02034   -0.00058    0.00181   -0.00245
AFIX  43
H1    2    0.860693    0.492992    0.876956    11.00000   -1.20000
AFIX   0
C2    1    0.598455    0.441292    0.753761    11.00000    0.02381    0.02248 =
         0.01809    0.00315    0.00108    0.00138
AFIX  43
H2    2    0.667042    0.466671    0.693494    11.00000   -1.20000
AFIX   0
C3    1    0.306233    0.356254    0.816509    11.00000    0.01701    0.01946 =
         0.01956   -0.00004    0.00082    0.00319
C4    1    0.100314    0.302098    0.796380    11.00000    0.02498    0.02194 =
         0.02197   -0.00354   -0.00141   -0.00171
AFIX  43
H4    2    0.028547    0.290434    0.720922    11.00000   -1.20000
AFIX   0
C5    1    0.002746    0.266267    0.883374    11.00000    0.02707    0.02216 =
         0.03360    0.00155   -0.00010   -0.00296
AFIX  43
H5    2   -0.136066    0.229913    0.868116    11.00000   -1.20000
AFIX   0
C6    1    0.106305    0.282729    0.996100    11.00000    0.02932    0.02798 =
         0.02661    0.00730    0.00386   -0.00064
AFIX  43
H6    2    0.036517    0.257241    1.056020    11.00000   -1.20000
AFIX   0
C7    1    0.306681    0.335115    1.020359    11.00000    0.02642    0.02574 =
         0.02083    0.00439   -0.00005    0.00040
AFIX  43
H7    2    0.373568    0.346589    1.096344    11.00000   -1.20000
AFIX   0
C8    1    0.410500    0.371357    0.930213    11.00000    0.01805    0.01802 =
         0.02128   -0.00007    0.00138    0.00291
N1    3    0.618364    0.424289    0.950767    11.00000    0.02240    0.01879 =
         0.01733   -0.00190   -0.00256    0.00263
N2    3    0.399809    0.392518    0.728550    11.00000    0.01766    0.02010 =
         0.01356   -0.00033   -0.00094    0.00034
O1    4    0.714164    0.439521    1.053231    11.00000    0.03436    0.03085 =
         0.01475   -0.00310   -0.00547   -0.00404
I1    5    0.143438    0.393236    0.517040    11.00000    0.02063    0.02144 =
         0.01565   -0.00052    0.00064    0.00140
I2    5   -0.107681    0.400362    0.298400    11.00000    0.02329    0.02788 =
         0.01634    0.00222   -0.00221   -0.00271
HKLF 4




REM  RS58_0m in P2(1)/n
REM R1 =  0.0263 for    2956 Fo > 4sig(Fo)  and  0.0422 for all    3715 data
REM    118 parameters refined using      0 restraints

END

WGHT      0.0125      0.5846

REM Highest difference peak  1.211,  deepest hole -0.965,  1-sigma level  0.167
Q1    1   0.6390  0.4007  1.0825  11.00000  0.05    1.21
Q2    1   0.9367  0.4224  0.9270  11.00000  0.05    0.66
Q3    1  -0.0943  0.4070  0.4394  11.00000  0.05    0.64
Q4    1   0.6068  0.3103  1.2031  11.00000  0.05    0.59
Q5    1  -0.5039  0.3869  0.2646  11.00000  0.05    0.57
Q6    1   0.5326  0.3894  0.4625  11.00000  0.05    0.57
Q7    1  -0.2343  0.3996  0.5558  11.00000  0.05    0.56
Q8    1   0.5397  0.3972  0.9418  11.00000  0.05    0.56
Q9    1  -0.0508  0.1991  1.1154  11.00000  0.05    0.55
Q10   1  -0.0418  0.2697  1.0628  11.00000  0.05    0.54
Q11   1   0.4460  0.4211  0.4710  11.00000  0.05    0.54
Q12   1  -0.0288  0.3180  0.2393  11.00000  0.05    0.54
Q13   1   0.1974  0.3630  0.8115  11.00000  0.05    0.54
Q14   1  -0.3010  0.3155  0.8377  11.00000  0.05    0.53
Q15   1   0.1570  0.3911  0.5764  11.00000  0.05    0.53
Q16   1   0.1515  0.4173  0.2936  11.00000  0.05    0.53
Q17   1   0.2238  0.3740  1.1436  11.00000  0.05    0.53
Q18   1  -0.0099  0.4291  0.5601  11.00000  0.05    0.52
Q19   1   0.8351  0.4014  1.0616  11.00000  0.05    0.51
Q20   1   0.3785  0.4000  0.4586  11.00000  0.05    0.51
;
_shelx_res_checksum              73600
_shelx_hkl_file
;
  -1   0   0 2.36640 2.58276   1
   1   0   0 1.88746 0.59980   2
   1   0   0 2.64621 4.36715   1
  -2   0   0 2.21707 5.13907   1
   2   0   0 15.5530 1.84246   2
   2   0   0 13.7425 10.5995   1
  -2   0   0 13.6345 1.86190   2
  -3   0   0 4.33013 1.58550   2
  -3   0   0 -8.8909 7.62216   1
   3   0   0 3.23866 1.42716   2
   3   0   0 1.88188 8.28223   1
   4   0   0 2047.73 61.3248   2
  -4   0   0 2090.66 86.0682   1
   4   0   0 1936.63 85.2344   1
  -4   0   0 2065.29 61.2996   2
   5   0   0 8.30754 3.01465   2
   5   0   0 5.11299 2.96985   3
   6   0   0 -3.1239 4.05412   2
  -1  -1   0 1518.05 44.9779   2
  -1  -1   0 1601.08 50.8117   1
  -1   1   0 1532.79 44.9763   2
   2  -1   0 12.6211 5.75092   1
  -2  -1   0 14.9737 1.91147   2
  -2  -1   0 6.71994 4.93988   1
   2  -1   0 15.5238 1.86254   2
  -2   1   0 17.3407 1.94799   2
  -2   1   0 11.4990 7.37294   1
   2   1   0 15.5161 1.87652   2
   2   1   0 6.72449 4.97981   1
  -3  -1   0 794.374 42.5493   1
   3  -1   0 626.077 20.8888   2
   3  -1   0 631.519 36.4816   1
  -3  -1   0 675.333 21.0318   2
   3   1   0 631.814 20.9453   2
  -3   1   0 663.482 36.4653   1
   3   1   0 648.711 36.2989   1
  -3   1   0 664.145 21.0160   2
   4  -1   0 116.583 6.68094   2
  -4  -1   0 180.272 29.2268   1
  -4   1   0 108.656 6.98529   2
   4   1   0 108.455 21.5059   1
  -4   1   0 154.213 30.0078   1
   5  -1   0 220.968 10.5205   2
   5  -1   0 204.966 8.91278   3
   5   1   0 210.796 9.36432   3
   5   1   0 216.547 10.5560   2
   6  -1   0 2.68806 4.16044   2
   6   1   0 1.40115 4.17731   2
   1  -2   0 212.130 12.0875   1
  -1  -2   0 217.032 6.85268   2
   1   2   0 216.835 12.2956   1
  -1   2   0 215.811 6.84214   2
  -2  -2   0 71.3192 3.44191   2
   2  -2   0 72.1950 3.39439   2
  -2  -2   0 61.7686 10.8581   1
   2  -2   0 71.8343 11.9507   1
  -2   2   0 74.0436 3.49298   2
   2   2   0 78.1599 13.4149   1
   2   2   0 70.1054 3.39979   2
  -2   2   0 63.7522 11.1114   1
  -3  -2   0 50.1493 11.7649   1
   3  -2   0 54.0628 12.7582   1
   3  -2   0 79.3956 4.35766   2
  -3  -2   0 80.5335 4.58556   2
   3   2   0 84.1159 4.53207   2
  -3   2   0 73.3367 13.4045   1
  -3   2   0 86.9032 4.70376   2
   4  -2   0 146.392 7.19304   2
   4  -2   0 125.860 23.7495   1
  -4  -2   0 139.499 23.0566   1
  -4  -2   0 136.756 7.42065   2
   4   2   0 131.894 7.05026   2
  -4   2   0 112.931 20.6550   1
  -4   2   0 136.557 7.54579   2
   4   2   0 134.744 6.25072   3
   4   2   0 92.8674 19.4491   1
   5  -2   0 167.686 9.20896   2
   5   2   0 150.849 8.44340   3
   5   2   0 183.575 9.42978   2
   6  -2   0 -3.0525 3.97610   2
   6   2   0 -1.2832 4.13341   2
   0  -3   0 1.14579 2.38952   1
   0   3   0 5.03635 3.14613   1
   0   3   0 3.23682 0.52845   3
  -1  -3   0 749.365 28.6156   1
  -1  -3   0 727.726 21.8474   2
   1  -3   0 730.897 28.7830   1
  -1   3   0 749.337 21.8477   2
   1   3   0 738.261 28.6992   1
   2  -3   0 5.44726 5.75768   1
  -2  -3   0 6.78884 1.23680   2
   2  -3   0 5.72641 1.13694   2
  -2  -3   0 7.91612 5.21534   1
  -2   3   0 4.15442 5.28968   1
   2   3   0 2.96771 5.34456   1
  -2   3   0 5.44886 1.16323   2
   2   3   0 4.46450 0.97206   2
  -3  -3   0 187.270 21.7000   1
  -3  -3   0 192.080 7.71119   2
   3  -3   0 191.067 7.60258   2
   3  -3   0 198.644 23.1741   1
  -3   3   0 194.759 7.72612   2
   3   3   0 193.343 7.71524   2
   3   3   0 187.785 21.6433   1
  -3   3   0 207.005 22.4275   1
  -4  -3   0 427.107 37.5634   1
   4  -3   0 570.385 50.9426   1
  -4  -3   0 465.932 16.5428   2
   4  -3   0 485.824 16.4657   2
   4   3   0 446.377 16.4490   2
   4   3   0 453.105 15.4664   3
  -4   3   0 467.607 39.0455   1
   4   3   0 421.910 40.8079   1
  -4   3   0 480.137 16.6510   2
   5  -3   0 51.0806 4.69690   3
   5  -3   0 59.9069 6.17522   2
   5   3   0 50.3437 6.42386   3
   5   3   0 54.1178 6.14814   2
   6  -3   0 1.14435 4.03199   2
   6   3   0 -4.0709 4.18809   2
   0  -4   0 8676.43 257.926   1
   1  -4   0 811.826 33.2842   1
   1  -4   0 998.034 37.0010   1
  -1  -4   0 824.942 25.2096   2
   1  -4   0 765.591 25.2175   2
  -1   4   0 840.137 25.1967   2
   1   4   0 1021.16 36.8326   1
   1   4   0 781.410 25.2906   2
   2  -4   0 27.6011 12.0636   1
  -2  -4   0 23.6474 9.09660   1
  -2  -4   0 16.9369 2.06265   2
   2  -4   0 20.5284 1.97072   2
   2   4   0 14.3852 7.08632   1
  -2   4   0 8.98645 6.31805   1
   2   4   0 19.1425 2.03952   2
  -2   4   0 18.7330 2.10506   2
   3  -4   0 135.543 6.10175   2
   3  -4   0 116.616 21.8742   1
  -3  -4   0 143.244 6.32038   2
  -3  -4   0 128.354 20.2307   1
   3   4   0 135.742 6.26192   2
   3   4   0 142.087 21.2868   1
  -3   4   0 202.162 26.9782   1
  -3   4   0 143.507 6.37653   2
  -4  -4   0 1387.70 42.3059   2
   4  -4   0 1326.97 42.0928   2
   4  -4   0 1633.60 80.4398   1
  -4  -4   0 1260.73 65.7390   1
  -4   4   0 1336.55 42.2798   2
  -4   4   0 1412.53 69.1586   1
   4   4   0 1348.35 42.3480   2
   4   4   0 1273.83 67.4493   1
   4   4   0 1410.57 41.4008   3
   5  -4   0 23.3169 3.85451   2
   5  -4   0 24.2571 2.78068   3
   5   4   0 26.4108 4.15624   3
   5   4   0 22.2604 3.78033   2
   6  -4   0 3.21241 4.05220   2
   6   4   0 -2.2367 4.50827   2
   0  -5   0 -0.3577 0.62498   3
   0  -5   0 -6.2061 4.36131   1
   0   5   0 -0.2301 6.97873   1
  -1  -5   0 1894.58 55.2519   2
   1  -5   0 1839.77 54.8476   3
  -1  -5   0 1952.67 65.1680   1
   1  -5   0 1886.66 55.2184   2
  -1   5   0 1923.79 55.2326   2
   1   5   0 1849.82 55.2796   2
   1   5   0 1915.88 55.2866   3
   1   5   0 1967.74 65.3754   1
   2  -5   0 75.8869 13.4252   1
  -2  -5   0 63.1561 12.0685   1
  -2  -5   0 72.8487 3.54102   2
   2  -5   0 73.1259 3.46518   2
   2   5   0 72.8460 3.61053   2
  -2   5   0 74.9982 3.60251   2
   2   5   0 57.9342 10.2304   1
   3  -5   0 1383.11 42.0438   2
  -3  -5   0 1462.75 42.1952   2
  -3  -5   0 1432.02 60.5544   1
   3  -5   0 1329.85 60.1344   1
   3   5   0 1359.79 42.1881   2
   3   5   0 1357.17 60.5314   1
   3   5   0 1448.94 41.8319   3
  -3   5   0 1395.37 42.1130   2
   4  -5   0 10.6616 17.3526   1
  -4  -5   0 4.19208 15.7347   1
   4   5   0 5.76957 18.7024   1
  -4   5   0 2.66618 2.68585   2
   5  -5   0 193.188 9.77639   2
   5  -5   0 172.524 7.07111   3
   5   5   0 187.907 9.91492   2
   5   5   0 180.971 9.66893   3
   6  -5   0 11.0766 4.57459   2
   6   5   0 9.79985 4.87366   2
   0  -6   0 8100.48 274.635   1
   0   6   0 9999.99 281.949   1
  -1  -6   0 678.417 30.3879   1
   1  -6   0 667.013 20.3199   2
  -1  -6   0 691.472 20.3912   2
   1  -6   0 681.260 31.6238   1
   1  -6   0 669.268 20.0227   3
   1   6   0 705.052 31.1252   1
  -1   6   0 691.797 20.3387   2
   1   6   0 689.262 20.4664   3
   1   6   0 667.676 20.4124   2
   2  -6   0 32.8999 2.40359   2
   2  -6   0 24.5767 7.30457   1
  -2  -6   0 29.8898 2.45212   2
   2  -6   0 25.0661 8.94427   1
  -2  -6   0 29.4748 7.56871   1
   2   6   0 30.1773 9.39965   1
  -2   6   0 31.4725 2.53913   2
   2   6   0 29.8094 2.46384   2
   2   6   0 33.2381 2.44731   3
   3  -6   0 35.3964 3.30369   2
   3  -6   0 15.2806 15.7661   1
  -3  -6   0 20.5228 10.0365   1
  -3  -6   0 37.9818 3.66797   2
   3   6   0 42.2719 3.44112   3
   3   6   0 49.7322 3.71585   2
  -3   6   0 34.2301 3.74598   2
   3   6   0 11.4355 10.5495   1
   4  -6   0 855.179 56.1419   1
  -4  -6   0 837.930 27.1057   2
  -4  -6   0 783.205 51.7756   1
   4  -6   0 842.739 26.9968   2
   4   6   0 838.761 26.4916   3
   4   6   0 837.123 27.2357   2
  -4   6   0 848.581 27.3134   2
   4   6   0 854.845 55.6656   1
   5  -6   0 86.2943 7.22427   2
   5   6   0 91.5087 8.06371   3
   5   6   0 98.4726 7.59188   2
   6  -6   0 4.52778 4.61300   2
   6   6   0 3.33533 4.84162   2
   0  -7   0 12.0675 8.40427   1
   0   7   0 4.31425 10.1493   1
   1  -7   0 235.885 8.47811   3
   1  -7   0 241.834 19.3170   1
  -1  -7   0 264.111 8.52919   2
   1  -7   0 260.198 8.47346   2
   1   7   0 265.509 8.58044   2
  -1   7   0 334.151 24.2803   1
   1   7   0 279.766 19.5968   1
   1   7   0 276.400 8.69654   3
  -1   7   0 264.930 8.46956   2
  -2  -7   0 21.2262 10.1201   1
   2  -7   0 19.1531 1.32513   3
  -2  -7   0 22.7087 2.34477   2
   2  -7   0 16.8851 9.00594   1
   2  -7   0 23.4591 2.16722   2
   2  -7   0 17.4544 8.79841   1
   2   7   0 11.2022 8.94838   1
   2   7   0 21.4658 2.28165   3
   2   7   0 22.2669 2.30827   2
  -2   7   0 22.3251 2.31969   2
   3  -7   0 20.1141 12.8605   1
  -3  -7   0 13.1591 2.04993   2
   3  -7   0 18.1274 2.31978   2
  -3  -7   0 19.7678 11.3226   1
   3  -7   0 20.3595 13.0388   1
   3   7   0 14.4773 2.11276   3
  -3   7   0 18.3722 2.46312   2
   3   7   0 19.6212 11.4134   1
   3   7   0 10.6140 1.93175   2
   4  -7   0 332.779 40.1143   1
  -4  -7   0 374.149 40.1957   1
   4  -7   0 361.580 13.8309   2
  -4  -7   0 377.542 14.2023   2
   4  -7   0 363.540 43.8461   1
   4   7   0 406.390 43.6009   1
  -4   7   0 364.163 14.3149   2
   4   7   0 397.356 14.4018   2
   4   7   0 389.751 13.7415   3
   5  -7   0 13.1677 3.68895   2
   5   7   0 13.2802 4.62968   3
   5   7   0 19.4556 4.09843   2
   6  -7   0 5.86269 4.76907   2
   6   7   0 2.38073 4.66727   2
   0  -8   0 946.944 43.4807   1
   0  -8   0 970.451 28.7952   3
   0   8   0 998.867 44.2559   1
   0   8   0 936.889 28.6441   2
   0   8   0 1011.97 28.8367   3
   1  -8   0 9.30420 1.10303   3
   1  -8   0 10.4730 13.8514   1
  -1  -8   0 19.4845 9.75392   1
   1  -8   0 8.59355 1.13233   2
  -1  -8   0 11.4431 1.29769   2
   1   8   0 8.48890 6.04480   1
   1   8   0 8.11431 1.29845   3
  -1   8   0 13.1381 1.55217   2
   1   8   0 9.10936 1.27107   2
  -1   8   0 5.91191 6.11874   1
   2  -8   0 16.3105 19.5359   1
   2  -8   0 12.7075 1.43536   3
  -2  -8   0 14.8452 2.16413   2
  -2  -8   0 21.6503 8.18075   1
   2  -8   0 19.7728 12.8949   1
   2  -8   0 15.6601 1.98489   2
   2   8   0 14.7078 2.12693   2
  -2   8   0 15.0273 1.81227   2
   2   8   0 9.33665 7.86108   1
   3  -8   0 95.9654 18.3078   1
   3  -8   0 83.8187 18.4906   1
  -3  -8   0 108.029 5.59672   2
   3  -8   0 108.650 5.43048   2
  -3  -8   0 92.7628 16.0190   1
   3   8   0 106.486 5.54659   2
   3   8   0 106.281 5.55019   3
   3   8   0 178.293 33.5311   1
  -3   8   0 111.818 5.74068   2
   4  -8   0 165.592 28.5738   1
  -4  -8   0 238.406 10.3340   2
   4  -8   0 200.502 38.0484   1
  -4  -8   0 212.688 36.1013   1
   4  -8   0 234.104 9.87774   2
  -4   8   0 216.876 10.3703   2
   4   8   0 248.804 10.0606   3
   4   8   0 214.097 32.6165   1
   4   8   0 245.119 10.3393   2
   5  -8   0 69.1961 6.66604   2
   5   8   0 55.3668 6.75150   2
   6  -8   0 2.06784 4.52643   2
   6   8   0 11.6411 5.16429   2
   0  -9   0 3.01999 0.96299   3
   0  -9   0 0.67166 10.6205   1
   0   9   0 -1.1142 7.43643   1
  -1  -9   0 2777.04 82.3825   2
   1  -9   0 2764.46 82.1810   3
  -1   9   0 2866.04 100.753   1
   1   9   0 2917.44 100.218   1
   1   9   0 2938.36 82.6932   3
   1   9   0 2763.21 82.4180   2
  -1   9   0 2874.13 82.3216   2
   2  -9   0 9.81483 1.07452   3
   2  -9   0 8.78811 1.48950   2
   2  -9   0 9.05463 8.46957   1
   2  -9   0 13.5273 16.6369   1
  -2  -9   0 8.72781 1.47468   2
  -2  -9   0 4.99547 11.4119   1
   2   9   0 8.37271 1.43399   2
  -2   9   0 10.9150 1.58766   2
   2   9   0 8.36555 1.52151   3
   2   9   0 -2.3701 8.75415   1
  -3  -9   0 1194.34 58.8433   1
   3  -9   0 1222.22 61.0724   1
  -3  -9   0 1266.93 37.7336   2
   3  -9   0 1212.90 60.6946   1
   3  -9   0 1220.66 37.6308   2
   3   9   0 1258.02 37.6598   3
  -3   9   0 1267.43 37.8165   2
   3   9   0 1260.23 61.2237   1
   3   9   0 1231.84 37.9135   2
   4  -9   0 29.2216 24.7332   1
   4  -9   0 7.30389 21.7665   1
  -4  -9   0 36.1262 4.31963   2
   4  -9   0 50.1557 5.07266   2
  -4  -9   0 37.2985 22.0523   1
   4   9   0 40.5413 5.40844   2
   4   9   0 39.6759 4.35590   3
   4   9   0 55.4930 21.8751   1
  -4   9   0 27.8701 4.25413   2
   5  -9   0 112.843 7.97509   2
   5   9   0 114.403 8.45372   2
   6  -9   0 5.04563 4.74271   2
   6   9   0 1.27529 5.22832   2
   0  10   0 3958.47 117.572   2
   0  10   0 4154.16 138.697   1
   0  10   0 4114.62 117.786   3
   1 -10   0 402.847 29.8210   1
  -1 -10   0 384.628 12.3703   2
   1 -10   0 388.050 12.2232   3
  -1 -10   0 368.995 27.5147   1
   1  10   0 392.896 12.4238   2
   1  10   0 410.791 12.7616   3
   1  10   0 399.980 29.0592   1
  -1  10   0 398.751 12.3032   2
  -1  10   0 362.830 29.0681   1
   2 -10   0 44.7707 16.5104   1
   2 -10   0 34.6128 2.70169   2
  -2 -10   0 35.9625 2.84313   2
  -2 -10   0 16.7045 8.19580   1
   2 -10   0 23.0860 12.9578   1
   2 -10   0 30.3882 2.04497   3
   2  10   0 36.9212 2.88659   2
   2  10   0 25.2089 11.8697   1
   2  10   0 42.6705 3.22670   3
  -2  10   0 35.9077 2.88863   2
   3 -10   0 94.2395 20.1668   1
   3 -10   0 98.0148 5.47043   2
   3 -10   0 105.956 22.1479   1
  -3 -10   0 150.168 26.4559   1
  -3 -10   0 118.640 5.88881   2
   3  10   0 109.184 21.0251   1
  -3  10   0 111.687 6.06580   2
   3  10   0 105.187 5.85172   2
   3  10   0 99.3235 6.00418   3
   4 -10   0 1228.61 37.9777   2
   4 -10   0 1145.40 69.6859   1
   4 -10   0 1130.70 72.1859   1
  -4 -10   0 1223.58 38.0892   2
  -4 -10   0 1207.65 68.5895   1
   4  10   0 1183.37 37.9062   3
  -4  10   0 1220.92 38.2359   2
   4  10   0 1333.44 84.4010   1
   4  10   0 1268.52 38.4081   2
   5 -10   0 41.8179 6.19569   2
   5  10   0 55.2227 6.93282   2
   6 -10   0 -3.1609 4.96049   2
   6  10   0 1.28559 5.29006   2
   0 -11   0 12.5598 11.2116   1
   0  11   0 11.6491 10.1529   1
  -1 -11   0 987.771 48.0574   1
  -1 -11   0 931.185 28.1714   2
   1 -11   0 909.020 28.0021   3
  -1  11   0 954.231 49.0983   1
  -1  11   0 956.763 28.0865   2
   1  11   0 927.079 28.1965   2
   2 -11   0 80.0247 25.6089   1
   2 -11   0 64.1063 3.58608   2
  -2 -11   0 39.5254 11.0824   1
   2 -11   0 130.663 30.0555   1
  -2 -11   0 61.1925 3.67130   2
   2 -11   0 63.3282 2.92640   3
   2  11   0 57.4125 15.7422   1
  -2  11   0 62.1251 3.67681   2
   2  11   0 62.1561 3.71963   2
   2  11   0 69.9424 4.06638   3
  -3 -11   0 513.208 39.8632   1
  -3 -11   0 503.778 16.7920   2
   3 -11   0 503.207 43.4311   1
   3 -11   0 489.156 15.5443   3
   3 -11   0 507.449 16.7074   2
   3 -11   0 447.179 44.3984   1
  -3  11   0 516.328 16.9564   2
   3  11   0 535.219 43.9096   1
   3  11   0 490.943 16.9328   2
   4 -11   0 112.357 38.0377   1
  -4 -11   0 186.289 9.52967   2
  -4 -11   0 266.187 43.2804   1
   4 -11   0 187.527 8.86033   2
   4 -11   0 176.163 31.5420   1
   4  11   0 174.642 9.61720   3
   4  11   0 215.399 9.51818   2
  -4  11   0 169.431 9.67695   2
   5 -11   0 97.3781 7.71474   2
   5  11   0 93.4139 8.20666   2
   6 -11   0 -0.9598 5.22797   2
   6  11   0 2.77004 5.67994   2
   0 -12   0 -2.6343 9.96373   1
   0  12   0 0.63553 1.08889   3
   0  12   0 0.44724 0.87771   2
   0  12   0 -2.0846 10.6646   1
  -1 -12   0 163.075 28.6303   1
  -1 -12   0 115.491 4.80729   2
   1 -12   0 117.656 4.74119   3
   1 -12   0 103.654 19.0792   1
   1  12   0 146.918 24.5278   1
   1  12   0 114.069 4.81527   2
  -1  12   0 121.791 4.76394   2
   1  12   0 118.481 5.25580   3
  -1  12   0 149.058 25.9956   1
   2 -12   0 5.90731 1.43659   2
  -2 -12   0 5.77650 1.59795   2
   2 -12   0 5.68223 1.13574   3
  -2 -12   0 13.9606 14.2800   1
   2 -12   0 -10.360 13.5313   1
   2  12   0 -5.8330 11.3033   1
   2  12   0 6.33182 1.93151   3
   2  12   0 4.62980 1.48181   2
  -2  12   0 3.66925 1.49871   2
  -3 -12   0 52.5844 4.43521   2
   3 -12   0 52.1793 25.0499   1
   3 -12   0 40.0729 3.93710   2
   3 -12   0 18.8364 19.8241   1
  -3 -12   0 68.9437 32.2949   1
   3 -12   0 37.0262 2.40862   3
   3  12   0 46.3739 4.25904   2
  -3  12   0 39.6807 4.60993   2
   3  12   0 71.7538 35.4366   1
   3  12   0 27.1508 3.25615   3
  -4 -12   0 3.29743 3.46789   2
   4 -12   0 -0.3082 2.39845   2
   4 -12   0 -10.006 25.6828   1
   4  12   0 1.59092 2.65190   2
  -4  12   0 -2.9976 3.83394   2
   5 -12   0 90.0525 7.68544   2
   5  12   0 87.5451 8.29398   2
   6 -12   0 6.60422 5.58487   2
   6  12   0 2.93306 5.60635   2
   0 -13   0 20.5159 12.5952   1
   0  13   0 -9.4766 11.9874   1
   0  13   0 0.13360 0.95276   2
   0  13   0 2.90415 1.34126   3
   1 -13   0 401.859 12.9714   3
   1 -13   0 409.703 36.8986   1
  -1 -13   0 402.812 13.0374   2
  -1 -13   0 395.037 33.9764   1
   1  13   0 402.270 13.0501   2
  -1  13   0 382.030 36.6657   1
   1  13   0 417.653 13.5394   3
  -1  13   0 418.988 12.9488   2
   2 -13   0 124.235 5.45306   2
  -2 -13   0 82.7692 16.8466   1
   2 -13   0 126.503 4.76864   3
   2  13   0 98.7757 19.7905   1
   2  13   0 130.945 6.08629   3
   2  13   0 124.625 5.57268   2
  -3 -13   0 368.366 13.1904   2
  -3 -13   0 389.257 40.4195   1
   3 -13   0 348.245 47.9929   1
   3 -13   0 366.678 11.3676   3
   3 -13   0 370.540 13.0265   2
   3 -13   0 381.077 58.5735   1
   3  13   0 361.676 13.5202   3
   3  13   0 374.604 13.2806   2
   3  13   0 294.149 43.5586   1
  -3  13   0 366.762 13.2462   2
   4 -13   0 77.3826 33.6323   1
   4 -13   0 125.392 7.27036   2
   4  13   0 117.000 7.57529   2
   5 -13   0 31.2525 4.83489   2
   5  13   0 31.4162 4.91047   2
   6 -13   0 14.4386 6.14617   2
   6  13   0 -6.0167 5.90491   2
   0 -14   0 2449.20 99.1491   1
   0  14   0 2477.75 70.8664   3
   0  14   0 2326.18 70.3769   2
   1 -14   0 21.6867 15.9290   1
  -1 -14   0 41.4800 3.12242   2
  -1 -14   0 38.1605 14.8535   1
   1  14   0 46.4939 17.4347   1
   1  14   0 48.3249 3.76690   3
  -1  14   0 55.5202 31.1337   1
  -1  14   0 47.6425 3.04896   2
   1  14   0 39.8630 3.06244   2
   2 -14   0 0.84491 1.12483   3
   2 -14   0 -9.2320 18.7728   1
  -2 -14   0 2.57009 1.55402   2
  -2 -14   0 15.1870 13.3374   1
   2  14   0 -14.455 30.8269   1
   2  14   0 -1.0550 1.37399   2
   2  14   0 0.70596 1.93091   3
  -2  14   0 1.83157 1.59673   2
   3 -14   0 200.401 33.1246   1
  -3 -14   0 208.822 37.5367   1
   3 -14   0 186.279 8.10818   2
  -3 -14   0 190.314 8.43516   2
   3 -14   0 135.885 30.1986   1
  -3  14   0 185.479 8.57433   2
   3  14   0 190.736 9.02984   3
   3  14   0 189.349 8.28787   2
   3  14   0 162.803 28.0315   1
   4 -14   0 546.646 19.0848   2
   4 -14   0 509.793 69.3880   1
   4  14   0 553.342 19.5160   2
   5 -14   0 -1.4292 3.67864   2
   5  14   0 -6.7193 3.56451   2
   6 -14   0 5.88900 6.25182   2
   6  14   0 0.90076 6.47284   2
   0 -15   0 2.58588 12.9002   1
   0  15   0 13.5073 2.00649   3
   0  15   0 21.6656 18.0892   1
   1 -15   0 1324.23 69.3958   1
  -1 -15   0 1253.75 66.2723   1
  -1  15   0 1244.98 67.3300   1
   1  15   0 1166.36 66.2172   1
   1  15   0 1252.84 37.7319   2
  -1  15   0 1273.71 37.6016   2
   1  15   0 1322.76 38.4558   3
   2 -15   0 223.221 40.2387   1
  -2 -15   0 206.235 8.12033   2
  -2 -15   0 198.852 34.4497   1
   2  15   0 206.904 8.12843   2
  -2  15   0 212.972 8.14960   2
   2  15   0 232.088 38.7676   1
   2  15   0 210.809 8.80650   3
  -3 -15   0 465.156 48.6228   1
   3 -15   0 486.404 16.2267   2
  -3 -15   0 465.399 16.2623   2
   3 -15   0 457.170 58.1532   1
   3  15   0 476.370 16.3490   2
   3  15   0 445.264 54.7185   1
  -3  15   0 468.293 16.3768   2
   4 -15   0 38.8427 4.33202   2
   4 -15   0 -4.1583 64.9573   1
   4  15   0 33.2353 4.31866   2
   5 -15   0 129.641 9.35099   2
   5  15   0 115.684 9.51508   2
   0  16   0 634.708 20.2620   2
   0  16   0 648.760 20.3663   2
   0  16   0 744.705 59.8614   1
   0  16   0 675.555 21.0165   3
   1 -16   0 88.2697 23.0671   1
  -1 -16   0 87.8301 20.4551   1
   1  16   0 117.547 6.02859   3
   1  16   0 113.975 4.98611   2
  -1  16   0 88.3781 35.8537   1
   1  16   0 100.254 25.6760   1
  -1  16   0 115.332 4.98553   2
  -2 -16   0 -19.747 27.0492   1
   2 -16   0 -7.2372 19.9751   1
  -2 -16   0 6.26009 2.01095   2
   2  16   0 -5.7832 20.5069   1
   2  16   0 2.77375 2.34746   3
  -2  16   0 1.86002 1.75013   2
   2  16   0 2.58063 1.69675   2
  -3 -16   0 2.76208 2.64601   2
   3 -16   0 -7.2054 29.6895   1
   3 -16   0 12.9165 28.2053   1
  -3 -16   0 14.7003 23.7226   1
  -3  16   0 -1.8396 2.72303   2
   3  16   0 0.25416 2.08400   2
   3  16   0 18.9231 36.2056   1
   4 -16   0 152.837 8.48277   2
   4  16   0 157.856 8.90619   2
   5 -16   0 114.285 9.06192   2
   5  16   0 115.154 9.70611   2
   0 -17   0 45.3522 36.8902   1
   0  17   0 7.50617 2.10622   3
   0  17   0 3.73950 1.41116   2
   0  17   0 -14.083 18.8289   1
   0  17   0 4.22603 1.48915   2
   1 -17   0 10.4177 20.6746   1
  -1 -17   0 -1.9987 16.7307   1
  -1  17   0 16.8571 19.9234   1
   1  17   0 36.2978 21.4030   1
   2 -17   0 6.79463 24.0115   1
  -2 -17   0 9.15218 18.0964   1
   2  17   0 1.72060 2.74149   3
   2  17   0 18.7369 25.0938   1
   3 -17   0 73.6486 31.5932   1
  -3 -17   0 2.58028 2.79540   2
   3 -17   0 2.73828 54.5813   1
  -3 -17   0 -11.680 32.3016   1
  -3  17   0 2.97539 2.93530   2
   3  17   0 3.24159 2.32280   2
   4 -17   0 127.785 11.9318   2
   4  17   0 99.6163 10.7174   2
   5 -17   0 14.5868 4.79438   2
   5  17   0 9.86307 4.86158   2
   0 -18   0 972.735 63.0945   1
   0  18   0 853.684 26.3135   2
   0  18   0 868.900 26.4287   2
   0  18   0 812.434 62.1133   1
   0  18   0 865.948 27.2153   3
   1 -18   0 10.5631 32.9337   1
  -1 -18   0 18.6959 21.2372   1
  -1  18   0 27.2224 27.8629   1
  -1  18   0 8.00884 1.71338   2
   1  18   0 6.84668 1.64594   2
   1  18   0 6.81868 2.50321   3
  -1  18   0 1.58009 1.63781   2
   1  18   0 28.3058 24.2078   1
   2 -18   0 -22.857 31.1871   1
  -2 -18   0 5.01973 2.23938   2
  -2 -18   0 -25.447 22.9534   1
  -2  18   0 3.75186 2.16682   2
   2  18   0 5.21513 1.98499   2
  -2  18   0 1.83667 28.8291   1
   2  18   0 23.3139 28.8364   1
   3 -18   0 16.8189 46.5267   1
  -3 -18   0 74.1725 6.49307   2
   3  18   0 80.8989 5.67769   2
  -3  18   0 72.0659 6.68690   2
   4  18   0 149.429 11.1156   2
   5 -18   0 17.2103 5.26232   2
   5  18   0 15.0896 5.44939   2
   0 -19   0 19.0448 23.6561   1
   0  19   0 2.81278 1.56598   2
   0  19   0 7.15726 1.78554   2
   0  19   0 0.47639 2.37774   3
   0  19   0 27.1494 24.2181   1
   1 -19   0 533.276 56.1820   1
  -1 -19   0 458.157 54.0360   1
   1  19   0 563.394 17.2942   2
  -1  19   0 541.410 17.2294   2
   1  19   0 475.159 58.8906   1
  -1  19   0 521.946 60.2546   1
   1  19   0 545.456 18.5123   3
  -1  19   0 562.687 17.2045   2
   2 -19   0 272.113 59.0756   1
  -2 -19   0 180.632 39.6397   1
  -2 -19   0 199.820 8.52255   2
   2  19   0 119.197 32.5942   1
  -2  19   0 209.632 59.0773   1
   2  19   0 194.656 8.14498   2
  -2  19   0 213.160 8.34920   2
   3 -19   0 253.930 47.7837   1
  -3 -19   0 333.134 13.2244   2
  -3  19   0 339.005 13.3156   2
   3  19   0 350.984 12.8532   2
   4  19   0 -3.6378 3.49057   2
   5  19   0 79.6791 10.1136   2
   0 -20   0 924.882 102.287   1
   0  20   0 1002.07 31.0780   3
   0  20   0 940.333 73.0157   1
   0  20   0 1013.07 30.0459   2
   0  20   0 1007.47 29.9698   2
   1 -20   0 124.448 29.6117   1
  -1 -20   0 137.398 31.1483   1
  -1  20   0 160.301 6.62266   2
  -1  20   0 191.999 52.5760   1
   1  20   0 148.910 42.4410   1
  -1  20   0 158.359 8.30510   2
   1  20   0 163.889 6.64793   2
   1  20   0 152.720 9.39222   3
  -2 -20   0 6.59086 34.4565   1
   2 -20   0 -4.3226 33.8230   1
  -2  20   0 2.69378 2.47563   2
  -2  20   0 -2.0815 36.2085   1
   2  20   0 -0.0415 2.02589   2
   3 -20   0 -90.732 71.4082   1
   4  20   0 251.765 12.0015   2
   5  20   0 55.6900 7.01498   2
   0 -21   0 22.5176 35.4807   1
   0  21   0 8.60396 2.04705   2
   0  21   0 4.71530 1.75888   2
   0  21   0 -19.486 54.1629   1
   0  21   0 4.47538 2.98603   3
   1 -21   0 193.883 49.9692   1
  -1 -21   0 105.419 34.8054   1
   1  21   0 146.186 35.9097   1
   1  21   0 144.683 6.16932   2
  -1  21   0 138.421 6.09535   2
  -1  21   0 147.700 42.2500   1
  -1  21   0 117.302 7.78046   2
   2 -21   0 10.5717 38.8231   1
  -2  21   0 78.9179 5.90408   2
   2  21   0 78.9871 5.25023   2
  -2  21   0 94.1607 66.2641   1
  -3 -21   0 14.1286 4.37849   2
   3  21   0 22.6274 3.53419   2
   4  21   0 39.0285 5.47782   2
   0 -22   0 25.4239 44.1991   1
   0  22   0 31.6400 3.36382   2
   0  22   0 27.3388 2.84269   2
   0  22   0 16.9391 4.58579   3
   1 -22   0 19.6925 26.9145   1
   1  22   0 6.75621 2.12468   2
  -1  22   0 3.85620 2.36006   2
  -1  22   0 -47.206 39.5336   1
   2 -22   0 11.8397 58.3156   1
  -2  22   0 2.48527 2.87483   2
  -2  22   0 6.11181 2.51821   2
   2  22   0 4.14756 2.36556   2
   3  22   0 21.4396 3.61757   2
   4  22   0 9.38918 4.65178   2
   0  23   0 -0.9209 1.83616   2
   0  23   0 -1.6935 3.34895   2
   1 -23   0 124.209 59.0046   1
  -1  23   0 158.356 6.76123   2
  -1  23   0 146.182 7.05417   2
   1  23   0 153.114 6.77816   2
  -2  23   0 66.1266 5.43446   2
   2  23   0 66.0734 5.24997   2
   3  23   0 98.2474 7.13682   2
   4  23   0 14.8261 5.16328   2
   0  24   0 600.203 18.9806   2
  -1  24   0 86.2137 5.25603   2
   1  24   0 87.7619 5.38168   2
   2  24   0 -1.6102 2.52707   2
  -2  24   0 -1.1291 2.54069   2
   3  24   0 49.4440 6.39281   2
   0  25   0 0.49710 2.14886   2
  -1  25   0 124.440 6.41066   2
   1  25   0 135.464 6.46498   2
  -2  25   0 130.934 7.23097   2
   2  25   0 130.784 7.18585   2
   0  26   0 33.1674 4.25346   2
   1  26   0 35.7490 5.26244   2
  -1  26   0 39.9535 5.39768   2
   6   0  -1 0.45275 4.25500   2
   5   0  -1 153.192 8.89753   2
  -4   0   1 22.5569 15.4215   1
   4   0  -1 2.84673 11.3173   1
  -4   0   1 0.60997 2.27382   2
   4   0  -1 3.70452 1.95781   2
  -3   0   1 80.1569 14.0859   1
   3   0  -1 73.0250 12.8317   1
   3   0  -1 94.1504 4.75121   2
  -3   0   1 96.3050 4.86457   2
   2   0  -1 -6.0640 6.90182   1
  -2   0   1 5.14667 7.22614   1
   2   0  -1 2.90786 1.03968   2
  -2   0   1 2.60235 0.97788   2
   1   0  -1 6880.61 208.432   1
  -1   0   1 7208.21 208.815   1
  -1   0  -1 48.2224 5.97543   1
  -1   0  -1 51.4070 2.17675   2
   1   0   1 47.1805 1.81354   3
   2   0   1 3.87793 0.95138   2
  -2   0  -1 2.23183 0.91836   2
  -2   0  -1 -2.1135 4.65855   1
   3   0   1 4391.38 135.237   2
   3   0   1 4817.97 153.594   1
  -3   0  -1 4727.10 135.306   2
   3   0   1 4571.49 134.244   3
  -3   0  -1 4778.84 153.176   1
   4   0   1 5.73175 11.7718   1
  -4   0  -1 -2.7372 13.9361   1
   5   0   1 0.03632 2.67359   2
   5   0   1 2.33907 2.64487   3
   6   0   1 6.15838 4.57904   2
   6  -1  -1 12.5268 4.64015   2
   6   1  -1 4.66272 4.09551   2
   5  -1  -1 334.119 13.9104   2
   5   1  -1 340.993 13.9100   2
   5   1  -1 325.574 12.6001   3
  -4  -1   1 213.080 9.35611   2
   4  -1  -1 163.298 31.8179   1
  -4  -1   1 161.312 29.9810   1
   4  -1  -1 215.334 9.06193   2
  -4   1   1 220.675 31.5996   1
   4   1  -1 198.783 8.97931   2
  -4   1   1 212.015 9.40132   2
   4   1  -1 225.293 40.0630   1
   3  -1  -1 54.0288 3.66474   2
   3  -1  -1 39.7970 11.9398   1
  -3  -1   1 60.7157 3.98485   2
  -3  -1   1 82.9214 17.0794   1
   3   1  -1 67.9149 16.5587   1
   3   1  -1 55.3733 3.74040   2
  -3   1   1 60.2373 3.90960   2
  -3   1   1 69.0354 19.6690   1
   2  -1  -1 1238.14 48.4006   1
   2  -1  -1 1233.22 36.8769   2
  -2  -1   1 1222.53 48.0800   1
  -2  -1   1 1268.29 36.9496   2
  -2   1   1 1262.13 48.2653   1
   2   1  -1 1210.15 36.9323   2
  -2   1   1 1270.05 36.9136   2
  -1  -1   1 1050.37 30.6288   2
   1  -1  -1 951.713 30.5810   2
   1  -1  -1 1082.65 36.9396   1
   1   1  -1 1040.81 36.6582   1
  -1   1   1 1102.78 36.9051   1
  -1   1   1 1051.10 30.5624   2
  -1  -1  -1 46.7853 5.92719   1
   1  -1   1 39.9875 1.47399   3
  -1  -1  -1 42.0920 1.93364   2
   1  -1   1 39.5257 2.02879   2
  -1   1  -1 46.6102 6.01955   1
  -1   1  -1 42.8286 1.99472   2
   1   1   1 41.3040 1.74943   3
   2  -1   1 1086.73 32.0080   2
  -2  -1  -1 1077.43 42.2743   1
  -2  -1  -1 1110.57 31.9621   2
  -2   1  -1 1076.34 42.3353   1
   2   1   1 879.255 53.7784   1
   2   1   1 1094.45 31.9986   2
   2   1   1 1111.88 31.4142   3
   3  -1   1 99.8034 5.16118   2
   3  -1   1 93.4072 4.00845   3
   3  -1   1 107.231 19.6894   1
  -3  -1  -1 120.351 17.9963   1
   3   1   1 125.402 19.1486   1
  -3   1  -1 79.0378 14.5829   1
  -3   1  -1 96.9467 5.19027   2
   4  -1   1 653.865 46.4207   1
  -4  -1  -1 674.250 45.7781   1
   4  -1   1 711.320 21.9062   3
  -4  -1  -1 727.672 23.6160   2
   4  -1   1 707.260 23.4684   2
   4   1   1 718.377 47.2136   1
   4   1   1 721.641 23.5809   2
   4   1   1 723.817 22.2664   3
  -4   1  -1 742.295 46.6147   1
  -4   1  -1 741.381 23.7018   2
   5  -1   1 0.83289 2.78297   2
   5   1   1 1.77543 2.70510   2
   5   1   1 0.42208 2.74073   3
   6  -1   1 157.374 11.0260   2
   6   1   1 134.005 10.7429   2
   6  -2  -1 112.576 9.75383   2
   6   2  -1 111.262 9.74782   2
   5   2  -1 26.0677 3.94487   3
   5   2  -1 25.6182 3.83508   2
   4  -2  -1 664.438 22.1762   2
  -4  -2   1 706.427 45.4620   1
  -4  -2   1 693.387 22.4586   2
   4  -2  -1 634.102 47.2731   1
   4   2  -1 614.724 45.6552   1
  -4   2   1 673.985 22.3299   2
   4   2  -1 694.180 22.4306   2
  -3  -2   1 7.37334 1.77261   2
   3  -2  -1 7.66231 1.65925   2
   3  -2  -1 9.48492 9.62832   1
  -3  -2   1 0.72354 8.35434   1
  -3   2   1 6.85495 1.69891   2
   3   2  -1 14.6450 7.03234   1
  -3   2   1 8.36565 8.75607   1
   3   2  -1 7.13743 1.67907   2
  -2  -2   1 1103.41 33.0675   2
   2  -2  -1 1063.49 32.9357   2
   2  -2  -1 1075.14 44.5824   1
  -2  -2   1 1107.28 44.5040   1
  -2   2   1 1095.83 44.3519   1
   2   2  -1 1055.00 33.0607   2
   2   2  -1 1302.65 49.7431   1
  -2   2   1 1097.76 32.9904   2
  -1  -2   1 619.680 24.8093   1
  -1  -2   1 630.971 18.6760   2
   1  -2  -1 598.611 18.5129   2
   1   2  -1 607.643 19.0672   2
   1   2  -1 642.075 25.2134   1
  -1   2   1 635.477 18.5468   2
  -1   2   1 650.002 25.1748   1
   1  -2   1 351.953 10.8368   2
  -1  -2  -1 360.141 10.7430   2
  -1  -2  -1 340.514 15.7558   1
  -1   2  -1 349.192 10.8290   2
   1   2   1 353.913 10.6507   3
  -1   2  -1 353.000 16.5237   1
  -2  -2  -1 318.990 19.7752   1
   2  -2   1 321.286 10.6508   2
   2  -2   1 302.123 20.6887   1
  -2  -2  -1 341.502 10.6781   2
  -2   2  -1 328.053 20.2354   1
   2   2   1 328.694 10.6762   2
  -2   2  -1 347.526 10.7595   2
   2   2   1 261.605 24.2083   1
   2   2   1 330.781 10.2079   3
   3  -2   1 219.093 8.53348   2
  -3  -2  -1 214.435 21.7422   1
   3  -2   1 216.561 22.8501   1
  -3  -2  -1 230.440 8.63169   2
   3   2   1 216.370 8.52585   2
  -3   2  -1 207.999 22.5937   1
  -3   2  -1 237.064 8.70980   2
   3   2   1 225.563 7.85631   3
   4  -2   1 -0.0622 1.49309   3
  -4  -2  -1 8.18059 2.47481   2
   4  -2   1 -4.2059 15.4597   1
   4  -2   1 5.02834 2.08861   2
  -4  -2  -1 9.25602 14.6837   1
  -4   2  -1 9.10755 15.5139   1
   4   2   1 0.26544 12.1627   1
  -4   2  -1 0.38495 2.47442   2
   4   2   1 5.36795 2.15242   3
   5  -2   1 1.76332 2.31810   3
   5  -2   1 -0.7267 2.68490   2
   5   2   1 1.14721 3.06910   3
   5   2   1 1.09179 2.84229   2
   6  -2   1 -2.9703 4.35475   2
   6   2   1 4.56079 4.49005   2
   6  -3  -1 3.50564 4.39104   2
   6   3  -1 6.38182 4.60243   2
   5  -3  -1 832.516 27.8317   2
   5   3  -1 823.687 28.0139   2
   5   3  -1 825.752 26.7306   3
  -4  -3   1 49.3110 5.22893   2
  -4  -3   1 41.4655 22.1327   1
   4  -3  -1 30.3583 22.9983   1
   4  -3  -1 39.3349 4.26815   2
   4   3  -1 22.1096 15.9982   1
  -4   3   1 1.48501 15.5795   1
  -4   3   1 34.4023 5.07081   2
  -3  -3   1 46.4520 3.70985   2
   3  -3  -1 43.7341 3.31561   2
  -3  -3   1 30.4551 10.9330   1
   3  -3  -1 25.8867 12.3734   1
  -3   3   1 48.9501 3.61966   2
   3   3  -1 47.4564 12.9202   1
   3   3  -1 45.4808 3.44212   2
  -3   3   1 46.9253 12.0886   1
  -2  -3   1 21.2943 9.13794   1
   2  -3  -1 15.5947 7.23324   1
   2  -3  -1 33.8571 2.36629   2
  -2  -3   1 33.2675 2.52772   2
  -2   3   1 32.9745 2.44075   2
   2   3  -1 33.1460 2.52542   2
   2   3  -1 16.2637 7.35192   1
   1  -3  -1 7594.43 223.833   1
  -1  -3   1 7404.54 223.529   1
   1   3  -1 7533.47 223.821   1
   1  -3   1 109.330 9.16007   1
  -1  -3  -1 106.776 3.76371   2
   1  -3   1 107.130 3.92051   2
  -1  -3  -1 105.718 8.94637   1
  -1   3  -1 107.648 3.92171   2
   1   3   1 107.525 3.81475   3
   2  -3   1 202.455 7.19831   2
   2  -3   1 174.439 16.4389   1
  -2  -3  -1 211.028 7.19117   2
  -2  -3  -1 179.996 15.6653   1
   2   3   1 212.236 7.23071   2
  -2   3  -1 204.815 16.5687   1
   2   3   1 198.834 6.82229   3
  -2   3  -1 209.066 7.26757   2
   3  -3   1 272.810 9.62048   2
  -3  -3  -1 255.520 9.48466   2
  -3  -3  -1 234.785 22.9439   1
   3  -3   1 229.805 24.6760   1
   3   3   1 242.344 24.0324   1
   3   3   1 244.228 9.45309   2
  -3   3  -1 222.029 23.0668   1
  -3   3  -1 278.166 9.75367   2
   3   3   1 255.816 8.84423   3
   4  -3   1 127.770 23.3024   1
   4  -3   1 152.681 5.68787   3
  -4  -3  -1 144.239 7.79753   2
   4  -3   1 151.726 7.50250   2
  -4  -3  -1 121.370 20.0911   1
   4   3   1 141.369 26.6591   1
   4   3   1 143.846 7.44336   2
   4   3   1 158.333 6.85794   3
  -4   3  -1 173.957 30.6527   1
  -4   3  -1 157.342 8.08967   2
   5  -3   1 2.25304 2.77576   2
   5  -3   1 2.83245 2.12622   3
   5   3   1 0.47613 3.17586   3
   5   3   1 1.79900 2.66877   2
   6  -3   1 18.0238 4.86547   2
   6   3   1 28.5215 5.69905   2
   6  -4  -1 50.5976 6.41054   2
   6   4  -1 40.3990 6.33010   2
   5  -4  -1 138.040 8.69245   2
   5   4  -1 166.447 9.26422   2
   5   4  -1 149.751 8.78074   3
   4  -4  -1 145.813 7.11870   2
  -4  -4   1 142.736 23.7913   1
  -4  -4   1 138.056 7.59201   2
   4  -4  -1 95.4216 22.8249   1
   4   4  -1 144.151 7.37816   2
  -4   4   1 151.083 7.70989   2
   4   4  -1 157.249 27.6129   1
  -4   4   1 115.431 20.0255   1
  -3  -4   1 40.1741 3.47760   2
   3  -4  -1 37.9455 3.03642   2
   3  -4  -1 30.0913 12.6770   1
  -3  -4   1 33.4434 15.3502   1
  -3   4   1 29.8121 10.8722   1
   3   4  -1 20.1422 11.2516   1
  -3   4   1 37.1972 3.47390   2
   3   4  -1 36.6681 3.26099   2
  -2  -4   1 92.0390 4.09167   2
  -2  -4   1 78.0753 12.7697   1
   2  -4  -1 91.5383 3.89915   2
   2  -4  -1 79.6079 14.0629   1
   2   4  -1 86.3125 13.6376   1
   2   4  -1 91.4547 4.17501   2
  -2   4   1 77.4557 13.0191   1
  -2   4   1 91.9651 3.99959   2
   1  -4  -1 6760.72 205.581   1
   1   4  -1 6902.35 205.598   1
   0  -4  -1 596.776 16.8961   3
   0  -4  -1 582.552 24.7361   1
   0  -4   1 545.105 24.1519   1
   0   4  -1 585.625 25.0220   1
   0   4   1 512.257 29.3975   1
   0   4   1 575.621 16.8546   3
   1  -4   1 171.336 12.2755   1
  -1  -4  -1 164.791 5.42420   2
   1  -4   1 164.215 5.64240   2
  -1  -4  -1 171.095 11.7913   1
   1   4   1 162.384 5.56448   3
  -1   4  -1 164.896 5.61845   2
   2  -4   1 -1.7674 6.17066   1
   2  -4   1 3.05489 1.02972   2
  -2  -4  -1 -6.6563 5.33660   1
  -2  -4  -1 5.03499 1.18838   2
   2   4   1 2.15127 1.04559   2
   2   4   1 1.18406 0.94762   3
  -2   4  -1 4.30079 1.16026   2
  -3  -4  -1 2644.41 76.6137   2
   3  -4   1 2471.99 76.5914   2
   3  -4   1 2567.32 94.9578   1
  -3  -4  -1 2580.31 94.5134   1
  -3   4  -1 2723.00 96.6025   1
   3   4   1 2663.30 76.1193   3
   3   4   1 2602.05 95.2612   1
  -3   4  -1 2705.66 76.8230   2
   3   4   1 2491.99 76.6546   2
   4  -4   1 24.0595 17.9543   1
  -4  -4  -1 30.7860 15.9112   1
   4  -4   1 57.3294 3.03330   3
   4  -4   1 63.6579 5.07700   2
  -4  -4  -1 48.5945 5.50396   2
   4   4   1 37.8622 4.47607   3
   4   4   1 44.5874 4.83887   2
  -4   4  -1 67.2433 6.01473   2
  -4   4  -1 45.3282 18.0419   1
   4   4   1 31.0276 16.9855   1
   5  -4   1 6.96075 1.89734   3
   5  -4   1 6.54194 2.94105   2
   5   4   1 5.19596 3.10437   2
   5   4   1 4.45084 3.50780   3
   6  -4   1 5.03972 4.58675   2
   6   4   1 -1.7338 4.53345   2
   6  -5  -1 8.75381 4.54808   2
   6   5  -1 5.09412 4.73635   2
   5  -5  -1 4.25310 2.97237   2
   5   5  -1 11.0228 3.60426   2
   5   5  -1 -0.8822 3.67899   3
  -4  -5   1 339.431 36.7349   1
   4  -5  -1 292.432 40.6462   1
  -4  -5   1 339.589 12.9713   2
   4  -5  -1 337.530 12.6129   2
  -4   5   1 348.837 13.0406   2
  -4   5   1 361.078 38.3451   1
   4   5  -1 326.337 12.8949   2
   4   5  -1 337.002 40.3082   1
   3  -5  -1 66.5102 19.5586   1
  -3  -5   1 46.8848 3.75360   2
  -3  -5   1 36.8279 11.7303   1
   3  -5  -1 47.6051 3.39442   2
  -3   5   1 46.1584 3.76965   2
  -3   5   1 57.2393 12.7139   1
   3   5  -1 74.1949 23.6677   1
   3   5  -1 46.2562 3.63248   2
  -2  -5   1 758.601 22.6248   2
   2  -5  -1 737.144 22.3695   2
   2  -5  -1 730.984 35.3579   1
   2   5  -1 732.951 22.6790   2
   2   5  -1 702.529 35.1098   1
  -2   5   1 751.197 22.4262   2
   1  -5  -1 67.2810 9.80408   1
  -1  -5   1 72.0521 9.62659   1
  -1  -5   1 69.9072 3.04167   2
   1  -5  -1 64.6558 2.98018   2
   1   5  -1 73.8270 3.13739   2
  -1   5   1 70.2270 2.72995   2
   1   5  -1 62.7139 9.80615   1
   0  -5   1 4122.86 128.717   1
   0  -5  -1 4310.25 129.484   1
   0   5  -1 3673.75 117.941   2
   0   5  -1 4288.40 129.735   1
   1  -5   1 71.3817 3.03943   2
  -1  -5  -1 73.0158 2.83680   2
   1  -5   1 65.5379 9.83202   1
  -1  -5  -1 60.4413 8.98818   1
  -1   5  -1 75.1230 3.07767   2
   1   5   1 74.1354 3.07646   3
  -1   5  -1 70.8391 9.89987   1
   2  -5   1 1338.10 40.2571   2
   2  -5   1 1368.93 53.9192   1
  -2  -5  -1 1383.60 40.1448   2
   2  -5   1 1307.51 52.7882   1
  -2  -5  -1 1337.07 52.3311   1
   2   5   1 1402.18 40.0721   3
  -2   5  -1 1407.84 40.3348   2
   2   5   1 1313.71 54.0665   1
   2   5   1 1328.54 40.1819   2
   3  -5   1 5.12817 10.0846   1
  -3  -5  -1 5.01561 10.0920   1
  -3  -5  -1 12.7906 2.17033   2
  -3   5  -1 24.8659 3.60838   2
   3   5   1 18.7020 10.7747   1
  -4  -5  -1 934.222 29.9726   2
  -4  -5  -1 947.095 53.7304   1
   4  -5   1 903.959 27.5819   3
   4  -5   1 941.876 29.9780   2
   4  -5   1 889.075 55.9679   1
  -4   5  -1 948.126 30.1688   2
   4   5   1 947.037 29.2549   3
   4   5   1 955.469 30.1267   2
   4   5   1 999.435 57.6614   1
   5  -5   1 20.5418 3.85960   2
   5   5   1 22.7488 4.28100   3
   5   5   1 28.1520 4.32522   2
   6  -5   1 178.005 11.8928   2
   6   5   1 178.860 12.1032   2
   6  -6  -1 72.8886 9.13924   2
   6   6  -1 91.2136 9.81349   2
   5  -6  -1 140.771 8.35317   2
   5   6  -1 95.2697 8.59871   3
   5   6  -1 115.552 8.52898   2
  -4  -6   1 311.876 12.2929   2
  -4  -6   1 251.826 36.4356   1
   4  -6  -1 301.558 11.7605   2
   4  -6  -1 330.747 42.3657   1
   4   6  -1 324.665 12.3345   2
   4   6  -1 296.913 39.1631   1
  -4   6   1 303.647 12.1715   2
   3  -6  -1 0.43542 1.20637   2
  -3  -6   1 2.30820 1.50483   2
   3  -6  -1 1.60172 12.6382   1
  -3  -6   1 5.64442 13.6799   1
  -3   6   1 2.11820 1.56176   2
   3   6  -1 -1.9519 10.0069   1
   3   6  -1 2.90945 1.42114   2
   2  -6  -1 1406.03 57.3063   1
   2  -6  -1 1419.72 42.4893   2
  -2  -6   1 1433.27 56.8004   1
   2  -6  -1 1445.13 57.7615   1
  -2  -6   1 1468.06 42.7917   2
  -2   6   1 1461.34 42.5873   2
   2   6  -1 1438.77 42.8863   2
   2   6  -1 1451.13 57.7416   1
  -1  -6   1 1969.67 57.2187   2
   1  -6  -1 1777.39 57.1073   3
   1   6  -1 2000.93 57.2868   2
  -1   6   1 1994.30 56.8484   2
   1   6  -1 2080.98 69.5284   1
   0  -6   1 821.223 37.1863   1
   0  -6  -1 648.531 31.4891   1
   0  -6  -1 655.698 20.6291   3
   0   6  -1 816.985 37.2666   1
   0   6  -1 659.586 20.4246   3
   0   6   1 631.065 30.7659   1
   0   6   1 679.075 20.6229   3
   1  -6   1 3.83002 0.83751   2
   1  -6   1 2.14619 4.95919   1
  -1  -6  -1 1.74054 0.64451   2
  -1  -6  -1 1.07081 4.55365   1
   1   6   1 1.37037 0.72738   3
  -1   6  -1 1.24363 0.73915   2
   1   6   1 2.00866 0.71862   2
  -1   6  -1 -1.7658 4.21765   1
  -2  -6  -1 548.686 16.7665   2
   2  -6   1 509.496 29.8873   1
   2  -6   1 542.790 16.9184   2
   2  -6   1 507.058 29.3048   1
  -2  -6  -1 549.283 28.8756   1
   2   6   1 558.483 16.8189   3
   2   6   1 504.046 29.2634   1
  -2   6  -1 561.081 16.9946   2
   2   6   1 528.551 16.8055   2
   3  -6   1 1568.81 67.7445   1
  -3  -6  -1 1549.90 65.9503   1
   3  -6   1 1556.53 67.2005   1
   3  -6   1 1590.73 48.4387   2
  -3  -6  -1 1660.53 48.3888   2
   3   6   1 1670.13 48.1368   3
  -3   6  -1 1677.17 48.6076   2
   3   6   1 1645.55 68.3013   1
   3   6   1 1603.15 48.4703   2
   4  -6   1 2.04445 2.06965   2
   4  -6   1 -2.0461 20.1161   1
  -4  -6  -1 -5.8839 15.1375   1
  -4  -6  -1 2.92891 2.63661   2
   4   6   1 3.55830 17.5420   1
  -4   6  -1 0.60435 2.70762   2
   5  -6   1 6.13131 3.18316   2
   5   6   1 11.2775 3.67465   2
   5   6   1 6.18169 3.94753   3
   6  -6   1 -0.3519 4.63631   2
   6   6   1 8.63923 5.02929   2
   6  -7  -1 6.89603 4.43198   2
   6   7  -1 10.2380 5.51295   2
   5  -7  -1 921.810 92.8157   1
   5  -7  -1 842.284 28.7354   2
   5   7  -1 865.390 29.3846   2
  -4  -7   1 -5.1131 2.48269   2
  -4  -7   1 1.52746 22.5786   1
   4  -7  -1 -6.8497 17.9139   1
   4  -7  -1 0.17009 1.97387   2
   4  -7  -1 4.03433 18.8491   1
   4   7  -1 3.02361 2.27497   2
   4   7  -1 13.5013 19.9305   1
  -4   7   1 -2.2031 2.55233   2
   4   7  -1 -1.6157 2.42141   3
   3  -7  -1 23.5692 21.0902   1
   3  -7  -1 11.9514 12.6987   1
  -3  -7   1 9.74499 2.08157   2
  -3  -7   1 -0.3781 14.5572   1
   3  -7  -1 8.77197 1.73542   2
  -3   7   1 8.36902 1.86864   2
   3   7  -1 5.17793 11.2305   1
   3   7  -1 9.83876 2.03966   2
   2  -7  -1 321.093 25.6413   1
   2  -7  -1 334.525 10.9276   2
  -2  -7   1 317.392 23.3401   1
  -2  -7   1 353.038 11.2774   2
   2   7  -1 321.953 11.2841   2
   2   7  -1 335.017 24.9438   1
  -2   7   1 349.208 11.0461   2
  -1  -7   1 2723.86 80.7877   2
   1  -7  -1 2859.71 95.3408   1
   1  -7  -1 2730.59 80.4197   3
   1   7  -1 2684.15 80.8267   2
  -1   7   1 2863.72 94.8169   1
  -1   7   1 2765.45 80.3930   2
   1   7  -1 2880.06 94.9543   1
   0  -7   1 47.6438 14.2478   1
   0  -7  -1 25.6826 1.80579   3
   0  -7  -1 16.1872 7.42416   1
   0   7  -1 24.4541 1.58405   3
   0   7   1 19.7284 1.19451   2
   0   7   1 12.0981 11.3741   1
   0   7   1 22.1865 1.75566   3
   0   7  -1 15.6210 11.4546   1
  -1  -7  -1 27.5558 1.74160   2
   1  -7   1 30.1022 2.02998   2
  -1  -7  -1 21.7017 6.90413   1
   1  -7   1 41.7515 10.0083   1
   1   7   1 19.1549 6.79846   1
   1   7   1 31.5811 2.15880   3
  -1   7  -1 28.6127 2.03567   2
   1   7   1 30.2552 1.84250   2
  -1   7  -1 27.4606 1.47683   3
  -1   7  -1 17.7031 6.79583   1
  -2  -7  -1 302.191 22.1757   1
   2  -7   1 304.047 10.4362   2
   2  -7   1 306.113 23.9781   1
  -2  -7  -1 321.950 10.3099   2
   2  -7   1 271.234 23.3149   1
  -2   7  -1 322.156 10.5389   2
   2   7   1 312.572 10.3823   2
   2   7   1 322.193 10.4552   3
   2   7   1 290.925 23.2762   1
  -3  -7  -1 218.786 25.3922   1
   3  -7   1 171.399 25.9503   1
  -3  -7  -1 217.694 8.38158   2
   3  -7   1 195.352 8.28171   2
   3  -7   1 252.542 37.8588   1
  -3   7  -1 204.703 8.54546   2
   3   7   1 221.706 8.33017   3
   3   7   1 201.397 27.1044   1
   3   7   1 216.463 8.49451   2
   4  -7   1 18.0722 2.85216   2
   4  -7   1 -6.0765 17.1196   1
   4  -7   1 30.5459 35.5890   1
  -4  -7  -1 16.8132 3.22255   2
  -4  -7  -1 7.61480 16.9504   1
   4   7   1 14.1022 2.74076   2
  -4   7  -1 16.9520 3.54676   2
   4   7   1 18.5232 3.10270   3
   4   7   1 3.70376 20.6557   1
   5  -7   1 -4.4686 2.69093   2
   5   7   1 -0.8796 2.88840   2
   5   7   1 -9.9631 3.94068   3
   6  -7   1 14.4946 5.15676   2
   6   7   1 8.47307 4.78742   2
   6  -8  -1 65.8447 8.86786   2
   6   8  -1 71.3157 9.86242   2
   5  -8  -1 51.7876 6.47213   2
   4  -8  -1 540.171 18.5709   2
  -4  -8   1 549.010 19.0704   2
   4  -8  -1 528.298 51.1306   1
  -4  -8   1 549.223 47.0790   1
   4  -8  -1 539.896 48.4818   1
   4   8  -1 529.283 19.0513   2
   4   8  -1 591.041 51.0927   1
  -4   8   1 546.233 19.0513   2
   4   8  -1 562.814 18.6243   3
  -3  -8   1 20.1080 12.3724   1
   3  -8  -1 15.3365 2.05907   2
  -3  -8   1 16.1946 2.20425   2
   3  -8  -1 19.2461 17.8460   1
   3  -8  -1 24.4888 14.9042   1
   3   8  -1 17.7186 23.7950   1
  -3   8   1 18.5277 2.44674   2
   3   8  -1 14.3748 2.15081   2
   2  -8  -1 230.199 33.2014   1
   2  -8  -1 146.949 21.1900   1
   2  -8  -1 151.418 5.78616   2
  -2  -8   1 185.873 23.4571   1
  -2  -8   1 153.184 6.14995   2
  -2   8   1 156.598 5.92462   2
   2   8  -1 133.324 20.2679   1
   2   8  -1 147.311 6.18405   2
   1  -8  -1 771.298 23.2319   2
  -1  -8   1 772.152 23.6693   2
  -1  -8   1 806.951 37.4570   1
   1  -8  -1 790.074 38.2107   1
   1  -8  -1 803.753 23.3637   3
   1   8  -1 755.947 37.3160   1
   1   8  -1 770.787 23.7355   2
  -1   8   1 799.583 37.6612   1
  -1   8   1 798.746 23.2396   2
   0  -8  -1 1065.77 31.3127   3
   0   8   1 1002.28 30.7125   2
   0   8  -1 1094.18 31.1198   3
   0   8   1 1072.63 31.2730   3
   0   8  -1 1044.83 31.3097   2
   1  -8   1 -2.5968 7.07702   1
  -1  -8  -1 4.42490 0.83426   2
  -1  -8  -1 10.5056 6.98192   1
  -1   8  -1 2.54590 13.6810   1
  -1   8  -1 3.12361 0.72323   3
  -1   8  -1 4.13997 1.00520   2
   1   8   1 1.81942 5.92642   1
   1   8   1 3.06253 0.91286   3
  -2  -8  -1 38.6303 10.1734   1
   2  -8   1 72.1958 17.9141   1
  -2  -8  -1 58.8308 3.24205   2
   2  -8   1 65.3305 14.7864   1
   2  -8   1 59.4127 3.37833   2
  -2   8  -1 56.6288 3.49762   2
   2   8   1 55.8382 3.24837   2
   2   8   1 40.1349 10.8738   1
   3  -8   1 691.904 47.6502   1
  -3  -8  -1 517.636 36.2380   1
   3  -8   1 542.531 18.1395   2
  -3  -8  -1 560.336 18.0401   2
   3  -8   1 498.907 38.1835   1
   3   8   1 553.682 18.0244   3
   3   8   1 544.167 18.1486   2
   3   8   1 541.956 38.1304   1
  -3   8  -1 565.785 18.3359   2
  -4  -8  -1 -21.126 16.4441   1
  -4  -8  -1 6.56504 2.85274   2
   4  -8   1 20.1577 37.0447   1
   4  -8   1 10.4441 15.0399   1
   4   8   1 10.2279 18.5755   1
   4   8   1 13.2040 3.17663   3
   4   8   1 11.6798 2.74356   2
  -4   8  -1 15.8587 3.55231   2
   5  -8   1 14.2687 3.43421   2
   5   8   1 20.7851 4.13029   2
   6  -8   1 -0.3224 4.71601   2
   6   8   1 -1.8811 4.80150   2
   6  -9  -1 2.56072 4.74177   2
   6   9  -1 1.20955 4.76697   2
   5  -9  -1 110.717 7.91675   2
   5   9  -1 119.814 8.68738   2
   4  -9  -1 278.369 46.7956   1
  -4  -9   1 276.057 11.6277   2
  -4  -9   1 422.270 63.0304   1
   4  -9  -1 264.957 10.8344   2
   4   9  -1 265.409 44.7880   1
   4   9  -1 260.697 11.3954   2
  -4   9   1 253.689 11.4339   2
   4   9  -1 302.693 11.4246   3
  -3  -9   1 15.3767 12.5233   1
   3  -9  -1 22.2479 13.6598   1
  -3  -9   1 17.8064 2.55440   2
   3  -9  -1 11.7368 1.98477   2
   3   9  -1 14.1389 2.31262   2
   3   9  -1 12.3610 14.8295   1
  -3   9   1 12.5840 2.31760   2
   3   9  -1 15.6962 2.40972   3
   2  -9  -1 129.093 26.7792   1
   2  -9  -1 73.7577 3.11765   3
  -2  -9   1 75.5238 3.97282   2
  -2  -9   1 45.8075 10.3763   1
   2  -9  -1 74.7479 3.60168   2
   2  -9  -1 86.7025 20.2899   1
  -2   9   1 75.7597 3.76473   2
   2   9  -1 122.096 24.4594   1
   2   9  -1 71.8450 3.97932   2
   1  -9  -1 423.706 28.5858   1
  -1  -9   1 428.489 28.2056   1
   1  -9  -1 438.689 13.6394   3
  -1  -9   1 429.676 13.9130   2
   1  -9  -1 431.633 13.4777   2
   1   9  -1 475.865 29.5242   1
   1   9  -1 440.091 14.0185   2
   1   9  -1 448.227 13.9208   3
  -1   9   1 457.557 29.0500   1
  -1   9   1 449.187 13.4697   2
   0  -9  -1 2869.11 100.833   1
   0  -9   1 2800.50 100.360   1
   0  -9  -1 2812.70 81.8553   3
   0   9   1 2794.30 99.1557   1
   0   9   1 2661.93 81.2135   2
   0   9  -1 2970.84 101.516   1
   0   9   1 2898.26 81.8223   3
   0   9  -1 2847.46 81.6407   3
   0   9  -1 2718.84 81.7851   2
  -1  -9  -1 31.7470 10.6453   1
   1  -9   1 50.4386 12.3323   1
  -1  -9  -1 48.0854 2.42859   2
  -1   9  -1 78.4317 17.2468   1
   1   9   1 70.7879 16.1220   1
   1   9   1 50.3613 2.47288   2
  -1   9  -1 51.4534 2.80901   2
   1   9   1 52.8738 2.98996   3
  -1   9  -1 45.5063 2.28826   3
   2  -9   1 1168.02 35.3770   2
   2  -9   1 1118.32 53.9312   1
  -2  -9  -1 1177.49 35.1481   2
  -2  -9  -1 1156.35 51.9110   1
  -2   9  -1 1235.45 35.5167   2
   2   9   1 1198.69 53.6171   1
   2   9   1 1178.96 35.2930   2
  -3  -9  -1 14.5861 2.30523   2
   3  -9   1 0.34930 10.6024   1
   3  -9   1 14.5290 2.43667   2
  -3  -9  -1 12.8217 11.8991   1
   3  -9   1 16.9519 14.7231   1
   3   9   1 10.8543 2.38561   3
   3   9   1 19.5357 2.69490   2
   3   9   1 15.9368 13.9815   1
  -3   9  -1 20.5367 2.89819   2
   4  -9   1 580.369 19.3636   2
   4  -9   1 515.239 48.8795   1
  -4  -9  -1 569.536 19.3463   2
   4  -9   1 454.108 51.2751   1
  -4  -9  -1 546.893 47.3540   1
  -4   9  -1 552.293 19.7021   2
   4   9   1 604.067 19.5991   2
   4   9   1 508.606 52.1908   1
   4   9   1 567.889 19.1429   3
   5  -9   1 20.2008 4.12805   2
   5   9   1 13.9963 3.67137   2
   6  -9   1 92.7903 10.6685   2
   6   9   1 111.890 10.7127   2
   6 -10  -1 23.7107 5.47995   2
   6  10  -1 22.9807 6.20144   2
   5 -10  -1 127.949 8.25676   2
   5  10  -1 115.168 8.85372   2
   4 -10  -1 25.9841 25.4262   1
   4 -10  -1 -20.390 17.3747   1
  -4 -10   1 -2.2380 19.7620   1
  -4 -10   1 -1.0881 2.90353   2
   4 -10  -1 1.16022 1.18805   3
   4 -10  -1 3.28435 2.29826   2
  -4  10   1 -0.4509 2.92656   2
   4  10  -1 2.13573 2.39712   2
   4  10  -1 4.39451 21.6971   1
   4  10  -1 0.15318 3.10687   3
   3 -10  -1 32.2353 2.17911   3
   3 -10  -1 19.2709 15.8259   1
  -3 -10   1 7.26746 13.3705   1
   3 -10  -1 33.0526 3.20377   2
   3 -10  -1 26.8734 16.0253   1
  -3 -10   1 31.7575 3.96815   2
   3  10  -1 28.0245 3.87669   3
   3  10  -1 22.6116 15.0477   1
   3  10  -1 28.9495 3.60683   2
  -3  10   1 36.0540 3.74913   2
   2 -10  -1 293.116 29.7074   1
   2 -10  -1 270.206 9.17674   2
   2 -10  -1 256.234 27.2022   1
   2 -10  -1 268.488 8.74692   3
  -2 -10   1 276.269 9.60983   2
   2  10  -1 283.416 27.7825   1
  -2  10   1 271.023 9.24228   2
   2  10  -1 257.646 9.61647   2
   1 -10  -1 2694.28 78.2607   3
  -1 -10   1 2747.51 98.0916   1
  -1 -10   1 2684.29 78.5066   2
  -1  10   1 2626.34 97.6014   1
  -1  10   1 2740.14 78.0027   2
   1  10  -1 2576.08 78.5169   2
   1  10  -1 2783.96 78.5451   3
   1  10  -1 2706.86 98.1257   1
   0 -10  -1 53.3335 12.8743   1
   0 -10   1 126.325 26.2396   1
   0 -10  -1 77.5633 3.78643   3
   0  10  -1 82.5322 3.62386   3
   0  10  -1 83.5023 21.1915   1
   0  10  -1 77.4344 3.65953   2
   0  10   1 85.2208 3.81427   3
   0  10   1 95.8094 22.6606   1
   0  10   1 80.9196 3.13036   2
  -1 -10  -1 4.90744 0.95682   2
  -1 -10  -1 7.08280 8.35535   1
   1 -10   1 -4.3363 11.7205   1
   1  10   1 3.15565 1.15423   3
   1  10   1 13.0274 11.1815   1
  -1  10  -1 4.34539 0.91788   3
   1  10   1 4.23166 0.94923   2
  -1  10  -1 12.2114 9.14351   1
  -1  10  -1 5.50219 1.14665   2
  -2 -10  -1 191.461 6.83019   2
   2 -10   1 177.850 7.01041   2
   2 -10   1 158.150 25.6983   1
  -2 -10  -1 175.141 21.4157   1
   2  10   1 179.306 6.84912   2
   2  10   1 182.743 23.8900   1
   2  10   1 181.393 7.26066   3
   3 -10   1 2063.31 61.5561   2
  -3 -10  -1 2041.11 84.8161   1
   3 -10   1 2001.83 87.5942   1
  -3 -10  -1 2113.05 61.3693   2
   3 -10   1 1984.33 87.0477   1
   3  10   1 2044.97 61.5259   2
   3  10   1 2106.89 61.5678   3
   3  10   1 2123.80 87.2602   1
  -3  10  -1 2102.46 61.6546   2
   4 -10   1 11.9682 2.94856   2
  -4 -10  -1 9.53763 3.33037   2
  -4 -10  -1 17.3436 19.5666   1
   4 -10   1 27.3322 19.7185   1
   4  10   1 10.6647 2.79489   2
  -4  10  -1 3.02782 3.84115   2
   5 -10   1 7.88624 3.39289   2
   5  10   1 10.2449 3.74229   2
   6 -10   1 16.4261 6.05125   2
   6  10   1 4.29201 5.37459   2
   6 -11  -1 18.9491 5.80381   2
   6  11  -1 10.4979 5.56035   2
   5 -11  -1 291.145 12.9600   2
   5  11  -1 307.952 13.8676   2
   4 -11  -1 28.5724 2.62517   3
   4 -11  -1 38.7955 4.58941   2
  -4 -11   1 30.0501 4.29559   2
   4 -11  -1 40.4815 27.5988   1
   4 -11  -1 4.87238 21.9466   1
  -4 -11   1 19.9790 21.5491   1
  -4  11   1 43.0373 6.26901   2
   4  11  -1 32.6283 4.71350   3
   4  11  -1 -12.818 33.6451   1
   4  11  -1 38.1746 4.31245   2
   3 -11  -1 3.09902 1.12298   3
   3 -11  -1 3.25679 1.57776   2
  -3 -11   1 3.18794 1.86669   2
   3 -11  -1 -2.7270 16.8299   1
  -3 -11   1 1.01860 14.1107   1
   3 -11  -1 7.62436 14.1150   1
  -3  11   1 3.65989 2.00593   2
   3  11  -1 -3.1443 16.2261   1
   3  11  -1 3.47877 1.87299   2
   3  11  -1 5.80228 2.23018   3
   2 -11  -1 428.941 36.4030   1
   2 -11  -1 558.640 47.5498   1
   2 -11  -1 455.426 14.3023   3
  -2 -11   1 457.457 33.5871   1
   2 -11  -1 442.740 14.6490   2
   2  11  -1 474.585 15.1934   3
  -2  11   1 468.451 14.7506   2
   2  11  -1 454.724 15.2218   2
  -1 -11   1 815.983 24.8215   2
   1 -11  -1 814.873 24.6012   3
  -1 -11   1 796.014 43.2547   1
   1  11  -1 808.145 24.8609   2
  -1  11   1 807.866 44.6630   1
  -1  11   1 853.729 24.3002   2
   1  11  -1 798.328 44.2635   1
   0 -11  -1 1068.19 52.1144   1
   0 -11   1 1065.90 52.1565   1
   0 -11  -1 1039.22 31.8988   3
   0  11   1 1060.58 51.4632   1
   0  11   1 1111.18 31.9430   3
   0  11  -1 1102.73 31.7712   3
   0  11  -1 1052.72 31.8173   2
   0  11  -1 1074.74 52.8248   1
   0  11   1 1015.66 31.2668   2
   1 -11   1 49.4212 21.5464   1
  -1 -11  -1 31.5303 2.13955   2
  -1 -11  -1 24.2297 10.7445   1
   1  11   1 32.0415 2.92879   3
  -1  11  -1 30.0086 2.45661   2
  -1  11  -1 30.8330 2.12756   3
   1  11   1 30.1736 2.13135   2
   1  11   1 34.6340 11.9525   1
  -1  11  -1 47.9905 14.9624   1
  -2 -11  -1 656.765 19.9290   2
   2 -11   1 604.623 45.7260   1
   2 -11   1 642.419 20.1791   2
   2  11   1 646.822 20.0121   2
   2  11   1 665.612 20.4311   3
  -2  11  -1 602.958 20.8802   2
   2  11   1 647.628 40.6230   1
   3 -11   1 27.8364 3.87676   2
  -3 -11  -1 23.7630 15.8731   1
   3 -11   1 15.6016 17.5541   1
   3 -11   1 72.3211 21.8216   1
  -3 -11  -1 33.2763 4.00937   2
   3  11   1 23.0201 3.05794   3
  -3  11  -1 25.8640 3.21890   2
   3  11   1 32.4098 17.3363   1
   4 -11   1 213.636 9.66560   2
  -4 -11  -1 220.739 10.1345   2
   4 -11   1 242.426 58.1294   1
   4  11   1 214.325 9.75391   2
   4  11   1 208.148 10.2432   3
   5 -11   1 34.7305 4.78623   2
   5  11   1 29.0998 4.53211   2
   6 -11   1 43.8655 7.17871   2
   6  11   1 50.8216 7.23123   2
   6 -12  -1 76.1093 10.2586   2
   6  12  -1 89.0511 11.2418   2
   5 -12  -1 2.99194 3.42759   2
   5  12  -1 -0.4198 3.71467   2
   4 -12  -1 415.206 12.8407   3
   4 -12  -1 375.381 52.2289   1
   4 -12  -1 434.868 15.1315   2
  -4 -12   1 436.857 51.1884   1
   4 -12  -1 343.493 58.4383   1
  -4  12   1 398.816 15.6047   2
   4  12  -1 425.156 15.7399   2
   3 -12  -1 50.0585 33.8627   1
   3 -12  -1 34.2373 18.4948   1
   3 -12  -1 15.6650 2.35373   2
   3 -12  -1 20.3542 2.20088   3
  -3 -12   1 13.0509 2.46612   2
  -3 -12   1 -1.2701 28.0596   1
   3  12  -1 15.8113 2.61084   2
   3  12  -1 15.3489 18.7207   1
   3  12  -1 16.8745 2.97867   3
  -3  12   1 17.0493 2.68051   2
   2 -12  -1 773.568 23.0051   3
   2 -12  -1 761.681 23.3238   2
  -2 -12   1 761.914 23.8470   2
   2 -12  -1 708.181 48.8311   1
  -2  12   1 784.937 23.3453   2
   2  12  -1 786.009 23.8898   3
   2  12  -1 747.053 23.8298   2
   2  12  -1 727.841 46.6819   1
   1 -12  -1 26.1577 12.8534   1
   1 -12  -1 18.6637 2.27596   3
  -1 -12   1 23.8025 10.7269   1
  -1 -12   1 21.4167 2.56670   2
  -1  12   1 19.7901 12.7849   1
  -1  12   1 22.6307 2.03005   2
   1  12  -1 18.4851 2.50014   2
   1  12  -1 20.3899 2.18483   3
   1  12  -1 1.35052 11.0681   1
   0 -12  -1 694.036 42.5318   1
   0 -12   1 695.045 42.6595   1
   0 -12  -1 674.110 21.6079   3
   0  12   1 692.372 42.2712   1
   0  12   1 723.141 21.6835   3
   0  12  -1 725.383 21.5138   3
   0  12  -1 696.830 21.5125   2
  -1 -12  -1 26.1254 12.4718   1
   1 -12   1 25.4120 16.8830   1
  -1 -12  -1 28.5075 2.18511   2
  -1  12  -1 31.8235 2.59611   2
   1  12   1 26.9967 2.12703   2
   1  12   1 14.5082 12.4173   1
   1  12   1 31.1474 2.97148   3
  -1  12  -1 37.2192 24.9503   1
  -1  12  -1 28.3133 2.24005   3
   2 -12   1 205.149 31.7553   1
   2 -12   1 210.916 8.18070   2
  -2 -12  -1 217.509 7.89316   2
  -2 -12  -1 193.428 26.4607   1
   2  12   1 221.652 8.03063   2
   2  12   1 206.667 29.3600   1
  -2  12  -1 223.824 8.27651   2
   3 -12   1 14.3371 20.2300   1
  -3 -12  -1 -13.566 14.9998   1
   3 -12   1 32.6595 20.3714   1
  -3 -12  -1 4.46736 2.10582   2
   3 -12   1 3.62018 1.93378   2
   3  12   1 3.34533 1.98132   2
   3  12   1 6.43663 2.52551   3
   3  12   1 2.49981 18.7394   1
  -3  12  -1 6.05921 2.46891   2
   4 -12   1 1.36480 2.46706   2
  -4 -12  -1 -4.5402 3.14380   2
   4 -12   1 -30.539 27.1091   1
   4  12   1 0.35439 2.55880   2
   5 -12   1 -0.4592 3.33940   2
   5  12   1 -0.9582 3.66716   2
   6 -12   1 -2.1677 5.56505   2
   6  12   1 7.31850 6.10966   2
   6 -13  -1 14.6220 5.91594   2
   6  13  -1 3.62972 6.12827   2
   5 -13  -1 296.407 13.3862   2
   5  13  -1 321.596 14.3808   2
   4 -13  -1 153.911 7.91316   2
   4 -13  -1 145.530 34.8815   1
   4 -13  -1 148.176 5.55788   3
   4  13  -1 164.835 8.64954   2
  -4  13   1 131.449 8.92725   2
  -3 -13   1 5.00775 2.41622   2
   3 -13  -1 2.26688 37.0849   1
   3 -13  -1 4.81464 1.33505   3
  -3 -13   1 -1.2555 17.3596   1
   3 -13  -1 3.58459 1.76872   2
   3 -13  -1 0.75574 30.0337   1
   3  13  -1 2.98172 2.56974   3
   3  13  -1 1.96022 1.93152   2
  -3  13   1 3.51132 2.15690   2
   3  13  -1 -6.7528 20.9700   1
   2 -13  -1 29.5039 2.60397   3
   2 -13  -1 45.6092 22.8195   1
   2 -13  -1 27.2670 2.88722   2
  -2 -13   1 22.7370 14.2192   1
  -2 -13   1 29.8089 3.42362   2
   2  13  -1 28.6490 16.6936   1
   2  13  -1 32.2075 3.37728   2
   2  13  -1 30.4993 3.85337   3
  -2  13   1 25.5875 2.93450   2
  -1 -13   1 749.606 22.7345   2
  -1 -13   1 757.982 45.2071   1
   1 -13  -1 703.700 46.3633   1
   1 -13  -1 720.518 22.5177   3
   1  13  -1 729.511 22.6911   2
   1  13  -1 746.790 22.8641   3
  -1  13   1 727.368 22.0208   2
   0 -13  -1 1047.10 31.7810   3
   0 -13  -1 1003.62 54.6733   1
   0  13  -1 1064.22 56.0986   1
   0  13   1 1037.80 30.9986   2
   0  13   1 1007.50 32.4084   3
   0  13   1 1054.90 30.9230   2
   0  13  -1 1069.27 31.6214   2
   0  13  -1 1114.99 31.6931   3
   1 -13   1 115.939 27.2934   1
  -1 -13  -1 95.1227 4.04279   2
  -1 -13  -1 93.1103 18.7352   1
   1  13   1 95.5846 3.99760   2
  -1  13  -1 98.8195 4.17005   3
  -1  13  -1 86.2768 19.6996   1
   1  13   1 61.3867 15.4796   1
  -1  13  -1 97.7882 4.44667   2
   1  13   1 98.3791 4.85622   3
   2 -13   1 117.864 21.8312   1
  -2 -13  -1 139.163 5.66876   2
  -2  13  -1 133.750 6.00840   2
   2  13   1 131.298 6.36053   3
   2  13   1 127.645 5.63725   2
   2  13   1 104.549 20.3211   1
   3 -13   1 85.6209 27.4926   1
  -3 -13  -1 110.697 6.00648   2
   3 -13   1 77.6467 24.2188   1
   3 -13   1 109.003 6.04574   2
  -3 -13  -1 113.107 23.3406   1
  -3  13  -1 103.857 6.50843   2
   3  13   1 116.545 6.01803   2
   3  13   1 96.0485 25.8112   1
   3  13   1 96.7006 6.63947   3
   4 -13   1 192.096 9.11669   2
  -4 -13  -1 164.880 10.8655   2
   4 -13   1 153.298 48.5320   1
   4  13   1 189.170 9.19771   2
   5 -13   1 7.65247 3.84333   2
   5  13   1 3.04638 3.75195   2
   6 -13   1 25.7519 7.04927   2
   6  13   1 24.9554 6.99089   2
   6 -14  -1 1.37927 5.81828   2
   6  14  -1 9.73996 6.78943   2
   5 -14  -1 46.1043 5.66327   2
   5  14  -1 68.9468 8.28320   2
   4 -14  -1 134.554 37.9182   1
   4 -14  -1 201.975 9.05751   2
  -4  14   1 180.715 10.9730   2
   4  14  -1 189.166 9.66097   2
   3 -14  -1 7.87582 1.55360   3
   3 -14  -1 1.33058 21.1631   1
   3 -14  -1 2.44210 24.8888   1
  -3 -14   1 10.9338 2.69681   2
  -3 -14   1 12.8089 35.2863   1
   3 -14  -1 4.22786 1.92108   2
   3  14  -1 -1.3494 21.0921   1
   3  14  -1 8.08900 2.38036   2
  -3  14   1 5.45112 2.44441   2
   3  14  -1 12.5731 3.01416   3
  -2 -14   1 -4.8090 14.8376   1
   2 -14  -1 29.6736 17.7765   1
  -2 -14   1 2.84936 1.71737   2
   2 -14  -1 2.20186 1.33595   3
   2  14  -1 -11.084 16.2121   1
   2  14  -1 -0.1281 1.80777   3
  -2  14   1 3.96318 1.57850   2
   2  14  -1 2.00648 1.62467   2
  -1 -14   1 1218.15 62.7410   1
   1 -14  -1 1258.79 65.7621   1
   1 -14  -1 1233.28 37.0605   3
  -1  14   1 1163.78 63.1398   1
   1  14  -1 1268.59 37.4202   3
   1  14  -1 1243.07 37.1906   2
   1  14  -1 1257.20 65.0270   1
  -1  14   1 1247.03 36.5034   2
   0 -14  -1 406.214 36.1683   1
   0 -14  -1 407.794 13.9015   3
   0 -14   1 510.467 48.4068   1
   0  14   1 435.411 13.9643   3
   0  14   1 409.095 12.9726   2
   0  14  -1 413.556 13.8683   3
   0  14   1 412.994 13.0649   2
   0  14  -1 411.640 13.6509   2
   0  14  -1 427.970 38.7965   1
   0  14   1 510.134 48.9131   1
  -1 -14  -1 52.2207 15.2242   1
  -1 -14  -1 62.3629 3.32267   2
   1 -14   1 54.2081 18.7426   1
  -1  14  -1 68.1798 3.76639   2
   1  14   1 63.7478 3.20519   2
  -1  14  -1 65.8898 3.54302   3
  -1  14  -1 87.1865 25.5195   1
   1  14   1 47.7423 18.0531   1
   1  14   1 57.2046 4.15422   3
  -2 -14  -1 38.8202 3.30171   2
  -2 -14  -1 35.2889 14.7544   1
   2 -14   1 14.4261 17.4234   1
   2  14   1 32.9598 4.27263   3
  -2  14  -1 38.2694 3.71707   2
   2  14   1 36.1903 18.9727   1
   2  14   1 37.6786 3.26535   2
   3 -14   1 1414.94 42.5599   2
  -3 -14  -1 1404.37 42.2498   2
  -3 -14  -1 1394.98 73.3788   1
   3 -14   1 1415.09 79.9528   1
   3 -14   1 1325.53 78.8982   1
  -3  14  -1 1409.23 42.5872   2
   3  14   1 1325.25 76.7069   1
   3  14   1 1393.82 42.8322   3
   3  14   1 1398.28 42.3933   2
   4 -14   1 35.3648 4.23779   2
   4  14   1 39.8689 4.58556   2
   5 -14   1 4.04364 3.89414   2
   5  14   1 2.06332 3.85368   2
   5 -15  -1 57.3313 7.39773   2
   5  15  -1 52.1853 6.21515   2
   4 -15  -1 140.241 40.6117   1
   4 -15  -1 185.837 8.84049   2
   4  15  -1 176.126 9.48514   2
  -3 -15   1 33.5080 19.7010   1
   3 -15  -1 40.7832 3.15840   3
  -3 -15   1 39.6788 5.07133   2
   3 -15  -1 57.1729 25.2309   1
   3 -15  -1 44.6438 4.16558   2
   3 -15  -1 17.2211 28.9484   1
  -3  15   1 37.6698 4.75472   2
   3  15  -1 41.0729 4.55118   2
   3  15  -1 53.6495 27.7404   1
  -2 -15   1 296.408 10.6886   2
   2 -15  -1 283.011 9.96510   3
  -2 -15   1 301.591 37.8452   1
   2 -15  -1 349.477 42.6184   1
   2  15  -1 292.061 11.1315   3
   2  15  -1 269.194 41.1709   1
  -2  15   1 295.519 10.1997   2
   2  15  -1 283.032 10.6647   2
  -1 -15   1 245.635 33.1685   1
   1 -15  -1 233.516 8.71519   3
   1 -15  -1 216.938 35.2377   1
  -1  15   1 244.696 8.14462   2
   1  15  -1 242.164 9.17494   3
  -1  15   1 257.707 46.4837   1
   1  15  -1 250.871 36.6762   1
   1  15  -1 241.126 8.81122   2
   0 -15   1 1363.28 73.5994   1
   0 -15  -1 1107.66 61.8243   1
   0  15   1 1096.78 61.9434   1
   0  15  -1 1108.79 34.1286   2
   0  15   1 1092.09 33.4160   2
   0  15  -1 1141.81 34.2729   3
   0  15   1 1157.66 34.4663   3
   0  15   1 1101.11 33.5009   2
   1 -15   1 278.165 37.4162   1
  -1 -15  -1 212.672 33.0873   1
   1  15   1 228.413 34.9760   1
   1  15   1 242.623 9.13537   3
  -1  15  -1 226.366 37.6948   1
  -1  15  -1 239.149 8.42027   3
   1  15   1 232.725 8.07076   2
  -1  15  -1 232.150 8.51933   2
   2 -15   1 643.332 52.5007   1
   2  15   1 594.388 19.9249   3
  -2  15  -1 608.546 19.4246   2
   2  15   1 600.471 50.1341   1
   2  15   1 588.115 19.0754   2
   3 -15   1 -28.930 24.0395   1
   3 -15   1 0.79239 2.26905   2
  -3 -15  -1 3.80470 2.49073   2
   3 -15   1 21.5464 24.4082   1
  -3 -15  -1 -7.0244 14.3459   1
  -3  15  -1 -2.0976 2.66943   2
   3  15   1 -16.072 23.1860   1
   3  15   1 4.24379 2.28910   2
   4 -15   1 361.301 16.4246   2
   4  15   1 379.071 14.5301   2
   5 -15   1 32.7282 5.24734   2
   5  15   1 29.9385 5.06372   2
   5 -16  -1 12.2371 4.41329   2
   5  16  -1 12.3683 4.87188   2
   4 -16  -1 145.656 8.00401   2
   4  16  -1 142.223 13.3991   2
   3 -16  -1 38.6772 4.33499   2
  -3 -16   1 -0.3343 21.2968   1
   3 -16  -1 -14.543 29.8663   1
   3 -16  -1 35.3649 27.4310   1
   3 -16  -1 31.9959 3.09928   3
  -3 -16   1 49.4950 5.41648   2
   3  16  -1 32.2701 4.56581   2
  -3  16   1 38.8881 4.95414   2
   3  16  -1 40.7656 28.1675   1
   2 -16  -1 447.002 14.4999   3
   2 -16  -1 485.087 74.9603   1
  -2 -16   1 422.033 44.9531   1
  -2 -16   1 448.374 15.1591   2
   2  16  -1 454.855 15.6759   3
   2  16  -1 400.401 49.4099   1
   2  16  -1 452.006 15.1957   2
   1 -16  -1 285.555 40.5655   1
  -1 -16   1 309.282 38.2760   1
   1 -16  -1 327.147 11.1003   3
  -1  16   1 341.422 53.6011   1
   1  16  -1 316.941 11.0524   2
  -1  16   1 311.087 10.3465   2
   1  16  -1 320.691 11.5230   3
   0 -16  -1 63.3234 19.1908   1
   0 -16   1 111.745 30.0228   1
   0  16   1 105.186 5.40472   3
   0  16   1 70.9942 22.3447   1
   0  16   1 94.7413 4.07506   2
   0  16  -1 59.0971 19.7209   1
   0  16   1 100.483 4.08203   2
   0  16  -1 107.252 4.79023   2
   0  16  -1 100.729 5.15589   3
   1 -16   1 30.9103 30.7522   1
  -1 -16  -1 27.6256 16.7439   1
   1  16   1 31.8430 4.08038   3
   1  16   1 31.9293 2.63135   2
  -1  16  -1 20.7408 20.7679   1
   1  16   1 59.1929 20.3252   1
  -1  16  -1 25.2487 4.19517   3
  -1  16  -1 35.5912 3.28619   2
   2 -16   1 236.718 44.9505   1
  -2 -16  -1 296.225 41.3044   1
  -2 -16  -1 240.275 10.2165   2
  -2  16  -1 260.408 9.90963   2
   2  16   1 252.186 44.0279   1
   2  16   1 265.680 9.51189   2
  -2  16  -1 384.003 66.1525   1
   2  16   1 267.655 10.6922   3
  -3 -16  -1 343.014 46.8770   1
   3 -16   1 389.762 69.0501   1
   3 -16   1 409.364 56.5112   1
  -3 -16  -1 352.954 12.9791   2
   3  16   1 348.284 12.8892   2
  -3  16  -1 349.337 13.4878   2
   4 -16   1 0.87851 4.22059   2
   4  16   1 1.67175 3.22422   2
   5 -16   1 4.27364 4.32335   2
   5  16   1 2.49041 4.21854   2
   5 -17  -1 255.944 13.0247   2
   5  17  -1 263.075 13.7336   2
   4 -17  -1 57.9254 55.9496   1
   4 -17  -1 38.4005 4.46216   2
   4  17  -1 32.3903 5.35792   2
  -3 -17   1 20.4071 19.0939   1
  -3 -17   1 0.02214 2.84316   2
   3 -17  -1 9.36108 30.1077   1
   3 -17  -1 5.28794 1.76262   3
   3  17  -1 3.21925 2.33708   2
  -3  17   1 5.61665 2.78172   2
  -2 -17   1 44.9655 31.7948   1
   2 -17  -1 4.89052 23.6887   1
   2 -17  -1 52.4162 3.84646   3
  -2 -17   1 58.4364 4.80718   2
   2  17  -1 69.8826 28.0593   1
  -2  17   1 44.7356 4.80990   2
   2  17  -1 55.6012 5.51860   3
   2  17  -1 48.4262 4.29624   2
   1 -17  -1 669.081 56.3842   1
   1 -17  -1 718.365 22.3661   3
  -1 -17   1 701.128 53.9132   1
  -1  17   1 662.902 56.3154   1
  -1  17   1 725.212 21.5790   2
   1  17  -1 650.644 56.8164   1
   1  17  -1 722.407 22.8443   3
  -1  17   1 720.111 21.6899   2
   1  17  -1 729.692 22.3031   2
   0 -17   1 48.3822 25.8770   1
   0 -17  -1 80.7894 41.1992   1
   0  17   1 12.9841 19.0943   1
   0  17  -1 30.1432 3.23156   2
   0  17  -1 46.6343 22.3878   1
   0  17  -1 27.7904 3.00575   2
   0  17   1 29.3569 2.42473   2
   0  17   1 30.4894 2.46855   2
   0  17   1 30.4981 3.96571   3
   0  17  -1 27.3817 2.84429   3
  -1 -17  -1 13.3711 20.9863   1
   1 -17   1 7.60752 19.8472   1
  -1  17  -1 5.66014 1.88729   3
   1  17   1 -2.4580 34.6069   1
   1  17   1 8.50888 2.44796   3
  -1  17  -1 -5.4096 20.2069   1
  -1  17  -1 7.97369 1.75757   2
   1  17   1 5.55704 1.42949   2
  -2 -17  -1 31.7304 21.3520   1
  -2 -17  -1 13.9005 2.35889   2
   2 -17   1 4.25598 23.3427   1
  -2  17  -1 7.89037 22.6855   1
   2  17   1 3.31171 23.1007   1
  -2  17  -1 19.2584 2.76818   2
   2  17   1 12.1944 3.01951   3
   2  17   1 11.4988 2.10349   2
   3 -17   1 -0.8552 32.0653   1
  -3 -17  -1 55.9700 5.51131   2
  -3  17  -1 40.2029 4.49780   2
   3  17   1 53.0509 4.92245   2
   4  17   1 12.5998 3.61409   2
   5 -17   1 0.88284 4.65238   2
   5  17   1 2.83474 4.63397   2
   5 -18  -1 4.19156 4.56235   2
   5  18  -1 0.84129 4.95030   2
   4 -18  -1 222.570 10.4997   2
   4  18  -1 222.418 11.0150   2
  -3 -18   1 96.8780 7.08859   2
   3 -18  -1 61.0452 35.4978   1
   3  18  -1 89.8828 6.13967   2
  -3  18   1 82.1823 6.45840   2
   2 -18  -1 81.8856 4.70321   3
  -2 -18   1 82.8370 28.2877   1
   2 -18  -1 130.896 32.3079   1
  -2 -18   1 86.9240 5.73522   2
  -2  18   1 80.3487 4.91100   2
   2  18  -1 100.601 32.3115   1
   2  18  -1 81.8324 5.23863   2
  -1 -18   1 239.957 35.9883   1
   1 -18  -1 237.629 44.2024   1
   1  18  -1 242.027 9.91464   3
  -1  18   1 231.946 8.23938   2
   1  18  -1 226.756 37.7792   1
  -1  18   1 261.662 48.3420   1
   1  18  -1 235.043 8.90207   2
  -1  18   1 235.706 8.21737   2
   0 -18  -1 291.466 43.7929   1
   0  18   1 301.070 9.72252   2
   0  18  -1 282.071 10.9002   3
   0  18   1 266.001 45.0348   1
   0  18   1 296.861 11.1303   3
   0  18  -1 301.286 10.4321   2
   0  18   1 289.302 9.64303   2
   0  18  -1 386.417 62.6954   1
   0  18  -1 301.900 10.4507   2
  -1 -18  -1 45.4985 23.9458   1
   1 -18   1 37.7779 20.8826   1
  -1  18  -1 72.7130 4.72543   3
   1  18   1 70.1017 25.9684   1
  -1  18  -1 80.2784 4.72703   2
   1  18   1 73.5390 5.67020   3
  -1  18  -1 78.4032 4.42456   2
   1  18   1 78.4785 3.91985   2
  -1  18  -1 68.6116 46.3105   1
  -2 -18  -1 4.16404 2.08812   2
   2 -18   1 -81.635 49.9044   1
  -2 -18  -1 7.28029 30.0794   1
   2  18   1 38.2978 31.7587   1
  -2  18  -1 27.0328 26.8802   1
  -2  18  -1 5.80015 2.44886   2
   2  18   1 7.94452 2.06485   2
  -3 -18  -1 294.280 11.7597   2
   3 -18   1 405.284 76.0459   1
  -3  18  -1 285.687 12.3631   2
   3  18   1 309.100 11.6013   2
   4  18   1 13.0521 4.99205   2
   5  18   1 -1.2915 4.80543   2
   5  19  -1 0.53255 5.39826   2
   4  19  -1 105.321 8.19212   2
  -3 -19   1 65.6346 7.15968   2
   3 -19  -1 77.4383 40.9524   1
   3  19  -1 74.4747 5.94356   2
  -3  19   1 80.4065 6.58341   2
  -2 -19   1 205.173 60.1646   1
   2 -19  -1 151.282 37.2470   1
  -2 -19   1 160.629 7.84654   2
   2  19  -1 98.5816 35.6697   1
   2  19  -1 155.779 7.28909   2
  -2  19   1 158.881 6.93423   2
  -1 -19   1 42.0547 27.1091   1
   1 -19  -1 68.3957 49.8238   1
   1  19  -1 49.1110 35.3928   1
  -1  19   1 16.2415 24.5087   1
   0 -19  -1 771.729 60.7129   1
   0 -19   1 814.930 73.5277   1
   0  19   1 701.234 62.3163   1
   0  19  -1 717.389 23.4551   3
   0  19  -1 729.748 22.9797   2
   0  19   1 721.154 23.6604   3
   0  19  -1 928.279 78.8651   1
   0  19   1 707.657 22.2345   2
   0  19   1 725.314 22.2006   2
   1 -19   1 240.852 46.5428   1
  -1 -19  -1 139.807 29.3241   1
   1  19   1 172.324 6.48805   2
  -1  19  -1 169.613 34.3444   1
   1  19   1 170.463 8.32172   3
  -1  19  -1 162.805 7.03664   2
   1  19   1 242.253 51.8220   1
  -1  19  -1 169.350 7.24687   2
  -2 -19  -1 209.155 8.64705   2
  -2 -19  -1 214.608 37.2234   1
  -2  19  -1 174.438 38.6665   1
  -2  19  -1 219.077 9.16142   2
   2  19   1 224.936 8.47967   2
  -3 -19  -1 2.42351 3.38971   2
   3 -19   1 -10.919 40.9029   1
  -3  19  -1 -2.0149 3.57837   2
   3  19   1 -1.6234 2.51951   2
   4  19   1 263.180 17.2523   2
   5  19   1 14.5307 5.56094   2
   5  20  -1 17.2048 6.10765   2
   4  20  -1 2.71859 3.78441   2
   3 -20  -1 -3.7809 47.8189   1
  -3 -20   1 5.27278 3.99389   2
   3  20  -1 4.68948 2.75863   2
  -3  20   1 3.25032 3.41554   2
   2 -20  -1 147.241 46.4112   1
  -2 -20   1 114.492 49.1919   1
  -2  20   1 143.621 6.72844   2
   2  20  -1 137.603 6.94890   2
  -1 -20   1 508.267 59.3502   1
   1 -20  -1 525.255 62.3532   1
   1  20  -1 498.798 18.1926   3
   1  20  -1 526.494 17.1311   2
  -1  20   1 524.800 16.4425   2
   1  20  -1 541.620 66.4739   1
  -1  20   1 523.397 64.3223   1
  -1  20   1 536.366 16.3890   2
   0 -20  -1 15.4818 33.2192   1
   0 -20   1 -16.275 26.5096   1
   0  20  -1 5.29589 2.71744   3
   0  20  -1 4.79117 1.84389   2
   0  20   1 6.59092 1.50044   2
   0  20   1 6.88954 1.60177   2
   0  20   1 21.9417 26.7003   1
   0  20   1 8.14724 2.92033   3
   0  20  -1 1.32838 1.98946   2
  -1 -20  -1 -38.130 25.1828   1
   1 -20   1 40.5068 27.4738   1
  -1  20  -1 1.18391 2.11673   2
  -1  20  -1 -33.142 40.8982   1
  -1  20  -1 2.40639 1.77513   2
   1  20   1 -11.481 24.7994   1
   1  20   1 1.38072 1.49437   2
   2 -20   1 78.4815 33.1472   1
  -2  20  -1 156.680 41.6601   1
  -2  20  -1 156.163 7.79307   2
   2  20   1 160.459 6.88060   2
  -3 -20  -1 469.740 16.8815   2
   3  20   1 502.608 16.6163   2
  -3  20  -1 446.310 17.4350   2
   4  20   1 51.3358 7.13854   2
   5  20   1 -13.440 5.26390   2
   4  21  -1 2.73440 3.86514   2
  -3 -21   1 7.81935 5.11093   2
   2 -21  -1 140.504 47.6461   1
  -2  21   1 117.865 6.31345   2
   2  21  -1 112.342 6.44952   2
  -1 -21   1 438.108 79.3298   1
  -1  21   1 383.440 12.3476   2
   1  21  -1 381.982 13.0891   2
   1  21  -1 287.858 50.9785   1
  -1  21   1 367.951 12.2567   2
  -1  21   1 437.405 67.4179   1
   0 -21  -1 45.3355 30.4154   1
   0 -21   1 39.8737 42.8448   1
   0  21  -1 40.7088 4.27811   2
   0  21   1 43.8688 3.29942   2
   0  21   1 39.9275 47.2361   1
   0  21  -1 35.6801 3.98081   3
   0  21  -1 -13.347 27.3471   1
   0  21   1 44.7708 3.12835   2
   0  21   1 37.6228 4.19190   3
   0  21  -1 41.0326 3.86896   2
  -1 -21  -1 36.1056 29.0795   1
   1 -21   1 27.4157 30.7371   1
  -1  21  -1 55.6669 4.83098   2
  -1  21  -1 50.2897 4.22983   2
   1  21   1 50.8576 3.63033   2
  -1  21  -1 62.8658 57.4902   1
   2 -21   1 108.365 79.0740   1
   2  21   1 121.508 6.04887   2
  -2  21  -1 91.4156 42.6753   1
  -2  21  -1 122.679 7.28394   2
  -3 -21  -1 22.9569 6.71045   2
   3  21   1 21.3402 3.53871   2
   4  21   1 67.6584 7.84118   2
   4  22  -1 108.272 8.94856   2
   3  22  -1 61.5284 6.34573   2
  -2  22   1 113.147 5.95845   2
  -2  22   1 106.610 6.42712   2
   2  22  -1 116.113 6.63149   2
  -1 -22   1 50.9089 36.3712   1
   1 -22  -1 -3.6870 28.6331   1
  -1  22   1 12.0431 2.00255   2
  -1  22   1 13.6269 2.20381   2
   1  22  -1 14.1331 2.56227   2
   0 -22   1 38.1958 44.6747   1
   0  22   1 80.8829 4.21194   2
   0  22  -1 71.4444 7.10854   3
   0  22  -1 77.2204 4.92892   2
   0  22   1 81.9764 4.11477   2
   0  22  -1 43.9043 35.1054   1
   0  22  -1 88.3632 5.50100   2
   1 -22   1 15.9622 34.2264   1
  -1  22  -1 50.9510 5.11637   2
  -1  22  -1 43.5121 46.2355   1
  -1  22  -1 53.8265 4.49718   2
   1  22   1 50.9380 3.71634   2
   2 -22   1 10.1996 36.3497   1
  -2  22  -1 41.9383 6.13906   2
   2  22   1 32.4502 4.15872   2
  -2  22  -1 45.5633 58.6646   1
   3  22   1 10.7471 3.29895   2
   4  22   1 0.80287 4.27224   2
   4  23  -1 48.8650 5.92112   2
   3  23  -1 46.1474 6.32461   2
   2  23  -1 3.61613 2.68860   2
  -2  23   1 4.09706 2.29859   2
  -1  23   1 104.532 5.41434   2
  -1  23   1 122.294 5.29782   2
   1  23  -1 111.350 6.09698   2
   0 -23   1 259.319 47.0710   1
   0  23  -1 309.633 11.1026   2
   0  23   1 308.785 10.1311   2
   0  23  -1 305.444 11.3591   2
   1 -23   1 32.6198 34.8636   1
   1  23   1 65.3124 4.54929   2
  -1  23  -1 68.6996 5.80630   2
  -1  23  -1 71.6311 5.09255   2
   1  23   1 68.4232 4.14172   2
  -1  23  -1 16.5451 50.3632   1
   2 -23   1 51.8057 68.0241   1
   2  23   1 45.2220 4.51292   2
  -2  23  -1 43.1465 5.30609   2
   3  23   1 -0.5187 3.16238   2
   4  24  -1 7.20327 5.25540   2
   3  24  -1 23.3176 4.33401   2
   2  24  -1 17.7941 3.33672   2
  -2  24   1 20.5281 2.92534   2
  -1  24   1 283.505 9.75526   2
   1  24  -1 280.455 10.6818   2
   0  24  -1 90.6251 5.45225   2
   0  24  -1 83.0435 6.51469   2
  -1  24  -1 0.80375 2.31784   2
   1  24   1 0.18894 1.81615   2
  -2  24  -1 63.3000 5.88862   2
   2  24   1 58.4347 4.96086   2
   3  24   1 241.186 11.0350   2
   2  25  -1 59.3580 6.07317   2
  -2  25   1 53.4698 6.87104   2
  -1  25   1 79.7237 4.58296   2
   1  25  -1 69.7455 5.58085   2
   0  25  -1 125.331 6.51829   2
  -1  25  -1 132.769 6.99791   2
   1  25   1 134.316 5.79842   2
  -2  25  -1 89.4626 6.79817   2
   2  26  -1 88.7589 7.02124   2
   1  26  -1 45.2325 5.35313   2
   0  26  -1 11.8909 2.84181   2
  -1  26  -1 21.0285 3.32176   2
  -2  26  -1 33.1340 4.26894   2
   6   0  -2 41.8927 5.90144   2
   5   0  -2 2.57611 2.83849   2
  -4   0   2 2.51502 2.35757   2
  -4   0   2 -24.805 14.2700   1
   4   0  -2 2.41964 1.94571   2
   4   0  -2 -0.4603 14.0912   1
  -3   0   2 8.43964 8.61946   1
   3   0  -2 1.73536 1.15696   2
  -3   0   2 4.04021 1.65138   2
   3   0  -2 6.21323 12.5543   1
   2   0  -2 98.1423 15.0508   1
  -2   0   2 80.0624 3.93173   2
  -2   0   2 89.6193 12.1847   1
   2   0  -2 85.4572 3.93557   2
  -1   0   2 -0.4415 3.42058   1
  -1   0   2 1.37331 0.65075   2
   1   0  -2 0.88230 0.62598   2
   1   0  -2 0.20495 2.53368   1
   1   0   2 0.60858 2.31152   1
   1   0   2 2.42714 0.71276   2
  -1   0  -2 2.69092 2.52389   1
   1   0   2 1.77762 0.45549   3
  -1   0  -2 2.36837 0.49651   3
  -1   0  -2 1.28289 0.62114   2
  -2   0  -2 2395.98 68.1883   2
   2   0   2 2311.45 68.1902   2
   2   0   2 2291.57 67.4358   3
  -3   0  -2 4.34095 1.79689   2
   3   0   2 3.18671 1.14559   3
  -3   0  -2 4.40372 9.36525   1
   4   0   2 19.1303 13.3395   1
   4   0   2 21.1120 3.10009   2
  -4   0  -2 35.2133 15.5259   1
   4   0   2 20.6383 2.27252   3
  -4   0  -2 20.6966 3.41428   2
   5   0   2 4.94973 2.91686   2
   6   0   2 355.447 16.7708   2
   6  -1  -2 157.193 10.8540   2
   6   1  -2 168.112 11.3096   2
   5   1  -2 -0.3244 2.85918   2
   4  -1  -2 31.4006 4.01005   2
   4  -1  -2 21.8971 11.3552   1
  -4  -1   2 82.8592 28.7954   1
  -4  -1   2 23.1052 3.27546   2
   4   1  -2 19.4054 23.8643   1
   4   1  -2 31.3262 4.06679   2
  -4   1   2 28.0651 3.45498   2
  -4   1   2 37.8598 16.0985   1
  -3  -1   2 12.0277 2.07865   2
   3  -1  -2 -1.7399 13.4705   1
   3  -1  -2 9.88390 1.72870   2
  -3  -1   2 18.5285 9.55753   1
   3   1  -2 10.5983 1.82783   2
   3   1  -2 9.57829 8.60454   1
  -3   1   2 20.6708 2.99090   2
  -3   1   2 7.84710 8.92389   1
  -2  -1   2 2613.30 74.7995   2
   2  -1  -2 2461.76 74.6436   2
   2  -1  -2 2542.09 87.2389   1
  -2  -1   2 2703.30 87.9062   1
  -2   1   2 2559.06 74.7110   2
   2   1  -2 2566.68 87.3524   1
  -2   1   2 2586.85 87.1136   1
   2   1  -2 2485.56 74.7632   2
  -1  -1   2 430.514 12.8578   2
   1  -1  -2 417.101 18.8589   1
  -1   1   2 415.076 18.5650   1
   1   1  -2 393.409 18.5171   1
  -1   1   2 428.803 12.7405   2
   1   1  -2 420.504 12.8541   2
   0  -1  -2 625.960 20.2683   1
   0  -1  -2 653.571 20.1416   1
   0   1  -2 649.883 21.2876   1
  -1  -1  -2 475.546 18.8062   1
   1  -1   2 492.390 14.7733   2
  -1  -1  -2 490.629 14.6374   2
  -1  -1  -2 485.029 14.4338   3
   1   1   2 491.194 14.6673   2
   1   1   2 462.173 18.5903   1
   1   1   2 498.023 14.4158   3
  -1   1  -2 482.512 14.1881   3
  -1   1  -2 482.384 19.3837   1
  -1   1  -2 486.593 14.7242   2
  -2  -1  -2 1343.04 38.2148   2
   2  -1   2 1262.98 37.3200   3
   2  -1   2 1285.73 38.2504   2
   2   1   2 1267.71 37.5869   3
   2   1   2 1290.07 38.2056   2
  -2   1  -2 1181.95 52.4185   1
  -2   1  -2 1351.64 38.2751   2
   3  -1   2 655.497 21.4884   2
  -3  -1  -2 695.946 21.5478   2
   3  -1   2 671.099 20.2575   3
  -3  -1  -2 706.184 37.0544   1
  -3   1  -2 695.354 37.2188   1
   3   1   2 653.507 20.5198   3
   3   1   2 652.655 21.4728   2
  -3   1  -2 696.948 21.6128   2
   4  -1   2 5.00472 1.54578   3
  -4  -1  -2 9.25613 15.6933   1
   4  -1   2 19.3368 17.1053   1
   4  -1   2 5.91184 2.19988   2
  -4  -1  -2 2.01277 2.45393   2
   4   1   2 7.33850 21.8789   1
   4   1   2 4.66242 1.79126   3
   4   1   2 0.54239 1.85486   2
  -4   1  -2 4.73735 2.72107   2
  -4   1  -2 16.9121 15.0666   1
   5  -1   2 121.742 8.05224   2
   5  -1   2 114.270 5.92446   3
   5   1   2 122.654 6.75791   3
   5   1   2 124.526 8.05581   2
   6  -1   2 25.4269 5.27698   2
   6  -2  -2 17.6869 5.05157   2
   6   2  -2 7.87025 4.60367   2
   5  -2  -2 635.140 22.6749   2
   5   2  -2 664.417 23.0494   2
   4  -2  -2 13.2052 2.49282   2
  -4  -2   2 16.4392 14.7948   1
   4  -2  -2 15.5522 16.2182   1
  -4  -2   2 12.1242 2.50786   2
  -4   2   2 13.9546 14.9865   1
   4   2  -2 12.5881 2.65268   2
  -4   2   2 6.89025 2.54680   2
   4   2  -2 22.7953 17.1539   1
   3  -2  -2 1092.43 34.4899   2
  -3  -2   2 1186.60 52.5820   1
  -3  -2   2 1156.53 34.7174   2
  -3   2   2 1154.30 34.6447   2
   3   2  -2 1107.58 34.7189   2
  -2  -2   2 8.40218 6.38931   1
   2  -2  -2 4.57255 1.23911   2
   2  -2  -2 5.15852 6.03267   1
  -2  -2   2 3.19011 1.27757   2
  -2   2   2 6.24568 1.19241   2
   2   2  -2 6.12346 1.37218   2
  -2   2   2 11.1498 10.4319   1
   2   2  -2 4.31766 5.25473   1
  -1  -2   2 4189.48 128.852   2
   1  -2  -2 4603.71 136.319   1
   1   2  -2 4611.11 136.736   1
  -1   2   2 4630.44 136.409   1
   1   2  -2 4330.90 128.899   2
   0   2   2 12.2110 2.40619   1
  -1  -2  -2 1768.24 54.8229   1
   1  -2   2 1721.92 49.7715   2
  -1  -2  -2 1721.48 49.5270   2
  -1   2  -2 1708.32 49.7119   2
  -1   2  -2 1690.11 49.0035   3
   1   2   2 1560.77 54.1584   1
   1   2   2 1732.26 49.5870   2
   1   2   2 1740.13 49.4737   3
   2  -2   2 225.509 6.98343   3
   2  -2   2 227.208 8.09187   2
  -2  -2  -2 234.055 7.99834   2
  -2   2  -2 242.415 8.16504   2
   2   2   2 232.492 7.57443   3
  -2   2  -2 204.646 17.0407   1
   2   2   2 226.787 7.99662   2
   3  -2   2 1049.87 30.9545   3
  -3  -2  -2 1115.80 32.4431   2
  -3  -2  -2 1050.38 47.9572   1
   3  -2   2 1025.54 32.3644   2
   3  -2   2 1028.25 57.9638   1
   3   2   2 1072.33 32.4512   2
  -3   2  -2 1031.84 48.5692   1
   3   2   2 1059.34 31.5406   3
  -4  -2  -2 -1.7614 2.48721   2
   4  -2   2 -1.4711 1.66270   2
  -4  -2  -2 2.87570 14.3054   1
   4  -2   2 13.3261 17.2682   1
   4  -2   2 1.09199 1.31835   3
  -4   2  -2 0.77940 2.60948   2
   4   2   2 2.17756 2.01221   2
  -4   2  -2 23.3393 16.3618   1
   4   2   2 4.18196 17.9129   1
   5  -2   2 95.7035 5.08691   3
   5  -2   2 102.335 7.65177   2
   5   2   2 111.841 7.73119   2
   5   2   2 103.251 6.69317   3
   6  -2   2 33.6303 5.95528   2
   6   2   2 22.6992 5.45847   2
   6  -3  -2 384.162 17.1273   2
   6   3  -2 383.249 17.2211   2
   5  -3  -2 5.42028 3.00205   2
   5   3  -2 22.7427 3.85903   2
  -4  -3   2 212.200 34.8914   1
   4  -3  -2 113.133 21.6700   1
  -4  -3   2 137.528 7.52420   2
   4  -3  -2 146.239 6.98359   2
   4   3  -2 137.592 7.16060   2
  -4   3   2 142.098 23.5985   1
  -4   3   2 142.637 7.51956   2
   4   3  -2 104.915 20.1319   1
   3  -3  -2 23.3968 11.0769   1
   3  -3  -2 11.1761 1.75015   2
  -3  -3   2 18.9806 10.8866   1
  -3  -3   2 12.7650 2.01778   2
  -3   3   2 13.6928 2.02704   2
   3   3  -2 18.2018 13.8274   1
  -3   3   2 18.8263 10.6392   1
   2  -3  -2 4860.85 149.451   1
   2  -3  -2 4418.98 134.953   2
  -2  -3   2 4746.26 135.278   2
  -2  -3   2 4850.58 149.170   1
   2   3  -2 4470.17 135.263   2
  -2   3   2 4533.54 135.007   2
   2   3  -2 4855.55 149.445   1
   1  -3  -2 8.22774 3.84242   1
   1  -3  -2 11.8718 1.15695   2
  -1  -3   2 14.3215 1.55079   2
  -1  -3   2 19.0175 8.01427   1
  -1   3   2 11.1881 1.21100   2
   1   3  -2 12.4832 1.57630   2
  -1   3   2 9.37994 3.82902   1
   1   3  -2 19.7121 7.82677   1
   0  -3  -2 280.122 13.9951   1
   0  -3   2 296.912 14.0662   1
   0  -3  -2 288.773 8.46430   2
   0   3  -2 291.711 14.7241   1
   1  -3   2 0.95538 3.13360   1
   1  -3   2 3.65974 0.86354   2
  -1  -3  -2 4.95194 0.76761   2
  -1  -3  -2 4.88048 0.86828   3
   1  -3   2 2.76798 3.00455   1
  -1  -3  -2 3.45908 2.83227   1
   1   3   2 2.68962 0.71852   3
   1   3   2 4.55658 0.86222   2
  -1   3  -2 6.28724 1.00528   2
   1   3   2 3.25854 3.10187   1
   2  -3   2 3490.96 102.968   2
  -2  -3  -2 3676.29 102.808   2
   2   3   2 3434.36 102.462   3
  -2   3  -2 3665.47 103.005   2
   2   3   2 3454.25 102.811   2
   3  -3   2 165.341 7.14752   2
  -3  -3  -2 184.888 7.26531   2
   3  -3   2 123.814 22.0962   1
   3  -3   2 162.605 5.48327   3
  -3  -3  -2 180.152 21.5217   1
   3   3   2 182.822 6.61925   3
  -3   3  -2 132.672 21.5076   1
  -3   3  -2 166.042 7.29767   2
   3   3   2 178.632 7.22065   2
   4  -3   2 27.7243 2.29457   3
   4  -3   2 32.0338 17.8508   1
  -4  -3  -2 40.2956 16.7388   1
  -4  -3  -2 22.5461 3.30277   2
   4  -3   2 27.4778 4.01276   2
   4   3   2 24.2127 20.9416   1
   4   3   2 20.1477 2.89346   2
  -4   3  -2 23.8639 3.54245   2
   4   3   2 29.0542 3.69366   3
  -4   3  -2 19.8830 15.8412   1
   5  -3   2 12.6326 3.56775   2
   5   3   2 26.0054 3.80203   3
   5   3   2 19.2780 3.77276   2
   6  -3   2 83.8919 9.58533   2
   6   3   2 79.8421 10.0089   2
   6  -4  -2 22.4393 5.27643   2
   5  -4  -2 163.441 8.93516   2
   5   4  -2 155.236 9.26202   2
  -4  -4   2 13.3211 15.4737   1
   4  -4  -2 5.78876 16.4437   1
   4  -4  -2 6.73496 1.97648   2
  -4  -4   2 8.69552 2.72667   2
  -4   4   2 -6.1842 14.9060   1
   4   4  -2 9.85279 2.40134   2
  -4   4   2 11.0636 2.93221   2
   4   4  -2 3.22887 17.4924   1
  -3  -4   2 309.928 10.7743   2
  -3  -4   2 291.806 26.6345   1
   3  -4  -2 290.127 10.3773   2
   3  -4  -2 270.789 27.5540   1
   3   4  -2 293.416 10.7409   2
   3   4  -2 263.149 26.8462   1
  -3   4   2 300.210 10.5054   2
  -3   4   2 293.932 27.1403   1
   2  -4  -2 136.923 5.26614   2
  -2  -4   2 149.042 19.2266   1
   2  -4  -2 129.277 15.9902   1
  -2  -4   2 131.224 5.53855   2
  -2   4   2 140.466 5.37493   2
   2   4  -2 149.743 5.72081   2
   2   4  -2 114.551 15.3948   1
  -2   4   2 137.535 15.4426   1
   1  -4  -2 732.033 30.3435   1
   1  -4  -2 716.588 21.6437   2
  -1  -4   2 747.444 22.1802   2
  -1  -4   2 749.302 30.5058   1
   1  -4  -2 730.944 30.3737   1
   1   4  -2 742.518 22.2191   2
  -1   4   2 736.503 21.6959   2
   0  -4   2 66.3331 7.93489   1
   0  -4  -2 66.0887 2.65378   3
   0  -4  -2 65.2280 10.6498   1
   0   4  -2 67.1669 8.88401   1
  -1  -4  -2 284.133 8.70357   2
   1  -4   2 280.091 9.10002   2
  -1  -4  -2 278.587 14.8895   1
   1  -4   2 289.075 16.6411   1
  -1  -4  -2 285.115 8.98879   3
  -1   4  -2 279.787 9.07900   2
   1   4   2 254.292 8.99945   2
   1   4   2 292.976 8.95638   3
   2  -4   2 1490.43 43.9726   2
  -2  -4  -2 1338.13 59.4008   1
  -2  -4  -2 1539.59 43.7460   2
  -2   4  -2 1525.97 43.9809   2
   2   4   2 1483.38 43.7680   2
   2   4   2 1484.06 43.5557   3
   3  -4   2 441.075 15.2580   2
  -3  -4  -2 451.729 30.9063   1
  -3  -4  -2 464.200 15.1846   2
   3  -4   2 448.311 41.5063   1
   3   4   2 459.939 15.2491   2
  -3   4  -2 465.528 15.4036   2
   3   4   2 437.668 14.6037   3
  -4  -4  -2 41.7668 4.23357   2
   4  -4   2 37.1838 4.43586   2
   4  -4   2 24.3783 17.3359   1
  -4  -4  -2 52.0235 19.2895   1
   4   4   2 35.3948 4.13958   3
   4   4   2 26.6894 26.9656   1
   4   4   2 40.2094 4.34949   2
  -4   4  -2 28.9755 3.58497   2
   5  -4   2 16.4196 3.72107   2
   5   4   2 16.0297 3.59110   2
   5   4   2 17.4928 3.77185   3
   6  -4   2 215.858 13.0480   2
   6   4   2 219.058 13.3258   2
   6  -5  -2 -2.0855 4.31354   2
   6   5  -2 11.3027 5.08906   2
   5  -5  -2 13.3876 3.36143   2
   5   5  -2 18.9131 4.11944   2
   4  -5  -2 19.8985 17.7563   1
  -4  -5   2 15.0497 15.5967   1
   4  -5  -2 -0.4599 1.72224   2
  -4  -5   2 0.02708 2.33486   2
   4   5  -2 3.64982 2.09501   2
   4   5  -2 -12.021 18.1750   1
  -4   5   2 -4.9101 16.3322   1
  -4   5   2 -0.5884 2.32663   2
  -3  -5   2 7.47887 10.6911   1
   3  -5  -2 17.4168 16.9391   1
   3  -5  -2 14.7090 2.05077   2
  -3  -5   2 10.7959 2.11813   2
   3   5  -2 10.5591 1.97155   2
  -3   5   2 21.9171 3.09284   2
   3   5  -2 11.6771 11.4326   1
  -3   5   2 6.56275 10.2367   1
   2  -5  -2 5.35497 1.11155   2
  -2  -5   2 28.1451 13.5219   1
  -2  -5   2 5.50887 1.35530   2
   2  -5  -2 4.36334 6.83588   1
   2   5  -2 8.96507 6.79039   1
  -2   5   2 6.21435 1.19094   2
   2   5  -2 8.50032 1.61149   2
  -1  -5   2 518.411 15.9912   2
   1  -5  -2 515.735 15.3782   2
   1  -5  -2 521.479 24.7274   1
   1   5  -2 515.705 16.0378   2
  -1   5   2 524.418 15.4331   2
   1   5  -2 506.497 24.9799   1
   0  -5   2 19.0032 4.43376   1
   0  -5  -2 30.5727 1.77251   3
   0  -5  -2 33.9614 7.13452   1
   0   5  -2 17.8233 4.57442   1
  -1  -5  -2 524.107 15.5890   3
  -1  -5  -2 514.501 15.1709   2
   1  -5   2 527.686 25.6383   1
   1  -5   2 492.560 15.6085   2
  -1   5  -2 504.232 15.6241   2
   1   5   2 519.018 15.5212   3
  -1   5  -2 499.676 14.6986   3
  -1   5  -2 466.203 23.6779   1
   2  -5   2 32.5387 12.2129   1
  -2  -5  -2 37.6240 2.70226   2
   2  -5   2 27.9431 8.50245   1
   2  -5   2 37.6251 2.89098   2
  -2  -5  -2 31.3589 8.94282   1
   2   5   2 40.9087 2.79995   3
   2   5   2 37.0890 2.72258   2
  -2   5  -2 42.7669 3.07833   2
   2   5   2 26.8267 8.17259   1
   3  -5   2 1093.20 52.6118   1
  -3  -5  -2 1134.19 52.3003   1
   3  -5   2 1145.07 35.2596   2
  -3  -5  -2 1211.18 35.1215   2
   3   5   2 1137.59 35.1269   2
  -3   5  -2 1168.15 35.3123   2
   4  -5   2 -7.6889 15.9256   1
  -4  -5  -2 0.25762 2.57133   2
  -4  -5  -2 -16.033 16.0369   1
   4  -5   2 1.79255 2.03673   2
   4   5   2 6.68314 20.5802   1
  -4   5  -2 3.89846 2.91421   2
   4   5   2 1.39397 2.19064   3
   4   5   2 5.02068 2.08709   2
   5  -5   2 205.179 10.3880   2
   5   5   2 195.930 10.0213   3
   5   5   2 201.913 10.4363   2
   6  -5   2 10.4676 5.14504   2
   6   5   2 8.13316 4.98243   2
   6  -6  -2 17.7268 4.99018   2
   6   6  -2 13.1509 5.56004   2
   5  -6  -2 265.826 11.8577   2
   5   6  -2 261.856 12.3663   2
  -4  -6   2 9.25994 2.99502   2
   4  -6  -2 4.82249 2.01233   2
  -4  -6   2 20.3870 17.1809   1
   4  -6  -2 6.08992 20.4601   1
   4   6  -2 4.65622 2.27462   2
   4   6  -2 50.8550 38.7787   1
  -4   6   2 9.01005 2.79927   2
  -3  -6   2 380.188 13.0384   2
  -3  -6   2 325.076 29.0786   1
   3  -6  -2 369.518 12.5502   2
   3  -6  -2 382.010 32.2352   1
   3   6  -2 358.473 31.8924   1
  -3   6   2 387.730 12.7995   2
   3   6  -2 364.890 13.0445   2
   2  -6  -2 40.1145 10.7105   1
  -2  -6   2 104.504 19.0879   1
   2  -6  -2 41.9910 10.4863   1
  -2  -6   2 59.5342 3.56764   2
   2  -6  -2 57.6892 3.08246   2
   2   6  -2 62.4865 3.68913   2
   2   6  -2 94.9897 20.2208   1
  -2   6   2 62.6337 3.25198   2
  -1  -6   2 1427.86 53.4492   1
   1  -6  -2 1411.28 41.4303   2
  -1  -6   2 1421.57 42.1117   2
   1   6  -2 1429.03 42.2124   2
  -1   6   2 1449.61 41.4807   2
   0  -6  -2 -0.1956 0.62157   3
   0  -6   2 -1.2923 4.60570   1
   0  -6  -2 1.09495 5.67792   1
   0   6  -2 1.77029 0.89220   2
   0   6  -2 5.32746 5.10554   1
   1  -6   2 1142.16 34.8228   2
  -1  -6  -2 1192.66 34.8057   3
  -1  -6  -2 1152.16 34.2720   2
  -1  -6  -2 1205.07 45.7864   1
   1  -6   2 1184.17 47.3061   1
   1   6   2 1212.16 34.7577   3
  -1   6  -2 1166.65 45.8887   1
  -1   6  -2 1164.56 33.9385   3
  -1   6  -2 1155.58 34.7932   2
   2  -6   2 909.471 41.6272   1
  -2  -6  -2 913.775 27.1213   2
   2  -6   2 879.676 27.4584   2
  -2  -6  -2 862.859 39.4973   1
   2   6   2 919.677 27.2327   3
  -2   6  -2 918.847 27.5274   2
   2   6   2 894.498 27.1912   2
  -3  -6  -2 366.072 12.6385   2
   3  -6   2 324.328 29.7740   1
  -3  -6  -2 347.531 28.7320   1
   3  -6   2 370.766 30.8300   1
   3  -6   2 361.598 12.8486   2
   3   6   2 375.767 12.4422   3
   3   6   2 372.806 12.7440   2
  -3   6  -2 369.120 12.9916   2
  -4  -6  -2 8.59367 17.5568   1
   4  -6   2 1.23389 16.6734   1
  -4  -6  -2 0.59053 2.61748   2
   4  -6   2 -1.8880 15.5776   1
   4  -6   2 1.98969 1.95906   2
   4   6   2 -24.110 19.2064   1
   4   6   2 0.40475 2.05799   2
  -4   6  -2 7.53064 2.94259   2
   4   6   2 -1.7581 2.37276   3
   5  -6   2 51.0461 6.56443   2
   5   6   2 75.8152 6.99714   2
   5   6   2 76.1340 7.76458   3
   6  -6   2 167.603 12.1177   2
   6   6   2 171.422 12.0855   2
   6  -7  -2 340.891 15.9770   2
   6   7  -2 347.600 16.7599   2
   5  -7  -2 0.39816 53.3684   1
   5  -7  -2 8.58573 3.13240   2
   5   7  -2 3.00761 3.35712   2
   4  -7  -2 52.5407 4.50932   2
  -4  -7   2 42.6595 5.76282   2
   4  -7  -2 34.4845 21.5728   1
  -4  -7   2 32.1521 18.9343   1
  -4   7   2 53.9226 5.53366   2
   4   7  -2 43.7280 4.86421   2
   4   7  -2 37.5117 20.4025   1
   3  -7  -2 92.6087 18.4337   1
   3  -7  -2 98.7306 4.95845   2
  -3  -7   2 101.873 5.61366   2
   3  -7  -2 101.878 18.2005   1
  -3  -7   2 106.600 18.5157   1
  -3   7   2 100.780 5.25718   2
   3   7  -2 131.037 25.0748   1
   3   7  -2 95.0449 5.47249   2
   2  -7  -2 5397.47 170.807   1
  -2  -7   2 5275.01 152.869   2
   2  -7  -2 5064.50 152.305   2
   2   7  -2 5165.19 152.976   2
   2   7  -2 5504.33 171.083   1
  -2   7   2 5289.66 152.420   2
   1  -7  -2 0.21853 0.57306   2
  -1  -7   2 -0.6898 4.95838   1
   1  -7  -2 0.77741 4.71266   1
  -1  -7   2 0.73292 0.92019   2
  -1   7   2 -8.7763 5.35925   1
   1   7  -2 -2.2949 7.36862   1
   1   7  -2 1.07725 1.00898   2
   0  -7   2 220.667 17.9745   1
   0  -7  -2 221.068 18.8814   1
   0  -7  -2 248.385 7.89989   3
   0   7   2 202.087 23.3866   1
   0   7  -2 239.041 19.4980   1
   0   7  -2 237.424 8.10989   2
   0   7   2 253.932 7.90078   3
  -1  -7  -2 171.172 5.56503   2
   1  -7   2 157.593 17.4113   1
  -1  -7  -2 172.749 6.20479   3
  -1  -7  -2 179.063 16.2746   1
   1   7   2 172.210 6.16521   3
  -1   7  -2 170.943 5.31939   3
  -1   7  -2 168.703 16.5549   1
  -1   7  -2 170.961 6.18511   2
   1   7   2 154.046 5.90326   2
   2  -7   2 3111.62 107.590   1
  -2  -7  -2 3206.65 106.576   1
   2  -7   2 3264.79 109.625   1
  -2  -7  -2 3177.45 91.3454   2
   2  -7   2 3071.53 91.7132   2
   2   7   2 3079.41 91.4070   2
   2   7   2 3178.77 91.5743   3
  -2   7  -2 3078.09 92.4809   2
   3  -7   2 -5.3110 12.0608   1
  -3  -7  -2 1.51422 1.63227   2
   3  -7   2 1.61764 1.65833   2
  -3  -7  -2 -11.009 9.32269   1
   3  -7   2 1.53910 12.5333   1
   3   7   2 7.07977 18.3579   1
  -3   7  -2 2.75616 2.01966   2
   3   7   2 1.60953 1.61130   2
  -4  -7  -2 9.29974 3.09223   2
   4  -7   2 10.9513 2.72847   2
   4  -7   2 3.10018 19.3099   1
   4  -7   2 4.63776 17.6770   1
  -4  -7  -2 23.3500 17.1756   1
   4   7   2 13.2019 2.90581   3
   4   7   2 16.2321 19.8813   1
   4   7   2 13.8395 2.89261   2
   5  -7   2 11.8085 3.55195   2
   5   7   2 10.8726 4.41751   3
   5   7   2 10.8103 3.52053   2
   6  -7   2 102.388 11.0710   2
   6   7   2 109.289 10.7767   2
   6  -8  -2 -2.9631 4.43497   2
   6   8  -2 15.2075 5.60402   2
   5  -8  -2 297.606 47.2024   1
   5  -8  -2 373.709 14.6650   2
   5   8  -2 370.902 15.4374   2
  -4  -8   2 49.9216 5.81619   2
   4  -8  -2 40.2614 20.8939   1
  -4  -8   2 41.2314 21.6793   1
   4  -8  -2 50.6802 4.56236   2
   4  -8  -2 79.7990 39.1749   1
   4   8  -2 47.8422 23.1325   1
   4   8  -2 55.9432 5.36548   2
  -4   8   2 51.2712 5.58307   2
   3  -8  -2 612.849 46.8881   1
   3  -8  -2 646.753 51.7339   1
  -3  -8   2 525.526 36.9626   1
  -3  -8   2 514.534 17.3317   2
   3  -8  -2 509.026 16.7866   2
  -3   8   2 515.839 17.0268   2
   3   8  -2 415.084 36.9458   1
   3   8  -2 513.854 17.5116   2
   2  -8  -2 151.043 5.68045   2
   2  -8  -2 165.148 24.1998   1
   2  -8  -2 113.882 21.2507   1
  -2  -8   2 155.453 6.33861   2
  -2  -8   2 135.461 19.2973   1
   2   8  -2 160.748 6.54117   2
   2   8  -2 112.156 20.4576   1
  -2   8   2 155.502 5.83200   2
   1  -8  -2 2834.70 83.2916   3
  -1  -8   2 2905.86 98.9633   1
  -1  -8   2 2903.40 83.7723   2
   1  -8  -2 2646.76 82.9400   2
   1   8  -2 3085.09 100.726   1
  -1   8   2 2967.68 99.4190   1
  -1   8   2 2875.80 82.9449   2
   1   8  -2 2818.30 83.8357   2
   0  -8  -2 133.621 5.09116   3
   0  -8   2 142.442 16.4277   1
   0  -8  -2 121.236 16.5397   1
   0   8  -2 126.963 5.20078   2
   0   8   2 131.120 16.6095   1
   0   8  -2 180.954 22.2760   1
   0   8   2 139.103 5.07502   3
   1  -8   2 541.763 31.8246   1
  -1  -8  -2 546.330 17.0564   3
  -1  -8  -2 539.974 29.5263   1
  -1  -8  -2 539.598 16.3543   2
   1   8   2 561.372 17.0419   3
  -1   8  -2 551.368 17.0350   2
  -1   8  -2 556.848 16.2137   3
   1   8   2 530.730 16.4813   2
   2  -8   2 178.594 22.5009   1
   2  -8   2 214.025 8.12952   2
  -2  -8  -2 228.392 7.71560   2
   2  -8   2 219.495 23.5570   1
  -2  -8  -2 188.266 19.9276   1
   2   8   2 225.283 9.42464   3
   2   8   2 226.503 7.81871   2
  -3  -8  -2 674.225 41.0212   1
  -3  -8  -2 728.942 22.5470   2
   3  -8   2 680.029 43.2415   1
   3  -8   2 723.627 22.9275   2
   3   8   2 700.985 22.6456   2
   3   8   2 714.681 22.5699   3
  -3   8  -2 730.063 22.9598   2
   4  -8   2 48.3328 23.5622   1
   4  -8   2 72.3070 24.3353   1
  -4  -8  -2 59.3884 19.9126   1
  -4  -8  -2 63.4026 6.09226   2
   4  -8   2 80.7144 5.70914   2
   4   8   2 72.4403 6.03437   3
   4   8   2 93.1851 33.3222   1
  -4   8  -2 59.2591 8.20715   2
   4   8   2 70.4024 5.48996   2
   5  -8   2 62.1545 6.91864   2
   5   8   2 58.9735 6.72312   2
   6  -8   2 33.9997 6.42737   2
   6   8   2 37.7421 6.74768   2
   6  -9  -2 62.9340 9.05179   2
   6   9  -2 74.2464 10.2328   2
   5  -9  -2 1.85065 2.95889   2
   5  -9  -2 11.2626 31.0525   1
   5   9  -2 6.33018 3.68791   2
   4  -9  -2 27.3227 3.95291   2
  -4  -9   2 43.1611 21.6915   1
  -4  -9   2 23.2957 3.65866   2
   4  -9  -2 39.6475 22.4200   1
   4  -9  -2 5.13112 23.6555   1
   4   9  -2 28.5370 3.92099   2
  -4   9   2 34.7528 4.04922   2
   4   9  -2 38.5372 26.1317   1
   3  -9  -2 41.6365 18.2803   1
   3  -9  -2 43.7824 3.50609   2
  -3  -9   2 34.8079 14.8568   1
   3  -9  -2 30.3355 9.50341   1
  -3  -9   2 45.4728 4.29902   2
   3   9  -2 52.1400 4.31209   2
   3   9  -2 30.6821 13.8145   1
  -3   9   2 54.2486 4.11468   2
   2  -9  -2 789.825 25.2513   2
   2  -9  -2 967.388 51.2820   1
  -2  -9   2 790.893 42.4785   1
   2  -9  -2 1001.00 53.8847   1
   2   9  -2 809.823 26.0675   2
  -2   9   2 823.202 25.3683   2
   2   9  -2 802.313 43.8265   1
   1  -9  -2 438.458 15.4704   2
  -1  -9   2 529.833 16.2154   2
  -1  -9   2 545.709 31.1155   1
   1  -9  -2 530.179 15.7927   3
   1  -9  -2 511.661 31.0893   1
  -1   9   2 493.081 30.4215   1
   1   9  -2 518.172 16.2893   2
  -1   9   2 528.935 15.2984   2
   0  -9  -2 43.1043 2.62865   3
   0  -9  -2 30.4395 9.40966   1
   0  -9   2 45.1365 12.3030   1
   0   9  -2 42.1674 2.69791   2
   0   9  -2 32.7288 10.2778   1
   0   9  -2 39.7933 2.24365   3
   0   9   2 40.1248 2.60213   3
   0   9   2 26.0143 8.47577   1
  -1  -9  -2 49.1361 10.2817   1
   1  -9   2 60.4312 12.6276   1
  -1  -9  -2 61.9730 3.49865   3
  -1  -9  -2 69.4288 2.78962   2
   1   9   2 38.5615 12.7081   1
  -1   9  -2 70.5955 3.53601   2
   1   9   2 70.0301 2.83556   2
   1   9   2 64.7009 3.52355   3
  -1   9  -2 57.1072 11.6272   1
  -1   9  -2 66.2773 2.71663   3
   2  -9   2 401.725 13.2718   2
   2  -9   2 372.572 30.9105   1
  -2  -9  -2 398.067 12.7143   2
  -2   9  -2 404.737 13.2954   2
   2   9   2 351.057 31.9596   1
   2   9   2 403.590 13.2318   3
   2   9   2 397.284 12.8317   2
  -3  -9  -2 847.559 47.4322   1
   3  -9   2 846.367 26.9080   2
  -3  -9  -2 865.629 26.5397   2
   3  -9   2 788.617 48.3627   1
   3  -9   2 901.221 50.7712   1
  -3   9  -2 855.371 27.0210   2
   3   9   2 852.051 26.7059   2
   3   9   2 775.921 66.5750   1
   3   9   2 887.022 26.8091   3
  -4  -9  -2 84.1388 21.5076   1
  -4  -9  -2 75.1703 6.29059   2
   4  -9   2 61.8545 26.1756   1
   4  -9   2 72.2736 5.79520   2
   4   9   2 71.4518 5.67529   2
   4   9   2 67.1662 6.37770   3
   5  -9   2 92.8741 7.81500   2
   5   9   2 92.8156 7.81246   2
   6  -9   2 14.5562 5.75493   2
   6   9   2 10.6013 5.77977   2
   6 -10  -2 21.4859 5.43690   2
   6  10  -2 23.5955 6.46011   2
   5 -10  -2 11.7759 36.3944   1
   5 -10  -2 18.3881 3.70379   2
   5  10  -2 21.4907 4.44643   2
  -4 -10   2 -17.323 20.6036   1
   4 -10  -2 -0.8730 25.3087   1
   4 -10  -2 21.2682 17.4715   1
   4 -10  -2 1.59533 2.00713   2
  -4 -10   2 -1.2578 3.21880   2
   4  10  -2 -0.5731 2.34067   2
   4  10  -2 -20.674 27.3751   1
   4  10  -2 2.32832 2.85830   3
  -4  10   2 0.00637 2.90933   2
   3 -10  -2 138.396 29.5332   1
   3 -10  -2 99.4939 20.1918   1
  -3 -10   2 103.712 19.3222   1
   3 -10  -2 122.135 5.66098   2
  -3 -10   2 132.012 6.55948   2
   3  10  -2 158.974 27.5337   1
   3  10  -2 121.962 6.45390   2
  -3  10   2 123.586 6.05946   2
   2 -10  -2 68.5784 3.37752   3
   2 -10  -2 72.0988 3.55603   2
  -2 -10   2 69.9709 4.30822   2
   2 -10  -2 48.8132 15.0969   1
  -2 -10   2 107.337 19.4217   1
   2 -10  -2 62.6963 15.8123   1
   2  10  -2 125.618 27.9435   1
  -2  10   2 76.1275 3.68985   2
   2  10  -2 68.1731 4.36791   2
  -1 -10   2 134.792 5.57179   2
   1 -10  -2 130.424 5.12994   3
  -1 -10   2 160.360 26.2084   1
   1  10  -2 130.329 5.56292   2
   1  10  -2 216.956 32.3000   1
  -1  10   2 150.323 19.8935   1
  -1  10   2 127.329 4.54673   2
   0 -10   2 5.03997 17.0236   1
   0 -10  -2 2.17274 1.03429   3
   0 -10  -2 -0.2320 8.26753   1
   0  10  -2 3.32511 0.95864   3
   0  10  -2 0.84572 1.04006   2
   0  10   2 1.45305 9.06226   1
   0  10  -2 -10.114 12.3703   1
   0  10   2 1.85772 1.06444   3
   1 -10   2 215.486 24.8536   1
  -1 -10  -2 190.610 7.30529   3
  -1 -10  -2 203.351 21.4126   1
  -1 -10  -2 196.235 6.48653   2
   1  10   2 182.692 7.93699   3
   1  10   2 200.960 6.53178   2
   1  10   2 188.836 22.4257   1
  -1  10  -2 206.442 6.53277   3
  -1  10  -2 201.023 7.25767   2
  -1  10  -2 192.123 23.2457   1
   2 -10   2 1013.65 52.1621   1
   2 -10   2 983.272 30.3188   2
  -2 -10  -2 1002.08 29.7626   2
   2 -10   2 944.839 50.9730   1
  -2 -10  -2 967.512 47.7582   1
   2  10   2 922.944 71.9140   1
   2  10   2 1010.71 30.3260   3
  -2  10  -2 1013.06 30.3332   2
   2  10   2 1005.98 29.8707   2
  -3 -10  -2 0.98993 1.73673   2
   3 -10   2 9.87935 15.8607   1
   3 -10   2 0.25325 1.84991   2
   3 -10   2 6.96121 15.7951   1
  -3 -10  -2 7.69916 14.4200   1
   3  10   2 7.36600 15.2026   1
   3  10   2 0.96894 2.28814   3
  -3  10  -2 0.54071 2.16374   2
   3  10   2 3.40229 1.75972   2
  -4 -10  -2 9.49334 3.16132   2
   4 -10   2 10.9748 2.94795   2
   4 -10   2 4.26547 23.5713   1
   4  10   2 10.8240 3.37988   3
   4  10   2 12.8127 2.86805   2
   5 -10   2 22.7207 4.38578   2
   5  10   2 22.5236 4.37062   2
   6 -10   2 237.160 14.8646   2
   6  10   2 238.097 14.4548   2
   6 -11  -2 166.677 11.7587   2
   6  11  -2 155.446 13.0386   2
   5 -11  -2 8.68703 3.36949   2
   5 -11  -2 10.8799 2.07882   3
   5  11  -2 6.79252 3.91116   2
   4 -11  -2 15.5207 24.5329   1
   4 -11  -2 10.0026 2.51095   2
  -4 -11   2 7.78113 23.3359   1
   4 -11  -2 7.04347 28.9163   1
   4 -11  -2 11.6566 1.68247   3
  -4  11   2 11.6777 3.28709   2
   4  11  -2 7.46110 2.68977   2
   4  11  -2 -14.783 25.0447   1
   3 -11  -2 107.514 5.30477   2
   3 -11  -2 107.887 23.2188   1
   3 -11  -2 108.341 4.51166   3
  -3 -11   2 110.964 6.25667   2
  -3 -11   2 98.4479 18.6714   1
   3 -11  -2 133.498 35.4774   1
   3  11  -2 109.908 6.15525   2
   3  11  -2 97.4919 22.2262   1
  -3  11   2 102.275 5.69708   2
   2 -11  -2 1669.06 48.4379   2
   2 -11  -2 1632.94 73.2044   1
   2 -11  -2 1624.53 48.3195   3
  -2 -11   2 1668.74 49.1747   2
   2 -11  -2 1674.34 73.0037   1
  -2  11   2 1658.69 48.4562   2
   2  11  -2 1622.24 49.2797   2
   2  11  -2 1610.77 71.9823   1
  -1 -11   2 13.0469 1.87986   2
   1 -11  -2 14.8807 1.71126   3
   1 -11  -2 17.8724 10.7254   1
  -1 -11   2 19.7124 13.1932   1
   1  11  -2 15.6231 1.93677   2
  -1  11   2 7.30826 10.1573   1
   1  11  -2 6.72064 20.4184   1
  -1  11   2 12.1628 1.47679   2
   0 -11  -2 34.8883 12.3624   1
   0 -11  -2 32.0198 2.60218   3
   0 -11   2 33.8410 13.7067   1
   0  11  -2 26.4451 12.8405   1
   0  11   2 21.5050 10.3172   1
   0  11   2 30.5962 2.61743   3
   0  11  -2 30.4903 2.31033   3
   0  11  -2 28.2855 2.51664   2
  -1 -11  -2 627.404 37.9979   1
   1 -11   2 636.331 41.0109   1
  -1 -11  -2 624.420 20.0595   3
  -1 -11  -2 625.441 19.1099   2
  -1  11  -2 606.816 39.8010   1
   1  11   2 662.648 20.0867   3
  -1  11  -2 625.272 19.8839   2
   1  11   2 651.268 19.1410   2
   1  11   2 676.933 39.5459   1
  -1  11  -2 646.016 19.2211   3
  -2 -11  -2 1288.14 38.8198   2
   2 -11   2 1279.28 39.4723   2
   2 -11   2 1322.07 63.6717   1
  -2 -11  -2 1289.80 58.9858   1
   2  11   2 1334.18 39.5114   3
  -2  11  -2 1332.99 39.4599   2
   2  11   2 1272.44 60.7612   1
   2  11   2 1328.45 38.9715   2
   3 -11   2 194.866 34.9005   1
   3 -11   2 132.961 24.4439   1
  -3 -11  -2 173.967 7.24836   2
   3 -11   2 165.356 7.54407   2
  -3 -11  -2 143.942 27.5338   1
   3  11   2 117.118 24.3816   1
   3  11   2 155.747 7.62272   3
   3  11   2 160.135 7.13716   2
  -3  11  -2 161.803 7.79010   2
   4 -11   2 -16.662 25.4469   1
   4 -11   2 0.96975 2.39615   2
  -4 -11  -2 -1.0041 3.09973   2
   4  11   2 -1.8382 2.10975   2
   4  11   2 0.27026 3.33439   3
   5 -11   2 107.693 8.54163   2
   5  11   2 105.781 8.46619   2
   6 -11   2 36.2053 7.04389   2
   6  11   2 31.0759 6.87972   2
   6 -12  -2 7.30079 5.44407   2
   6  12  -2 4.38833 6.24528   2
   5 -12  -2 445.843 17.0539   2
   5  12  -2 446.858 18.0743   2
   4 -12  -2 49.7946 3.38226   3
   4 -12  -2 92.9000 41.6739   1
   4 -12  -2 47.5465 4.84731   2
  -4 -12   2 76.6985 26.6085   1
   4 -12  -2 63.0535 37.4587   1
   4  12  -2 51.0775 5.75712   2
  -4  12   2 54.1749 6.46764   2
   3 -12  -2 261.526 8.86022   3
   3 -12  -2 195.791 47.8746   1
  -3 -12   2 264.179 10.5082   2
  -3 -12   2 252.354 35.3354   1
   3 -12  -2 255.724 9.56004   2
   3 -12  -2 219.342 42.5630   1
  -3  12   2 265.484 9.90041   2
   3  12  -2 266.976 40.8659   1
   3  12  -2 252.872 10.4634   2
   3  12  -2 277.787 10.4770   3
   2 -12  -2 -0.6864 1.21531   2
   2 -12  -2 6.47172 1.50454   3
   2 -12  -2 17.6743 14.0959   1
  -2 -12   2 10.9089 26.8178   1
  -2 -12   2 1.60075 1.71803   2
   2 -12  -2 -7.6209 12.8844   1
   2  12  -2 -2.2521 1.75817   3
  -2  12   2 0.18470 1.33566   2
   2  12  -2 0.40183 13.4994   1
   2  12  -2 -0.0095 1.61210   2
   1 -12  -2 2313.66 67.7326   3
   1 -12  -2 2302.21 91.7989   1
  -1 -12   2 2384.93 68.1333   2
   1  12  -2 2242.90 68.0692   2
   1  12  -2 2412.69 67.8813   3
  -1  12   2 2291.18 90.8543   1
   1  12  -2 2304.71 91.7581   1
  -1  12   2 2255.98 66.9412   2
   0 -12  -2 105.333 4.85898   3
   0 -12   2 78.2313 15.8083   1
   0  12  -2 115.695 4.60197   3
   0  12   2 112.823 22.5773   1
   0  12  -2 89.5963 17.6957   1
   0  12  -2 108.407 4.79687   2
  -1 -12  -2 828.355 26.2355   3
  -1 -12  -2 831.890 46.6001   1
  -1 -12  -2 830.736 25.2070   2
   1 -12   2 882.984 50.8796   1
   1  12   2 795.684 46.7677   1
  -1  12  -2 848.652 49.7537   1
  -1  12  -2 843.019 26.0323   2
   1  12   2 864.251 25.2352   2
   1  12   2 897.829 26.2956   3
  -1  12  -2 867.947 25.3954   3
  -2 -12  -2 10.4629 13.2106   1
  -2 -12  -2 19.3861 2.56782   2
   2 -12   2 0.53274 13.6497   1
   2  12   2 18.8164 13.7054   1
   2  12   2 12.0680 1.82254   2
   2  12   2 15.7586 2.71260   3
  -2  12  -2 14.0783 2.30477   2
   3 -12   2 467.403 16.0887   2
  -3 -12  -2 467.027 40.8385   1
   3 -12   2 458.308 45.8489   1
   3 -12   2 414.680 46.6674   1
  -3 -12  -2 478.711 15.6669   2
   3  12   2 451.948 44.3576   1
   3  12   2 459.049 16.1989   3
  -3  12  -2 477.424 16.3530   2
   3  12   2 458.818 15.7163   2
   4 -12   2 37.9955 4.34377   2
  -4 -12  -2 33.6056 4.47177   2
   4  12   2 39.4054 5.01558   2
   5 -12   2 42.7667 5.34922   2
   5  12   2 33.9153 5.05866   2
   6 -12   2 2.30459 6.22908   2
   6  12   2 2.54014 5.91944   2
   6 -13  -2 174.729 12.3736   2
   6  13  -2 174.606 14.1119   2
   5 -13  -2 -2.1005 3.24192   2
   5  13  -2 3.62426 4.15968   2
   4 -13  -2 -22.686 30.2090   1
   4 -13  -2 3.86753 2.45720   2
   4 -13  -2 1.62893 1.61896   3
   4  13  -2 0.96885 2.60025   2
  -4  13   2 4.43117 3.37956   2
   3 -13  -2 169.907 6.22836   3
  -3 -13   2 150.623 26.8895   1
   3 -13  -2 156.079 6.85590   2
  -3 -13   2 159.624 7.88285   2
   3 -13  -2 139.092 29.8890   1
   3 -13  -2 159.566 27.9449   1
   3  13  -2 166.023 7.89864   3
   3  13  -2 116.239 26.2413   1
  -3  13   2 160.270 7.21926   2
   3  13  -2 157.889 7.75750   2
  -2 -13   2 1554.17 72.2389   1
   2 -13  -2 1541.16 76.1517   1
   2 -13  -2 1595.33 75.3851   1
  -2 -13   2 1591.13 47.3338   2
   2 -13  -2 1581.21 46.5692   3
   2 -13  -2 1568.70 46.4945   2
  -2  13   2 1623.07 46.5585   2
   2  13  -2 1538.37 74.5616   1
   2  13  -2 1545.03 47.4109   2
   2  13  -2 1603.14 47.2748   3
   1 -13  -2 356.318 43.9740   1
   1 -13  -2 290.232 10.1592   3
  -1  13   2 292.809 32.4436   1
  -1  13   2 285.502 9.24091   2
   1  13  -2 289.294 33.5714   1
   1  13  -2 296.552 10.4851   2
   1  13  -2 299.676 10.3177   3
   0 -13   2 64.7720 15.0929   1
   0 -13  -2 85.5419 4.47774   3
   0 -13  -2 80.4851 17.8106   1
   0  13  -2 134.049 27.1846   1
   0  13  -2 94.8359 4.30789   3
   0  13   2 70.3201 16.1864   1
   0  13   2 91.1158 4.55383   3
   0  13  -2 96.5475 4.47980   2
  -1 -13  -2 1.48374 1.37335   3
  -1 -13  -2 2.60303 0.98464   2
  -1 -13  -2 -5.0666 11.2111   1
   1 -13   2 1.05290 12.4348   1
  -1  13  -2 1.04607 1.09783   3
  -1  13  -2 -7.1361 14.4060   1
   1  13   2 2.95693 1.58489   3
  -1  13  -2 2.80150 1.39652   2
   1  13   2 -3.8345 12.5776   1
  -2 -13  -2 985.068 54.9602   1
   2 -13   2 1302.71 72.5929   1
  -2 -13  -2 1038.07 32.1466   2
   2  13   2 1047.99 32.2389   2
   2  13   2 1062.52 33.0068   3
   2  13   2 1078.32 58.5851   1
  -2  13  -2 1072.78 32.8537   2
   3 -13   2 259.481 45.0969   1
   3 -13   2 242.461 42.5786   1
  -3 -13  -2 265.207 9.75678   2
  -3 -13  -2 275.348 36.8554   1
   3 -13   2 253.619 10.2484   2
   3  13   2 201.001 32.4251   1
   3  13   2 245.633 10.6021   3
   3  13   2 256.890 9.87096   2
  -3  13  -2 243.005 10.5395   2
   4 -13   2 55.9728 7.14960   2
   4  13   2 50.7414 5.57052   2
   5 -13   2 -0.6787 3.67428   2
   5  13   2 1.05729 3.85339   2
   6  13   2 44.5097 7.46958   2
   6 -14  -2 13.2048 6.17006   2
   6  14  -2 9.48557 7.03449   2
   5 -14  -2 27.6808 4.69511   2
   5  14  -2 18.2121 4.61502   2
   4 -14  -2 60.5626 57.5157   1
  -4  14   2 6.38996 3.54996   2
   3 -14  -2 13.0701 2.18595   2
  -3 -14   2 22.4759 19.0760   1
   3 -14  -2 21.0975 22.6903   1
   3 -14  -2 10.9783 24.4704   1
   3 -14  -2 16.3773 1.99105   3
  -3 -14   2 11.6156 2.95236   2
   3  14  -2 8.04104 2.98395   3
   3  14  -2 23.1350 21.0127   1
  -3  14   2 18.5472 2.79469   2
   3  14  -2 14.2555 2.74664   2
  -2 -14   2 43.5498 25.1047   1
   2 -14  -2 15.3693 1.96587   2
   2 -14  -2 18.0087 2.11219   3
  -2 -14   2 10.7538 2.26865   2
   2 -14  -2 8.68815 14.8723   1
  -2  14   2 17.6613 2.02252   2
   2  14  -2 20.7678 17.6926   1
   2  14  -2 13.6708 2.34673   2
  -1 -14   2 558.900 48.6372   1
   1 -14  -2 426.735 14.1858   3
  -1  14   2 402.826 39.3877   1
  -1  14   2 417.039 13.1958   2
   1  14  -2 434.721 14.4919   2
   1  14  -2 436.359 14.3708   3
   1  14  -2 419.032 40.6464   1
   0 -14  -2 30.9237 19.4814   1
   0 -14  -2 40.7862 3.24118   3
   0 -14   2 33.8018 15.7991   1
   0  14   2 28.9783 3.24392   3
   0  14  -2 35.0707 3.40547   3
   0  14   2 20.4483 12.0419   1
   0  14  -2 45.7273 17.8291   1
   0  14  -2 36.2815 3.02791   2
  -1 -14  -2 -10.490 13.4586   1
   1 -14   2 -11.883 32.3962   1
   1  14   2 -5.9789 13.5756   1
  -1  14  -2 -4.3386 15.1863   1
   1  14   2 2.64406 1.65447   3
   2 -14   2 607.814 49.2337   1
  -2 -14  -2 571.930 18.0684   2
  -2 -14  -2 570.953 42.4256   1
   2  14   2 565.011 19.0940   3
   2  14   2 613.005 47.4793   1
  -2  14  -2 568.992 18.7857   2
   2  14   2 567.179 18.1098   2
  -3 -14  -2 63.1979 19.8701   1
   3 -14   2 66.2507 5.38708   2
   3 -14   2 29.8192 25.4937   1
   3 -14   2 30.9392 29.9632   1
  -3 -14  -2 65.1582 5.00299   2
   3  14   2 56.8808 6.34975   3
  -3  14  -2 62.2263 6.26770   2
   3  14   2 58.0623 25.5929   1
   3  14   2 66.0467 4.95271   2
   4  14   2 36.2112 5.30080   2
   5 -14   2 0.96397 3.93638   2
   5  14   2 0.45257 4.04821   2
   5 -15  -2 3.17054 3.71864   2
   5  15  -2 4.58410 4.36133   2
   4 -15  -2 26.9857 34.5921   1
   3 -15  -2 5.28950 1.74596   3
   3 -15  -2 6.02955 2.04907   2
  -3 -15   2 -1.3197 20.2245   1
   3 -15  -2 5.83634 35.7507   1
  -3 -15   2 7.22020 2.77135   2
  -3  15   2 2.20939 2.31055   2
   3  15  -2 0.90246 2.17737   2
   3  15  -2 -14.835 23.6939   1
  -2 -15   2 134.401 6.65356   2
   2 -15  -2 88.2221 24.4235   1
  -2 -15   2 151.052 27.6605   1
   2 -15  -2 128.448 5.78884   3
  -2  15   2 133.737 5.58808   2
   2  15  -2 139.222 6.56760   2
   2  15  -2 136.357 6.77183   3
   2  15  -2 202.346 40.0942   1
  -1 -15   2 218.425 32.7631   1
   1 -15  -2 252.763 9.36009   3
   1 -15  -2 265.355 37.0631   1
  -1  15   2 345.175 48.7235   1
  -1  15   2 253.495 8.22619   2
   1  15  -2 212.379 37.7374   1
   1  15  -2 265.616 9.67120   3
   1  15  -2 254.931 9.53086   2
   0 -15   2 22.1889 20.0209   1
   0 -15  -2 46.2636 15.4261   1
   0 -15  -2 27.0473 3.07618   3
   0  15  -2 29.2769 2.95821   2
   0  15  -2 28.8120 3.11848   3
   0  15  -2 8.67595 15.7875   1
   0  15   2 25.8411 16.5835   1
   0  15   2 30.0315 3.47068   3
  -1 -15  -2 247.679 33.6708   1
   1 -15   2 279.008 37.9017   1
  -1  15  -2 307.729 40.2399   1
   1  15   2 261.083 10.0233   3
  -1  15  -2 275.152 9.17740   3
   1  15   2 224.120 36.0060   1
  -1  15  -2 264.750 9.65670   2
   1  15   2 260.678 8.63329   2
  -2 -15  -2 76.7163 4.22009   2
   2 -15   2 85.1307 29.0902   1
  -2 -15  -2 58.3348 18.4741   1
  -2  15  -2 90.2073 38.2014   1
   2  15   2 67.0839 5.56974   3
   2  15   2 80.7051 23.8533   1
  -2  15  -2 73.2688 5.17874   2
   2  15   2 72.7801 4.14549   2
   3 -15   2 354.561 52.6216   1
  -3 -15  -2 316.489 11.6773   2
  -3 -15  -2 321.511 44.1661   1
  -3  15  -2 306.220 12.6328   2
   3  15   2 315.105 11.7114   2
   4 -15   2 43.3196 6.10494   2
   4  15   2 40.8470 5.50544   2
   5 -15   2 57.9851 8.05599   2
   5  15   2 49.3337 6.02130   2
   5 -16  -2 176.575 10.3880   2
   5  16  -2 173.221 11.4865   2
   4 -16  -2 6.38560 42.6136   1
   4 -16  -2 25.8850 3.56946   3
   4 -16  -2 37.4559 5.15290   2
  -4  16   2 16.5396 5.12633   2
   4  16  -2 30.6919 4.51557   2
   3 -16  -2 198.618 40.1649   1
   3 -16  -2 261.447 9.34069   3
  -3 -16   2 268.099 11.0652   2
   3 -16  -2 187.126 35.6017   1
  -3 -16   2 305.836 58.0745   1
   3 -16  -2 266.853 9.91559   2
  -3  16   2 258.339 10.1408   2
   3  16  -2 231.713 45.8374   1
   3  16  -2 268.061 10.8931   2
   2 -16  -2 37.6498 3.64316   3
  -2 -16   2 37.7690 4.66304   2
   2 -16  -2 -9.0905 19.7552   1
  -2 -16   2 20.5104 17.0843   1
  -2  16   2 39.0081 3.41638   2
   2  16  -2 56.7740 42.4470   1
   2  16  -2 43.7203 5.08527   3
   2  16  -2 41.4668 4.16492   2
   1 -16  -2 1042.67 64.1400   1
  -1 -16   2 1009.72 61.8410   1
   1 -16  -2 1064.38 31.9682   3
  -1  16   2 1076.46 30.8839   2
   1  16  -2 1079.44 32.1942   3
  -1  16   2 1040.33 30.7290   2
   1  16  -2 1087.98 32.1147   2
   1  16  -2 912.949 63.8918   1
  -1  16   2 993.457 62.5081   1
   0 -16   2 56.4247 36.4059   1
   0 -16  -2 87.4619 18.3971   1
   0 -16  -2 81.0441 4.73147   3
   0  16  -2 81.4448 4.49704   2
   0  16   2 66.3878 26.1070   1
   0  16  -2 84.4217 4.81029   3
   0  16   2 93.2474 5.11641   3
   0  16  -2 68.6802 22.7842   1
   1 -16   2 631.681 60.7394   1
  -1 -16  -2 568.757 46.3567   1
  -1  16  -2 449.315 75.4789   1
   1  16   2 492.381 47.2540   1
  -1  16  -2 505.771 16.6914   2
   1  16   2 503.463 17.1253   3
   1  16   2 492.761 15.6460   2
  -1  16  -2 508.087 16.3631   3
  -2 -16  -2 151.747 6.25212   2
   2 -16   2 124.570 28.7484   1
  -2 -16  -2 180.552 32.0423   1
   2  16   2 135.286 7.72892   3
   2  16   2 172.443 29.5868   1
  -2  16  -2 196.780 42.2899   1
   2  16   2 149.347 6.21790   2
  -2  16  -2 148.470 7.28667   2
  -3 -16  -2 157.617 7.59115   2
   3 -16   2 129.435 34.5602   1
   3  16   2 162.463 7.44434   2
  -3  16  -2 152.315 8.72856   2
   4 -16   2 0.94586 3.12615   2
   4  16   2 6.27336 3.11294   2
   5 -16   2 74.3169 9.28569   2
   5  16   2 67.8959 8.73567   2
   5 -17  -2 26.1089 4.81844   2
   5  17  -2 26.3051 5.60404   2
   4 -17  -2 -0.4787 2.02496   3
   4 -17  -2 2.18430 2.79256   2
   4  17  -2 -3.0243 3.02269   2
   3 -17  -2 78.3919 34.7940   1
  -3 -17   2 86.5300 7.05995   2
   3 -17  -2 71.1440 34.9430   1
  -3 -17   2 40.4954 30.9497   1
   3 -17  -2 85.8261 4.91685   3
   3  17  -2 22.5789 35.8255   1
   3  17  -2 83.5260 6.23371   2
  -3  17   2 79.9986 5.84339   2
   2 -17  -2 1268.41 77.8686   1
   2 -17  -2 1296.19 40.0325   3
  -2 -17   2 1527.13 92.1818   1
  -2 -17   2 1324.02 40.7122   2
  -2  17   2 1328.52 39.5967   2
   2  17  -2 1352.45 40.7568   2
   2  17  -2 1290.09 40.9394   3
   1 -17  -2 115.622 28.4022   1
  -1 -17   2 130.879 32.8429   1
   1 -17  -2 99.0850 5.46901   3
  -1  17   2 118.744 32.0394   1
   1  17  -2 105.370 6.02994   3
   1  17  -2 96.2783 25.8348   1
  -1  17   2 107.283 4.18887   2
   1  17  -2 100.014 5.46858   2
  -1  17   2 103.107 4.23985   2
   0 -17  -2 27.1711 3.45327   3
   0 -17  -2 10.1380 18.7540   1
   0 -17   2 21.8494 19.5525   1
   0  17  -2 34.4183 3.77240   3
   0  17   2 23.9430 2.98326   3
   0  17  -2 2.04748 20.4546   1
   0  17   2 11.8524 20.2142   1
   0  17  -2 25.8971 3.16060   2
   1 -17   2 133.747 26.3538   1
  -1 -17  -2 226.104 38.9452   1
  -1  17  -2 190.346 7.54175   2
  -1  17  -2 177.056 7.44994   2
  -1  17  -2 169.865 31.2263   1
   1  17   2 178.924 8.05248   3
  -1  17  -2 175.881 7.02977   3
   1  17   2 173.416 6.20645   2
   1  17   2 117.006 25.4761   1
  -2 -17  -2 1050.49 66.5316   1
  -2 -17  -2 983.266 29.9189   2
   2 -17   2 964.391 70.8766   1
  -2  17  -2 1013.30 30.7527   2
  -2  17  -2 940.134 70.8869   1
   2  17   2 948.154 69.3896   1
   2  17   2 954.967 31.3316   3
   2  17   2 997.003 29.8917   2
   3 -17   2 12.6458 33.1448   1
  -3 -17  -2 31.9444 3.61212   2
   3  17   2 32.6696 4.41486   2
  -3  17  -2 25.9671 4.31992   2
   4  17   2 4.69010 3.22725   2
   5  17   2 17.7085 5.18700   2
   5 -18  -2 167.429 10.5087   2
   5  18  -2 162.017 11.8245   2
   4 -18  -2 34.0183 4.10595   3
   4 -18  -2 42.7529 5.95737   2
   4  18  -2 27.8055 4.40391   2
   3 -18  -2 62.6168 38.4470   1
  -3 -18   2 40.6208 51.6882   1
  -3 -18   2 76.6009 7.46476   2
   3 -18  -2 85.3675 5.04192   3
   3 -18  -2 43.8253 34.5000   1
   3  18  -2 91.1255 6.41250   2
  -3  18   2 82.6624 6.11251   2
   2 -18  -2 -5.3316 34.0980   1
  -2 -18   2 1.93669 2.61573   2
   2 -18  -2 9.06353 2.22796   3
  -2 -18   2 -35.654 47.1664   1
   2  18  -2 2.94198 2.21451   2
   2  18  -2 -11.903 27.0930   1
  -2  18   2 1.21025 1.81846   2
   1 -18  -2 658.350 21.1487   3
   1 -18  -2 691.808 58.1981   1
  -1  18   2 638.914 19.6923   2
  -1  18   2 625.942 58.4217   1
   1  18  -2 642.956 21.3955   3
  -1  18   2 677.638 19.8475   2
   1  18  -2 649.477 21.0702   2
   1  18  -2 694.509 61.3469   1
   0 -18   2 395.895 67.5004   1
   0 -18  -2 267.652 10.5511   3
   0 -18  -2 336.130 55.3694   1
   0  18  -2 278.729 10.2633   2
   0  18  -2 285.688 10.2195   2
   0  18  -2 284.109 10.4535   3
   0  18   2 194.017 33.2900   1
   0  18   2 281.086 10.7781   3
   1 -18   2 90.7146 25.9507   1
  -1 -18  -2 99.3014 28.2255   1
   1  18   2 118.957 4.71051   2
   1  18   2 107.196 28.6471   1
  -1  18  -2 121.697 6.01269   2
   1  18   2 114.089 6.73506   3
  -1  18  -2 123.733 5.83291   3
  -1  18  -2 127.748 6.21574   2
  -1  18  -2 140.158 31.9647   1
  -2 -18  -2 189.020 36.1164   1
  -2 -18  -2 170.345 7.93810   2
  -2  18  -2 186.818 8.42148   2
   2  18   2 157.088 41.5639   1
   2  18   2 182.077 7.13200   2
  -2  18  -2 145.621 37.2836   1
   3 -18   2 102.640 45.4147   1
  -3 -18  -2 198.754 8.90841   2
   3  18   2 213.280 8.61427   2
  -3  18  -2 173.034 10.4050   2
   4  18   2 47.5853 6.24190   2
   5  18   2 1.31474 4.93689   2
   5 -19  -2 3.77771 5.18647   2
   5  19  -2 -0.7106 5.36679   2
   4  19  -2 5.04875 3.76483   2
   3 -19  -2 42.7147 52.5336   1
  -3 -19   2 9.60955 4.05684   2
   3 -19  -2 13.5771 2.48453   3
   3  19  -2 7.57047 3.00810   2
  -3  19   2 2.49357 2.94753   2
   2 -19  -2 22.9862 30.0527   1
  -2 -19   2 44.6325 26.6741   1
   2  19  -2 28.9260 62.9532   1
   1 -19  -2 219.986 8.88997   3
  -1 -19   2 170.714 31.9791   1
   1 -19  -2 157.356 32.1785   1
  -1  19   2 222.142 7.37005   2
   1  19  -2 230.721 8.84521   2
  -1  19   2 181.960 37.2755   1
  -1  19   2 212.341 7.24734   2
   1  19  -2 215.539 9.53510   3
   1  19  -2 258.369 55.0459   1
   0 -19  -2 101.694 28.0221   1
   0 -19   2 137.069 47.5698   1
   0  19   2 69.4720 26.4451   1
   0  19  -2 119.172 6.27180   3
   0  19   2 104.532 6.57941   3
   0  19  -2 106.638 5.80601   2
   0  19  -2 36.0398 28.5133   1
   0  19  -2 107.135 5.57441   2
   1 -19   2 25.4580 25.1818   1
  -1 -19  -2 -5.8950 22.6110   1
   1  19   2 6.47350 1.40400   2
   1  19   2 6.76611 25.1106   1
  -1  19  -2 4.11579 2.32182   2
   1  19   2 4.20222 2.74818   3
  -1  19  -2 22.3136 28.2406   1
  -1  19  -2 6.33145 2.28860   3
  -1  19  -2 5.67934 1.99433   2
  -2 -19  -2 28.5619 4.41738   2
   2 -19   2 26.1633 27.7273   1
  -2  19  -2 36.5185 31.8862   1
  -2  19  -2 28.5092 3.72750   2
   2  19   2 27.2940 3.35898   2
  -3 -19  -2 313.922 12.0557   2
   3  19   2 302.929 11.6562   2
   4  19   2 28.6180 5.39631   2
   5  19   2 1.20631 5.48118   2
   5  20  -2 17.1427 6.29340   2
   4  20  -2 9.09879 3.92541   2
   3 -20  -2 32.4359 4.42580   3
  -3  20   2 25.0331 3.73038   2
   3  20  -2 34.6800 4.23801   2
   2 -20  -2 -8.9207 49.9235   1
   2 -20  -2 17.2680 2.79657   3
  -2 -20   2 14.3821 30.4055   1
   2  20  -2 12.3636 2.77966   2
   2  20  -2 18.6055 32.5451   1
  -2  20   2 15.5255 2.46509   2
   1 -20  -2 197.725 58.9410   1
  -1 -20   2 78.3839 31.2600   1
   1 -20  -2 88.9723 5.47680   3
  -1  20   2 80.6867 3.72176   2
   1  20  -2 71.0968 6.73851   3
  -1  20   2 71.7933 3.64999   2
  -1  20   2 82.1430 31.1678   1
   1  20  -2 83.2594 5.17173   2
   1  20  -2 39.4447 48.5984   1
   0 -20  -2 29.5394 24.0844   1
   0 -20   2 53.1388 26.4682   1
   0  20  -2 44.5563 5.19608   3
   0  20   2 5.20560 25.8344   1
   0  20  -2 48.8617 4.63152   2
   0  20  -2 23.7002 27.9603   1
   0  20  -2 52.0596 4.18695   2
  -1 -20  -2 126.181 33.4602   1
   1 -20   2 98.0046 29.7182   1
  -1  20  -2 160.269 7.34905   2
   1  20   2 115.206 31.3971   1
   1  20   2 169.126 5.93230   2
  -1  20  -2 175.379 7.77650   2
  -1  20  -2 169.439 7.52989   3
  -1  20  -2 158.461 38.9313   1
   2 -20   2 163.565 40.6248   1
  -2  20  -2 250.775 10.7035   2
   2  20   2 266.355 9.20054   2
  -2  20  -2 232.909 44.3785   1
  -3 -20  -2 25.4266 4.07323   2
   3  20   2 17.6792 3.20961   2
   4  20   2 2.10217 6.42508   2
   4  21  -2 4.45452 4.10713   2
   3  21  -2 35.1761 4.39451   2
  -2 -21   2 551.948 95.2026   1
  -2  21   2 513.069 16.8328   2
   2  21  -2 539.821 18.1411   2
  -1 -21   2 44.9409 46.4012   1
   1 -21  -2 -12.413 30.2940   1
  -1  21   2 18.4732 42.2389   1
   1  21  -2 -6.5346 33.8421   1
   1  21  -2 9.05978 2.48324   2
   0 -21   2 -17.147 26.8482   1
   0 -21  -2 16.6499 27.7345   1
   0  21   2 66.3182 49.9565   1
   0  21  -2 38.3979 30.6931   1
   0  21  -2 3.99103 2.06104   2
   0  21  -2 6.71055 2.88359   3
   0  21  -2 8.36076 2.58824   2
   1 -21   2 119.940 37.6413   1
  -1  21  -2 123.641 7.10333   2
  -1  21  -2 135.587 6.67256   2
  -1  21  -2 134.969 7.16855   3
   1  21   2 137.275 5.13113   2
  -1  21  -2 91.1985 34.7245   1
   2 -21   2 275.604 53.3704   1
   2  21   2 342.190 11.3316   2
  -2  21  -2 322.842 12.9079   2
  -2  21  -2 321.107 55.0849   1
   3  21   2 2.96046 2.87732   2
   4  21   2 -3.4334 3.90090   2
   4  22  -2 65.9086 8.27517   2
   3  22  -2 123.791 8.22552   2
  -2  22   2 18.5218 2.81826   2
  -2  22   2 19.5578 2.54971   2
   2  22  -2 26.0179 3.50911   2
  -1 -22   2 458.817 71.3804   1
   1  22  -2 544.304 77.1118   1
   1  22  -2 441.222 15.5976   2
   0 -22   2 131.975 38.5879   1
   0  22  -2 192.073 9.45320   3
   0  22  -2 198.113 8.61827   2
   0  22  -2 166.741 42.3265   1
   0  22  -2 199.917 8.28391   2
   1 -22   2 46.2591 34.0981   1
  -1  22  -2 69.8207 6.22334   2
  -1  22  -2 89.0931 45.6034   1
  -1  22  -2 71.7158 5.30039   2
  -2  22  -2 14.0327 52.1686   1
   2  22   2 0.45516 1.99964   2
  -2  22  -2 1.61480 3.56716   2
   3  22   2 117.838 6.96458   2
   4  22   2 25.2464 5.12599   2
   4  23  -2 0.57618 4.57299   2
   2  23  -2 205.558 9.43687   2
  -2  23   2 199.994 7.77150   2
   1  23  -2 82.1567 5.76274   2
   0 -23   2 47.6490 36.9137   1
   0  23  -2 68.6253 51.3041   1
   0  23  -2 38.4651 5.59550   2
   0  23  -2 41.8392 4.60144   2
   1 -23   2 46.9714 42.3202   1
  -1  23  -2 22.9597 3.21968   2
  -1  23  -2 12.8588 41.6023   1
  -1  23  -2 26.2719 3.90721   2
   2  23   2 115.861 5.64422   2
  -2  23  -2 116.974 7.44625   2
  -2  23  -2 71.2615 78.6285   1
   3  23   2 170.210 8.40192   2
   4  24  -2 13.1748 5.23093   2
   3  24  -2 5.13395 3.77034   2
   2  24  -2 0.46451 2.96630   2
   1  24  -2 16.3104 3.01001   2
   0  24  -2 6.25582 3.39583   2
   0  24  -2 5.08016 2.54830   2
   1 -24   2 -40.703 47.6626   1
  -1  24  -2 2.53879 2.63903   2
  -2  24  -2 159.554 8.59794   2
   2  24   2 155.409 7.08427   2
   3  25  -2 3.57235 4.00735   2
   2  25  -2 150.047 8.35139   2
   1  25  -2 0.55818 2.68372   2
   0  25  -2 9.43764 2.95196   2
  -1  25  -2 12.0091 3.15514   2
  -2  25  -2 98.1736 7.47315   2
   3  26  -2 75.4661 9.27682   2
   2  26  -2 8.38072 3.68527   2
   1  26  -2 116.677 7.03111   2
   0  26  -2 64.2118 5.73366   2
  -1  26  -2 95.3125 6.91398   2
  -2  26  -2 38.4692 4.73129   2
   1  27  -2 68.1891 6.65326   2
   0  27  -2 5.31914 3.21923   2
  -1  27  -2 36.1772 4.37220   2
   6   0  -3 2.01688 4.42537   2
   5   0  -3 24.3179 3.83097   2
  -4   0   3 -4.4304 14.4738   1
   4   0  -3 0.15251 1.84983   2
   4   0  -3 23.5535 17.4228   1
  -4   0   3 0.67528 2.42247   2
   3   0  -3 882.513 27.7052   2
  -3   0   3 906.000 44.6598   1
  -3   0   3 891.911 27.7081   2
   2   0  -3 2.51896 1.06849   2
   2   0  -3 2.50064 4.89386   1
  -2   0   3 13.5788 6.31821   1
  -2   0   3 1.07253 1.01846   2
  -1   0   3 18.5425 1.64920   2
  -1   0   3 16.0584 4.10980   1
   1   0  -3 18.2932 4.73975   1
   1   0  -3 20.1607 1.61288   2
   0   0  -3 2.70874 1.39764   1
   0   0   3 0.02425 1.21742   1
   1   0   3 229.930 7.52271   2
  -1   0  -3 224.044 7.43109   2
  -1   0  -3 226.644 7.07162   3
  -1   0  -3 221.168 10.8891   1
   1   0   3 231.198 10.7509   1
  -2   0  -3 0.96533 5.09203   1
  -2   0  -3 2.58290 1.12065   2
   2   0   3 7.14836 5.14647   1
   2   0   3 2.53449 0.77699   3
   2   0   3 5.15637 1.19887   2
   3   0   3 1.33574 7.69372   1
   3   0   3 2.37070 1.02189   3
  -3   0  -3 0.41492 1.44060   2
  -3   0  -3 3.74855 9.68904   1
   3   0   3 0.80070 1.35101   2
  -4   0  -3 2.08464 2.72092   2
   4   0   3 3.32152 2.17617   2
   4   0   3 0.46502 1.50252   3
   4   0   3 3.06887 16.9277   1
   5   0   3 88.5048 5.36426   3
   5   0   3 88.2732 7.45611   2
   6   0   3 7.55975 5.16315   2
   6  -1  -3 140.857 10.4117   2
   6   1  -3 128.037 10.2655   2
   5  -1  -3 53.8600 5.90696   2
   5   1  -3 52.7472 6.11271   2
   4  -1  -3 89.3544 5.54651   2
  -4  -1   3 76.4376 6.13793   2
  -4  -1   3 81.3014 20.7620   1
   4  -1  -3 112.516 27.0193   1
   4   1  -3 76.9480 5.51493   2
  -4   1   3 87.7300 6.09408   2
   4   1  -3 58.4161 16.7286   1
  -4   1   3 66.0158 18.4029   1
  -3  -1   3 863.205 26.7908   2
  -3  -1   3 874.891 43.9203   1
   3  -1  -3 803.670 26.5587   2
  -3   1   3 845.578 26.6742   2
   3   1  -3 1021.68 50.7188   1
  -3   1   3 844.685 43.3794   1
   3   1  -3 814.326 26.7024   2
  -2  -1   3 493.975 15.4329   2
   2  -1  -3 479.378 15.2611   2
   2  -1  -3 453.822 26.0726   1
  -2  -1   3 485.422 26.5303   1
   2   1  -3 477.327 15.3702   2
  -2   1   3 493.468 26.2491   1
  -2   1   3 498.859 15.3591   2
  -1  -1   3 178.417 11.6574   1
   1  -1  -3 177.702 11.8482   1
  -1  -1   3 173.885 6.09995   2
   1  -1  -3 175.309 5.90397   2
   1   1  -3 174.950 6.07613   2
  -1   1   3 171.551 11.3349   1
   1   1  -3 173.445 11.6996   1
  -1   1   3 176.609 5.95467   2
   0  -1   3 2.60871 1.67746   1
   0   1  -3 -0.5937 1.84094   1
  -1  -1  -3 2788.38 83.3034   2
   1  -1   3 2804.85 83.4961   2
   1  -1   3 2979.45 87.6198   1
  -1  -1  -3 3002.17 87.2787   1
   1   1   3 2957.53 87.1736   1
  -1   1  -3 2785.65 83.4415   2
   1   1   3 2853.94 83.4085   2
   2  -1   3 10.2833 5.96962   1
  -2  -1  -3 19.2897 2.33377   2
  -2   1  -3 7.75189 6.06811   1
   2   1   3 8.62528 5.20415   1
   2   1   3 18.3403 2.19791   2
   2   1   3 15.1213 1.65791   3
   3  -1   3 77.7188 3.22533   3
  -3  -1  -3 80.7009 4.68999   2
  -3  -1  -3 72.5108 14.0809   1
   3  -1   3 76.2435 4.53284   2
  -3   1  -3 60.3536 12.4642   1
  -3   1  -3 81.1848 4.73977   2
   3   1   3 76.7366 3.59258   3
   3   1   3 79.9829 4.51619   2
   4  -1   3 60.0518 5.09146   2
   4  -1   3 56.4680 3.23912   3
  -4  -1  -3 5.50216 27.7806   1
  -4  -1  -3 53.1821 5.80156   2
   4  -1   3 30.1525 16.1577   1
  -4   1  -3 61.0597 5.85087   2
   4   1   3 46.6913 3.71255   3
   4   1   3 50.7262 4.87354   2
  -4   1  -3 37.7612 20.1563   1
   5  -1   3 226.916 11.0287   2
   5   1   3 221.605 11.1767   2
   5   1   3 215.037 8.89568   3
   6  -1   3 74.2214 9.72524   2
   6   1   3 54.8100 7.44253   2
   6  -2  -3 170.503 11.2346   2
   6   2  -3 177.566 11.3964   2
   5  -2  -3 0.72334 2.66733   2
   5   2  -3 6.88142 3.21404   2
   4  -2  -3 246.957 10.0034   2
   4  -2  -3 253.049 45.5280   1
  -4  -2   3 255.503 10.5562   2
  -4  -2   3 215.671 32.7615   1
   4   2  -3 238.876 10.1532   2
  -4   2   3 249.956 10.4261   2
  -4   2   3 238.192 35.2271   1
   3  -2  -3 73.2092 19.6473   1
  -3  -2   3 58.3683 4.50411   2
  -3  -2   3 44.4259 12.3452   1
   3  -2  -3 83.2857 4.36942   2
  -3   2   3 63.5258 12.9138   1
   3   2  -3 52.4315 14.1908   1
  -3   2   3 76.3677 4.60650   2
   3   2  -3 71.9907 4.58317   2
   2  -2  -3 3317.72 107.524   1
   2  -2  -3 3120.39 93.1606   2
  -2  -2   3 3240.64 93.4566   2
  -2   2   3 3265.92 93.2701   2
   2   2  -3 3100.31 93.4189   2
   2   2  -3 3215.87 106.926   1
  -1  -2   3 4.03999 3.42150   1
   1  -2  -3 2.05206 0.70290   2
  -1  -2   3 2.48823 0.89448   2
   1  -2  -3 3.02436 3.32739   1
  -1   2   3 4.84740 3.41854   1
   1   2  -3 1.17346 3.35313   1
   1   2  -3 1.62933 0.81770   2
  -1   2   3 2.70515 0.78715   2
   0  -2   3 1325.02 42.8877   1
   0  -2  -3 1357.25 42.5387   1
   0   2  -3 1355.09 44.0955   1
  -1  -2  -3 19.3965 1.58392   3
   1  -2   3 19.4191 1.82833   2
  -1  -2  -3 20.8447 1.59590   2
  -1  -2  -3 14.3899 3.46401   1
   1  -2   3 12.6292 4.08158   1
   1   2   3 24.5899 1.73499   2
  -1   2  -3 16.5157 1.77016   2
   1   2   3 14.3473 3.56720   1
  -2  -2  -3 4448.25 132.743   1
   2  -2   3 4018.30 131.852   1
  -2  -2  -3 4235.08 121.947   2
   2  -2   3 4040.09 122.142   2
   2   2   3 4317.22 132.273   1
   2   2   3 4112.84 121.472   3
   2   2   3 4016.35 121.961   2
  -2   2  -3 4421.40 134.023   1
  -2   2  -3 4305.84 122.156   2
  -3  -2  -3 6.15758 8.71780   1
   3  -2   3 3.25212 9.11585   1
   3  -2   3 2.06007 1.43471   2
  -3  -2  -3 1.62031 1.59213   2
   3   2   3 -0.5494 8.54738   1
   3   2   3 0.23343 1.23595   2
   3   2   3 0.57944 1.18072   3
  -3   2  -3 0.34177 1.59684   2
  -3   2  -3 -13.356 8.01373   1
  -4  -2  -3 327.680 49.5848   1
   4  -2   3 334.383 12.7466   2
   4  -2   3 263.699 36.5056   1
  -4  -2  -3 338.336 12.8846   2
   4   2   3 332.561 12.0763   3
  -4   2  -3 300.586 38.3169   1
   4   2   3 330.086 12.6255   2
  -4   2  -3 335.127 12.9331   2
   5   2   3 10.2855 3.23267   3
   5   2   3 12.2956 3.73991   2
   6  -2   3 209.251 13.3098   2
   6   2   3 232.684 13.6457   2
   6  -3  -3 19.8094 5.15372   2
   6   3  -3 23.4960 5.21931   2
   5  -3  -3 56.4854 5.88436   2
   5   3  -3 44.0945 6.16281   2
  -4  -3   3 74.4759 18.6365   1
  -4  -3   3 69.8718 5.86422   2
   4  -3  -3 53.2289 21.5082   1
   4  -3  -3 68.2537 4.96211   2
   4   3  -3 70.5835 5.31517   2
  -4   3   3 50.7795 18.9619   1
  -4   3   3 60.3635 5.70285   2
   4   3  -3 29.4215 18.5451   1
   3  -3  -3 2235.08 67.2375   2
   3  -3  -3 2241.72 87.6229   1
  -3  -3   3 2317.26 67.5715   2
   3   3  -3 2228.13 67.5982   2
  -3   3   3 2377.08 87.8971   1
  -3   3   3 2344.08 67.4224   2
   3   3  -3 2219.98 86.7783   1
  -2  -3   3 30.2453 2.75360   2
   2  -3  -3 32.8625 2.43657   2
   2  -3  -3 23.1257 10.5613   1
   2   3  -3 31.4712 2.73966   2
   2   3  -3 39.7578 10.4609   1
  -2   3   3 46.5472 11.5060   1
  -2   3   3 27.8157 2.52516   2
  -1  -3   3 724.742 22.4462   2
   1  -3  -3 717.710 29.7231   1
  -1  -3   3 753.031 30.2136   1
   1   3  -3 765.809 30.7315   1
   1   3  -3 744.957 22.5178   2
  -1   3   3 731.354 21.9998   2
  -1   3   3 761.909 30.1057   1
   0  -3   3 36.7383 5.93106   1
   0  -3  -3 36.9255 5.50175   1
   0   3  -3 42.7754 7.02566   1
   0   3   3 44.9591 5.39571   1
   1  -3   3 7106.50 207.603   1
  -1  -3  -3 7100.65 206.202   1
   1  -3   3 7193.04 209.104   1
   1   3   3 6544.16 200.740   3
   1   3   3 6989.69 206.518   1
   2  -3   3 11.0364 6.14091   1
  -2  -3  -3 17.8329 7.00860   1
   2  -3   3 21.6592 2.58797   2
  -2   3  -3 20.1913 2.55813   2
   2   3   3 16.9728 6.99324   1
  -3  -3  -3 167.840 6.88554   2
  -3  -3  -3 148.755 20.4725   1
   3  -3   3 153.948 6.89765   2
  -3   3  -3 158.868 7.05922   2
   3   3   3 163.198 6.14493   3
   3   3   3 162.003 6.80495   2
   3   3   3 108.523 20.0106   1
  -4  -3  -3 1.41659 2.78543   2
  -4  -3  -3 -1.8553 15.4459   1
   4  -3   3 1.81483 2.11990   2
   4   3   3 10.6094 2.56503   2
  -4   3  -3 3.03284 2.97767   2
   4   3   3 9.37430 16.9955   1
   4   3   3 3.17275 2.04651   3
   5  -3   3 708.752 24.4672   2
   5   3   3 664.074 22.3894   3
   5   3   3 701.686 24.3789   2
   6  -3   3 15.7591 5.20920   2
   6   3   3 33.4176 6.23274   2
   6  -4  -3 44.8978 6.13712   2
   6   4  -3 25.6046 5.54612   2
   5  -4  -3 6.78184 3.05234   2
   5   4  -3 8.60701 3.36902   2
   4  -4  -3 57.8530 20.5453   1
  -4  -4   3 103.397 6.79475   2
   4  -4  -3 96.3084 5.79769   2
  -4  -4   3 112.112 22.4499   1
  -4   4   3 92.0669 6.48346   2
  -4   4   3 92.7800 21.1053   1
   4   4  -3 126.795 30.4844   1
   4   4  -3 104.925 6.30221   2
   3  -4  -3 641.354 20.9382   2
   3  -4  -3 647.843 40.3780   1
  -3  -4   3 677.761 21.4587   2
  -3  -4   3 634.184 38.4876   1
   3   4  -3 672.131 21.5229   2
   3   4  -3 662.084 40.0523   1
  -3   4   3 701.836 40.0042   1
  -3   4   3 675.197 21.1628   2
   2  -4  -3 816.028 24.9655   2
  -2  -4   3 858.043 25.5065   2
  -2  -4   3 777.174 37.4833   1
   2   4  -3 836.567 25.5326   2
  -2   4   3 845.185 25.0946   2
  -1  -4   3 2.07208 0.83104   2
   1  -4  -3 3.27233 0.67564   2
   1  -4  -3 3.25432 4.36049   1
  -1  -4   3 2.20692 3.64574   1
   1   4  -3 -2.2562 3.75216   1
  -1   4   3 2.83529 0.70256   2
   1   4  -3 3.10767 1.03759   2
   0  -4  -3 440.798 13.6255   2
   0  -4  -3 457.019 21.1619   1
   0  -4  -3 453.104 13.5574   2
   0  -4   3 478.438 21.3419   1
   0   4   3 488.501 20.2898   1
   0   4  -3 471.599 22.3602   1
   1  -4   3 72.6172 10.6990   1
  -1  -4  -3 90.4801 3.63188   3
  -1  -4  -3 87.9241 3.24997   2
  -1  -4  -3 72.8004 8.39764   1
   1  -4   3 86.8932 3.83500   2
   1   4   3 87.4348 3.37109   2
   1   4   3 83.7761 3.49588   3
   1   4   3 69.0871 8.94399   1
  -1   4  -3 87.9708 3.80526   2
   2  -4   3 925.681 28.4987   2
   2  -4   3 898.394 39.6952   1
  -2  -4  -3 922.490 38.5088   1
  -2  -4  -3 965.894 28.1555   2
   2   4   3 954.978 27.9868   3
   2   4   3 927.542 28.1748   2
  -2   4  -3 933.133 28.6199   2
   2   4   3 936.238 38.8388   1
   3  -4   3 33.5546 3.38094   2
  -3  -4  -3 37.8214 3.64767   2
  -3  -4  -3 20.9322 10.2717   1
   3   4   3 35.2122 3.31401   2
   3   4   3 15.1266 11.1384   1
   3   4   3 34.7796 3.02999   3
  -3   4  -3 31.5946 3.82325   2
  -4  -4  -3 102.476 6.93849   2
   4  -4   3 109.747 6.46695   2
  -4  -4  -3 78.0822 22.9038   1
   4   4   3 101.165 5.73608   3
   4   4   3 104.526 6.39720   2
  -4   4  -3 107.614 7.28233   2
   5  -4   3 50.6755 6.57627   2
   5   4   3 65.3206 6.86199   3
   6  -4   3 44.9633 7.02023   2
   6   4   3 52.4824 7.34988   2
   6  -5  -3 153.827 11.0731   2
   6   5  -3 158.208 11.5416   2
   5  -5  -3 8.11979 3.11722   2
   5   5  -3 8.01593 3.30304   2
   4  -5  -3 109.820 6.05586   2
  -4  -5   3 121.171 22.9827   1
   4  -5  -3 66.1981 22.2949   1
  -4  -5   3 100.657 6.93807   2
   4   5  -3 104.420 24.1426   1
  -4   5   3 111.038 25.0083   1
  -4   5   3 108.923 6.83290   2
   4   5  -3 110.576 6.61014   2
  -3  -5   3 32.6667 17.8772   1
   3  -5  -3 7.63605 12.2186   1
   3  -5  -3 25.5612 3.04399   2
  -3  -5   3 19.2839 2.50483   2
  -3   5   3 24.9670 3.29730   2
   3   5  -3 55.6798 25.2556   1
  -3   5   3 16.9136 11.0479   1
   3   5  -3 27.1034 3.56645   2
   2  -5  -3 457.220 28.4882   1
  -2  -5   3 479.020 15.3608   2
   2  -5  -3 474.917 14.7562   2
   2   5  -3 463.209 15.4071   2
  -2   5   3 473.113 14.8736   2
   2   5  -3 486.912 28.9228   1
   1  -5  -3 80.3099 2.99238   2
  -1  -5   3 80.2616 3.76810   2
   1  -5  -3 82.2232 10.9897   1
  -1  -5   3 94.9232 11.0847   1
   1  -5  -3 73.8112 10.6815   1
  -1   5   3 84.6307 3.13362   2
   1   5  -3 75.6049 11.1895   1
   1   5  -3 86.1666 3.92490   2
   0  -5  -3 8.33379 5.29679   1
   0  -5   3 5.95657 4.63545   1
   0  -5  -3 4.82530 0.85359   3
   0   5   3 4.01295 4.23602   1
   0   5  -3 3.81688 5.25226   1
  -1  -5  -3 17.6357 1.84492   3
  -1  -5  -3 5.40209 4.43759   1
   1  -5   3 6.45212 5.84979   1
  -1  -5  -3 18.5283 1.33897   2
   1   5   3 11.1580 4.63938   1
  -1   5  -3 13.8035 1.88172   2
   1   5   3 15.1558 1.76649   3
   1   5   3 14.1136 1.41598   2
  -1   5  -3 5.76273 4.99354   1
  -2  -5  -3 71.4484 3.54230   2
   2  -5   3 75.0008 14.0032   1
   2  -5   3 64.5900 3.80037   2
   2   5   3 81.5535 13.0708   1
   2   5   3 66.9913 3.60758   3
   2   5   3 70.1110 3.58408   2
   3  -5   3 4.80406 12.7214   1
  -3  -5  -3 3.44372 1.65450   2
  -3  -5  -3 9.03424 10.5477   1
   3  -5   3 1.22183 10.1558   1
   3  -5   3 -0.1891 1.50549   2
   3   5   3 2.64422 1.74109   3
   3   5   3 2.09353 1.48988   2
  -3   5  -3 0.05390 1.73574   2
   3   5   3 -7.6317 9.71881   1
  -4  -5  -3 25.9858 3.51568   2
  -4  -5  -3 8.19116 19.6934   1
   4  -5   3 38.9381 20.3715   1
   4  -5   3 21.9735 3.21794   2
   4   5   3 24.4461 3.42315   2
  -4   5  -3 23.4577 4.38905   2
   4   5   3 22.9793 3.10404   3
   4   5   3 10.4722 17.2410   1
   5  -5   3 2.03602 3.09900   2
   5   5   3 -0.4946 3.85619   3
   5   5   3 7.50390 3.33018   2
   6  -5   3 124.082 11.5040   2
   6   5   3 116.152 11.3868   2
   6  -6  -3 58.3032 6.72032   2
   6   6  -3 86.8363 9.92249   2
   5  -6  -3 44.1231 5.62838   2
   5   6  -3 30.3586 4.33996   2
  -4  -6   3 134.678 7.63614   2
   4  -6  -3 137.839 6.71197   2
   4  -6  -3 146.408 33.6143   1
  -4  -6   3 74.2394 21.4167   1
  -4   6   3 126.228 7.20315   2
   4   6  -3 121.657 7.14253   2
   4   6  -3 87.9818 22.0068   1
   3  -6  -3 468.610 42.8084   1
  -3  -6   3 345.959 30.7520   1
   3  -6  -3 370.333 12.8407   2
   3   6  -3 379.949 13.6025   2
   3   6  -3 358.441 32.8438   1
  -3   6   3 396.665 13.1478   2
  -2  -6   3 1694.38 49.2351   2
   2  -6  -3 1666.12 64.9277   1
  -2  -6   3 1626.70 64.2279   1
   2  -6  -3 1613.55 48.4559   2
   2   6  -3 1627.43 49.2453   2
   2   6  -3 1664.71 65.4141   1
  -2   6   3 1676.43 48.6189   2
   1  -6  -3 45.9112 11.4401   1
   1  -6  -3 40.7093 1.81065   2
  -1  -6   3 34.7832 6.96774   1
   1  -6  -3 43.9603 8.72536   1
  -1  -6   3 39.2929 2.70048   2
  -1   6   3 39.0091 1.91404   2
   1   6  -3 41.5413 2.84302   2
   1   6  -3 30.7958 7.28519   1
   0  -6  -3 903.660 26.2454   3
   0  -6   3 892.217 37.4046   1
   0  -6  -3 830.447 38.5627   1
   0   6  -3 897.658 39.1799   1
   0   6  -3 874.096 26.6514   2
  -1  -6  -3 1.53089 0.66993   2
  -1  -6  -3 10.6201 5.70553   1
  -1  -6  -3 1.10042 0.97672   3
   1  -6   3 3.00176 6.40595   1
   1   6   3 0.03702 0.70793   2
  -1   6  -3 1.04152 5.65602   1
   1   6   3 3.94011 4.94573   1
  -1   6  -3 1.82679 0.97385   2
   1   6   3 1.55075 0.98051   3
  -2  -6  -3 1738.21 50.4039   2
  -2  -6  -3 1662.82 62.8053   1
   2  -6   3 1712.50 50.9466   2
   2   6   3 1730.30 63.6968   1
   2   6   3 1705.40 50.4921   2
  -2   6  -3 1731.02 50.9861   2
   2   6   3 1715.25 50.5338   3
   3  -6   3 12.1994 10.3398   1
  -3  -6  -3 18.6837 12.1009   1
  -3  -6  -3 25.4744 3.45897   2
   3  -6   3 27.5868 3.47231   2
   3   6   3 28.1991 3.10517   2
  -3   6  -3 26.4689 3.87694   2
   3   6   3 24.9335 3.15553   3
  -4  -6  -3 160.690 8.37359   2
   4  -6   3 131.427 25.3538   1
   4  -6   3 174.504 8.26686   2
   4   6   3 146.387 7.57087   3
   4   6   3 163.666 8.01247   2
   5   6   3 50.4239 5.42181   3
   5   6   3 65.0230 7.05628   2
   6  -6   3 141.811 12.0017   2
   6   6   3 134.624 11.6858   2
   6  -7  -3 2.16804 4.42734   2
   6   7  -3 3.58163 5.01697   2
   5  -7  -3 50.0389 6.08497   2
   5   7  -3 70.7079 7.22564   2
  -4  -7   3 35.6005 4.45878   2
  -4  -7   3 31.1507 19.7761   1
   4  -7  -3 30.5450 4.04145   2
   4  -7  -3 12.0095 20.9542   1
   4   7  -3 17.7685 20.0292   1
  -4   7   3 35.3302 5.07028   2
   4   7  -3 33.3176 4.74204   2
  -3  -7   3 1512.87 67.3956   1
   3  -7  -3 1463.94 68.0757   1
   3  -7  -3 1488.70 45.3279   2
   3   7  -3 1548.15 69.0971   1
   3   7  -3 1526.91 46.1980   2
  -3   7   3 1565.05 45.5798   2
  -2  -7   3 45.1166 14.0755   1
   2  -7  -3 30.3834 2.30272   2
   2  -7  -3 22.8145 13.7815   1
   2  -7  -3 18.8418 9.31743   1
   2   7  -3 35.3395 11.3359   1
  -2   7   3 31.2477 2.54483   2
   2   7  -3 30.0963 3.16124   2
   1  -7  -3 462.562 13.7358   2
  -1  -7   3 468.161 14.8367   2
  -1  -7   3 441.326 25.8810   1
   1  -7  -3 463.609 26.2254   1
   1   7  -3 459.519 14.9409   2
  -1   7   3 468.251 13.8301   2
   0  -7  -3 251.002 21.2502   1
   0  -7  -3 276.661 8.93900   3
   0  -7   3 260.966 19.4859   1
   0   7  -3 287.256 21.9985   1
   0   7  -3 268.987 9.31307   2
  -1  -7  -3 5319.67 158.802   3
  -1  -7  -3 5802.94 171.570   1
   1  -7   3 5613.62 175.216   1
  -1   7  -3 5272.78 158.873   2
   1   7   3 5401.07 158.697   3
  -1   7  -3 5606.56 173.672   1
   2  -7   3 53.3319 12.8566   1
   2  -7   3 46.9119 3.67734   2
  -2  -7  -3 56.8814 3.26380   2
  -2  -7  -3 42.8708 9.50662   1
   2   7   3 60.5493 3.31560   2
   2   7   3 53.4881 3.69267   3
   2   7   3 52.5277 11.9092   1
  -2   7  -3 61.0184 3.85565   2
   3  -7   3 138.714 6.78328   2
  -3  -7  -3 155.639 6.64150   2
  -3  -7  -3 132.929 22.4066   1
   3  -7   3 150.820 23.0054   1
  -3   7  -3 152.375 7.18085   2
   3   7   3 147.536 6.53137   2
   3   7   3 144.652 6.49544   3
   4  -7   3 53.1024 18.7231   1
  -4  -7  -3 38.5207 5.56928   2
   4  -7   3 35.4771 5.01499   2
   4   7   3 8.48573 30.7919   1
   4   7   3 39.7133 4.77628   2
   4   7   3 28.2062 3.73670   3
   5  -7   3 601.062 21.5877   2
   5   7   3 604.739 21.3125   2
   5   7   3 527.382 20.4559   3
   6  -7   3 1.29463 5.30126   2
   6   7   3 1.14239 5.18774   2
   6  -8  -3 127.292 10.1681   2
   6   8  -3 105.144 11.2892   2
   5  -8  -3 59.3944 36.0237   1
  -4  -8   3 147.464 8.61992   2
   4  -8  -3 154.645 30.5751   1
   4  -8  -3 147.415 7.19043   2
   4  -8  -3 104.759 26.0280   1
  -4  -8   3 203.380 40.7121   1
   4   8  -3 157.762 8.22552   2
  -4   8   3 154.157 7.99730   2
   4   8  -3 115.522 26.8596   1
   3  -8  -3 69.9414 16.7679   1
  -3  -8   3 84.6871 5.43188   2
   3  -8  -3 80.6207 4.54673   2
   3  -8  -3 109.072 28.7411   1
  -3  -8   3 77.2381 16.8472   1
   3   8  -3 87.0383 5.49821   2
  -3   8   3 86.2463 4.99400   2
   3   8  -3 78.8222 18.7655   1
   2  -8  -3 1934.65 75.0140   1
   2  -8  -3 1856.24 55.8711   2
  -2  -8   3 1940.68 56.8109   2
  -2   8   3 1909.92 55.9995   2
   2   8  -3 1958.06 75.9318   1
   2   8  -3 1884.58 56.8769   2
   1  -8  -3 33.4650 10.1703   1
   1  -8  -3 33.6078 1.60963   2
  -1  -8   3 34.7383 2.79507   2
  -1  -8   3 20.2717 7.84349   1
   1   8  -3 23.4034 8.37994   1
   1   8  -3 33.5584 2.85870   2
  -1   8   3 31.5737 1.72137   2
   0  -8   3 1064.99 47.9155   1
   0  -8  -3 1153.34 33.5342   3
   0  -8  -3 1167.90 49.7475   1
   0   8  -3 1152.42 50.5180   1
   0   8  -3 1093.53 33.8279   2
  -1  -8  -3 45.3189 3.12112   3
   1  -8   3 39.1240 11.0514   1
  -1  -8  -3 39.6931 9.62259   1
  -1  -8  -3 46.2268 2.16360   2
  -1   8  -3 47.7918 3.22203   2
   1   8   3 47.8682 3.02227   3
  -1   8  -3 42.2818 11.1410   1
  -1   8  -3 41.5668 2.00416   3
  -2  -8  -3 2241.65 64.5506   2
   2  -8   3 2181.31 65.2303   2
  -2  -8  -3 2116.97 79.6069   1
   2  -8   3 2226.80 84.5447   1
  -2   8  -3 2273.50 65.2541   2
   2   8   3 2250.85 64.9670   3
   2   8   3 2162.40 64.6153   2
   3  -8   3 54.9481 15.1755   1
  -3  -8  -3 38.9747 15.7049   1
   3  -8   3 66.4973 25.3748   1
  -3  -8  -3 62.2566 4.51981   2
   3  -8   3 65.7628 4.62825   2
  -3   8  -3 65.5738 5.17621   2
   3   8   3 71.9705 4.43629   2
   3   8   3 69.1369 4.70754   3
   4  -8   3 204.330 9.35263   2
  -4  -8  -3 191.791 9.33330   2
   4  -8   3 151.065 25.8651   1
   4   8   3 193.038 9.05449   3
   4   8   3 198.043 8.98984   2
   5  -8   3 11.6347 4.07992   2
   6  -8   3 138.845 12.5914   2
   6   8   3 134.599 12.1379   2
   6  -9  -3 108.204 10.0803   2
   6   9  -3 121.986 11.7577   2
   5  -9  -3 11.1768 33.3190   1
   4  -9  -3 112.264 27.4834   1
   4  -9  -3 103.128 30.8874   1
  -4  -9   3 73.5754 30.9566   1
  -4  -9   3 98.7967 9.73215   2
   4  -9  -3 108.615 6.12697   2
   4   9  -3 87.6018 26.9876   1
  -4   9   3 119.928 7.15717   2
   4   9  -3 111.033 7.14802   2
   3  -9  -3 375.009 35.1788   1
  -3  -9   3 382.531 13.7605   2
   3  -9  -3 444.541 51.4177   1
  -3  -9   3 389.669 35.6105   1
   3  -9  -3 363.205 12.7772   2
   3   9  -3 373.206 37.4467   1
  -3   9   3 382.761 13.0555   2
   3   9  -3 378.877 13.8794   2
  -2  -9   3 227.875 8.59341   2
   2  -9  -3 227.700 25.8259   1
   2  -9  -3 292.245 30.6589   1
   2  -9  -3 213.856 7.55453   2
   2   9  -3 204.417 25.4795   1
   2   9  -3 216.688 8.62481   2
  -2   9   3 219.301 7.72709   2
  -1  -9   3 93.9517 4.57963   2
  -1  -9   3 95.4261 17.8244   1
   1  -9  -3 92.6368 4.00333   3
   1  -9  -3 93.2997 3.29666   2
   1  -9  -3 114.612 17.6587   1
   1   9  -3 110.933 18.4612   1
  -1   9   3 102.021 17.1983   1
   1   9  -3 95.8570 4.67418   2
  -1   9   3 94.1079 3.36825   2
   0  -9  -3 144.278 5.45199   3
   0  -9  -3 131.686 19.3536   1
   0  -9   3 136.410 18.0008   1
   0   9  -3 133.130 5.65993   2
   0   9  -3 132.684 20.5458   1
  -1  -9  -3 814.216 24.5459   2
  -1  -9  -3 835.432 25.6017   3
   1  -9   3 882.485 44.3998   1
  -1   9  -3 818.238 25.5547   2
  -1   9  -3 839.515 24.5441   3
  -1   9  -3 817.186 42.2406   1
   1   9   3 845.383 25.4826   3
   2  -9   3 66.1395 14.9762   1
  -2  -9  -3 80.9187 3.84961   2
   2  -9   3 70.0874 4.46076   2
  -2  -9  -3 50.3619 12.1406   1
   2   9   3 82.3719 4.56171   3
  -2   9  -3 76.9127 4.57411   2
   2   9   3 85.4121 3.91934   2
   3  -9   3 66.6107 4.65210   2
  -3  -9  -3 47.5881 28.2610   1
   3  -9   3 54.3381 18.0739   1
   3  -9   3 43.8150 17.9336   1
  -3  -9  -3 57.6039 4.30398   2
  -3   9  -3 53.4805 5.09168   2
   3   9   3 53.7770 4.58433   3
   3   9   3 60.3063 4.13735   2
   4  -9   3 -2.7015 20.5670   1
   4  -9   3 6.67827 2.65259   2
  -4  -9  -3 3.68575 2.89217   2
   4   9   3 4.10959 3.03037   3
   4   9   3 3.06743 2.38307   2
   5  -9   3 88.4764 8.30916   2
   5   9   3 98.2876 8.12524   2
   6  -9   3 73.9778 8.62825   2
   6   9   3 96.1936 11.6101   2
   6 -10  -3 9.14974 4.90329   2
   6  10  -3 8.09437 5.78987   2
   5 -10  -3 14.8144 3.55684   2
   5  10  -3 18.9489 4.41139   2
  -4 -10   3 16.1207 36.5915   1
   4 -10  -3 2.12452 14.6391   1
   4 -10  -3 0.25675 1.93964   2
   4 -10  -3 -0.4809 30.5451   1
   4  10  -3 2.33619 23.3626   1
   4  10  -3 3.66619 2.67810   2
  -4  10   3 2.88375 3.05440   2
   3 -10  -3 617.212 46.6752   1
  -3 -10   3 720.116 46.7495   1
   3 -10  -3 667.346 21.8008   2
   3 -10  -3 850.086 60.0425   1
  -3 -10   3 706.807 22.8466   2
   3  10  -3 697.894 48.3771   1
   3  10  -3 696.062 23.0088   2
  -3  10   3 689.585 22.0594   2
   2 -10  -3 149.886 25.1193   1
  -2 -10   3 142.722 6.08523   2
   2 -10  -3 117.862 4.84231   2
  -2 -10   3 119.784 21.4284   1
   2 -10  -3 121.027 20.5163   1
  -2  10   3 116.489 5.02112   2
   2  10  -3 134.132 6.14815   2
   2  10  -3 142.942 23.9083   1
   1 -10  -3 91.4846 4.02436   3
   1 -10  -3 89.8130 3.19189   2
   1 -10  -3 73.4483 13.3770   1
  -1 -10   3 94.6891 4.59451   2
  -1 -10   3 79.9030 13.4956   1
  -1  10   3 103.777 18.7530   1
   1  10  -3 89.4065 4.62489   2
   1  10  -3 74.9778 14.1040   1
  -1  10   3 92.4257 3.22974   2
   0 -10  -3 98.2299 17.8965   1
   0 -10   3 96.3012 16.5861   1
   0 -10  -3 85.7634 4.09986   3
   0  10  -3 94.7999 20.9951   1
   0  10  -3 83.3852 4.27073   2
   0  10   3 67.1185 25.4838   1
  -1 -10  -3 60.4183 3.81459   3
   1 -10   3 67.9578 15.4552   1
  -1 -10  -3 50.0701 11.7090   1
  -1 -10  -3 68.9826 2.70353   2
  -1  10  -3 66.5244 2.83733   3
   1  10   3 62.9570 3.75589   3
  -1  10  -3 63.2629 15.6081   1
  -1  10  -3 66.2410 3.86699   2
   1  10   3 33.2491 15.3022   1
   2 -10   3 83.8920 17.9062   1
   2 -10   3 92.2917 5.05750   2
  -2 -10  -3 87.2523 26.0010   1
  -2 -10  -3 98.8030 4.31312   2
   2  10   3 95.7861 4.33192   2
   2  10   3 99.1798 5.17642   3
  -2  10  -3 98.3753 5.20713   2
  -3 -10  -3 -11.511 14.7035   1
   3 -10   3 9.57098 16.7139   1
   3 -10   3 9.29033 14.7044   1
   3 -10   3 1.62819 1.83574   2
  -3 -10  -3 3.79361 1.93857   2
  -3  10  -3 1.76967 2.28430   2
   3  10   3 -8.5719 15.2952   1
   3  10   3 2.30169 2.24566   3
   3  10   3 2.97876 1.66310   2
  -4 -10  -3 4.38406 3.00202   2
   4 -10   3 8.67576 2.82263   2
   4  10   3 5.46312 2.54350   2
   4  10   3 5.90041 3.40886   3
   5 -10   3 88.8357 8.41174   2
   5  10   3 83.6578 7.94267   2
   6 -10   3 5.42876 6.07270   2
   6  10   3 7.94992 6.09674   2
   6 -11  -3 37.8448 6.08880   2
   6  11  -3 27.0541 6.69732   2
   5 -11  -3 32.1774 4.50263   2
   5  11  -3 22.6595 4.55275   2
   4 -11  -3 4.28368 2.19877   2
   4 -11  -3 35.7907 28.8371   1
   4 -11  -3 -3.2921 48.9778   1
  -4 -11   3 23.9802 23.4512   1
   4  11  -3 3.80211 2.69154   2
  -4  11   3 7.67095 3.24822   2
   4  11  -3 7.98485 25.0066   1
  -3 -11   3 591.829 46.2943   1
  -3 -11   3 663.316 21.8475   2
   3 -11  -3 649.767 20.7898   2
   3  11  -3 780.007 59.8267   1
   3  11  -3 666.818 22.0120   2
  -3  11   3 650.193 21.0172   2
   2 -11  -3 156.889 27.5930   1
   2 -11  -3 117.067 4.71891   2
   2 -11  -3 100.355 17.2726   1
  -2 -11   3 80.9859 15.2491   1
  -2 -11   3 119.528 5.89802   2
   2 -11  -3 119.011 4.92103   3
   2  11  -3 116.873 5.97717   2
   2  11  -3 184.462 32.9879   1
  -2  11   3 117.414 4.87909   2
  -1 -11   3 207.868 23.8312   1
   1 -11  -3 204.556 24.8045   1
   1 -11  -3 212.930 7.59593   3
  -1 -11   3 211.864 8.14880   2
  -1  11   3 209.498 6.63127   2
   1  11  -3 213.558 8.18589   2
   1  11  -3 240.202 26.4566   1
  -1  11   3 188.711 23.8872   1
   0 -11  -3 120.964 21.3237   1
   0 -11   3 60.8269 15.7014   1
   0 -11  -3 101.026 4.55930   3
   0  11   3 93.3676 17.4072   1
   0  11  -3 82.5561 16.5167   1
   0  11  -3 96.8668 4.66134   2
   1 -11   3 1540.76 72.5218   1
  -1 -11  -3 1555.05 47.3675   3
  -1 -11  -3 1548.42 46.1411   2
  -1 -11  -3 1653.91 68.1700   1
   1  11   3 1624.14 47.2901   3
  -1  11  -3 1527.84 47.4404   2
  -1  11  -3 1622.63 46.3492   3
  -1  11  -3 1646.09 70.9863   1
  -2 -11  -3 12.0588 10.8271   1
  -2 -11  -3 2.59416 1.32771   2
   2 -11   3 0.13897 13.4879   1
   2  11   3 0.45004 1.92703   3
   2  11   3 1.55870 1.28207   2
   2  11   3 19.3161 17.6468   1
  -2  11  -3 1.81190 1.86300   2
  -3 -11  -3 49.4331 19.2015   1
  -3 -11  -3 64.4062 4.56403   2
   3 -11   3 58.5284 20.0084   1
   3 -11   3 64.5866 4.93029   2
   3 -11   3 51.6039 20.6972   1
   3  11   3 67.0344 4.43542   2
   3  11   3 62.8767 5.26771   3
  -3  11  -3 59.4349 5.59240   2
  -4 -11  -3 20.7771 3.64381   2
   4 -11   3 18.3351 4.40507   2
   4  11   3 17.4407 4.68902   3
   4  11   3 22.4040 3.43464   2
   5 -11   3 304.776 14.2445   2
   5  11   3 305.383 13.6887   2
   6 -11   3 10.7403 7.80428   2
   6  11   3 6.77232 6.43674   2
   6 -12  -3 113.003 10.5249   2
   6  12  -3 98.7134 12.1846   2
   5 -12  -3 41.0086 6.00786   2
   5 -12  -3 50.2232 4.28006   3
   5  12  -3 45.4937 5.92407   2
   4 -12  -3 83.2108 27.2179   1
   4 -12  -3 28.9785 39.7374   1
  -4 -12   3 46.7261 38.3849   1
   4 -12  -3 74.1799 5.37169   2
   4 -12  -3 77.4444 4.30521   3
  -4  12   3 80.5578 7.00466   2
   4  12  -3 88.3653 6.76097   2
   4  12  -3 52.0156 31.0486   1
   3 -12  -3 -5.1159 17.3986   1
   3 -12  -3 -2.0106 18.5633   1
  -3 -12   3 1.59254 2.54969   2
  -3 -12   3 9.85169 18.1018   1
   3 -12  -3 1.65246 1.61244   2
   3 -12  -3 0.67228 1.37809   3
   3  12  -3 -1.6100 19.2536   1
  -3  12   3 -0.8318 1.94033   2
   3  12  -3 2.80047 2.16428   2
  -2 -12   3 2502.25 98.9807   1
   2 -12  -3 2445.41 73.6727   3
   2 -12  -3 2673.20 102.097   1
   2 -12  -3 2524.96 73.4542   2
   2 -12  -3 2514.74 101.335   1
  -2 -12   3 2593.16 74.6403   2
   2  12  -3 2478.87 74.7397   2
  -2  12   3 2530.74 73.5137   2
   2  12  -3 2459.11 100.593   1
   1 -12  -3 189.085 27.0822   1
   1 -12  -3 221.343 7.96715   3
  -1 -12   3 224.342 26.3546   1
  -1  12   3 221.036 6.86856   2
  -1  12   3 231.769 27.2494   1
   1  12  -3 215.810 8.47443   2
   1  12  -3 226.135 28.9053   1
   0 -12  -3 728.141 22.7118   3
   0 -12  -3 742.761 43.8530   1
   0  12   3 746.679 42.8970   1
   0  12  -3 692.847 45.1396   1
   0  12  -3 702.898 22.7913   2
   0  12  -3 759.133 22.1940   3
  -1 -12  -3 0.30491 0.78094   2
  -1 -12  -3 -17.566 10.0735   1
   1 -12   3 -4.3960 13.8651   1
  -1 -12  -3 0.90725 1.49386   3
  -1  12  -3 -1.1384 1.55417   2
  -1  12  -3 1.85698 1.08181   3
   1  12   3 0.27214 1.31131   3
  -1  12  -3 -5.8181 13.1151   1
   1  12   3 6.15500 13.3113   1
   2 -12   3 1995.01 87.0749   1
  -2 -12  -3 1984.33 58.8708   2
  -2 -12  -3 1957.30 82.0488   1
   2  12   3 2030.34 58.9898   2
   2  12   3 2028.85 59.7986   3
  -2  12  -3 2050.50 59.8715   2
   3 -12   3 55.8215 21.6975   1
  -3 -12  -3 94.5127 5.64973   2
  -3 -12  -3 135.100 24.5829   1
   3 -12   3 114.067 6.41108   2
   3 -12   3 90.9213 24.5542   1
   3  12   3 109.908 6.68569   3
  -3  12  -3 103.692 6.84632   2
   3  12   3 106.977 5.58791   2
  -4 -12  -3 185.507 9.62931   2
   4 -12   3 185.545 12.0283   2
   4  12   3 203.419 9.23733   2
   5 -12   3 4.45209 4.12838   2
   5  12   3 3.56474 3.89480   2
   6  12   3 112.945 13.2623   2
   6 -13  -3 18.0018 6.01280   2
   6  13  -3 14.2414 6.87506   2
   5 -13  -3 3.19189 2.58812   3
   5 -13  -3 -0.3922 3.18702   2
   5  13  -3 5.12892 3.79006   2
   4 -13  -3 174.603 6.95226   3
   4 -13  -3 179.346 8.17637   2
  -4 -13   3 138.969 34.2478   1
   4 -13  -3 234.205 51.2590   1
   4 -13  -3 252.051 61.4432   1
   4  13  -3 175.852 9.72154   2
  -4  13   3 168.175 9.19073   2
   3 -13  -3 834.168 25.7326   2
   3 -13  -3 823.743 25.3455   3
   3 -13  -3 874.854 60.7638   1
   3 -13  -3 680.579 77.8658   1
  -3 -13   3 849.098 26.9610   2
   3  13  -3 822.762 26.9912   2
   3  13  -3 850.878 61.7143   1
  -3  13   3 842.024 25.9681   2
   2 -13  -3 49.1848 3.57785   3
  -2 -13   3 53.2880 4.65367   2
   2 -13  -3 11.5558 16.0370   1
   2 -13  -3 27.8038 19.2989   1
   2 -13  -3 47.8000 3.07329   2
   2  13  -3 54.0990 4.46316   2
  -2  13   3 50.3271 3.29675   2
   2  13  -3 55.3469 18.2708   1
  -1 -13   3 32.0992 13.7145   1
   1 -13  -3 39.2580 15.2391   1
   1 -13  -3 47.8823 3.34081   3
  -1  13   3 40.4286 15.0393   1
   1  13  -3 49.5333 3.45734   3
   1  13  -3 50.8118 3.83042   2
   1  13  -3 88.3932 24.8455   1
   0 -13   3 375.563 34.2747   1
   0 -13  -3 365.551 12.6862   3
   0 -13  -3 371.713 33.7430   1
   0  13  -3 376.122 12.1677   3
   0  13  -3 362.899 12.7183   2
   0  13   3 382.177 33.5802   1
   0  13  -3 413.796 37.3276   1
  -1 -13  -3 1744.25 52.7665   3
  -1 -13  -3 1723.87 51.2935   2
  -1 -13  -3 1809.96 77.4516   1
   1 -13   3 1755.09 80.6729   1
  -1  13  -3 1808.58 51.6982   3
   1  13   3 1831.59 52.6931   3
  -1  13  -3 1800.36 52.6338   2
  -1  13  -3 1756.03 80.6775   1
   1  13   3 1644.52 85.1287   1
  -2 -13  -3 59.8778 3.42133   2
  -2 -13  -3 20.7316 12.3084   1
   2 -13   3 37.7082 19.0180   1
  -2  13  -3 49.2176 4.48553   2
   2  13   3 49.1998 3.35592   2
   2  13   3 42.4422 4.70656   3
  -3 -13  -3 111.887 26.7768   1
   3 -13   3 104.512 26.5137   1
   3 -13   3 130.276 6.97398   2
  -3 -13  -3 128.837 6.29146   2
   3 -13   3 76.1093 28.0913   1
   3  13   3 124.080 7.39047   3
   3  13   3 125.475 6.11121   2
  -3  13  -3 114.227 7.48186   2
   4 -13   3 32.8446 4.33236   2
  -4 -13  -3 21.3481 4.34074   2
   4  13   3 30.1660 3.94095   2
   5 -13   3 281.602 13.7612   2
   5  13   3 276.721 13.1254   2
   6 -14  -3 -1.4348 5.65710   2
   6  14  -3 12.5831 9.24172   2
   5 -14  -3 -0.6529 3.36646   2
   5  14  -3 4.35497 4.02209   2
   4 -14  -3 27.1814 3.61318   3
   4 -14  -3 23.6405 3.27166   2
   4 -14  -3 40.6334 34.6241   1
  -4  14   3 17.9798 4.04797   2
   3 -14  -3 383.619 12.4490   3
   3 -14  -3 284.683 50.2232   1
   3 -14  -3 374.077 12.6482   2
  -3 -14   3 380.695 45.6014   1
  -3 -14   3 384.437 14.0919   2
  -3  14   3 361.652 12.9129   2
   3  14  -3 348.510 13.9618   3
   3  14  -3 364.200 13.9378   2
   3  14  -3 406.161 50.4233   1
  -2 -14   3 44.1683 18.0115   1
   2 -14  -3 75.2999 27.3987   1
   2 -14  -3 65.1136 20.0726   1
   2 -14  -3 68.1174 3.51817   2
  -2 -14   3 68.0513 4.99892   2
   2 -14  -3 62.6235 3.92075   3
  -2  14   3 60.7035 3.58803   2
   2  14  -3 64.8191 4.81486   2
   2  14  -3 61.1139 4.69971   3
   2  14  -3 50.8074 20.4824   1
  -1 -14   3 16.8395 18.1653   1
   1 -14  -3 14.9519 14.7047   1
   1  14  -3 3.90826 29.7736   1
  -1  14   3 29.7816 14.2665   1
   0 -14  -3 193.400 7.71525   3
   0 -14  -3 219.964 29.2981   1
   0  14  -3 193.180 7.70205   2
   0  14  -3 188.337 7.79827   3
   0  14   3 164.000 29.1464   1
   0  14  -3 191.484 33.0788   1
  -1 -14  -3 64.4290 17.7970   1
   1 -14   3 36.2797 17.6687   1
  -1 -14  -3 63.0495 2.83293   2
  -1 -14  -3 60.6079 4.44156   3
   1  14   3 39.2268 17.8960   1
  -1  14  -3 22.5027 22.4511   1
  -1  14  -3 66.0290 4.36858   2
  -1  14  -3 68.5619 3.53919   3
   1  14   3 63.6554 4.57200   3
   2 -14   3 116.082 25.4684   1
  -2 -14  -3 118.941 24.0697   1
  -2 -14  -3 151.492 6.05378   2
  -2  14  -3 166.748 7.36943   2
   2  14   3 156.682 7.47190   3
   2  14   3 153.394 6.05285   2
   3 -14   3 31.2499 26.5404   1
   3 -14   3 32.8291 24.7960   1
  -3 -14  -3 12.1272 17.5835   1
  -3 -14  -3 54.0289 4.50017   2
   3  14   3 48.1461 4.11618   2
  -3  14  -3 37.8529 4.22866   2
   3  14   3 36.3723 4.56578   3
   4 -14   3 22.7621 4.02782   2
   4  14   3 27.6123 3.92406   2
   5 -14   3 52.9295 6.58124   2
   5  14   3 55.0253 6.16146   2
   5 -15  -3 15.2301 4.02849   2
   5  15  -3 12.8613 4.58924   2
   4 -15  -3 9.74354 42.5076   1
   4 -15  -3 12.1688 2.88429   2
   4 -15  -3 13.2209 2.34960   3
   4  15  -3 10.8966 3.45595   2
  -4  15   3 -0.0803 3.70222   2
   3 -15  -3 121.048 46.1736   1
  -3 -15   3 81.5727 6.60850   2
   3 -15  -3 77.5083 4.76574   2
   3 -15  -3 63.5322 27.4394   1
  -3 -15   3 44.4307 21.1357   1
   3 -15  -3 69.1645 4.48608   3
   3  15  -3 51.1175 29.2294   1
  -3  15   3 72.2910 5.20008   2
   3  15  -3 67.2468 5.85594   2
  -2 -15   3 51.5862 28.6011   1
  -2 -15   3 103.259 6.18325   2
   2 -15  -3 151.832 42.1848   1
   2 -15  -3 93.7659 27.4670   1
   2 -15  -3 100.305 5.09585   3
   2  15  -3 99.0502 5.93251   3
   2  15  -3 102.881 5.94366   2
  -2  15   3 103.228 4.67125   2
   2  15  -3 87.2189 26.2567   1
   1 -15  -3 20.9705 18.1520   1
   1 -15  -3 18.8209 2.29442   3
   1  15  -3 16.6458 2.40178   3
   1  15  -3 29.6199 18.0570   1
  -1  15   3 49.9183 28.7471   1
   1  15  -3 17.1599 2.44317   2
   0 -15   3 16.5898 16.2706   1
   0 -15  -3 15.5016 15.7885   1
   0  15   3 -2.2638 21.7529   1
   0  15  -3 8.16936 16.3330   1
  -1 -15  -3 176.446 31.7621   1
   1 -15   3 199.075 34.9156   1
  -1 -15  -3 190.014 8.02838   3
   1  15   3 188.639 8.02659   3
  -1  15  -3 148.359 27.2197   1
  -1  15  -3 192.609 6.99269   3
   1  15   3 170.138 27.9732   1
  -1  15  -3 195.651 7.88212   2
   2 -15   3 33.3085 40.0354   1
  -2 -15  -3 19.8606 2.13148   2
  -2 -15  -3 15.8975 18.1616   1
  -2  15  -3 16.2052 2.83485   2
  -2  15  -3 28.2633 22.6642   1
   2  15   3 18.3441 3.23478   3
   2  15   3 19.2720 21.4827   1
   2  15   3 17.9395 2.09274   2
   3 -15   3 -8.4743 26.6407   1
  -3 -15  -3 2.48841 2.31396   2
   3  15   3 7.09278 2.17685   2
  -3  15  -3 7.06270 3.32526   2
   4  15   3 28.1411 4.12740   2
   5 -15   3 31.6492 5.79182   2
   5  15   3 38.6917 5.49090   2
   5 -16  -3 35.9777 4.95417   2
   5  16  -3 26.7243 5.20708   2
   4 -16  -3 2.61813 2.25087   3
   4 -16  -3 0.83541 2.49810   2
  -4  16   3 8.17829 4.21636   2
   4  16  -3 0.92880 3.18007   2
  -3 -16   3 28.7604 4.13892   2
  -3 -16   3 3.03346 21.4809   1
   3 -16  -3 24.8802 2.75541   3
   3 -16  -3 46.7417 46.5850   1
   3 -16  -3 91.2607 43.9298   1
   3 -16  -3 25.6023 2.86173   2
   3  16  -3 24.0912 3.56122   2
  -3  16   3 22.1868 3.02175   2
  -2 -16   3 919.103 29.3426   2
   2 -16  -3 928.683 64.5315   1
  -2 -16   3 962.031 62.3304   1
   2 -16  -3 921.052 28.5585   3
  -2  16   3 902.874 27.8075   2
   2  16  -3 941.941 29.2962   3
   2  16  -3 924.357 29.3415   2
   1 -16  -3 363.876 12.5672   3
   1 -16  -3 340.567 41.6839   1
   1  16  -3 358.092 12.6280   3
   1  16  -3 363.866 46.6534   1
  -1  16   3 349.709 42.6097   1
   1  16  -3 360.313 12.7950   2
   0 -16  -3 197.804 8.34359   3
   0 -16  -3 201.441 34.5373   1
   0 -16   3 307.775 46.2099   1
   0  16  -3 211.461 7.95277   3
   0  16  -3 195.639 52.6909   1
   0  16  -3 200.329 8.21542   2
   0  16   3 201.593 34.9158   1
   1 -16   3 14.8732 16.8855   1
   1  16   3 7.53105 18.0758   1
  -1  16  -3 11.0302 29.4404   1
   2 -16   3 889.047 66.4043   1
  -2 -16  -3 920.240 27.8307   2
  -2 -16  -3 918.631 60.5303   1
   2  16   3 949.510 27.8832   2
  -2  16  -3 936.302 29.0854   2
   2  16   3 915.535 29.3183   3
  -2  16  -3 959.481 66.8679   1
   2  16   3 838.020 63.8237   1
  -3 -16  -3 83.0118 5.64154   2
   3 -16   3 65.6143 35.4359   1
  -3  16  -3 69.3895 7.64066   2
   3  16   3 83.6038 5.19223   2
   4  16   3 86.8673 6.77832   2
   5  16   3 33.3213 5.45640   2
   5 -17  -3 5.73233 4.16651   2
   5  17  -3 4.78005 4.80704   2
   4 -17  -3 57.7366 5.62275   2
   4 -17  -3 50.9901 4.80379   3
  -4  17   3 37.3430 5.54072   2
   4  17  -3 53.6716 6.87159   2
  -3 -17   3 603.812 21.5321   2
   3 -17  -3 847.353 102.168   1
   3 -17  -3 621.290 75.2572   1
   3 -17  -3 630.373 20.0143   2
   3 -17  -3 622.172 19.8915   3
   3  17  -3 614.428 71.1953   1
   3  17  -3 609.392 21.3113   2
  -3  17   3 601.062 20.0593   2
  -2 -17   3 29.6418 35.8876   1
   2 -17  -3 39.0018 26.6874   1
   2 -17  -3 46.5245 4.25493   3
  -2 -17   3 37.7886 5.37805   2
   2  17  -3 41.1787 4.72112   2
  -2  17   3 31.8593 3.37880   2
   2  17  -3 42.8167 4.37750   3
   1 -17  -3 10.3387 2.26633   3
  -1 -17   3 20.3733 32.0587   1
   1 -17  -3 21.5329 20.4276   1
   1  17  -3 16.3001 34.2083   1
   1  17  -3 15.7710 2.54706   2
  -1  17   3 -8.8987 18.8748   1
   1  17  -3 5.55176 2.41708   3
   0 -17  -3 165.043 7.33113   3
   0 -17   3 138.919 26.6693   1
   0  17  -3 159.071 6.98287   3
   0  17  -3 148.170 29.9762   1
   0  17   3 164.731 27.6669   1
   0  17  -3 165.583 7.15107   2
  -1 -17  -3 1483.91 77.6113   1
  -1  17  -3 1424.81 43.5371   3
  -1  17  -3 1457.18 83.3097   1
   1  17   3 1337.96 75.0801   1
  -1  17  -3 1488.02 43.9467   2
   1  17   3 1481.02 44.2003   3
  -1  17  -3 1449.20 44.0166   2
   2 -17   3 5.71842 25.0915   1
  -2 -17  -3 6.21213 1.80899   2
  -2 -17  -3 35.0933 25.1075   1
   2  17   3 8.20146 25.1345   1
   2  17   3 8.42643 1.84046   2
  -2  17  -3 -7.5788 26.0542   1
  -2  17  -3 8.16355 2.85302   2
  -3 -17  -3 42.9837 5.04319   2
   3  17   3 34.0688 4.26062   2
   4  17   3 63.7175 6.46224   2
   5  17   3 294.382 14.2118   2
   5 -18  -3 0.00941 4.46874   2
   5  18  -3 2.87571 4.98736   2
   4 -18  -3 32.3859 3.37995   3
   4 -18  -3 30.6734 4.01634   2
   4  18  -3 29.0932 4.52171   2
   3 -18  -3 166.319 7.45762   3
   3 -18  -3 201.314 57.2847   1
  -3 -18   3 160.721 37.6471   1
   3 -18  -3 243.096 73.6558   1
   3  18  -3 168.822 8.84986   2
  -3  18   3 152.862 7.75877   2
   2 -18  -3 508.198 17.1462   3
  -2 -18   3 503.786 56.5440   1
   2 -18  -3 622.134 75.4167   1
  -2  18   3 508.719 16.1462   2
   2  18  -3 516.449 17.8016   2
   2  18  -3 500.645 63.9965   1
  -1 -18   3 143.259 28.3529   1
   1 -18  -3 147.514 6.78896   3
   1 -18  -3 125.075 28.3651   1
   1  18  -3 86.5269 28.7639   1
  -1  18   3 116.663 29.1439   1
   1  18  -3 135.660 7.21813   3
   1  18  -3 145.201 6.82352   2
   0 -18  -3 155.493 7.23271   3
   0 -18  -3 126.509 28.1015   1
   0  18  -3 105.638 27.7438   1
   0  18  -3 149.655 7.07275   3
   0  18  -3 160.761 7.35711   2
   0  18  -3 154.062 7.00008   2
   0  18   3 179.650 32.8371   1
  -1 -18  -3 1.60778 23.2686   1
   1 -18   3 17.0643 19.9358   1
  -1  18  -3 52.7753 28.0074   1
  -1  18  -3 12.8354 2.31450   3
   1  18   3 17.2585 21.5801   1
  -1  18  -3 12.1184 2.48552   2
   1  18   3 10.6598 3.05380   3
  -1  18  -3 12.9303 2.82272   2
  -2 -18  -3 423.950 13.5049   2
  -2 -18  -3 411.839 53.0795   1
   2 -18   3 331.350 60.2014   1
  -2  18  -3 328.132 44.9998   1
   2  18   3 428.861 13.4172   2
  -2  18  -3 427.286 15.0503   2
  -3 -18  -3 135.937 7.33185   2
   3  18   3 138.988 6.88827   2
   4  18   3 40.0323 4.79731   2
   5  18   3 19.6693 5.51205   2
   5 -19  -3 0.36281 4.81050   2
   5  19  -3 15.5722 5.72414   2
   4 -19  -3 63.9803 5.61181   3
   4  19  -3 77.7407 7.67422   2
   3 -19  -3 43.7521 4.78103   3
   3 -19  -3 68.0846 56.1809   1
   3  19  -3 40.6682 4.58779   2
  -3  19   3 38.3448 5.41796   2
   2 -19  -3 66.8422 5.06135   3
   2 -19  -3 52.3491 31.0167   1
  -2 -19   3 24.0367 27.6220   1
   2  19  -3 68.7169 5.47691   2
   2  19  -3 100.913 52.9813   1
  -2  19   3 64.2604 4.14847   2
   1 -19  -3 50.3150 27.2354   1
  -1 -19   3 -7.9189 23.1998   1
   1 -19  -3 2.81834 2.04935   3
  -1  19   3 9.70071 27.8293   1
   1  19  -3 2.43934 2.09168   2
   1  19  -3 36.2999 30.7879   1
   0 -19   3 13.0936 23.2244   1
   0 -19  -3 35.0630 4.36651   3
   0 -19  -3 -4.9228 23.5389   1
   0  19   3 51.6016 36.2466   1
   0  19  -3 45.5148 4.86707   2
   0  19  -3 47.4169 4.19243   2
   0  19  -3 17.5156 26.0509   1
   0  19  -3 47.1181 4.93612   3
   1 -19   3 87.5200 30.0966   1
  -1 -19  -3 30.7872 23.2513   1
  -1  19  -3 48.8435 5.21949   2
   1  19   3 35.9766 24.6446   1
  -1  19  -3 45.8938 30.7350   1
  -1  19  -3 46.0796 4.45607   2
  -1  19  -3 46.4393 4.45160   3
  -2 -19  -3 18.4919 2.37676   2
   2 -19   3 -12.976 65.4087   1
   2  19   3 16.8395 2.16568   2
  -2  19  -3 31.9238 31.0271   1
  -2  19  -3 16.7966 3.40878   2
  -3 -19  -3 17.3395 3.41190   2
   3  19   3 13.6166 2.85047   2
   4  19   3 -0.6890 3.49560   2
   5  19   3 6.03169 5.48800   2
   5  20  -3 16.4492 6.07145   2
   4  20  -3 5.19789 3.94730   2
   3 -20  -3 83.6896 5.94300   3
   3  20  -3 87.9740 7.20196   2
  -2 -20   3 125.367 37.0189   1
   2 -20  -3 126.938 6.68581   3
   2 -20  -3 80.5189 44.0090   1
  -2  20   3 119.164 5.45261   2
   2  20  -3 131.200 7.06396   2
   2  20  -3 97.8537 51.0438   1
   1 -20  -3 42.9558 4.62669   3
   1 -20  -3 38.2571 31.6631   1
  -1 -20   3 135.446 47.1884   1
   1  20  -3 47.7816 5.97279   3
  -1  20   3 11.1906 28.6052   1
   1  20  -3 65.1212 35.7582   1
   1  20  -3 45.2396 4.45010   2
   0 -20  -3 -28.331 25.6447   1
   0 -20   3 2.71250 25.3024   1
   0 -20  -3 5.66577 2.42250   3
   0  20  -3 2.27216 2.65711   3
   0  20  -3 -7.2808 29.6517   1
   0  20  -3 0.74822 2.46693   2
   0  20  -3 2.17434 1.92392   2
   0  20   3 11.2681 28.2433   1
   1 -20   3 -21.773 24.7103   1
  -1 -20  -3 6.26258 27.1633   1
  -1  20  -3 1.81072 2.79161   2
  -1  20  -3 -3.1408 2.25753   3
  -1  20  -3 15.0220 31.0544   1
  -1  20  -3 1.27573 2.16122   2
   2 -20   3 63.6511 35.1233   1
  -2  20  -3 97.1063 7.51904   2
   2  20   3 105.413 4.75208   2
  -2  20  -3 70.8238 35.0007   1
   3  20   3 6.86675 2.60494   2
   4  20   3 27.5957 5.41855   2
   4  21  -3 10.2158 4.30107   2
   3 -21  -3 276.208 11.0089   3
  -2 -21   3 143.183 54.8949   1
   2 -21  -3 92.0467 6.31597   3
  -2  21   3 96.2358 5.01981   2
   2  21  -3 106.048 6.77607   2
  -2  21   3 118.466 4.86581   2
   1 -21  -3 65.7449 5.39648   3
  -1 -21   3 39.9614 31.5607   1
   1  21  -3 66.7888 5.16173   2
   1  21  -3 110.012 38.6881   1
   0 -21  -3 50.3089 39.9902   1
   0 -21   3 39.0401 46.8513   1
   0  21  -3 18.1989 3.47954   3
   0  21  -3 23.2915 3.39495   2
   0  21  -3 21.6117 3.06532   2
   0  21  -3 -5.1880 35.4283   1
   1 -21   3 726.000 72.9329   1
  -1  21  -3 775.052 24.2440   3
  -1  21  -3 721.265 79.4250   1
  -1  21  -3 762.200 24.7142   2
  -1  21  -3 778.087 24.8128   2
   2  21   3 16.7165 2.18121   2
  -2  21  -3 12.5177 4.04569   2
  -2  21  -3 2.65456 36.7004   1
   3  21   3 5.01625 2.65146   2
   4  21   3 40.7470 8.82159   2
   4  22  -3 25.6852 5.17410   2
   3 -22  -3 73.7638 6.28999   3
   3  22  -3 63.2045 7.15828   2
   2 -22  -3 385.622 14.1306   3
   2  22  -3 381.134 14.4425   2
  -1 -22   3 164.878 41.4714   1
   1 -22  -3 191.130 8.80862   3
   1  22  -3 133.884 45.0953   1
   1  22  -3 183.719 8.46651   2
   0 -22   3 73.1124 46.9220   1
   0  22  -3 59.5544 5.07132   2
   0  22  -3 56.3902 6.18015   2
   0  22  -3 -23.462 35.5093   1
   0  22  -3 58.3637 6.56170   3
   1 -22   3 20.1595 57.7788   1
  -1  22  -3 25.3340 4.15110   2
  -1  22  -3 28.7327 3.58056   2
  -1  22  -3 30.2165 3.81781   3
  -1  22  -3 -24.633 34.0755   1
  -2  22  -3 486.152 16.9711   2
   2  22   3 435.982 14.4446   2
   3  22   3 111.121 6.58408   2
   4  23  -3 72.7500 9.29110   2
   3  23  -3 97.0699 8.09465   2
   2 -23  -3 4.28914 3.03010   3
   2  23  -3 4.46892 2.98781   2
  -1 -23   3 -23.109 37.0262   1
   1  23  -3 3.77977 2.55614   2
   0 -23   3 126.241 55.3802   1
   0  23  -3 168.556 7.98291   2
   0  23  -3 154.882 8.60321   2
   0  23  -3 146.493 46.2001   1
  -1  23  -3 367.330 14.0025   3
  -1  23  -3 395.237 14.1160   2
  -1  23  -3 362.088 14.4418   2
  -2  23  -3 16.4942 3.69555   2
   4  24  -3 8.15156 5.43598   2
   3  24  -3 84.2676 8.24362   2
   2  24  -3 1.00662 3.12208   2
   1  24  -3 5.48631 2.82072   2
   0 -24   3 -18.837 42.0270   1
   0  24  -3 9.90209 3.89936   2
   0  24  -3 3.98813 2.66341   2
  -1  24  -3 -7.9075 82.3728   1
  -1  24  -3 0.89250 2.75140   2
  -2  24  -3 3.35533 3.29509   2
   3  25  -3 20.5884 4.70631   2
   2  25  -3 78.3077 7.25393   2
   1  25  -3 26.5964 3.87928   2
   0  25  -3 6.71635 2.98346   2
  -1  25  -3 146.405 8.33359   2
  -2  25  -3 2.94854 4.34408   2
   3  26  -3 1.92914 4.55116   2
   2  26  -3 113.121 10.1107   2
   1  26  -3 69.3855 6.48770   2
   0  26  -3 24.6265 3.81157   2
  -1  26  -3 29.9161 4.34596   2
  -2  26  -3 138.438 9.07741   2
  -3  26  -3 28.0802 6.15407   2
   2  27  -3 13.4890 4.39322   2
   1  27  -3 12.5345 3.65381   2
   0  27  -3 117.256 7.78374   2
  -1  27  -3 276.907 12.1713   2
  -2  27  -3 82.1210 8.46386   2
   0  28  -3 7.40809 5.26081   2
   6   0  -4 30.8135 5.11547   2
   5   0  -4 4.28934 2.91515   2
  -5   0   4 8.89441 28.9094   1
   4   0  -4 1895.33 90.2740   1
   4   0  -4 1560.60 50.6083   2
  -4   0   4 1605.14 76.8055   1
  -3   0   4 2.18926 1.76028   2
   3   0  -4 -1.1557 10.8421   1
  -3   0   4 16.3620 10.0982   1
   2   0  -4 403.865 25.1556   1
   2   0  -4 430.025 13.7797   2
  -2   0   4 439.391 13.8762   2
  -2   0   4 415.931 24.7009   1
  -1   0   4 1.20583 0.81275   2
   1   0  -4 0.02983 0.68341   2
   1   0  -4 -2.3353 3.12968   1
  -1   0   4 -0.2726 3.47531   1
   1   0   4 -0.9398 2.18182   1
  -1   0  -4 3.05031 0.89404   2
   1   0   4 4.54717 0.99025   2
   2   0   4 131.402 12.9694   1
  -2   0  -4 139.319 4.92888   3
   2   0   4 140.425 5.77266   2
  -2   0  -4 166.547 13.8693   1
  -2   0  -4 144.213 5.73908   2
  -3   0  -4 -0.4699 1.47647   2
  -3   0  -4 11.4957 9.76881   1
   3   0   4 0.55346 1.32067   2
   3   0   4 -9.2630 9.85761   1
  -4   0  -4 363.929 14.1416   2
   4   0   4 324.420 36.4345   1
  -4   0  -4 380.259 37.4309   1
   4   0   4 368.200 13.9321   2
   5   0   4 -0.8331 3.17513   2
   6   0   4 4.63307 4.95301   2
   6  -1  -4 12.9827 4.84060   2
   6   1  -4 11.5347 4.70617   2
   5  -1  -4 75.6934 6.55613   2
  -5  -1   4 55.6143 29.0852   1
  -5   1   4 57.1754 28.1797   1
   5   1  -4 70.8926 6.70442   2
  -4  -1   4 89.0890 21.3688   1
   4  -1  -4 80.6945 5.75745   2
  -4  -1   4 98.1100 6.57881   2
   4  -1  -4 115.571 31.7713   1
  -4   1   4 61.8399 19.2479   1
   4   1  -4 122.268 29.6330   1
  -4   1   4 72.6556 6.37010   2
  -3  -1   4 1297.95 57.6464   1
   3  -1  -4 1293.99 39.0577   2
  -3  -1   4 1334.60 39.2939   2
   3  -1  -4 1257.00 58.6475   1
  -3   1   4 1297.24 57.6620   1
  -3   1   4 1296.52 39.1434   2
   3   1  -4 1269.07 39.1794   2
   3   1  -4 1248.76 58.0664   1
  -2  -1   4 389.189 12.6999   2
   2  -1  -4 366.369 12.3699   2
  -2  -1   4 367.002 23.3070   1
   2  -1  -4 440.785 28.0056   1
   2   1  -4 378.050 12.6005   2
  -2   1   4 377.495 12.5133   2
   2   1  -4 375.793 23.9538   1
   1  -1  -4 142.369 11.3236   1
  -1  -1   4 145.493 5.57761   2
  -1  -1   4 150.565 11.5913   1
   1  -1  -4 153.718 5.35967   2
   1   1  -4 149.912 11.5236   1
  -1   1   4 146.657 5.41988   2
  -1   1   4 156.079 11.3404   1
   1   1  -4 150.258 5.56412   2
   0  -1   4 1832.33 55.8103   1
   0   1  -4 1840.90 56.7760   1
  -1  -1  -4 1213.69 36.4430   2
  -1  -1  -4 1271.44 39.3502   1
   1  -1   4 1219.99 40.6860   1
  -1  -1  -4 1210.54 36.2088   3
   1  -1   4 1236.43 36.7284   2
   1  -1   4 1269.70 39.9731   1
   1   1   4 1243.96 36.5784   2
   1   1   4 1260.36 39.3003   1
  -1   1  -4 1215.08 36.6152   2
  -2  -1  -4 153.885 5.92222   2
  -2  -1  -4 154.429 13.6974   1
   2  -1   4 150.332 6.07901   2
  -2  -1  -4 147.261 5.24149   3
   2  -1   4 134.228 13.3623   1
  -2   1  -4 145.935 6.51762   2
   2   1   4 152.680 13.1386   1
  -2   1  -4 146.217 14.3994   1
   2   1   4 149.886 5.96516   2
   3  -1   4 46.2401 12.1448   1
  -3  -1  -4 43.5886 3.97498   2
   3  -1   4 49.6872 3.92130   2
  -3  -1  -4 50.4629 12.8132   1
  -3   1  -4 31.7567 10.8746   1
   3   1   4 49.0521 11.4377   1
  -3   1  -4 50.9417 4.19449   2
   3   1   4 44.8663 3.69318   2
   4  -1   4 387.861 14.5271   2
  -4  -1  -4 365.362 14.5460   2
   4  -1   4 334.727 36.4414   1
  -4  -1  -4 385.187 36.7665   1
  -4   1  -4 378.676 15.5712   2
  -4   1  -4 441.138 38.9288   1
   4   1   4 395.906 14.5039   2
   4   1   4 384.039 37.3855   1
   5   1   4 3.66386 3.25601   2
   6  -1   4 24.3379 6.24515   2
   6   1   4 19.4099 5.27754   2
   6  -2  -4 18.2322 5.39849   2
   6   2  -4 13.4086 4.92356   2
  -5  -2   4 1.79959 27.4586   1
   5  -2  -4 25.5173 3.71549   2
  -5   2   4 46.2459 31.2714   1
   5   2  -4 28.4837 4.41445   2
  -4  -2   4 98.1252 22.2145   1
   4  -2  -4 153.438 29.4411   1
   4  -2  -4 121.470 6.60697   2
  -4  -2   4 125.343 7.46280   2
   4   2  -4 124.438 25.9807   1
  -4   2   4 97.3746 22.1175   1
  -4   2   4 121.871 7.25580   2
   4   2  -4 114.083 6.72504   2
   3  -2  -4 536.148 17.5866   2
  -3  -2   4 562.946 35.6872   1
  -3  -2   4 540.302 17.8982   2
   3  -2  -4 555.939 36.4855   1
  -3   2   4 540.481 17.7312   2
  -3   2   4 556.500 35.6835   1
   3   2  -4 503.003 35.5011   1
   3   2  -4 532.366 17.8806   2
   2  -2  -4 12.1618 7.50498   1
  -2  -2   4 26.5757 7.68875   1
  -2  -2   4 20.9337 2.43527   2
   2  -2  -4 17.0121 2.04433   2
   2   2  -4 17.6538 2.36324   2
  -2   2   4 18.0445 2.27664   2
  -2   2   4 8.75531 6.77195   1
   2   2  -4 17.5278 7.54230   1
   1  -2  -4 467.483 21.9577   1
   1  -2  -4 479.043 14.5210   2
  -1  -2   4 475.515 22.0577   1
  -1  -2   4 469.192 14.9583   2
   1   2  -4 469.791 14.9716   2
   1   2  -4 457.273 22.1964   1
  -1   2   4 492.696 21.9976   1
  -1   2   4 481.386 14.6503   2
   0  -2   4 205.976 10.3313   1
   0  -2  -4 208.673 9.13260   1
   0  -2  -4 202.554 9.83829   1
   0   2  -4 206.714 11.5458   1
  -1  -2  -4 5126.95 145.690   1
   1  -2   4 4726.69 142.548   2
   1  -2   4 5022.33 146.831   1
  -1  -2  -4 4649.24 142.104   2
   1  -2   4 5233.29 148.854   1
  -1   2  -4 4782.23 142.460   2
   1   2   4 4998.03 145.887   1
  -2  -2  -4 119.915 12.8300   1
   2  -2   4 130.649 13.4700   1
   2  -2   4 120.794 5.34800   2
  -2  -2  -4 128.456 5.14180   2
  -2  -2  -4 120.068 4.65463   3
   2   2   4 118.198 13.2074   1
   2   2   4 124.231 5.22382   2
  -3  -2  -4 312.256 11.3260   2
   3  -2   4 330.640 25.8118   1
  -3  -2  -4 322.226 24.9691   1
   3  -2   4 303.025 11.4546   2
  -3   2  -4 308.618 11.4857   2
   3   2   4 306.735 11.3271   2
   3   2   4 350.696 26.4894   1
   3   2   4 314.222 10.3550   3
  -4  -2  -4 8.42102 17.2215   1
   4  -2   4 -14.776 12.6537   1
  -4  -2  -4 4.39559 2.99393   2
  -4   2  -4 18.3353 5.29584   2
   4   2   4 -11.924 15.9860   1
   4   2   4 12.5590 2.78993   2
   5  -2   4 915.681 31.2198   2
   5   2   4 941.952 31.3338   2
   6  -2   4 0.59636 5.41509   2
   6   2   4 6.49292 5.27626   2
   6  -3  -4 9.73591 4.60758   2
   6   3  -4 15.1390 4.97942   2
   5  -3  -4 58.5159 6.16751   2
   5   3  -4 59.1177 6.54285   2
  -5   3   4 40.9637 44.5061   1
  -4  -3   4 60.6615 19.5614   1
   4  -3  -4 102.379 5.88537   2
   4  -3  -4 80.3956 24.9998   1
  -4  -3   4 78.9455 6.56419   2
  -4   3   4 89.6545 21.9651   1
  -4   3   4 96.5231 6.47319   2
   4   3  -4 77.1967 5.95101   2
   4   3  -4 63.8555 21.4221   1
   3  -3  -4 367.646 31.1514   1
  -3  -3   4 363.935 12.9036   2
   3  -3  -4 355.829 12.4218   2
   3   3  -4 351.051 12.8432   2
  -3   3   4 369.528 30.9074   1
   3   3  -4 386.112 31.0172   1
  -3   3   4 360.918 12.6350   2
   2  -3  -4 325.410 10.7843   2
  -2  -3   4 338.783 11.3274   2
   2  -3  -4 338.794 23.8407   1
  -2  -3   4 323.660 22.2438   1
  -2   3   4 317.333 22.1050   1
   2   3  -4 326.382 23.2182   1
  -2   3   4 331.380 10.9422   2
   2   3  -4 330.417 11.2999   2
   1  -3  -4 452.063 13.7054   2
  -1  -3   4 446.796 14.3393   2
   1  -3  -4 445.849 21.7835   1
  -1  -3   4 434.419 21.6104   1
   1   3  -4 439.260 22.3334   1
   1   3  -4 453.442 14.4084   2
  -1   3   4 451.422 13.8402   2
  -1   3   4 465.233 21.8330   1
   0  -3  -4 3066.12 93.7512   1
   0  -3   4 3075.78 94.0366   1
   0   3  -4 3034.60 96.0330   1
   1  -3   4 108.360 9.61493   1
  -1  -3  -4 115.855 8.21842   1
  -1  -3  -4 118.779 4.39474   3
   1  -3   4 85.9967 11.1302   1
  -1  -3  -4 115.082 4.21359   2
  -1   3  -4 109.910 4.66841   2
   1   3   4 109.977 9.14218   1
   1   3   4 118.025 4.35497   2
   2  -3   4 159.247 16.8214   1
  -2  -3  -4 172.439 6.16028   3
  -2  -3  -4 173.369 6.42353   2
   2  -3   4 168.533 6.75551   2
   2  -3   4 167.435 15.2155   1
  -2  -3  -4 167.875 14.6753   1
  -2   3  -4 169.916 6.79813   2
   2   3   4 174.568 6.52758   2
   2   3   4 171.931 14.9972   1
   2   3   4 169.290 6.06729   3
   3  -3   4 5.13771 10.0016   1
  -3  -3  -4 7.49971 1.89074   2
   3  -3   4 6.85450 1.93455   2
  -3  -3  -4 0.42300 9.14846   1
   3   3   4 9.64019 1.65214   3
  -3   3  -4 8.94345 2.06588   2
   3   3   4 17.9539 11.0310   1
   3   3   4 7.21151 1.77557   2
  -4  -3  -4 880.741 52.7962   1
   4  -3   4 887.960 29.0770   2
  -4  -3  -4 904.459 28.9831   2
   4  -3   4 861.018 53.1741   1
   4   3   4 891.864 27.4233   3
   4   3   4 925.424 54.4761   1
   4   3   4 898.829 28.9654   2
   6  -3   4 23.4786 5.83686   2
   6   3   4 22.8865 5.84326   2
   6  -4  -4 32.7735 5.53378   2
   6   4  -4 30.8979 5.92665   2
   5  -4  -4 9.25850 3.38050   2
   5   4  -4 8.93055 3.63374   2
  -5   4   4 19.7619 48.0937   1
   4  -4  -4 701.982 23.5931   2
   4  -4  -4 689.808 52.6358   1
  -4  -4   4 726.384 51.1620   1
  -4  -4   4 738.822 24.3073   2
   4   4  -4 712.638 24.2171   2
  -4   4   4 737.747 23.9901   2
  -4   4   4 792.960 52.1666   1
   3  -4  -4 42.4814 14.7961   1
  -3  -4   4 83.1990 5.27648   2
  -3  -4   4 64.6970 16.2353   1
   3  -4  -4 85.7122 4.55634   2
  -3   4   4 107.036 24.0970   1
   3   4  -4 76.2695 5.01652   2
   3   4  -4 93.2311 18.7832   1
  -3   4   4 83.4853 4.89786   2
   2  -4  -4 268.141 9.02038   2
  -2  -4   4 261.887 20.7620   1
  -2  -4   4 271.323 9.75554   2
   2  -4  -4 283.015 22.2291   1
  -2   4   4 263.103 20.8586   1
   2   4  -4 271.801 21.8512   1
   2   4  -4 263.699 9.64986   2
  -2   4   4 273.525 9.20912   2
  -1  -4   4 418.671 21.8572   1
   1  -4  -4 433.642 22.0002   1
  -1  -4   4 449.139 14.1766   2
   1  -4  -4 435.194 13.3683   2
   1   4  -4 443.909 14.2179   2
   1   4  -4 452.847 23.0278   1
  -1   4   4 430.540 13.4262   2
   0  -4  -4 2833.35 90.0639   2
   0  -4  -4 3202.98 98.2021   1
   0  -4  -4 3002.29 90.0065   2
   0  -4   4 3246.71 98.3950   1
   0   4  -4 3225.56 100.769   1
   0   4   4 3263.33 96.3880   1
  -1  -4  -4 746.982 22.5211   3
   1  -4   4 743.025 31.8529   1
  -1  -4  -4 745.397 22.1960   2
  -1  -4  -4 768.451 28.0542   1
  -1   4  -4 719.669 22.7868   2
   1   4   4 737.497 28.9231   1
   1   4   4 760.443 22.3284   2
   2  -4   4 75.6763 4.09229   2
   2  -4   4 93.1544 14.7113   1
  -2  -4  -4 63.7224 12.0082   1
  -2  -4  -4 72.6610 3.65010   2
   2  -4   4 90.4689 13.2084   1
  -2  -4  -4 71.3183 3.57734   3
   2   4   4 74.2472 3.55534   3
  -2   4  -4 73.4802 4.08339   2
   2   4   4 75.8923 3.73013   2
   2   4   4 63.6569 12.3222   1
   3  -4   4 216.611 24.8596   1
  -3  -4  -4 234.710 8.82730   2
   3  -4   4 212.044 24.1318   1
  -3  -4  -4 229.782 23.0837   1
   3  -4   4 229.679 9.13025   2
   3   4   4 226.264 8.16696   3
   3   4   4 204.458 24.1231   1
  -3   4  -4 220.645 9.11672   2
   3   4   4 223.992 8.76241   2
   4  -4   4 119.940 26.0251   1
   4  -4   4 142.770 8.05724   2
  -4  -4  -4 158.835 8.46982   2
  -4  -4  -4 147.814 24.8300   1
   4  -4   4 128.140 23.9883   1
   4   4   4 144.978 24.6832   1
   4   4   4 176.305 8.20404   2
   4   4   4 145.829 7.01987   3
   5  -4   4 164.117 9.99481   2
   5   4   4 168.055 9.85393   2
   6  -4   4 1.12480 5.28329   2
   6   4   4 4.84558 5.09914   2
   6  -5  -4 10.6315 4.60767   2
   6   5  -4 8.04027 5.05068   2
   5  -5  -4 80.0542 6.59529   2
   5   5  -4 85.6078 7.43412   2
  -4  -5   4 2.62327 2.62081   2
   4  -5  -4 28.6416 30.4110   1
  -4  -5   4 -26.154 23.2166   1
   4  -5  -4 2.24595 2.09090   2
  -4   5   4 -0.0978 2.62467   2
   4   5  -4 -12.158 18.4611   1
  -4   5   4 18.4285 17.2052   1
   3  -5  -4 1889.84 59.5470   2
  -3  -5   4 1911.81 79.9645   1
   3   5  -4 2366.72 92.0392   1
  -3   5   4 2009.52 81.4132   1
  -3   5   4 1968.44 59.7980   2
   2  -5  -4 5.05014 1.06429   2
  -2  -5   4 -0.6144 7.17624   1
   2  -5  -4 2.53613 7.98079   1
   2   5  -4 7.48040 8.14293   1
  -2   5   4 4.27098 1.19798   2
   2   5  -4 6.43203 1.62134   2
  -2   5   4 24.0508 14.2873   1
   1  -5  -4 195.479 15.4909   1
  -1  -5   4 187.910 14.9508   1
   1  -5  -4 189.704 15.0632   1
  -1  -5   4 172.745 6.80693   2
   1   5  -4 171.856 6.89399   2
   1   5  -4 194.024 16.0019   1
  -1   5   4 175.103 6.00468   2
   0  -5  -4 7.82936 1.06468   2
   0  -5  -4 9.24538 0.93996   2
   0  -5  -4 11.3455 5.98126   1
   0  -5   4 7.45196 4.46402   1
   0   5  -4 11.5075 5.69134   1
   0   5   4 9.13436 4.22240   1
  -1  -5  -4 1717.45 50.6868   3
  -1  -5  -4 1721.93 50.2072   2
  -1  -5  -4 1761.23 57.9241   1
   1  -5   4 1762.85 62.7564   1
   1   5   4 1740.39 59.2318   1
   1   5   4 1768.01 50.3556   2
  -1   5  -4 1617.97 59.5786   1
  -1   5  -4 1722.01 50.9891   2
   2  -5   4 4.67534 1.47055   2
   2  -5   4 -3.6036 6.69589   1
  -2  -5  -4 4.84887 1.22657   2
  -2  -5  -4 1.74439 6.32063   1
   2  -5   4 6.38762 6.69151   1
  -2  -5  -4 4.61054 1.25361   3
   2   5   4 3.06299 1.23115   3
   2   5   4 0.79287 7.04189   1
  -2   5  -4 4.08869 1.48896   2
   2   5   4 6.33389 1.29282   2
  -3  -5  -4 30.3929 3.52689   2
  -3  -5  -4 11.2135 10.6990   1
   3  -5   4 19.3509 10.6638   1
   3  -5   4 16.1584 11.9388   1
   3  -5   4 20.0846 2.75508   2
   3   5   4 21.6298 3.01578   3
  -3   5  -4 15.2753 2.66860   2
   3   5   4 20.8403 3.04352   2
   3   5   4 24.1416 11.5249   1
   4  -5   4 53.8915 22.3013   1
  -4  -5  -4 22.7749 3.68451   2
   4  -5   4 20.6302 3.36813   2
  -4  -5  -4 8.09314 17.7251   1
   4   5   4 19.0800 3.01847   3
   4   5   4 50.7818 28.2623   1
   4   5   4 32.2772 4.68852   2
   5  -5   4 10.7249 3.89289   2
   5   5   4 1.32427 3.40363   2
   6  -5   4 -5.7483 5.12929   2
   6   5   4 5.24668 5.40186   2
   6  -6  -4 35.7722 5.70114   2
   6   6  -4 39.7581 6.39428   2
   5  -6  -4 1.96595 2.97885   2
   5   6  -4 -1.3415 2.89430   2
  -4  -6   4 810.753 27.0001   2
   4  -6  -4 821.822 26.1042   2
   4  -6  -4 653.902 65.1603   1
   4   6  -4 827.204 27.0092   2
   4   6  -4 835.657 58.6280   1
  -4   6   4 855.534 26.5310   2
  -3  -6   4 398.888 38.9563   1
   3  -6  -4 326.221 11.6147   2
  -3  -6   4 331.113 12.4360   2
   3  -6  -4 349.516 34.1112   1
   3   6  -4 382.208 33.6042   1
  -3   6   4 330.589 11.8953   2
   3   6  -4 329.857 12.4716   2
   2  -6  -4 326.953 25.3715   1
  -2  -6   4 339.360 11.8367   2
   2  -6  -4 341.420 10.9573   2
   2   6  -4 342.994 11.9595   2
   2   6  -4 340.559 26.0889   1
  -2   6   4 345.358 11.1816   2
   1  -6  -4 128.990 14.5515   1
  -1  -6   4 106.734 13.4036   1
   1  -6  -4 101.926 13.8365   1
  -1  -6   4 124.489 5.25789   2
   1  -6  -4 113.808 4.05079   2
   1   6  -4 119.151 5.30002   2
   1   6  -4 103.577 14.4813   1
  -1   6   4 121.062 4.19936   2
   0  -6  -4 1340.87 40.7887   3
   0  -6   4 1406.87 52.2187   1
   0  -6  -4 1417.51 52.9622   1
   0   6   4 1460.27 50.7595   1
   0   6  -4 1320.77 41.3388   2
   0   6  -4 1383.65 54.7782   1
  -1  -6  -4 1709.50 58.2687   1
  -1  -6  -4 1669.11 49.0324   3
   1  -6   4 1664.36 62.9579   1
  -1  -6  -4 1627.43 48.3489   2
   1   6   4 1680.14 59.5680   1
  -1   6  -4 1616.41 60.2041   1
   1   6   4 1698.80 48.5067   2
  -1   6  -4 1645.80 49.2794   2
   2  -6   4 176.064 18.4521   1
   2  -6   4 208.610 20.8103   1
  -2  -6  -4 200.875 6.98768   2
   2  -6   4 185.957 7.57222   2
  -2  -6  -4 168.928 16.5174   1
  -2  -6  -4 185.679 7.14587   3
   2   6   4 194.267 7.15518   3
   2   6   4 179.633 18.3493   1
  -2   6  -4 204.562 7.69329   2
   2   6   4 199.361 7.06474   2
  -3  -6  -4 69.3891 4.47891   2
   3  -6   4 73.2891 4.80326   2
  -3  -6  -4 65.3600 14.8381   1
   3  -6   4 41.1950 13.6917   1
   3  -6   4 69.0297 16.8100   1
   3   6   4 75.7710 4.39638   3
   3   6   4 79.0468 15.8025   1
   3   6   4 69.9274 4.42020   2
  -3   6  -4 75.9871 5.29457   2
  -4  -6  -4 59.1440 6.22288   2
  -4  -6  -4 39.9507 17.9312   1
   4   6   4 43.7687 5.23775   3
   4   6   4 49.1446 5.38653   2
   5  -6   4 334.231 14.5794   2
   5   6   4 326.636 14.3155   2
   6  -6   4 20.0553 6.17609   2
   6   6   4 16.7672 6.26798   2
   6  -7  -4 6.57026 4.64331   2
   6   7  -4 0.00351 4.97849   2
   5  -7  -4 -0.5675 2.68072   2
   5   7  -4 0.72866 2.87257   2
   4  -7  -4 53.9605 4.77695   2
  -4  -7   4 49.2995 27.4400   1
   4  -7  -4 55.1357 25.0269   1
  -4  -7   4 50.5952 6.99086   2
   4   7  -4 61.2337 25.3075   1
   4   7  -4 75.3266 6.18416   2
  -4   7   4 55.4478 6.01819   2
   3  -7  -4 47.2297 22.2205   1
  -3  -7   4 15.4532 2.69498   2
   3  -7  -4 15.3692 2.13085   2
  -3  -7   4 13.6059 13.3089   1
   3   7  -4 17.2540 25.2403   1
  -3   7   4 15.5313 2.36169   2
   3   7  -4 14.5320 2.48259   2
  -2  -7   4 182.469 20.1563   1
   2  -7  -4 168.246 21.5973   1
   2  -7  -4 180.883 6.48165   2
  -2  -7   4 199.264 7.61274   2
   2  -7  -4 196.822 21.3307   1
  -2   7   4 186.789 6.74402   2
   2   7  -4 178.772 7.54810   2
  -1  -7   4 72.0302 13.0489   1
   1  -7  -4 73.0986 2.73531   2
   1  -7  -4 75.0266 13.8209   1
  -1  -7   4 74.5581 4.05258   2
   1   7  -4 85.6059 14.8427   1
   1   7  -4 70.9257 4.14182   2
  -1   7   4 78.0540 2.95986   2
   0  -7   4 1583.07 59.8086   1
   0  -7  -4 1548.98 46.3636   3
   0  -7  -4 1613.58 60.7675   1
   0   7  -4 1558.12 62.3827   1
   0   7  -4 1540.81 46.9246   2
   0   7   4 1619.53 58.2700   1
   1  -7   4 135.982 18.8185   1
  -1  -7  -4 149.702 14.8888   1
  -1  -7  -4 151.233 5.03877   2
  -1  -7  -4 146.134 5.95909   3
  -1   7  -4 153.899 17.1177   1
   1   7   4 133.043 16.6144   1
  -1   7  -4 151.678 6.17207   2
   1   7   4 153.757 5.21128   2
   2  -7   4 325.013 25.2346   1
   2  -7   4 422.642 29.2435   1
  -2  -7  -4 383.329 24.5304   1
   2  -7   4 400.970 13.7499   2
  -2  -7  -4 434.675 13.0413   2
  -2  -7  -4 398.971 13.3363   3
   2   7   4 407.977 13.3989   3
  -2   7  -4 419.056 13.7844   2
   2   7   4 420.826 13.1038   2
   2   7   4 395.658 26.3586   1
   3  -7   4 -3.2147 12.9272   1
  -3  -7  -4 8.54345 11.9561   1
   3  -7   4 4.51463 12.6013   1
  -3  -7  -4 5.56020 1.93858   2
   3  -7   4 7.80262 2.18433   2
   3   7   4 3.66647 12.0199   1
  -3   7  -4 3.66469 2.20596   2
   3   7   4 4.97152 1.97288   3
   3   7   4 3.47637 1.61950   2
   4  -7   4 1181.70 37.0328   2
  -4  -7  -4 1156.80 36.4739   2
  -4  -7  -4 1114.12 70.0409   1
   4   7   4 1179.90 35.9559   3
   4   7   4 1157.13 36.5148   2
   5  -7   4 4.89270 3.84444   2
   5   7   4 12.1950 3.99048   2
   6  -7   4 27.2716 6.53272   2
   6   7   4 26.0870 6.29289   2
   6  -8  -4 1.53584 4.43400   2
   6   8  -4 -2.5930 5.23927   2
   5  -8  -4 6.80175 3.02212   2
   5   8  -4 4.41114 3.28068   2
   4  -8  -4 175.883 29.9008   1
  -4  -8   4 174.107 27.5520   1
   4  -8  -4 180.577 31.1890   1
   4  -8  -4 178.642 7.95715   2
  -4   8   4 158.369 8.60411   2
   4   8  -4 171.407 9.03010   2
   3  -8  -4 623.306 20.7836   2
  -3  -8   4 661.805 43.4049   1
   3  -8  -4 664.800 46.2700   1
   3  -8  -4 629.745 43.5163   1
   3   8  -4 799.683 54.2086   1
  -3   8   4 684.060 21.2389   2
   3   8  -4 648.374 21.9812   2
   2  -8  -4 12.6811 10.7604   1
  -2  -8   4 10.0282 1.81451   2
  -2  -8   4 16.9064 9.52024   1
   2  -8  -4 39.0314 21.4649   1
   2  -8  -4 9.28588 1.26898   2
   2   8  -4 0.36669 9.62999   1
  -2   8   4 12.1289 1.56871   2
   2   8  -4 8.47528 1.85980   2
  -1  -8   4 537.436 30.3013   1
  -1  -8   4 566.708 17.4815   2
   1  -8  -4 514.113 30.4531   1
   1  -8  -4 540.134 15.8694   2
  -1   8   4 533.738 16.0099   2
   1   8  -4 521.363 17.4497   2
   1   8  -4 544.386 32.0449   1
   0  -8  -4 337.118 11.2022   3
   0  -8  -4 326.519 24.7829   1
   0  -8   4 314.807 23.3799   1
   0   8  -4 343.374 26.3171   1
   0   8  -4 365.828 11.8048   2
  -1  -8  -4 2241.71 64.8425   2
  -1  -8  -4 2219.15 65.8331   3
   1  -8   4 2290.30 84.7648   1
  -1  -8  -4 2257.16 79.1096   1
  -1   8  -4 2202.51 66.0010   2
  -1   8  -4 2259.62 82.2730   1
   1   8   4 2328.35 81.0012   1
   1   8   4 2153.33 64.9718   2
  -2  -8  -4 24.8388 9.84273   1
   2  -8   4 1.54588 9.98302   1
  -2  -8  -4 27.1021 2.45780   2
  -2  -8  -4 22.3485 2.80400   3
   2  -8   4 22.9548 3.02511   2
   2  -8   4 20.9660 11.6216   1
   2   8   4 25.4514 11.3957   1
   2   8   4 21.7128 2.27160   2
   2   8   4 27.3217 2.96212   3
  -2   8  -4 20.4034 2.56991   2
   3  -8   4 208.008 30.8351   1
  -3  -8  -4 267.852 9.64430   2
  -3  -8  -4 237.253 26.7990   1
   3  -8   4 250.054 10.1560   2
   3   8   4 252.268 9.74206   3
  -3   8  -4 261.108 10.4335   2
   3   8   4 246.470 9.51641   2
   3   8   4 265.520 30.5594   1
  -4  -8  -4 81.3941 7.13133   2
   4  -8   4 61.6257 6.40725   2
   4   8   4 77.7229 6.50424   3
   5  -8   4 441.681 17.6993   2
   5   8   4 417.388 17.1359   2
   6  -8   4 7.76603 6.36076   2
   6   8   4 13.6917 6.25407   2
   6  -9  -4 1.40001 4.38423   2
   6   9  -4 -2.6122 5.50681   2
   5  -9  -4 122.631 7.73451   2
   5   9  -4 102.134 8.62787   2
  -4  -9   4 49.5146 21.2120   1
   4  -9  -4 25.5437 22.8656   1
   4  -9  -4 53.7267 4.79688   2
   4  -9  -4 29.9079 28.2048   1
  -4   9   4 52.7824 6.07644   2
   4   9  -4 34.6440 4.35932   2
   4   9  -4 49.2925 35.8040   1
   3  -9  -4 1521.50 46.2770   2
  -3  -9   4 1484.70 85.9574   1
   3  -9  -4 1528.79 71.2659   1
  -3  -9   4 1580.76 47.4299   2
   3   9  -4 1543.43 47.5800   2
  -3   9   4 1598.31 46.6001   2
   3   9  -4 1599.36 74.4275   1
   2  -9  -4 2.23231 0.96060   2
  -2  -9   4 -3.0364 9.85458   1
   2  -9  -4 -8.3808 13.9259   1
   2  -9  -4 3.58208 8.54846   1
  -2  -9   4 0.29806 1.53109   2
   2   9  -4 2.88392 1.59962   2
  -2   9   4 1.21930 1.12136   2
   2   9  -4 -2.2354 19.1000   1
   1  -9  -4 506.864 31.1855   1
  -1  -9   4 528.529 16.8114   2
  -1  -9   4 504.154 30.6296   1
   1   9  -4 487.164 32.6731   1
   1   9  -4 507.980 16.8104   2
  -1   9   4 515.270 15.1807   2
   0  -9   4 520.011 31.5254   1
   0  -9  -4 524.665 16.3637   3
   0  -9  -4 506.475 33.6825   1
   0   9  -4 513.020 16.7839   2
   0   9  -4 511.027 33.6757   1
  -1  -9  -4 1005.47 30.5624   3
  -1  -9  -4 1039.07 45.5628   1
  -1  -9  -4 997.808 29.3738   2
   1   9   4 1045.15 46.6780   1
   1   9   4 869.619 30.2161   2
   1   9   4 1056.44 30.5309   3
  -1   9  -4 1038.71 48.6179   1
   2  -9   4 36.3490 13.9856   1
  -2  -9  -4 42.9871 3.41871   3
  -2  -9  -4 25.7458 8.87568   1
  -2  -9  -4 42.8347 2.88511   2
   2   9   4 42.8041 3.54543   3
   2   9   4 47.6771 2.88958   2
  -2   9  -4 47.8885 3.97512   2
   2   9   4 32.3111 12.3758   1
   3  -9   4 52.5986 16.6769   1
   3  -9   4 86.4203 5.53148   2
  -3  -9  -4 85.0463 5.19139   2
  -3  -9  -4 90.4825 17.2439   1
   3  -9   4 76.6779 19.3072   1
  -3   9  -4 80.1956 6.03772   2
   3   9   4 81.5871 5.48142   3
   3   9   4 99.7065 5.07281   2
   3   9   4 83.3772 18.4271   1
  -4  -9  -4 209.188 10.0124   2
   4   9   4 212.074 9.64357   2
   4   9   4 206.372 9.86180   3
   5  -9   4 15.3541 4.49249   2
   5   9   4 22.1362 4.34272   2
   6  -9   4 12.3156 7.12705   2
   6   9   4 -5.7249 5.62987   2
   6 -10  -4 27.1555 5.75277   2
   6  10  -4 28.2591 6.89957   2
   5 -10  -4 14.1254 3.57337   2
   5  10  -4 16.9997 4.63977   2
   4 -10  -4 808.224 26.3476   2
  -4 -10   4 863.291 60.8588   1
   4 -10  -4 756.935 67.3107   1
   4 -10  -4 787.490 59.9733   1
   4  10  -4 825.684 27.8683   2
  -4  10   4 831.419 26.8692   2
   4  10  -4 940.378 67.4615   1
   3 -10  -4 40.6985 16.8747   1
  -3 -10   4 120.062 27.0131   1
   3 -10  -4 73.7296 4.33666   2
  -3 -10   4 74.6527 5.80481   2
  -3  10   4 67.2777 4.77197   2
   3  10  -4 78.0748 5.84599   2
   3  10  -4 133.243 34.9671   1
  -2 -10   4 228.487 8.90862   2
   2 -10  -4 220.521 26.7070   1
   2 -10  -4 215.041 7.44672   2
  -2 -10   4 211.772 25.6303   1
   2 -10  -4 243.367 29.0131   1
   2  10  -4 260.192 34.7991   1
   2  10  -4 216.045 8.94284   2
  -2  10   4 216.282 7.68102   2
  -1 -10   4 82.4998 15.3349   1
   1 -10  -4 79.0404 3.81416   3
   1 -10  -4 60.9291 13.8943   1
   1  10  -4 61.1239 13.5895   1
   1  10  -4 81.5026 4.58818   2
  -1  10   4 66.9194 12.4017   1
   0 -10  -4 2000.77 58.0612   3
   0 -10   4 1978.78 77.7242   1
   0 -10  -4 1856.68 84.1224   1
   0  10  -4 2085.48 81.2781   1
   0  10  -4 1923.26 58.4222   2
  -1 -10  -4 229.995 8.51528   3
  -1 -10  -4 220.389 7.11585   2
   1 -10   4 212.000 26.9456   1
  -1 -10  -4 219.594 22.9548   1
  -1  10  -4 212.221 8.58349   2
  -1  10  -4 217.606 25.8672   1
  -1  10  -4 234.995 7.27401   3
   1  10   4 236.242 8.47868   3
   1  10   4 231.925 24.0023   1
   2 -10   4 90.5427 17.9261   1
  -2 -10  -4 99.2689 5.13589   3
  -2 -10  -4 102.530 4.40625   2
   2  10   4 99.9121 4.39199   2
   2  10   4 100.377 16.6888   1
   2  10   4 98.5523 5.21527   3
  -2  10  -4 95.1867 5.50316   2
  -3 -10  -4 11.7494 2.36367   2
  -3 -10  -4 1.80457 13.2830   1
   3 -10   4 2.89413 16.5275   1
   3 -10   4 11.0528 2.58298   2
  -3  10  -4 6.48025 2.77111   2
   3  10   4 12.6616 2.63205   3
   3  10   4 11.1028 2.05125   2
   3  10   4 -0.2020 15.5146   1
   4 -10   4 73.5870 7.02312   2
  -4 -10  -4 51.3117 6.63882   2
   4  10   4 58.5313 7.03572   3
   4  10   4 71.4944 5.94453   2
   5 -10   4 30.1233 5.02132   2
   5  10   4 20.0226 4.42782   2
   6  10   4 -2.4402 6.13482   2
   6 -11  -4 14.5890 5.26100   2
   6  11  -4 11.3417 6.45205   2
   5 -11  -4 8.85835 3.26241   2
   5  11  -4 8.29040 3.92314   2
  -4 -11   4 26.7715 30.1237   1
   4 -11  -4 35.6926 4.42532   2
   4 -11  -4 16.2393 30.7389   1
   4 -11  -4 22.5172 29.9445   1
   4  11  -4 35.1572 27.4384   1
   4  11  -4 41.7472 6.03180   2
  -4  11   4 30.8578 4.13002   2
  -3 -11   4 366.963 39.2341   1
   3 -11  -4 378.640 44.1502   1
   3 -11  -4 390.431 13.3200   2
   3 -11  -4 461.514 49.2662   1
  -3 -11   4 408.574 14.7847   2
  -3  11   4 396.587 13.6630   2
   3  11  -4 392.546 14.8751   2
   3  11  -4 479.876 53.7306   1
  -2 -11   4 187.713 30.9551   1
   2 -11  -4 186.208 34.8179   1
   2 -11  -4 137.374 5.29953   2
   2 -11  -4 207.555 33.9668   1
  -2 -11   4 147.061 6.93410   2
   2  11  -4 208.578 36.9829   1
  -2  11   4 136.158 5.55885   2
   2  11  -4 142.177 6.96582   2
   1 -11  -4 44.4618 3.00960   3
  -1 -11   4 38.3400 12.0105   1
   1 -11  -4 38.7985 13.5455   1
   1  11  -4 35.2142 12.9401   1
  -1  11   4 53.1142 13.5218   1
   1  11  -4 41.4221 3.60365   2
   0 -11  -4 611.741 19.3532   3
   0 -11  -4 609.871 39.3682   1
   0 -11   4 642.438 39.3796   1
   0  11  -4 591.053 19.6660   2
   0  11  -4 625.720 41.6814   1
  -1 -11  -4 463.950 15.2079   3
  -1 -11  -4 448.475 32.5803   1
  -1 -11  -4 446.056 13.6509   2
   1 -11   4 488.164 36.0145   1
   1  11   4 478.300 15.1135   3
   1  11   4 412.705 13.9322   2
  -1  11  -4 470.228 13.9432   3
  -1  11  -4 453.098 15.2237   2
  -1  11  -4 453.588 36.2462   1
  -2 -11  -4 339.202 29.1124   1
  -2 -11  -4 347.937 11.3063   2
   2 -11   4 361.629 36.4918   1
  -2 -11  -4 346.683 12.3025   3
  -2  11  -4 353.422 12.5803   2
   2  11   4 348.502 12.2633   3
   2  11   4 350.454 11.3959   2
   2  11   4 311.758 31.6766   1
   3 -11   4 -7.2848 19.6554   1
   3 -11   4 8.16609 2.55391   2
  -3 -11  -4 8.24942 2.22245   2
  -3 -11  -4 -5.0275 15.4624   1
  -3  11  -4 7.43408 2.89596   2
   3  11   4 14.7180 17.1460   1
   3  11   4 5.79495 2.60735   3
   3  11   4 7.87287 2.05819   2
  -4 -11  -4 482.647 18.0354   2
   4 -11   4 526.883 18.8797   2
   4  11   4 519.945 18.0683   2
   5 -11   4 19.5482 4.87956   2
   5  11   4 12.6251 4.31252   2
   6 -12  -4 4.59160 5.26820   2
   6  12  -4 7.20573 6.43959   2
   5 -12  -4 -1.7389 2.92760   2
   5  12  -4 -1.9661 3.77146   2
  -4 -12   4 -6.5003 27.2084   1
   4 -12  -4 12.3213 31.3453   1
   4 -12  -4 -24.083 27.6860   1
   4 -12  -4 5.54225 2.30904   2
   4  12  -4 1.55942 3.30842   2
   4  12  -4 35.6387 49.3020   1
  -4  12   4 0.50783 3.20296   2
  -3 -12   4 487.539 17.3457   2
  -3 -12   4 466.645 44.9598   1
   3 -12  -4 474.939 15.8181   2
   3 -12  -4 629.289 61.1913   1
  -3  12   4 470.782 16.1299   2
   3  12  -4 476.568 17.4715   2
   3  12  -4 540.491 50.1419   1
   2 -12  -4 288.180 33.1892   1
  -2 -12   4 307.021 11.2155   2
   2 -12  -4 199.286 39.7342   1
   2 -12  -4 281.049 10.0194   3
   2 -12  -4 298.083 9.50782   2
   2  12  -4 290.857 11.2279   2
   2  12  -4 306.442 36.0694   1
  -2  12   4 294.842 9.69124   2
   1 -12  -4 107.420 19.1244   1
  -1 -12   4 134.716 24.6903   1
   1 -12  -4 129.361 5.50196   3
  -1  12   4 113.831 18.9205   1
   1  12  -4 174.179 28.5061   1
   1  12  -4 124.794 6.11885   2
   0 -12   4 -8.0592 11.8881   1
   0 -12  -4 2.83214 1.42499   3
   0 -12  -4 -0.9198 11.7643   1
   0  12  -4 23.0196 25.3419   1
   0  12  -4 4.01151 1.61910   2
  -1 -12  -4 2229.19 65.8308   3
   1 -12   4 2319.10 92.6619   1
  -1 -12  -4 2157.04 90.4770   1
  -1 -12  -4 2179.25 64.1430   2
  -1  12  -4 2311.00 64.5809   3
  -1  12  -4 2274.27 65.8439   2
   1  12   4 2164.38 64.1678   2
  -1  12  -4 1988.37 95.1637   1
   1  12   4 2328.67 65.7097   3
  -2 -12  -4 125.122 20.4477   1
   2 -12   4 123.992 24.3691   1
  -2 -12  -4 157.399 5.90974   2
  -2  12  -4 153.709 7.34775   2
   2  12   4 153.852 7.03632   3
   2  12   4 154.912 5.91417   2
  -3 -12  -4 172.072 7.27545   2
  -3 -12  -4 194.128 33.8029   1
   3 -12   4 150.591 28.5803   1
   3  12   4 106.390 24.0593   1
   3  12   4 163.877 8.22971   3
   3  12   4 163.422 7.17516   2
  -3  12  -4 178.736 8.91998   2
  -4 -12  -4 10.5600 3.82254   2
   4 -12   4 18.9929 3.93692   2
   4  12   4 14.5919 3.25741   2
   5 -12   4 365.234 16.4495   2
   5  12   4 374.013 15.7953   2
   6 -13  -4 1.66221 5.33522   2
   6  13  -4 -6.4202 6.72431   2
   5 -13  -4 22.8687 3.15795   3
   5 -13  -4 20.5227 4.00565   2
   5  13  -4 34.2192 5.50695   2
   4 -13  -4 54.7244 38.1515   1
   4 -13  -4 75.5130 4.76066   3
  -4 -13   4 155.496 46.7568   1
   4 -13  -4 69.9421 5.43997   2
   4 -13  -4 54.3467 30.4560   1
  -4  13   4 77.2143 7.10278   2
   4  13  -4 64.1327 7.70479   2
   3 -13  -4 253.463 9.15210   3
   3 -13  -4 249.644 9.20725   2
  -3 -13   4 257.785 39.6551   1
   3 -13  -4 299.948 56.7014   1
  -3 -13   4 253.287 11.0363   2
   3  13  -4 165.027 46.0231   1
  -3  13   4 254.721 9.62241   2
   3  13  -4 248.959 10.8386   2
   2 -13  -4 22.7367 18.0990   1
   2 -13  -4 8.77361 14.9018   1
   2 -13  -4 7.59701 1.70426   3
  -2 -13   4 33.0104 19.2183   1
   2 -13  -4 10.6593 1.38909   2
  -2 -13   4 9.08372 2.45719   2
   2  13  -4 12.1903 17.4255   1
   2  13  -4 8.55929 2.34667   2
  -2  13   4 7.79470 1.53636   2
  -1 -13   4 276.163 31.9530   1
   1 -13  -4 259.849 31.5547   1
   1 -13  -4 284.141 9.96281   3
   1  13  -4 283.435 35.3038   1
  -1  13   4 274.137 32.7359   1
   1  13  -4 280.670 10.6216   2
   0 -13  -4 900.391 27.3698   3
   0 -13   4 915.862 51.9618   1
   0 -13  -4 870.354 50.7529   1
   0  13   4 751.435 72.7083   1
   0  13  -4 904.430 26.8020   3
   0  13  -4 866.211 53.4664   1
   0  13  -4 884.626 27.5690   2
  -1 -13  -4 254.128 9.92441   3
   1 -13   4 262.549 34.4213   1
  -1 -13  -4 238.519 34.6007   1
  -1  13  -4 267.788 9.94029   2
   1  13   4 197.666 30.2792   1
  -1  13  -4 256.395 35.8360   1
   1  13   4 267.895 9.86386   3
  -1  13  -4 264.872 8.65196   3
  -2 -13  -4 46.3643 3.08848   2
  -2 -13  -4 22.7010 13.0616   1
   2 -13   4 35.6321 19.3866   1
  -2  13  -4 46.4095 4.77560   2
   2  13   4 8.78164 17.0097   1
   2  13   4 49.8114 4.53737   3
   2  13   4 42.8652 2.94445   2
   3 -13   4 63.4407 27.2400   1
  -3 -13  -4 75.4501 20.0912   1
  -3 -13  -4 124.431 6.08339   2
   3  13   4 111.217 7.24080   3
  -3  13  -4 112.595 7.71759   2
   3  13   4 103.600 5.67895   2
   4 -13   4 586.071 20.5977   2
  -4 -13  -4 513.547 21.2303   2
   4  13   4 565.561 19.4238   2
   5 -13   4 -1.1890 4.47314   2
   5  13   4 -1.7682 4.09776   2
   5 -14  -4 13.8686 3.50108   3
   5 -14  -4 17.3390 3.92723   2
   5  14  -4 12.0176 4.68623   2
   4 -14  -4 619.894 77.8166   1
  -4 -14   4 731.641 106.828   1
   4 -14  -4 593.888 19.0666   3
   4 -14  -4 604.266 19.9111   2
  -4  14   4 569.701 20.4751   2
   4  14  -4 590.831 21.5897   2
   3 -14  -4 67.3890 26.7045   1
  -3 -14   4 2.98548 35.1196   1
   3 -14  -4 -16.471 24.6179   1
   3 -14  -4 10.4631 2.09089   2
   3 -14  -4 7.75352 2.02548   3
  -3 -14   4 4.94221 3.08832   2
  -3  14   4 4.43849 2.32895   2
   3  14  -4 23.2397 38.6469   1
   3  14  -4 3.01340 2.57354   2
  -2 -14   4 45.5214 4.86518   2
   2 -14  -4 25.4830 18.5709   1
   2 -14  -4 44.3304 3.52586   3
  -2 -14   4 37.6355 17.1149   1
   2 -14  -4 36.3785 25.2995   1
   2 -14  -4 42.1648 2.69696   2
   2  14  -4 44.5363 4.48726   2
   2  14  -4 38.3211 22.0918   1
  -2  14   4 38.2350 2.97277   2
  -1 -14   4 91.5607 18.9736   1
   1 -14  -4 73.1243 18.7404   1
   1 -14  -4 107.851 5.19373   3
   1  14  -4 107.901 24.7238   1
  -1  14   4 84.3331 19.0279   1
   1  14  -4 107.730 5.81161   2
   0 -14  -4 937.860 29.4952   3
   0 -14  -4 933.401 53.9733   1
   0 -14   4 973.768 55.5330   1
   0  14   4 962.244 54.5397   1
   0  14  -4 964.683 28.8137   3
   0  14  -4 943.994 29.6615   2
  -1 -14  -4 56.9791 4.56205   3
   1 -14   4 31.9216 16.3118   1
  -1 -14  -4 49.0499 16.8003   1
  -1  14  -4 84.6306 21.0962   1
   1  14   4 58.2899 4.71630   3
  -1  14  -4 78.1331 3.66051   3
  -1  14  -4 61.9307 4.72181   2
   2 -14   4 30.2869 20.5090   1
  -2 -14  -4 9.49884 19.0213   1
   2  14   4 8.14031 17.8490   1
  -2  14  -4 6.30934 2.60090   2
   2  14   4 4.41386 2.44942   3
   3 -14   4 55.4403 29.0220   1
  -3 -14  -4 69.9839 31.3762   1
  -3 -14  -4 66.1514 4.94936   2
  -3  14  -4 52.7719 7.24467   2
   3  14   4 65.5038 4.59884   2
   4  14   4 49.8007 5.83513   2
   5 -14   4 17.1247 5.35357   2
   5  14   4 22.1476 4.94385   2
   5 -15  -4 33.1720 4.81021   2
   5  15  -4 21.1454 5.15112   2
   4 -15  -4 -0.4690 2.47567   2
   4 -15  -4 1.40184 2.33095   3
  -4  15   4 -5.0703 3.73368   2
   4  15  -4 -1.1665 3.32794   2
  -3 -15   4 879.547 65.1805   1
   3 -15  -4 804.381 71.2492   1
  -3 -15   4 856.257 28.3708   2
   3 -15  -4 881.675 26.8110   3
   3 -15  -4 842.621 26.5794   2
   3 -15  -4 883.455 67.8795   1
   3  15  -4 857.003 28.4444   2
   3  15  -4 957.916 72.6601   1
  -3  15   4 853.923 26.8544   2
  -2 -15   4 128.425 26.3613   1
   2 -15  -4 136.380 32.6023   1
  -2 -15   4 127.778 7.03637   2
   2 -15  -4 116.950 5.74040   3
  -2  15   4 115.776 4.92003   2
   2  15  -4 113.870 29.2458   1
   2  15  -4 112.580 6.64826   2
  -1 -15   4 66.4123 19.7334   1
   1 -15  -4 66.0718 20.9445   1
   1 -15  -4 78.6362 4.67522   3
  -1  15   4 79.5353 20.4921   1
   1  15  -4 68.5666 34.9731   1
   1  15  -4 80.9391 4.79790   3
   1  15  -4 73.4444 5.05031   2
   0 -15  -4 33.2143 17.2655   1
   0 -15   4 31.8700 18.4125   1
   0 -15  -4 40.8817 3.98907   3
   0  15  -4 28.9909 18.8927   1
   0  15   4 24.9679 18.3738   1
   0  15  -4 32.1687 3.81754   2
   0  15  -4 41.5556 3.46734   3
  -1 -15  -4 498.897 43.3638   1
  -1 -15  -4 504.680 17.4356   3
   1 -15   4 521.103 45.7858   1
  -1  15  -4 543.279 16.2742   3
  -1  15  -4 523.157 17.4036   2
  -1  15  -4 461.012 49.2389   1
   1  15   4 517.985 17.4221   3
  -2 -15  -4 81.8418 3.99993   2
   2 -15   4 40.3956 21.8635   1
  -2 -15  -4 75.2941 30.4996   1
   2  15   4 27.1497 23.8328   1
   2  15   4 78.6031 3.79379   2
   2  15   4 67.2047 5.82684   3
  -2  15  -4 79.4990 5.97303   2
  -2  15  -4 66.4863 24.4048   1
  -3 -15  -4 -0.3598 2.19984   2
   3  15   4 0.93023 1.88566   2
   4  15   4 30.3500 3.98321   2
   5  15   4 23.6821 5.30852   2
   5 -16  -4 20.1079 4.40995   2
   5  16  -4 16.4631 5.09970   2
   4 -16  -4 113.658 6.19139   3
   4 -16  -4 105.130 6.53783   2
   4  16  -4 107.271 8.30995   2
  -4  16   4 88.1588 8.40694   2
  -3 -16   4 125.521 29.2603   1
   3 -16  -4 234.390 66.5762   1
   3 -16  -4 140.631 6.43540   2
   3 -16  -4 147.067 6.82948   3
   3 -16  -4 105.155 35.6250   1
  -3 -16   4 136.200 9.99249   2
   3  16  -4 153.266 8.56526   2
   3  16  -4 95.6143 38.0952   1
  -3  16   4 139.791 6.90094   2
   2 -16  -4 249.935 9.30144   3
   2 -16  -4 245.790 44.2095   1
   2 -16  -4 208.219 32.9193   1
  -2 -16   4 252.409 10.5453   2
  -2 -16   4 271.066 41.7501   1
  -2  16   4 228.188 8.19586   2
   2  16  -4 280.393 49.3096   1
   2  16  -4 230.796 9.93903   3
   2  16  -4 242.636 10.2487   2
   1 -16  -4 9.68735 2.06967   3
  -1 -16   4 25.8457 18.0941   1
   1 -16  -4 19.0176 19.7380   1
  -1  16   4 17.6942 16.9595   1
   1  16  -4 9.40276 2.23071   3
   1  16  -4 33.1041 41.9942   1
   1  16  -4 12.8194 2.51232   2
   0 -16  -4 142.849 27.9466   1
   0 -16  -4 120.991 6.35612   3
   0 -16   4 105.707 22.6487   1
   0  16  -4 103.990 26.0226   1
   0  16  -4 136.462 5.99203   3
   0  16  -4 133.447 6.45069   2
   0  16   4 79.2076 21.2359   1
  -1 -16  -4 817.814 26.3755   3
   1 -16   4 831.317 58.8907   1
  -1 -16  -4 776.820 55.1762   1
  -1  16  -4 758.712 61.4094   1
  -1  16  -4 840.575 26.2745   2
  -1  16  -4 866.433 25.1270   3
   1  16   4 820.074 26.2691   3
  -2 -16  -4 215.256 7.63552   2
   2 -16   4 161.709 29.0440   1
  -2 -16  -4 243.143 40.9069   1
  -2  16  -4 216.565 9.68401   2
   2  16   4 221.733 7.57662   2
   2  16   4 202.994 9.85927   3
  -2  16  -4 203.103 34.2773   1
  -3 -16  -4 33.6706 4.69060   2
   3  16   4 33.1429 3.95425   2
   4  16   4 2.02043 3.19913   2
   5  16   4 173.411 11.4792   2
   5 -17  -4 18.9964 4.59121   2
   5  17  -4 13.3977 5.25667   2
   4 -17  -4 59.9862 5.33035   3
   4 -17  -4 50.2988 5.60603   2
   4  17  -4 55.9567 7.29748   2
   3 -17  -4 -40.828 43.5891   1
   3 -17  -4 -1.3694 1.88447   2
   3 -17  -4 -2.4834 1.98556   3
   3 -17  -4 17.7759 36.1558   1
  -3 -17   4 -24.138 21.5193   1
   3  17  -4 2.75604 2.94709   2
  -3  17   4 0.84676 2.50856   2
   3  17  -4 5.73689 31.8201   1
   2 -17  -4 28.7895 24.7599   1
   2 -17  -4 28.9340 28.3651   1
  -2 -17   4 2.57368 18.6829   1
  -2 -17   4 53.4387 5.99093   2
   2 -17  -4 37.8964 4.15993   3
  -2  17   4 41.8372 3.08334   2
   2  17  -4 27.0544 3.54705   3
   2  17  -4 45.4818 4.85570   2
   2  17  -4 25.3122 36.2647   1
   1 -17  -4 14.4324 2.49521   3
   1 -17  -4 23.7220 23.0484   1
  -1 -17   4 13.7868 19.2828   1
   1  17  -4 12.8436 2.58602   3
  -1  17   4 31.7531 21.7074   1
   1  17  -4 -5.0775 45.0705   1
   1  17  -4 15.3218 2.66994   2
   0 -17   4 1005.57 71.6480   1
   0 -17  -4 811.718 57.5783   1
   0 -17  -4 791.467 26.0835   3
   0  17  -4 793.765 26.0347   2
   0  17   4 737.472 56.2265   1
   0  17  -4 838.768 25.4999   3
  -1 -17  -4 7.79438 2.45489   3
   1 -17   4 -6.9488 17.4216   1
  -1 -17  -4 19.0319 22.0733   1
  -1  17  -4 9.61520 2.70501   2
  -1  17  -4 13.1072 2.69857   2
   1  17   4 4.42979 2.71557   3
  -1  17  -4 27.3310 25.8321   1
  -1  17  -4 14.0015 2.75395   3
   1  17   4 6.94024 19.7644   1
  -2 -17  -4 88.8363 4.41938   2
   2 -17   4 95.0032 30.6477   1
  -2 -17  -4 92.7032 25.2405   1
   2  17   4 89.6516 4.20605   2
  -2  17  -4 96.0903 6.87666   2
  -2  17  -4 70.6813 29.8082   1
  -3 -17  -4 79.9247 5.80114   2
   3  17   4 72.6410 5.01775   2
   4  17   4 399.895 15.1122   2
   5  17   4 11.6498 5.44787   2
   5 -18  -4 5.71023 4.64858   2
   5  18  -4 2.88283 5.48343   2
   4 -18  -4 276.013 11.0216   3
   4 -18  -4 288.617 11.5017   2
   4  18  -4 282.254 13.2874   2
  -3 -18   4 44.3923 32.4494   1
   3 -18  -4 63.4362 59.7602   1
   3 -18  -4 41.1479 4.67418   3
   3  18  -4 39.9803 4.66421   2
  -3  18   4 38.2234 5.09991   2
   3  18  -4 45.0740 48.7730   1
   2 -18  -4 -1.2238 1.87788   3
   2 -18  -4 -45.104 28.4284   1
   2 -18  -4 34.1507 30.4351   1
  -2 -18   4 -26.497 31.1625   1
   2  18  -4 -7.6270 29.3865   1
  -2  18   4 3.91431 1.56641   2
   2  18  -4 2.43365 2.29171   2
   1 -18  -4 67.0641 4.99694   3
   1 -18  -4 72.1001 28.0091   1
  -1 -18   4 52.4032 23.9630   1
  -1  18   4 74.1152 26.2068   1
   1  18  -4 65.6565 5.66890   3
   1  18  -4 69.1375 5.21153   2
   1  18  -4 66.0816 27.4074   1
   0 -18   4 620.520 56.3290   1
   0 -18  -4 547.258 52.3613   1
   0 -18  -4 522.633 18.5318   3
   0  18  -4 485.789 57.3859   1
   0  18  -4 558.824 18.0484   3
   0  18  -4 550.730 18.5050   2
   0  18   4 558.695 53.9604   1
  -1 -18  -4 406.491 14.8657   3
   1 -18   4 360.808 51.4136   1
  -1 -18  -4 399.108 48.2418   1
  -1  18  -4 423.983 14.8297   2
   1  18   4 380.167 49.5687   1
  -1  18  -4 417.944 14.7313   2
  -1  18  -4 307.045 57.6728   1
  -1  18  -4 415.305 13.5863   3
   2 -18   4 -18.835 31.8307   1
  -2  18  -4 23.2613 29.1928   1
  -3 -18  -4 70.6397 5.94491   2
   3  18   4 73.3379 5.01385   2
   4  18   4 25.8802 4.18159   2
   5  18   4 91.7958 10.7869   2
   5 -19  -4 15.8793 5.19139   2
   5  19  -4 18.3933 6.10312   2
   4 -19  -4 24.4691 3.64669   3
   4 -19  -4 23.8236 4.02433   2
   4  19  -4 20.5760 5.00485   2
   3 -19  -4 307.812 84.1818   1
   3 -19  -4 348.051 12.8336   3
  -3  19   4 337.094 12.4730   2
   3  19  -4 357.693 15.2917   2
   2 -19  -4 84.4931 5.56883   3
  -2 -19   4 72.8400 27.4034   1
   2 -19  -4 67.9526 34.3822   1
   2 -19  -4 33.5740 52.5765   1
   2  19  -4 35.3343 35.3054   1
   2  19  -4 80.9656 6.12839   2
  -1 -19   4 179.323 47.5260   1
   1 -19  -4 141.833 35.1803   1
   1 -19  -4 141.977 7.23974   3
   1  19  -4 146.478 36.6642   1
   1  19  -4 149.418 7.87369   3
   1  19  -4 140.328 7.21896   2
  -1  19   4 90.7767 29.8736   1
   0 -19  -4 109.270 30.8373   1
   0 -19  -4 132.567 7.03077   3
   0 -19   4 64.7713 27.9079   1
   0  19  -4 127.616 7.41886   2
   0  19  -4 125.327 6.77322   2
   0  19   4 91.2718 25.6019   1
   0  19  -4 130.330 6.80650   3
   0  19  -4 109.599 32.1292   1
  -1 -19  -4 242.947 37.7095   1
   1 -19   4 207.590 37.9056   1
  -1  19  -4 301.768 11.7552   2
  -1  19  -4 290.727 11.3987   2
  -1  19  -4 294.770 10.4714   3
  -1  19  -4 293.407 46.2568   1
  -2 -19  -4 21.3532 3.13135   2
   2 -19   4 43.1333 61.8744   1
   2  19   4 17.7486 1.89893   2
  -2  19  -4 19.8673 4.01631   2
  -2  19  -4 22.9047 33.0360   1
  -3 -19  -4 30.2306 4.12411   2
   3  19   4 31.3663 4.24237   2
   4  19   4 39.4932 4.65482   2
   5  20  -4 30.2150 6.62414   2
   4 -20  -4 183.882 9.12973   3
   4  20  -4 196.296 11.3741   2
   3 -20  -4 59.2893 5.74851   3
   3  20  -4 58.7806 7.05920   2
   2 -20  -4 48.8746 5.04458   3
  -2 -20   4 13.4268 29.5449   1
   2  20  -4 22.7768 39.8089   1
   2  20  -4 47.0784 5.47736   2
  -1 -20   4 65.3477 32.1265   1
   1 -20  -4 48.9910 4.97431   3
   1 -20  -4 29.8859 32.7449   1
   1  20  -4 44.9381 4.89804   2
   1  20  -4 36.6287 4.81137   3
   1  20  -4 37.1577 43.6522   1
   0 -20  -4 289.757 11.7237   3
   0 -20   4 307.842 56.0320   1
   0 -20  -4 318.718 53.2732   1
   0  20  -4 300.779 11.5118   3
   0  20  -4 227.561 41.4447   1
   0  20  -4 304.607 11.5835   2
   0  20  -4 287.949 11.8447   2
   1 -20   4 137.405 67.4615   1
  -1  20  -4 163.036 7.39417   3
  -1  20  -4 84.0423 37.6080   1
  -1  20  -4 166.113 7.99565   2
  -1  20  -4 152.958 8.54944   2
  -2  20  -4 -5.8730 49.6628   1
   3  20   4 8.04918 2.55866   2
   4  20   4 10.3659 4.02192   2
   4  21  -4 4.29700 4.49399   2
   3 -21  -4 118.991 7.45678   3
   3  21  -4 131.557 8.64312   2
  -2 -21   4 120.404 38.3366   1
   2 -21  -4 114.756 6.87248   3
   2  21  -4 65.7898 48.4123   1
   2  21  -4 116.365 7.27211   2
  -1 -21   4 -7.7003 27.9294   1
   1  21  -4 -12.196 33.0332   1
   0 -21  -4 338.435 13.1803   3
   0 -21   4 332.827 57.9079   1
   0  21  -4 343.218 12.8760   2
   0  21  -4 324.638 13.1169   2
   0  21  -4 286.573 50.3409   1
   0  21  -4 344.659 12.9495   3
   1 -21   4 89.4919 39.6929   1
  -1  21  -4 101.355 6.41125   3
  -1  21  -4 88.2151 6.25817   2
  -1  21  -4 66.8235 39.9553   1
  -1  21  -4 80.9939 7.34290   2
   3  21   4 13.5142 2.81908   2
   4  22  -4 26.0078 5.57905   2
   3 -22  -4 45.0662 4.63557   3
   3  22  -4 55.1432 7.08811   2
   2 -22  -4 31.4758 3.87923   3
   2  22  -4 26.4900 3.84203   2
   1 -22  -4 32.4926 4.07916   3
  -1 -22   4 -23.956 34.2473   1
   1  22  -4 39.1903 5.00491   2
   1  22  -4 164.129 76.4458   1
   0 -22   4 40.2124 37.1287   1
   0 -22  -4 102.845 7.15865   3
   0  22  -4 107.370 7.95132   2
   0  22  -4 181.656 48.2903   1
   0  22  -4 103.389 7.81121   3
   0  22  -4 117.940 6.92154   2
  -1  22  -4 262.579 11.8643   2
  -1  22  -4 211.713 47.5676   1
  -1  22  -4 270.233 11.1047   2
  -1  22  -4 257.925 10.6330   3
  -2  22  -4 99.5890 7.60192   2
   4  23  -4 7.34926 5.32917   2
   3 -23  -4 60.6685 6.83594   3
   3  23  -4 55.8338 7.47609   2
   2  23  -4 2.15155 3.08373   2
  -1 -23   4 92.8876 42.9977   1
   1 -23  -4 115.606 7.45909   3
   1  23  -4 112.327 7.03487   2
   1  23  -4 150.310 56.9039   1
   0 -23   4 220.053 60.8523   1
   0  23  -4 175.055 53.6072   1
   0  23  -4 208.648 10.8523   2
   0  23  -4 237.299 10.0851   2
  -1  23  -4 3.21194 3.61099   3
  -1  23  -4 9.99256 3.20609   2
  -2  23  -4 -1.2028 3.70831   2
   4  24  -4 164.972 12.1330   2
   3 -24  -4 10.0667 4.17330   3
   3  24  -4 6.11583 4.38353   2
   2 -24  -4 20.4863 3.94056   3
   2  24  -4 23.2489 4.78463   2
   1 -24  -4 59.1398 6.29752   3
   1  24  -4 61.6862 6.19254   2
   0  24  -4 235.336 13.1365   2
   0  24  -4 128.341 85.7514   1
   0  24  -4 257.748 10.9045   2
  -1  24  -4 5.98484 3.18179   2
  -2  24  -4 -1.9195 3.44418   2
   3  25  -4 134.145 10.1142   2
   2  25  -4 79.4305 7.49151   2
   1  25  -4 -4.7680 3.01685   2
   0  25  -4 11.7617 3.57261   2
  -1  25  -4 116.953 8.95133   2
  -2  25  -4 51.5533 7.41553   2
  -3  25  -4 0.43884 4.98850   2
   3  26  -4 38.9660 5.90063   2
   2  26  -4 29.2008 4.77215   2
   0  26  -4 6.23433 3.66981   2
  -1  26  -4 154.359 9.41804   2
  -2  26  -4 49.1720 5.69480   2
  -3  26  -4 1.38374 5.60396   2
   2  27  -4 9.59252 4.45264   2
   1  27  -4 92.8000 8.04313   2
   0  27  -4 129.180 8.62888   2
  -1  27  -4 2.64781 3.94172   2
  -2  27  -4 12.1848 4.89680   2
   1  28  -4 53.9785 7.84067   2
   0  28  -4 113.020 8.73537   2
  -1  28  -4 8.44193 4.73440   2
   6   0  -5 2.59951 4.36844   2
  -5   0   5 279.159 42.7363   1
   5   0  -5 338.717 13.9893   2
   4   0  -5 6.25807 23.5834   1
  -4   0   5 21.9459 16.3911   1
  -4   0   5 1.00687 2.80033   2
   3   0  -5 751.819 24.0171   2
  -3   0   5 736.632 51.5832   1
   3   0  -5 766.007 43.3156   1
  -3   0   5 768.743 24.1762   2
   2   0  -5 3.11881 8.11941   1
  -2   0   5 1.20047 1.17384   2
   2   0  -5 0.01799 0.96828   2
  -2   0   5 0.71202 6.15786   1
   1   0  -5 5207.07 155.805   1
   1   0  -5 4886.21 147.047   2
  -1   0   5 4885.64 147.125   2
  -1   0   5 5390.34 155.708   1
  -1   0  -5 750.424 22.8015   2
  -2   0  -5 -0.4664 1.11191   2
   2   0   5 4.00788 5.15367   1
   2   0   5 1.50250 1.15136   2
  -2   0  -5 4.37496 5.77530   1
  -2   0  -5 0.09161 0.79583   3
   3   0   5 1356.07 55.3607   1
  -3   0  -5 1346.09 55.8972   1
  -3   0  -5 1329.55 40.7655   2
   3   0   5 1324.31 40.9385   2
   4   0   5 24.2006 21.0439   1
   4   0   5 19.4280 3.42985   2
  -4   0  -5 2.24884 18.4222   1
   5   0   5 38.9458 5.36908   2
   6   0   5 -8.3260 5.25090   2
   6  -1  -5 22.6305 5.23698   2
   6   1  -5 18.5658 5.37072   2
  -5  -1   5 71.3535 40.8532   1
   5  -1  -5 60.6805 6.64007   2
   5   1  -5 71.9527 6.91830   2
  -5   1   5 42.7986 27.0349   1
   4  -1  -5 908.866 30.3538   2
   4  -1  -5 1042.43 67.9758   1
  -4   1   5 906.982 30.5874   2
   4   1  -5 1119.55 70.0320   1
   4   1  -5 923.749 30.5905   2
   3  -1  -5 17.1307 16.3754   1
   3  -1  -5 4.51318 1.69986   2
  -3  -1   5 8.57921 2.27631   2
  -3   1   5 6.64056 2.03888   2
   3   1  -5 6.54042 1.78983   2
  -3   1   5 15.6814 11.7659   1
   3   1  -5 6.11059 8.59650   1
  -2  -1   5 337.700 22.5220   1
   2  -1  -5 269.857 21.9110   1
  -2  -1   5 307.366 10.6646   2
   2  -1  -5 301.260 10.3363   2
  -2   1   5 328.011 21.9862   1
   2   1  -5 299.417 10.5297   2
   2   1  -5 278.676 21.6189   1
  -2   1   5 311.612 10.5466   2
  -1  -1   5 38.4146 2.87097   2
   1  -1  -5 33.3212 7.11519   1
   1  -1  -5 45.8905 2.61276   2
  -1  -1   5 41.6758 6.96899   1
   1   1  -5 40.8125 2.78161   2
  -1   1   5 54.4657 8.76037   1
   1   1  -5 29.1904 6.11903   1
  -1   1   5 40.5339 2.72174   2
   0  -1  -5 3766.23 124.070   2
   0  -1   5 4515.69 126.798   1
   0   1  -5 4610.06 128.294   1
  -1  -1  -5 8.28630 1.26891   2
  -1   1  -5 8.54105 1.37444   2
  -2  -1  -5 176.800 6.27475   3
   2  -1   5 174.483 14.6490   1
   2  -1   5 177.393 7.08403   2
  -2  -1  -5 167.695 8.28525   2
  -2  -1  -5 200.334 14.9786   1
   2   1   5 178.396 14.3301   1
   2   1   5 176.218 6.93197   2
  -2   1  -5 186.424 6.05942   3
  -2   1  -5 174.680 6.95864   2
   3  -1   5 290.572 11.3281   2
  -3  -1  -5 278.273 24.7797   1
  -3  -1  -5 307.116 11.1925   2
   3  -1   5 297.899 25.2001   1
  -3   1  -5 287.513 11.2226   2
   3   1   5 321.475 11.3850   2
   3   1   5 309.457 25.1109   1
  -4  -1  -5 589.041 44.1921   1
   4  -1   5 617.420 67.0476   1
   4  -1   5 672.030 21.7695   2
   4   1   5 605.751 62.0890   1
   4   1   5 593.184 21.3031   2
   5  -1   5 12.4591 3.94831   2
   5   1   5 15.2978 3.87117   2
   6  -1   5 8.84203 5.87968   2
   6   1   5 18.3925 6.38883   2
   6  -2  -5 4.75535 4.58128   2
   6   2  -5 2.81787 4.48910   2
  -5  -2   5 57.3723 32.6688   1
   5  -2  -5 75.1206 6.79604   2
  -5   2   5 65.7659 34.1318   1
   5   2  -5 60.6182 6.79739   2
   4  -2  -5 47.5067 4.79067   2
   4  -2  -5 37.8823 22.9918   1
  -4  -2   5 53.9071 6.13652   2
  -4  -2   5 58.8921 18.4156   1
  -4   2   5 47.7787 5.68105   2
   4   2  -5 37.8043 26.1093   1
  -4   2   5 52.6079 20.8667   1
   3  -2  -5 167.150 25.6050   1
   3  -2  -5 168.145 7.14322   2
  -3  -2   5 130.805 27.1463   1
  -3  -2   5 173.610 7.67291   2
  -3   2   5 186.492 7.57338   2
  -3   2   5 191.965 24.8242   1
   3   2  -5 194.831 25.9030   1
   3   2  -5 166.290 7.43669   2
   2  -2  -5 83.2300 3.85522   2
  -2  -2   5 78.5878 15.0096   1
  -2  -2   5 80.1559 4.91830   2
   2  -2  -5 55.9621 9.92021   1
  -2   2   5 88.0320 14.3739   1
   2   2  -5 76.3524 4.18081   2
  -2   2   5 84.3527 4.09747   2
   2   2  -5 51.3884 10.0234   1
  -1  -2   5 550.068 17.3877   2
   1  -2  -5 543.264 24.8273   1
  -1  -2   5 538.792 24.8029   1
   1  -2  -5 542.780 16.8356   2
   1   2  -5 550.227 17.3932   2
  -1   2   5 574.643 24.9109   1
   1   2  -5 540.530 25.5493   1
  -1   2   5 550.933 17.0104   2
   0  -2   5 544.678 19.8965   1
   0  -2  -5 504.534 15.9540   2
   0   2  -5 482.790 16.3357   2
   0   2  -5 546.176 21.8392   1
  -1  -2  -5 36.2165 2.26684   3
  -1  -2  -5 38.9179 2.38069   2
   1  -2   5 41.8054 6.47429   1
   1  -2   5 47.5239 8.88375   1
  -1   2  -5 40.4634 2.69535   2
   1   2   5 43.9639 2.57013   2
   2  -2   5 6.16980 5.91812   1
   2  -2   5 5.22295 5.96901   1
  -2  -2  -5 16.4218 6.40818   1
  -2  -2  -5 13.5341 1.88426   3
   2  -2   5 14.2399 2.03806   2
   2   2   5 13.2818 1.71052   2
  -2   2  -5 12.9642 1.84572   2
   2   2   5 16.2031 6.44743   1
  -2   2  -5 12.4797 1.54464   3
   3  -2   5 47.6000 13.0800   1
  -3  -2  -5 40.8666 4.23600   2
  -3  -2  -5 46.9856 11.9411   1
   3  -2   5 48.3161 4.36355   2
  -3   2  -5 49.7819 4.64056   2
   3   2   5 36.1658 12.5652   1
   3   2   5 48.3867 4.16387   2
   4  -2   5 1023.01 33.6709   2
  -4  -2  -5 1048.76 57.2665   1
   4   2   5 1071.38 33.6291   2
   5  -2   5 39.7615 5.23351   2
   5   2   5 34.3537 4.53493   2
   6  -2   5 12.8721 6.11002   2
   6   2   5 24.4792 6.70921   2
   6  -3  -5 -0.1215 4.31354   2
   6   3  -5 5.99260 4.72489   2
  -5  -3   5 100.980 34.6067   1
   5  -3  -5 185.130 9.50489   2
   5   3  -5 162.951 9.78417   2
  -4  -3   5 298.552 12.4405   2
   4  -3  -5 295.767 43.4167   1
  -4  -3   5 318.652 36.7302   1
   4  -3  -5 282.951 11.4063   2
   4   3  -5 244.700 39.8185   1
  -4   3   5 336.047 40.4940   1
  -4   3   5 300.330 11.9635   2
   4   3  -5 291.642 12.0114   2
   3  -3  -5 4.90721 1.59692   2
  -3  -3   5 6.12717 1.87261   2
   3  -3  -5 2.16985 10.6228   1
  -3  -3   5 -3.2957 12.0628   1
   3   3  -5 3.08225 1.72187   2
  -3   3   5 6.46018 1.88329   2
  -3   3   5 15.4971 11.7002   1
   3   3  -5 11.0482 11.7423   1
   2  -3  -5 130.753 5.33228   2
  -2  -3   5 127.953 6.70798   2
   2  -3  -5 147.185 18.2341   1
  -2  -3   5 142.143 17.1169   1
  -2   3   5 147.700 17.1675   1
  -2   3   5 141.117 5.67148   2
   2   3  -5 134.251 17.3179   1
   2   3  -5 135.259 5.96476   2
   1  -3  -5 5.09166 1.01480   2
  -1  -3   5 -1.8275 3.97668   1
  -1  -3   5 2.59246 1.26219   2
   1  -3  -5 4.41312 4.77977   1
  -1   3   5 0.66418 0.95293   2
   1   3  -5 6.95822 5.60633   1
   1   3  -5 1.33346 1.09611   2
  -1   3   5 0.96472 4.64970   1
   0  -3  -5 429.739 18.3360   1
   0  -3  -5 421.759 16.6096   1
   0  -3  -5 407.358 13.0948   2
   0  -3   5 418.181 18.3108   1
   0   3  -5 427.649 20.7853   1
   0   3  -5 427.511 13.8039   2
   1  -3   5 57.2001 8.68676   1
  -1  -3  -5 43.6621 2.55081   3
  -1  -3  -5 44.4696 2.48776   2
   1  -3   5 51.7442 7.74621   1
   1   3   5 47.4591 2.66748   2
  -1   3  -5 42.4172 2.94175   2
  -2  -3  -5 13.0619 1.77642   2
   2  -3   5 16.3010 7.32174   1
   2  -3   5 11.1766 6.98190   1
  -2  -3  -5 10.5300 6.33778   1
  -2  -3  -5 13.3005 1.61927   3
   2  -3   5 9.81331 1.65417   2
   2   3   5 11.9798 1.66720   2
  -2   3  -5 7.78660 1.64091   2
   2   3   5 18.9529 7.00518   1
  -2   3  -5 13.3258 1.26868   3
   3  -3   5 347.419 28.2490   1
  -3  -3  -5 398.809 28.0111   1
  -3  -3  -5 371.180 13.1740   2
   3  -3   5 383.599 13.6371   2
   3  -3   5 355.706 28.5531   1
   3   3   5 369.899 13.2904   2
  -3   3  -5 398.711 13.7088   2
   3   3   5 349.679 28.5007   1
   4  -3   5 59.5015 6.13163   2
  -4  -3  -5 33.7397 19.4502   1
   5  -3   5 9.64111 3.87686   2
   5   3   5 18.6413 4.05509   2
   6  -3   5 1.76075 5.79905   2
   6   3   5 -1.8673 5.86753   2
   6  -4  -5 0.89598 4.46411   2
   6   4  -5 6.97036 4.92876   2
   5  -4  -5 340.591 14.1208   2
  -5   4   5 505.248 87.4952   1
   5   4  -5 344.339 14.8323   2
   4  -4  -5 19.4205 20.3381   1
  -4  -4   5 1.80385 3.21538   2
  -4  -4   5 12.5596 23.4780   1
  -4   4   5 -1.6841 17.0833   1
   4   4  -5 -1.7124 19.6165   1
   4   4  -5 1.22034 2.39249   2
  -4   4   5 6.83588 3.00533   2
   3  -4  -5 444.045 15.2420   2
  -3  -4   5 497.009 35.6260   1
  -3  -4   5 465.948 16.0258   2
   3  -4  -5 456.101 36.5708   1
  -3   4   5 472.132 35.1798   1
  -3   4   5 467.385 15.5746   2
   3   4  -5 451.666 15.9420   2
   3   4  -5 468.334 36.3287   1
   2  -4  -5 60.8275 3.19489   2
   2  -4  -5 65.1034 12.3689   1
  -2  -4   5 69.1246 12.3836   1
  -2  -4   5 62.6276 3.95019   2
  -2   4   5 56.8606 3.46669   2
   2   4  -5 59.3616 3.91670   2
  -2   4   5 55.6432 10.7758   1
   2   4  -5 60.6595 12.1312   1
  -1  -4   5 2813.72 91.6303   1
   1  -4  -5 2718.10 80.6068   2
  -1  -4   5 2847.91 81.6524   2
   1  -4  -5 2801.65 90.9219   1
  -1   4   5 2682.12 80.7794   2
   1   4  -5 2759.09 81.6391   2
   1   4  -5 2883.27 92.8723   1
   0  -4  -5 117.674 9.62961   1
   0  -4   5 126.559 10.6169   1
   0  -4  -5 133.431 11.8414   1
   0   4  -5 122.593 5.36642   2
   0   4  -5 112.658 12.9015   1
  -1  -4  -5 733.285 21.9163   2
   1  -4   5 711.215 31.9641   1
  -1  -4  -5 733.585 22.2312   3
  -1  -4  -5 731.178 26.5683   1
   1   4   5 727.944 28.7287   1
  -1   4  -5 726.125 22.6495   2
   1   4   5 751.555 22.1297   2
   2  -4   5 3.32071 6.95524   1
  -2  -4  -5 8.81732 1.44992   2
  -2  -4  -5 9.85400 6.82023   1
  -2  -4  -5 5.67627 1.39949   3
   2  -4   5 7.44329 1.69001   2
   2  -4   5 15.5697 7.62978   1
  -2   4  -5 9.27440 1.77197   2
   2   4   5 7.57864 1.47236   2
   2   4   5 5.37006 6.29069   1
   3  -4   5 1593.59 63.4057   1
   3  -4   5 1454.46 63.4757   1
   3  -4   5 1536.21 46.9331   2
  -3  -4  -5 1540.30 61.8547   1
  -3  -4  -5 1570.45 46.4514   2
   3   4   5 1551.37 46.6063   2
  -3   4  -5 1528.52 46.8556   2
   3   4   5 1545.71 63.0268   1
  -4  -4  -5 162.435 10.9997   2
   4  -4   5 209.108 9.65433   2
  -4  -4  -5 153.078 23.4421   1
   4   4   5 184.476 9.03582   2
   5  -4   5 39.2666 5.42141   2
   5   4   5 30.0597 4.47621   2
   6  -4   5 5.80053 5.77422   2
   6   4   5 3.90103 5.87257   2
   6  -5  -5 29.6325 5.63994   2
   6   5  -5 32.8943 6.34268   2
   5  -5  -5 8.66762 3.35498   2
  -5   5   5 29.6214 42.6881   1
   5   5  -5 9.90631 3.78337   2
  -4  -5   5 1676.94 52.9147   2
   4  -5  -5 1634.22 51.3792   2
   4  -5  -5 1911.83 96.7322   1
  -4   5   5 1654.59 51.7260   2
  -4   5   5 1768.89 82.9878   1
   4   5  -5 1676.38 52.3373   2
   4   5  -5 1663.26 84.1659   1
   3  -5  -5 41.5365 3.37000   2
   3  -5  -5 66.8769 22.3960   1
  -3  -5   5 42.1082 13.2362   1
  -3  -5   5 46.9456 4.56151   2
   3   5  -5 51.4313 22.4596   1
  -3   5   5 80.1223 25.5953   1
   3   5  -5 40.8292 4.23282   2
  -3   5   5 38.7035 3.87566   2
   2  -5  -5 297.683 24.7477   1
   2  -5  -5 302.756 10.0942   2
  -2  -5   5 296.089 23.4936   1
  -2  -5   5 316.040 11.0670   2
  -2   5   5 317.351 10.3931   2
   2   5  -5 301.621 11.0836   2
   2   5  -5 301.053 25.3681   1
  -1  -5   5 -0.2759 1.19891   2
   1  -5  -5 4.04401 0.88359   2
  -1  -5   5 4.62702 5.08463   1
   1  -5  -5 -1.7524 4.81822   1
   1  -5  -5 -3.4914 4.81205   1
   1   5  -5 1.47775 1.23382   2
  -1   5   5 0.92653 0.87484   2
   1   5  -5 13.7643 6.99910   1
   0  -5   5 6461.24 200.726   1
   0  -5  -5 6786.11 201.888   1
   0   5  -5 6711.12 205.120   1
   1  -5   5 96.4368 14.5200   1
  -1  -5  -5 112.771 4.10106   2
  -1  -5  -5 103.642 9.95312   1
  -1  -5  -5 107.423 4.55824   3
   1   5   5 106.842 4.25116   2
  -1   5  -5 120.998 12.5799   1
  -1   5  -5 102.786 4.97850   2
   1   5   5 102.254 12.6740   1
   2  -5   5 210.021 8.30628   2
   2  -5   5 209.550 18.4571   1
  -2  -5  -5 215.158 7.58629   2
  -2  -5  -5 212.087 7.75287   3
   2  -5   5 201.241 20.0863   1
  -2  -5  -5 209.273 16.7222   1
   2   5   5 219.202 7.75739   2
   2   5   5 187.807 17.6691   1
  -2   5  -5 210.112 8.23192   2
   3  -5   5 13.2037 13.4266   1
   3  -5   5 10.1831 2.51626   2
   3  -5   5 0.87155 11.9322   1
  -3  -5  -5 19.2409 12.3969   1
  -3   5  -5 7.53634 2.34800   2
   3   5   5 12.4025 11.2058   1
  -4  -5  -5 855.524 57.5460   1
  -4  -5  -5 834.401 29.2571   2
   4  -5   5 912.603 29.3586   2
   4   5   5 892.348 28.6083   2
   5  -5   5 8.08173 3.90643   2
   5   5   5 1.88850 3.37951   2
   6  -5   5 10.6029 6.33175   2
   6   5   5 9.27951 5.76544   2
   6  -6  -5 15.9909 4.78144   2
   6   6  -5 13.8510 5.87612   2
   5  -6  -5 265.960 11.8681   2
   5   6  -5 270.763 12.8723   2
   4  -6  -5 36.9372 4.37903   2
  -4  -6   5 76.8787 26.7200   1
   4  -6  -5 31.4916 21.1378   1
   4   6  -5 49.6403 22.6866   1
  -4   6   5 26.6365 3.71577   2
  -3  -6   5 373.887 32.5939   1
  -3  -6   5 343.620 12.7242   2
   3  -6  -5 338.770 11.6870   2
   3  -6  -5 277.634 40.0785   1
   3   6  -5 323.710 33.1796   1
   3   6  -5 332.289 12.7148   2
  -3   6   5 355.412 12.0996   2
  -2  -6   5 108.356 5.47393   2
  -2  -6   5 96.7080 17.0833   1
   2  -6  -5 114.414 19.5940   1
   2  -6  -5 106.836 4.39474   2
   2   6  -5 132.523 19.7778   1
  -2   6   5 111.514 4.72839   2
   2   6  -5 104.144 5.47758   2
  -1  -6   5 2313.84 80.4614   1
   1  -6  -5 2337.34 81.9946   1
   1  -6  -5 2147.68 67.0166   2
   1  -6  -5 2395.69 80.2884   1
  -1  -6   5 2446.92 68.4970   2
   1   6  -5 2381.19 82.5219   1
   1   6  -5 2267.18 68.4246   2
  -1   6   5 2250.76 67.1572   2
   0  -6   5 396.013 22.7778   1
   0  -6  -5 425.642 24.1825   1
   0  -6  -5 402.209 12.3119   2
   0  -6  -5 407.128 12.2123   2
   0   6  -5 403.551 13.7117   2
   0   6   5 439.140 21.3565   1
   0   6  -5 390.509 25.9273   1
   1  -6   5 503.844 29.1370   1
  -1  -6  -5 531.029 15.7690   2
  -1  -6  -5 531.284 24.1939   1
  -1  -6  -5 510.085 16.4003   3
  -1   6  -5 502.206 17.5522   2
   1   6   5 536.571 26.6437   1
   1   6   5 532.256 15.9420   2
  -1   6  -5 510.665 26.6213   1
   2  -6   5 -12.291 9.37693   1
  -2  -6  -5 -0.9054 0.97334   2
   2  -6   5 1.89187 7.92128   1
  -2  -6  -5 1.10044 1.17452   3
   2  -6   5 -0.2541 1.21618   2
  -2  -6  -5 8.78229 7.00907   1
   2   6   5 -5.7172 7.21516   1
  -2   6  -5 1.06470 1.50719   2
  -3  -6  -5 372.836 29.2056   1
  -3  -6  -5 384.213 13.0510   2
   3  -6   5 377.018 13.7439   2
   3  -6   5 379.201 32.7592   1
   3  -6   5 363.620 30.9763   1
  -3   6  -5 363.134 13.7855   2
   3   6   5 374.091 31.6822   1
   3   6   5 364.832 12.7337   3
   3   6   5 369.102 13.1180   2
  -4  -6  -5 239.057 11.9252   2
   4  -6   5 244.718 15.4154   2
   4   6   5 276.353 11.1405   2
   4   6   5 251.629 10.2934   3
   5  -6   5 70.8245 8.06598   2
   5   6   5 60.9554 7.48217   2
   6  -6   5 -3.7908 6.45445   2
   6   6   5 1.30255 5.93846   2
   6  -7  -5 1.62932 4.49023   2
   6   7  -5 -3.6233 5.13568   2
   5  -7  -5 68.3378 6.55577   2
   5   7  -5 60.0300 7.47383   2
  -4  -7   5 -0.9837 19.5857   1
   4  -7  -5 0.79650 2.00828   2
   4  -7  -5 11.2808 24.2125   1
   4   7  -5 -11.966 21.9325   1
   4   7  -5 -0.6861 2.53691   2
  -4   7   5 2.73234 2.73129   2
   3  -7  -5 0.62745 1.26316   2
  -3  -7   5 -0.0599 1.99964   2
   3  -7  -5 27.1995 26.1200   1
  -3  -7   5 -12.026 12.5083   1
  -3   7   5 -0.8964 1.69487   2
   3   7  -5 -18.605 13.6747   1
   3   7  -5 1.98054 1.95680   2
  -2  -7   5 11.3083 8.80270   1
   2  -7  -5 6.66571 11.5722   1
   2  -7  -5 -3.8734 8.46507   1
  -2  -7   5 4.33677 1.77246   2
   2  -7  -5 5.18466 1.09743   2
  -2   7   5 4.18707 1.30399   2
   2   7  -5 4.09898 1.60617   2
   2   7  -5 10.4838 10.1701   1
  -1  -7   5 11.4304 7.09506   1
  -1  -7   5 23.0261 3.05027   2
   1  -7  -5 18.7065 8.57413   1
   1  -7  -5 15.7284 2.04056   2
   1   7  -5 23.1839 2.94830   2
  -1   7   5 22.3467 1.75132   2
   1   7  -5 17.3513 8.08386   1
   0  -7  -5 131.153 5.27717   3
   0  -7  -5 133.655 16.7721   1
   0  -7   5 142.311 15.4401   1
   0   7  -5 146.571 19.1605   1
   0   7   5 140.033 14.2585   1
   0   7  -5 123.791 5.83434   2
   1  -7   5 166.589 24.2488   1
  -1  -7  -5 169.909 5.62682   2
  -1  -7  -5 174.758 15.7202   1
  -1  -7  -5 172.789 6.50417   3
   1   7   5 179.719 17.9240   1
  -1   7  -5 160.595 6.94160   2
   1   7   5 172.043 5.82209   2
  -1   7  -5 119.648 17.0022   1
   2  -7   5 18.1412 11.2771   1
  -2  -7  -5 16.4186 2.02655   3
   2  -7   5 10.1937 9.33617   1
  -2  -7  -5 7.88483 7.50172   1
  -2  -7  -5 15.5095 2.16015   2
   2   7   5 18.0029 9.07842   1
  -2   7  -5 19.7710 2.53784   2
   2   7   5 15.5301 1.87170   2
   3  -7   5 303.223 33.2162   1
  -3  -7  -5 319.069 29.0530   1
  -3  -7  -5 366.085 12.6539   2
   3  -7   5 354.076 32.5315   1
   3  -7   5 352.643 13.3990   2
  -3   7  -5 369.623 13.7114   2
   3   7   5 360.808 12.6129   3
   3   7   5 368.449 12.8106   2
   3   7   5 410.651 33.4637   1
  -4  -7  -5 30.1634 5.00483   2
   4  -7   5 29.6827 5.38376   2
   4   7   5 43.1179 5.38617   2
   4   7   5 41.8382 5.59745   3
   5  -7   5 81.2045 8.41279   2
   5   7   5 91.0742 8.24716   2
   6  -7   5 5.80398 10.0700   2
   6   7   5 3.71401 6.07148   2
   6  -8  -5 -2.8820 4.29651   2
   6   8  -5 2.11615 5.67685   2
   5  -8  -5 87.8902 6.90657   2
   5   8  -5 82.6513 8.16510   2
   4  -8  -5 33.2451 31.9925   1
   4  -8  -5 26.8760 34.2229   1
  -4  -8   5 36.9773 32.4968   1
  -4   8   5 17.3788 3.62769   2
   4   8  -5 27.1094 25.4422   1
   4   8  -5 18.4020 3.57038   2
  -3  -8   5 7.92492 13.3567   1
   3  -8  -5 8.01626 15.9422   1
  -3  -8   5 14.8521 2.80823   2
   3  -8  -5 11.1458 1.87162   2
   3  -8  -5 8.57381 14.6157   1
   3   8  -5 13.2962 2.66690   2
   3   8  -5 14.7915 17.2172   1
  -3   8   5 14.4426 2.40539   2
  -2  -8   5 34.6232 3.63901   2
   2  -8  -5 16.4478 7.55967   1
   2  -8  -5 34.6085 2.27552   2
   2  -8  -5 27.7752 12.3662   1
  -2  -8   5 9.35736 15.9608   1
   2   8  -5 35.1369 3.57683   2
   2   8  -5 24.4253 12.6732   1
  -2   8   5 29.1498 2.58242   2
  -1  -8   5 879.911 40.8842   1
   1  -8  -5 820.842 41.0213   1
  -1  -8   5 812.962 27.6972   2
   1  -8  -5 847.959 24.8961   2
   1  -8  -5 890.304 40.7889   1
  -1   8   5 862.522 25.0848   2
   1   8  -5 827.359 26.7025   2
   1   8  -5 883.744 43.1415   1
   0  -8   5 420.246 27.0976   1
   0  -8  -5 444.807 14.1130   3
   0  -8  -5 432.834 28.5229   1
   0   8   5 461.692 25.6465   1
   0   8  -5 437.058 30.6305   1
   0   8  -5 428.684 14.6866   2
  -1  -8  -5 107.606 15.4953   1
  -1  -8  -5 119.557 4.19698   2
  -1  -8  -5 112.764 5.19684   3
   1  -8   5 140.293 20.1626   1
   1   8   5 120.944 4.37963   2
  -1   8  -5 103.794 17.8681   1
  -1   8  -5 120.383 5.65303   2
   1   8   5 109.572 17.5238   1
  -2  -8  -5 341.442 24.3966   1
   2  -8   5 338.175 29.9302   1
   2  -8   5 333.727 27.3215   1
  -2  -8  -5 337.868 11.1917   2
  -2  -8  -5 334.623 11.8444   3
   2   8   5 363.725 27.1194   1
  -2   8  -5 347.091 12.3657   2
   2   8   5 340.845 11.3574   2
  -3  -8  -5 544.231 17.7478   2
  -3  -8  -5 560.033 36.2383   1
   3  -8   5 539.041 18.6761   2
   3  -8   5 550.343 42.3942   1
   3  -8   5 539.664 38.8808   1
   3   8   5 535.305 17.8582   2
   3   8   5 536.353 17.8529   3
  -3   8  -5 524.010 18.6857   2
   3   8   5 534.598 39.6998   1
   4  -8   5 327.766 13.7546   2
  -4  -8  -5 314.178 14.5138   2
   4   8   5 332.871 12.7887   3
   4   8   5 329.258 12.9828   2
   5  -8   5 4.14166 3.85576   2
   5   8   5 5.68831 3.76699   2
   6   8   5 15.9488 6.74053   2
   6  -9  -5 0.35347 4.59490   2
   6   9  -5 -0.5664 5.62287   2
   5  -9  -5 -0.3167 2.97009   2
   5   9  -5 -1.7767 3.61562   2
   4  -9  -5 1241.05 90.5793   1
   4  -9  -5 947.302 30.8090   2
  -4   9   5 952.707 31.2411   2
   4   9  -5 940.704 69.1367   1
   3  -9  -5 155.642 25.9385   1
  -3  -9   5 126.157 21.9113   1
   3  -9  -5 157.521 6.44838   2
  -3  -9   5 160.516 8.03505   2
   3  -9  -5 159.704 29.8375   1
  -3   9   5 160.098 6.94739   2
   3   9  -5 159.343 7.99937   2
   2  -9  -5 142.598 5.27819   2
  -2  -9   5 189.379 30.2203   1
   2  -9  -5 153.337 22.8318   1
  -2  -9   5 146.176 6.85447   2
   2  -9  -5 169.446 30.6011   1
  -2   9   5 133.647 5.56113   2
   2   9  -5 177.083 31.1635   1
   2   9  -5 136.622 6.83319   2
   1  -9  -5 53.1618 2.06921   2
  -1  -9   5 47.9148 4.10892   2
   1  -9  -5 51.6107 11.9901   1
  -1  -9   5 53.4823 12.4037   1
   1  -9  -5 48.9854 12.3306   1
   1   9  -5 47.8449 13.1398   1
   1   9  -5 51.1138 4.04427   2
  -1   9   5 49.6201 2.28071   2
   0  -9  -5 3282.85 100.890   3
   0  -9  -5 3575.05 120.270   1
   0   9   5 3655.78 116.746   1
   0   9  -5 3612.66 123.453   1
   0   9  -5 3252.90 101.466   2
  -1  -9  -5 27.3813 1.73429   2
  -1  -9  -5 23.7058 2.85106   3
   1  -9   5 20.0225 10.6693   1
  -1  -9  -5 18.3908 9.66668   1
  -1   9  -5 39.8063 15.0323   1
  -1   9  -5 29.4201 3.33983   2
   1   9   5 31.6714 10.7988   1
   1   9   5 25.8213 1.91030   2
   2  -9   5 76.9494 17.0520   1
  -2  -9  -5 108.642 5.41822   3
   2  -9   5 95.7414 16.3271   1
  -2  -9  -5 106.711 4.61497   2
  -2  -9  -5 102.354 15.7331   1
   2   9   5 112.552 4.76860   2
   2   9   5 103.391 17.6131   1
  -2   9  -5 107.760 5.94707   2
   2   9   5 103.914 5.41442   3
  -3  -9  -5 185.673 7.55915   2
   3  -9   5 163.395 8.35804   2
   3  -9   5 129.818 21.9615   1
  -3  -9  -5 153.586 22.2319   1
   3  -9   5 148.277 24.7130   1
   3   9   5 157.494 7.71514   3
   3   9   5 120.439 21.7521   1
  -3   9  -5 169.003 8.70222   2
   3   9   5 176.847 7.46341   2
   4  -9   5 349.094 14.4009   2
  -4  -9  -5 338.578 15.7349   2
   4   9   5 356.753 13.8560   3
   4   9   5 365.969 13.8066   2
   5  -9   5 6.17722 4.04379   2
   5   9   5 4.06919 3.97381   2
   6   9   5 4.66364 6.53103   2
   6 -10  -5 17.4029 5.07121   2
   6  10  -5 4.48061 6.07345   2
   5 -10  -5 387.422 15.0371   2
   5  10  -5 381.852 16.8903   2
  -4 -10   5 -4.2458 25.1170   1
   4 -10  -5 0.99332 2.09628   2
   4 -10  -5 0.85794 27.8026   1
   4 -10  -5 11.4645 42.7851   1
  -4  10   5 -2.2083 2.97037   2
   4  10  -5 -3.4406 2.73950   2
   4  10  -5 -1.9221 28.4071   1
   3 -10  -5 301.078 36.3387   1
  -3 -10   5 241.061 10.4144   2
  -3 -10   5 239.786 33.8150   1
   3 -10  -5 235.443 8.81681   2
   3 -10  -5 230.494 38.9490   1
   3  10  -5 244.979 10.5412   2
   3  10  -5 220.941 37.5707   1
  -3  10   5 245.507 9.26999   2
   2 -10  -5 99.9153 17.8926   1
   2 -10  -5 118.007 4.51713   2
  -2 -10   5 121.306 6.32980   2
  -2 -10   5 107.918 18.7182   1
   2  10  -5 161.482 28.3404   1
  -2  10   5 114.056 4.86961   2
   2  10  -5 114.413 6.22548   2
   1 -10  -5 2127.40 82.3804   1
   1 -10  -5 2097.20 61.8806   3
  -1 -10   5 1975.34 85.9244   1
   1  10  -5 2168.34 84.5841   1
   1  10  -5 2148.16 62.9147   2
   0 -10  -5 40.0664 3.25494   3
   0 -10  -5 39.0641 13.9193   1
   0 -10   5 35.0737 12.4021   1
   0  10  -5 42.2742 3.69470   2
   0  10  -5 39.5792 15.4770   1
   0  10   5 44.2515 11.6206   1
  -1 -10  -5 481.941 14.5811   2
   1 -10   5 479.752 34.7430   1
  -1 -10  -5 482.467 16.0254   3
  -1 -10  -5 480.314 31.1704   1
  -1  10  -5 483.282 34.9335   1
   1  10   5 521.441 32.6528   1
  -1  10  -5 487.548 16.3435   2
   2 -10   5 36.7594 15.7234   1
  -2 -10  -5 28.4838 3.40679   3
  -2 -10  -5 33.0405 12.2699   1
  -2 -10  -5 30.8884 2.69958   2
   2 -10   5 16.8724 13.7142   1
   2  10   5 29.1151 3.68388   3
  -2  10  -5 29.0135 3.33958   2
   2  10   5 28.6159 2.63563   2
   2  10   5 19.0030 12.7382   1
   3 -10   5 1095.39 63.6711   1
  -3 -10  -5 1035.31 53.2430   1
  -3 -10  -5 1053.94 31.7105   2
   3 -10   5 892.374 54.8200   1
   3 -10   5 1052.09 32.9939   2
   3  10   5 1018.61 32.1226   3
   3  10   5 1024.12 56.7771   1
   3  10   5 1041.23 31.8169   2
  -3  10  -5 1037.38 32.9515   2
  -4 -10  -5 39.7647 6.31916   2
   4 -10   5 34.4155 4.78049   2
   4  10   5 44.1312 5.42414   2
   4  10   5 24.7851 4.59113   3
   5 -10   5 47.8597 6.19645   2
   5  10   5 32.6416 5.15985   2
   6 -11  -5 0.37159 5.00321   2
   6  11  -5 4.85519 6.34104   2
   5 -11  -5 37.5352 4.57696   2
   5  11  -5 41.2291 6.15187   2
   4 -11  -5 394.967 62.7818   1
   4 -11  -5 491.760 57.4112   1
   4 -11  -5 446.617 15.5479   2
  -4 -11   5 414.111 53.7083   1
   4  11  -5 641.608 92.7033   1
  -4  11   5 436.607 16.2017   2
  -3 -11   5 9.77517 3.00067   2
  -3 -11   5 0.54317 17.4063   1
   3 -11  -5 12.1633 19.2231   1
   3 -11  -5 -16.030 19.6697   1
   3  11  -5 10.4645 2.75428   2
   3  11  -5 2.87105 22.5679   1
  -2 -11   5 73.3987 5.23433   2
  -2 -11   5 96.2918 18.9570   1
   2 -11  -5 40.8687 16.7831   1
   2 -11  -5 68.4982 3.16820   2
   2 -11  -5 49.3612 17.1669   1
   2  11  -5 62.6819 4.91436   2
  -2  11   5 65.3360 3.51601   2
   2  11  -5 69.8035 18.4739   1
   1 -11  -5 2.45230 1.38972   3
  -1 -11   5 11.8926 10.4169   1
   1 -11  -5 7.20597 12.0392   1
   1  11  -5 1.16320 1.47712   2
   1  11  -5 -2.4890 12.5943   1
   0 -11  -5 1261.83 37.6945   3
   0 -11  -5 1293.69 59.1537   1
   0 -11   5 1281.64 58.4812   1
   0  11  -5 1253.12 38.2103   2
   0  11  -5 1330.80 63.0558   1
   0  11   5 1079.70 53.7676   1
   1 -11   5 302.565 30.5419   1
  -1 -11  -5 283.176 10.2316   3
  -1 -11  -5 262.202 26.3162   1
  -1 -11  -5 281.554 8.53877   2
  -1  11  -5 288.332 10.5855   2
   1  11   5 252.091 8.86032   2
   1  11   5 281.431 27.6121   1
  -1  11  -5 278.142 31.0503   1
   2 -11   5 51.4295 18.1103   1
  -2 -11  -5 53.1409 3.30625   2
  -2 -11  -5 52.6533 14.1407   1
  -2 -11  -5 56.5204 4.24184   3
   2  11   5 66.0192 4.70445   3
  -2  11  -5 49.5356 4.90353   2
   2  11   5 56.5926 3.32032   2
   2  11   5 48.1292 17.9565   1
  -3 -11  -5 158.152 7.13438   2
   3 -11   5 98.9581 26.3856   1
  -3 -11  -5 150.336 23.1259   1
  -3  11  -5 146.769 8.81692   2
   3  11   5 155.355 7.93905   3
   3  11   5 130.625 24.3396   1
   3  11   5 160.483 6.97922   2
   4 -11   5 249.725 12.0906   2
   4  11   5 266.170 11.1389   2
   5 -11   5 93.4289 9.31613   2
   5  11   5 96.7264 8.71321   2
   6 -12  -5 10.2328 5.57329   2
   6  12  -5 13.7209 7.78436   2
   5 -12  -5 5.17979 3.32680   2
   5  12  -5 2.64823 4.07325   2
   4 -12  -5 46.8304 4.60198   2
  -4 -12   5 52.0562 29.6693   1
   4 -12  -5 -7.6612 34.0249   1
   4  12  -5 45.4928 5.33090   2
  -4  12   5 34.9842 4.48588   2
   4  12  -5 29.8157 30.3342   1
  -3 -12   5 30.8826 19.7472   1
  -3 -12   5 8.15805 3.13148   2
   3 -12  -5 17.5698 2.13631   2
   3 -12  -5 27.5857 21.7171   1
   3 -12  -5 -3.2563 26.5706   1
   3  12  -5 17.1933 3.15412   2
  -3  12   5 17.6659 2.53544   2
   3  12  -5 10.8503 23.6300   1
   2 -12  -5 8.21903 1.22823   2
  -2 -12   5 5.80873 14.7173   1
   2 -12  -5 21.0091 15.9581   1
   2 -12  -5 7.28945 29.8511   1
  -2 -12   5 4.22710 2.25931   2
   2 -12  -5 6.45335 1.61373   3
   2  12  -5 6.14759 2.20746   2
  -2  12   5 6.44139 1.41066   2
   2  12  -5 8.04510 28.1256   1
   1 -12  -5 -0.7578 1.22748   3
  -1 -12   5 2.32068 11.2702   1
   1 -12  -5 -0.1814 12.2062   1
   1  12  -5 3.55276 1.82748   2
   1  12  -5 -4.8427 14.3342   1
   0 -12   5 236.671 27.7940   1
   0 -12  -5 225.031 28.9202   1
   0 -12  -5 253.355 9.30874   3
   0  12  -5 255.267 35.6772   1
   0  12  -5 253.679 9.75977   2
  -1 -12  -5 191.153 26.4051   1
  -1 -12  -5 221.066 8.67334   3
   1 -12   5 185.132 28.9175   1
  -1  12  -5 216.619 8.91626   2
  -1  12  -5 213.593 32.2110   1
   1  12   5 207.650 27.5523   1
  -1  12  -5 222.824 7.24447   3
   2 -12   5 38.9669 20.3085   1
  -2 -12  -5 69.6630 4.68726   3
  -2 -12  -5 59.3506 17.1223   1
  -2 -12  -5 71.0966 3.61069   2
   2  12   5 64.2440 5.06578   3
  -2  12  -5 66.5152 5.51363   2
   2  12   5 70.4578 3.66006   2
   2  12   5 45.4186 18.4163   1
  -3 -12  -5 14.2659 18.5585   1
  -3 -12  -5 -0.8958 1.96927   2
   3 -12   5 -16.648 22.8830   1
   3  12   5 0.34827 21.6176   1
  -3  12  -5 2.80855 4.41679   2
   3  12   5 -3.1240 1.78345   2
   3  12   5 -5.0992 2.79621   3
   4 -12   5 243.986 12.0923   2
   4  12   5 250.461 10.9628   2
   5 -12   5 4.30069 4.79511   2
   5  12   5 8.50808 4.29172   2
   6 -13  -5 -11.906 5.41304   2
   5 -13  -5 5.05374 2.94742   3
   5 -13  -5 5.29303 3.55390   2
   5  13  -5 -0.2731 4.30216   2
  -4 -13   5 191.300 37.1013   1
   4 -13  -5 202.763 42.5216   1
   4 -13  -5 236.961 9.46614   2
  -4  13   5 220.283 10.4978   2
   4  13  -5 225.616 49.5155   1
   4  13  -5 237.927 11.5311   2
   3 -13  -5 20.1568 30.8607   1
   3 -13  -5 17.3387 22.7443   1
  -3 -13   5 5.00473 25.7848   1
  -3 -13   5 17.9161 3.75180   2
   3 -13  -5 22.7191 2.99594   2
   3  13  -5 31.3172 27.2539   1
   3  13  -5 18.3749 3.28768   2
  -3  13   5 23.4466 2.83800   2
   2 -13  -5 15.0669 18.3506   1
   2 -13  -5 14.1564 16.8460   1
  -2 -13   5 5.46163 2.39342   2
  -2 -13   5 12.3491 14.6320   1
   2  13  -5 37.2054 18.7094   1
   1 -13  -5 53.6444 3.89321   3
  -1 -13   5 36.6964 14.4190   1
   1 -13  -5 49.1314 16.8293   1
   1  13  -5 55.2286 4.55520   2
   1  13  -5 39.3921 20.4004   1
  -1  13   5 71.5238 19.1740   1
   0 -13  -5 639.531 72.3644   1
   0 -13  -5 751.757 23.4610   3
   0 -13   5 776.630 47.1824   1
   0  13  -5 739.173 50.7291   1
   0  13  -5 741.842 23.8365   2
  -1 -13  -5 17.8160 15.2034   1
  -1 -13  -5 7.79135 2.07767   3
   1 -13   5 7.32412 14.0499   1
   1  13   5 -14.379 13.3243   1
  -1  13  -5 7.45581 2.29666   2
  -1  13  -5 8.31667 1.42829   3
  -1  13  -5 3.28282 16.3614   1
  -2 -13  -5 73.8412 5.19493   3
   2 -13   5 110.772 26.2079   1
  -2 -13  -5 55.8415 16.2938   1
  -2 -13  -5 81.8235 3.88279   2
   2  13   5 74.0583 5.63518   3
   2  13   5 80.9358 3.90449   2
   2  13   5 63.8814 21.3389   1
  -2  13  -5 69.6552 5.84866   2
  -3 -13  -5 226.420 40.8314   1
  -3 -13  -5 245.406 9.37428   2
   3  13   5 232.998 9.31539   2
   3  13   5 236.515 11.9187   3
   4  13   5 114.731 7.46494   2
   5 -13   5 21.7763 5.64104   2
   5  13   5 34.9056 5.38704   2
   5 -14  -5 256.856 10.7365   3
   5 -14  -5 276.361 12.1199   2
   5  14  -5 263.075 14.0782   2
   4 -14  -5 16.3863 2.71177   3
   4 -14  -5 -2.2790 39.7952   1
   4 -14  -5 11.8011 2.85647   2
  -4 -14   5 38.0584 37.0540   1
  -4  14   5 7.63495 3.76800   2
   4  14  -5 10.9170 3.86587   2
   3 -14  -5 200.566 35.0715   1
   3 -14  -5 168.071 7.24544   3
  -3 -14   5 162.441 9.50144   2
   3 -14  -5 152.191 39.2369   1
  -3 -14   5 170.619 29.9045   1
   3 -14  -5 172.209 6.89897   2
   3  14  -5 200.899 37.9406   1
  -3  14   5 173.472 7.45125   2
   3  14  -5 174.792 9.14053   2
  -2 -14   5 45.4964 5.35807   2
   2 -14  -5 19.9044 20.8861   1
   2 -14  -5 47.3739 3.86983   3
  -2 -14   5 79.6312 38.1667   1
   2 -14  -5 35.7683 20.4087   1
   2 -14  -5 44.6844 2.67797   2
   2  14  -5 37.4191 22.5392   1
  -2  14   5 47.8346 3.01354   2
   2  14  -5 48.7054 4.81968   2
   1 -14  -5 1721.00 81.1373   1
  -1 -14   5 1752.01 80.0740   1
   1 -14  -5 1799.79 53.6859   3
   1  14  -5 1876.38 54.6081   2
   1  14  -5 1844.16 86.2355   1
  -1  14   5 1787.41 80.4234   1
   0 -14  -5 9.26120 16.3103   1
   0 -14   5 -14.984 13.6837   1
   0 -14  -5 4.37921 1.92906   3
   0  14  -5 1.03321 1.80345   2
   0  14  -5 -11.400 17.2412   1
  -1 -14  -5 220.999 9.02221   3
   1 -14   5 194.634 34.6119   1
  -1 -14  -5 212.248 31.6800   1
  -1  14  -5 212.967 9.20394   2
  -1  14  -5 224.868 7.68235   3
  -1  14  -5 219.330 38.7050   1
   1  14   5 214.640 32.1329   1
  -2 -14  -5 175.288 7.93004   3
   2 -14   5 145.942 30.6557   1
  -2 -14  -5 203.453 32.3516   1
  -2 -14  -5 165.319 6.24390   2
  -2  14  -5 179.553 8.58008   2
   2  14   5 172.262 6.35003   2
   2  14   5 156.372 8.17966   3
   2  14   5 127.762 25.4511   1
  -3 -14  -5 634.341 20.5296   2
   3  14   5 647.556 20.7023   2
   4  14   5 -3.8650 2.87578   2
   5  14   5 9.80653 4.90968   2
   5 -15  -5 37.2453 4.78793   2
   5  15  -5 36.2534 6.39052   2
   4 -15  -5 522.241 17.1308   3
   4 -15  -5 356.525 65.0584   1
   4 -15  -5 533.031 17.4904   2
   4  15  -5 528.917 19.7867   2
  -4  15   5 495.854 18.1294   2
   3 -15  -5 128.980 36.2227   1
   3 -15  -5 120.543 6.15175   3
  -3 -15   5 157.551 45.5283   1
   3 -15  -5 126.150 5.68013   2
   3 -15  -5 92.4364 30.9556   1
   3  15  -5 131.075 8.01158   2
  -3  15   5 119.230 6.27365   2
   3  15  -5 98.8512 33.7399   1
   2 -15  -5 97.8985 5.40786   3
  -2 -15   5 105.740 7.08595   2
   2 -15  -5 95.5549 26.3728   1
  -2 -15   5 151.706 46.3007   1
   2 -15  -5 90.4041 32.6478   1
   2  15  -5 101.317 6.46901   2
   2  15  -5 104.262 29.6783   1
  -2  15   5 98.5526 4.25287   2
   1 -15  -5 59.2575 20.4242   1
   1 -15  -5 77.1745 5.07331   3
  -1 -15   5 100.442 31.6533   1
  -1  15   5 92.8755 23.2154   1
   1  15  -5 114.587 44.2994   1
   1  15  -5 88.0814 5.82820   2
   0 -15  -5 1872.66 57.0494   3
   0 -15   5 1915.88 87.0178   1
   0 -15  -5 1930.79 86.6054   1
   0  15  -5 1936.48 56.2430   3
   0  15  -5 1890.90 89.7525   1
   0  15  -5 1890.50 57.3819   2
  -1 -15  -5 212.594 34.7055   1
   1 -15   5 208.309 37.9328   1
  -1 -15  -5 245.896 9.84198   3
  -1  15  -5 246.202 8.40336   3
  -1  15  -5 230.962 9.91322   2
  -1  15  -5 248.339 43.2223   1
  -2 -15  -5 17.9329 16.1008   1
   2 -15   5 65.6600 27.1410   1
  -2 -15  -5 28.7904 2.79716   2
   2  15   5 20.7236 3.64347   3
   2  15   5 1.68982 19.8812   1
  -2  15  -5 26.4244 3.83790   2
   2  15   5 30.9693 2.71969   2
  -3 -15  -5 -1.1477 2.37025   2
   3  15   5 -0.8958 2.08795   2
   4  15   5 287.422 12.1169   2
   5  15   5 29.3745 5.93632   2
   5 -16  -5 71.4310 7.73540   2
   5  16  -5 72.4886 9.94047   2
   4 -16  -5 4.12151 2.64950   2
   4 -16  -5 -1.4006 2.60312   3
   4  16  -5 2.62371 3.65844   2
   3 -16  -5 9.34568 35.4581   1
  -3 -16   5 31.9883 44.1151   1
   3 -16  -5 58.9209 4.72329   3
   3 -16  -5 49.5695 4.00854   2
   3  16  -5 55.0412 6.19335   2
  -3  16   5 55.6963 4.78319   2
   3  16  -5 54.5345 38.5129   1
   2 -16  -5 88.5992 29.0336   1
  -2 -16   5 89.0771 23.5800   1
  -2 -16   5 90.6735 7.15944   2
   2 -16  -5 89.2124 5.30900   3
   2 -16  -5 127.416 28.2873   1
   2  16  -5 96.5600 6.33994   2
  -2  16   5 88.3480 3.90760   2
   2  16  -5 56.8945 27.1457   1
  -1 -16   5 324.146 41.2187   1
   1 -16  -5 315.944 11.6345   3
   1 -16  -5 292.043 42.4310   1
  -1  16   5 249.359 41.4934   1
   1  16  -5 336.403 48.8748   1
   1  16  -5 333.053 12.4072   2
   0 -16  -5 71.1627 5.18353   3
   0 -16  -5 23.4576 18.2044   1
   0 -16   5 79.5963 22.1774   1
   0  16   5 57.2907 31.0397   1
   0  16  -5 63.0330 5.07725   2
   0  16  -5 67.3272 4.50781   3
   0  16  -5 48.4067 23.8352   1
  -1 -16  -5 229.314 9.71094   3
   1 -16   5 207.819 40.1485   1
  -1 -16  -5 217.190 40.3622   1
  -1  16  -5 245.683 8.43308   3
  -1  16  -5 226.649 9.91056   2
  -1  16  -5 237.421 37.4323   1
  -2 -16  -5 9.33764 19.7463   1
   2 -16   5 -30.734 21.0853   1
  -2  16  -5 1.21571 24.6095   1
  -3 -16  -5 144.435 7.19765   2
   3  16   5 142.398 6.76170   2
   4  16   5 173.848 9.24224   2
   5  16   5 13.5244 5.44888   2
   5 -17  -5 29.5551 5.00009   2
   5  17  -5 32.1255 6.25834   2
   4 -17  -5 2.49604 2.81815   2
   4 -17  -5 2.86037 2.82516   3
   4  17  -5 2.38515 3.81360   2
   3 -17  -5 41.4883 38.6405   1
  -3 -17   5 45.3347 34.3628   1
   3  17  -5 46.0021 57.0605   1
   2 -17  -5 14.0769 28.0038   1
   2 -17  -5 6.47392 2.22079   3
   2 -17  -5 11.1274 25.7355   1
  -2 -17   5 16.4474 31.3361   1
   2  17  -5 1.12037 2.35622   2
   2  17  -5 18.3136 29.4517   1
   1 -17  -5 35.5364 22.9706   1
  -1 -17   5 56.2262 37.0034   1
   1 -17  -5 26.7405 3.13163   3
   1  17  -5 26.6780 3.29533   3
   1  17  -5 25.3095 3.32849   2
   1  17  -5 34.7839 25.5946   1
  -1  17   5 33.4994 24.5287   1
   0 -17  -5 16.9067 2.98276   3
   0 -17   5 5.04067 20.7589   1
   0 -17  -5 25.8594 20.8196   1
   0  17  -5 16.9528 2.76223   2
   0  17  -5 18.8289 2.65685   3
   0  17   5 12.5690 19.4694   1
   0  17  -5 3.24287 22.8816   1
  -1 -17  -5 62.9074 29.0649   1
  -1 -17  -5 59.1052 5.08035   3
   1 -17   5 50.2859 22.0688   1
  -1  17  -5 58.3269 4.61633   3
   1  17   5 13.8777 20.6304   1
  -1  17  -5 44.2078 5.66110   2
  -1  17  -5 62.6672 5.20083   2
  -1  17  -5 -6.8525 24.5535   1
   2 -17   5 9.97476 28.9239   1
  -2 -17  -5 13.7016 1.81881   2
  -2  17  -5 20.3407 4.03549   2
   2  17   5 15.4713 1.76921   2
  -2  17  -5 -35.651 25.9873   1
  -3 -17  -5 212.081 8.74691   2
   3  17   5 198.853 8.39951   2
   4  17   5 -4.7720 3.32967   2
   5  17   5 30.2713 6.05363   2
   5 -18  -5 66.3615 8.58727   2
   5  18  -5 74.7919 10.6295   2
   4 -18  -5 35.9471 4.04269   3
   4 -18  -5 26.7075 3.80440   2
   4  18  -5 39.6407 5.77077   2
   3 -18  -5 18.0257 49.2775   1
   3 -18  -5 44.7577 4.92568   3
  -3 -18   5 57.9680 37.5013   1
  -3  18   5 35.2945 4.16201   2
   3  18  -5 80.9496 43.6037   1
   2 -18  -5 24.8856 29.8671   1
   2 -18  -5 64.0717 35.6458   1
  -2 -18   5 8.53766 19.2191   1
   2 -18  -5 46.1913 4.71240   3
   2  18  -5 52.8823 5.41251   2
   2  18  -5 99.5899 33.6690   1
  -1 -18   5 462.380 53.3437   1
   1 -18  -5 505.803 17.7189   3
   1 -18  -5 519.063 57.1664   1
   1  18  -5 519.839 17.6961   3
  -1  18   5 474.340 55.3181   1
   1  18  -5 757.697 93.7983   1
   1  18  -5 532.477 18.2640   2
   0 -18   5 3.96151 24.3690   1
   0 -18  -5 1.09680 2.13229   3
   0 -18  -5 1.60753 23.8037   1
   0  18  -5 1.81414 2.16214   2
   0  18   5 13.0602 24.1670   1
   0  18  -5 -9.5605 26.6342   1
   0  18  -5 0.51687 2.31265   3
  -1 -18  -5 53.9125 26.2856   1
  -1 -18  -5 15.8758 2.88234   3
   1 -18   5 14.9597 24.1350   1
  -1  18  -5 14.2799 3.28015   2
  -1  18  -5 17.7983 2.98821   2
  -1  18  -5 21.4223 2.52773   3
  -1  18  -5 32.0781 28.6968   1
  -2 -18  -5 71.1442 3.76500   2
  -2  18  -5 40.2215 33.0612   1
   2  18   5 72.2259 3.55411   2
  -3 -18  -5 167.006 7.90449   2
   3  18   5 165.126 7.38210   2
   4  18   5 48.1931 6.78840   2
   5  19  -5 7.08028 6.01689   2
   4 -19  -5 316.978 12.3903   2
   4 -19  -5 306.122 12.3640   3
   4  19  -5 301.348 14.4390   2
   3 -19  -5 51.1606 46.6426   1
   3 -19  -5 76.5650 5.95646   3
  -3 -19   5 57.5695 39.8452   1
   3  19  -5 77.4630 7.40861   2
   2 -19  -5 51.9976 5.08077   3
   2 -19  -5 22.7052 36.9531   1
  -2 -19   5 70.8044 33.0453   1
   2  19  -5 56.6899 5.81490   2
   2  19  -5 47.4654 36.8778   1
  -1 -19   5 84.6251 29.0526   1
   1 -19  -5 104.364 33.4825   1
   1 -19  -5 103.257 6.59205   3
   1  19  -5 108.869 7.13833   3
   1  19  -5 58.0657 35.3409   1
   1  19  -5 105.645 6.83161   2
   0 -19   5 712.455 65.9319   1
   0 -19  -5 806.072 63.1057   1
   0 -19  -5 801.615 26.2677   3
   0  19  -5 830.319 26.3129   2
   0  19  -5 808.174 25.4995   3
   0  19  -5 812.606 26.4709   2
   1 -19   5 78.6587 33.6752   1
  -1 -19  -5 93.7910 6.56775   3
  -1  19  -5 79.6182 7.07572   2
  -1  19  -5 82.5154 5.30056   3
  -1  19  -5 141.941 38.3988   1
  -1  19  -5 86.2985 6.14148   2
   3  19   5 49.9804 4.86305   2
   4  19   5 163.175 9.53651   2
   4 -20  -5 -0.4340 3.67009   3
   4  20  -5 2.35554 4.51507   2
   3 -20  -5 106.539 7.13834   3
   3  20  -5 114.048 8.37557   2
  -2 -20   5 162.720 47.7769   1
   2 -20  -5 73.7261 42.4188   1
   2 -20  -5 113.522 6.77613   3
   2  20  -5 132.719 46.2529   1
   2  20  -5 102.401 7.36272   2
   1 -20  -5 558.733 19.0845   3
  -1 -20   5 483.452 64.8384   1
   1  20  -5 569.016 19.2810   2
   1  20  -5 478.863 74.7576   1
   0 -20   5 44.2847 32.0259   1
   0 -20  -5 55.7614 5.58156   3
   0  20  -5 54.6271 5.82695   3
   0  20  -5 42.1795 4.72072   2
   0  20  -5 58.1982 5.47255   2
   0  20  -5 34.5573 34.1195   1
  -1 -20  -5 123.666 7.57305   3
  -1  20  -5 109.172 8.37144   2
  -1  20  -5 134.871 7.51141   2
  -1  20  -5 82.1263 38.8309   1
  -1  20  -5 138.189 6.74448   3
   3  20   5 196.823 8.22286   2
   4 -21  -5 30.3009 5.70733   3
   4  21  -5 21.3724 5.36423   2
   3 -21  -5 24.8634 3.99543   3
   3  21  -5 19.5336 4.27241   2
   2 -21  -5 0.18972 2.63172   3
  -2 -21   5 -36.296 37.1913   1
   2  21  -5 -21.596 47.4057   1
   2  21  -5 4.77124 2.98153   2
  -1 -21   5 -2.2984 33.0093   1
   1 -21  -5 9.62544 3.02566   3
   1  21  -5 18.5410 36.2716   1
   1  21  -5 1.72952 2.58080   2
   0 -21  -5 176.676 9.51173   3
   0 -21   5 135.091 40.1271   1
   0  21  -5 191.210 9.20664   3
   0  21  -5 199.997 9.23857   2
   0  21  -5 185.823 10.0713   2
   0  21  -5 148.131 46.1225   1
  -1  21  -5 48.0305 68.8684   1
  -1  21  -5 115.075 7.17063   2
  -1  21  -5 110.692 6.80569   3
   4  22  -5 5.43929 5.01442   2
   3  22  -5 6.93340 3.82405   2
  -2 -22   5 9.39025 76.0462   1
   2  22  -5 -1.4795 3.85460   2
   1 -22  -5 11.8889 3.28756   3
  -1 -22   5 16.0942 40.4138   1
   1  22  -5 -56.218 40.6293   1
   1  22  -5 15.3418 3.38369   2
   0 -22  -5 17.5005 3.31477   3
   0  22  -5 0.55844 43.0235   1
   0  22  -5 17.1002 3.44677   2
   0  22  -5 13.2605 4.08551   3
  -1  22  -5 2.98128 2.85059   2
  -1  22  -5 0.98114 3.28809   3
  -2  22  -5 4.51291 3.51361   2
   4  23  -5 90.7048 10.5945   2
   3 -23  -5 22.2881 4.34205   3
   3  23  -5 15.0914 4.67039   2
   2 -23  -5 41.4190 4.58105   3
   2  23  -5 31.3677 4.34107   2
   1  23  -5 -41.997 52.8177   1
   0 -23  -5 227.348 10.8814   3
   0  23  -5 242.329 10.8364   2
  -1  23  -5 12.8649 4.67087   3
  -1  23  -5 15.1374 4.47209   2
  -2  23  -5 61.6163 7.35623   2
   3 -24  -5 48.3651 5.39228   3
   3  24  -5 43.8437 5.71029   2
   2 -24  -5 119.675 8.06579   3
   2  24  -5 111.588 8.31499   2
   1 -24  -5 370.492 14.7580   3
   0  24  -5 8.33607 3.92548   2
  -1  24  -5 77.3452 7.15651   2
  -2  24  -5 77.3371 8.05804   2
   3 -25  -5 35.4953 5.41412   3
   3  25  -5 37.7691 5.81668   2
   2 -25  -5 7.85690 3.98151   3
   2  25  -5 10.8336 4.04121   2
   1 -25  -5 25.2560 4.47115   3
   1  25  -5 24.4593 4.30484   2
   0  25  -5 232.457 11.2097   2
  -1  25  -5 111.315 8.29538   2
  -2  25  -5 5.24820 4.35650   2
  -3  25  -5 4.59219 5.50551   2
   3  26  -5 -3.4732 5.03367   2
   2 -26  -5 29.0495 4.90653   3
   2  26  -5 31.0187 5.01613   2
   1  26  -5 7.50873 3.93803   2
   0  26  -5 29.3698 4.68209   2
  -1  26  -5 12.1759 4.36183   2
  -2  26  -5 7.97762 4.78910   2
   2  27  -5 -0.4555 4.48800   2
   1  27  -5 5.98848 4.15654   2
   0  27  -5 10.1059 4.19174   2
  -1  27  -5 -1.0300 4.21668   2
  -2  27  -5 29.5798 5.73974   2
   2  28  -5 23.0638 5.68448   2
   1  28  -5 89.1571 9.02449   2
   0  28  -5 -1.4875 4.40077   2
  -1  28  -5 -1.2582 4.80813   2
   6   0  -6 19.8768 5.49138   2
   5   0  -6 -35.654 41.8316   1
  -5   0   6 -3.6092 31.6823   1
  -4   0   6 377.755 39.9639   1
   4   0  -6 317.941 12.5720   2
   4   0  -6 283.284 41.9754   1
  -4   0   6 324.805 13.2105   2
  -3   0   6 10.2355 11.1385   1
   3   0  -6 9.74193 10.0307   1
   2   0  -6 1299.82 39.5044   2
   2   0  -6 1330.67 54.3823   1
   1   0  -6 3.66637 1.15882   2
   1   0  -6 0.57755 4.36653   1
  -1   0   6 4.65327 1.38965   2
  -1   0   6 -0.8226 4.18688   1
   0   0  -6 1368.11 40.8054   2
  -1   0  -6 0.06378 0.92049   2
   2   0   6 2900.69 89.6820   1
   2   0   6 2779.34 82.8525   2
  -2   0  -6 2767.89 81.8804   3
  -2   0  -6 2834.60 82.6687   2
   3   0   6 7.95376 10.2828   1
   4   0   6 281.559 11.9525   2
   5   0   6 1.16036 3.44063   2
   6   0   6 218.510 15.1368   2
   6  -1  -6 99.5588 9.90182   2
   6   1  -6 105.183 10.3510   2
  -5  -1   6 482.641 62.2510   1
   5  -1  -6 227.776 50.4882   1
   5  -1  -6 371.232 14.8693   2
  -5   1   6 414.850 58.8342   1
   5   1  -6 265.410 67.6730   1
   5   1  -6 358.374 15.0167   2
   4  -1  -6 88.6943 47.9442   1
   4  -1  -6 67.1272 5.39526   2
  -4  -1   6 76.7801 26.5053   1
  -4  -1   6 80.9723 6.90514   2
   4   1  -6 54.7130 21.7678   1
   4   1  -6 78.8420 5.81490   2
  -4   1   6 64.0689 6.44806   2
  -4   1   6 56.3800 19.9465   1
   3  -1  -6 87.9383 4.93394   2
   3  -1  -6 100.523 20.8936   1
  -3  -1   6 85.6018 5.41190   2
  -3  -1   6 109.477 21.2955   1
   3   1  -6 65.7934 15.3306   1
   3   1  -6 87.5028 5.05526   2
  -3   1   6 67.2339 15.0593   1
  -3   1   6 92.3709 5.39570   2
   2  -1  -6 437.805 27.5019   1
   2  -1  -6 432.521 13.9112   2
  -2  -1   6 410.896 14.3686   2
   2   1  -6 414.011 14.0855   2
   2   1  -6 433.167 27.7298   1
  -2   1   6 404.297 32.4352   1
  -2   1   6 416.901 14.1076   2
  -1  -1   6 3020.46 88.5255   2
   1  -1  -6 3101.33 97.4129   1
  -1  -1   6 3177.20 97.4843   1
   1  -1  -6 2901.32 88.0957   2
   1   1  -6 2883.70 88.3605   2
  -1   1   6 3105.43 96.9479   1
  -1   1   6 2907.93 88.2457   2
   1   1  -6 3136.56 98.1265   1
   0  -1  -6 32.8227 2.46756   2
   0   1  -6 28.6362 2.64082   2
  -1  -1  -6 8.78749 1.34588   2
  -1   1  -6 8.20107 1.46096   2
   2  -1   6 45.5214 3.69038   2
   2  -1   6 35.8209 7.50068   1
   2  -1   6 30.8138 7.81770   1
  -2   1  -6 44.7444 2.52373   3
   2   1   6 35.5249 7.25461   1
  -2   1  -6 35.2820 3.48866   2
   3  -1   6 1929.82 71.4486   1
  -3  -1  -6 1950.25 72.3433   1
  -3  -1  -6 1848.28 56.8513   2
   3  -1   6 1843.68 57.1580   2
  -3   1  -6 1859.48 57.0237   2
   3   1   6 1892.54 57.1213   2
   3   1   6 1984.73 72.0484   1
  -4  -1  -6 6.34856 21.4154   1
   4  -1   6 11.2577 3.19889   2
   4   1   6 16.9098 3.27696   2
   5  -1   6 6.57282 3.70236   2
   5   1   6 5.96580 3.78010   2
   6  -1   6 0.98863 6.56515   2
   6   1   6 14.4040 6.69218   2
   6  -2  -6 -3.8343 4.47289   2
   6   2  -6 8.90529 5.31091   2
   5  -2  -6 444.724 17.2166   2
  -5  -2   6 465.644 61.2795   1
  -5   2   6 484.690 64.4576   1
   5   2  -6 438.209 17.5434   2
   4  -2  -6 9.98157 17.7077   1
  -4  -2   6 3.32657 3.09335   2
   4  -2  -6 10.3547 2.63350   2
  -4  -2   6 -17.149 17.5893   1
   4   2  -6 43.5768 22.4163   1
   4   2  -6 8.86675 2.73888   2
  -4   2   6 14.0368 15.2563   1
  -4   2   6 2.74334 2.95810   2
   3  -2  -6 10.7439 13.3759   1
  -3  -2   6 19.7222 12.8153   1
   3  -2  -6 15.7276 2.13228   2
  -3  -2   6 16.3285 2.49572   2
   3   2  -6 17.1028 14.5754   1
  -3   2   6 16.5360 2.49375   2
   3   2  -6 22.8024 3.24086   2
  -3   2   6 10.0284 12.5939   1
   2  -2  -6 220.209 8.08222   2
  -2  -2   6 229.972 8.67393   2
   2  -2  -6 217.214 20.6551   1
  -2  -2   6 161.164 28.2061   1
  -2   2   6 225.620 20.9369   1
  -2   2   6 229.343 8.43747   2
   2   2  -6 224.404 8.56268   2
   2   2  -6 213.387 21.2015   1
  -1  -2   6 1278.10 37.7499   2
   1  -2  -6 1235.38 37.0624   2
  -1  -2   6 1269.41 46.3228   1
   1  -2  -6 1265.04 45.9856   1
   1   2  -6 1213.93 37.5830   2
  -1   2   6 1261.35 45.8756   1
   1   2  -6 1254.87 47.1119   1
  -1   2   6 1207.14 37.2160   2
   0  -2  -6 13.7800 1.85279   2
   0  -2   6 12.0428 3.79692   1
   0   2  -6 22.6823 5.78077   1
   0   2  -6 10.7255 1.72076   2
  -1  -2  -6 59.3597 3.09576   2
  -1  -2  -6 56.5667 2.91280   3
  -1   2  -6 59.3758 3.42339   2
  -2  -2  -6 229.110 8.36589   2
  -2  -2  -6 228.686 15.9308   1
   2  -2   6 220.110 8.77435   2
   2  -2   6 228.447 17.8473   1
   2  -2   6 239.773 16.6538   1
  -2  -2  -6 223.127 7.95287   3
  -2   2  -6 222.701 7.43707   3
  -2   2  -6 215.691 8.60062   2
   2   2   6 247.429 16.1986   1
   2   2   6 218.499 8.51926   2
   3  -2   6 13.4661 10.5471   1
  -3  -2  -6 3.83669 10.0569   1
   3  -2   6 16.1896 2.72858   2
   3  -2   6 1.06503 10.9723   1
  -3   2  -6 10.4772 2.72762   2
   3   2   6 16.1149 11.7764   1
   4  -2   6 0.89925 2.89541   2
  -4  -2  -6 14.3785 21.7198   1
   4   2   6 5.58982 2.78172   2
   5  -2   6 -2.1426 3.39751   2
   5   2   6 -1.1401 3.50283   2
   6  -2   6 11.0204 7.11716   2
   6   2   6 6.07533 6.46368   2
   6  -3  -6 144.180 10.5324   2
   6   3  -6 121.969 11.0481   2
   5  -3  -6 68.5350 6.85665   2
   5  -3  -6 17.3268 50.3771   1
  -5  -3   6 50.1468 32.0255   1
  -5   3   6 49.0997 32.7764   1
   5   3  -6 89.1798 7.77984   2
  -4  -3   6 287.497 43.1363   1
   4  -3  -6 200.893 8.80302   2
  -4  -3   6 173.081 10.2767   2
   4  -3  -6 237.541 43.1002   1
   4   3  -6 239.462 41.1342   1
  -4   3   6 186.025 9.41746   2
  -4   3   6 288.901 52.9632   1
   4   3  -6 198.599 9.39368   2
   3  -3  -6 -0.2988 12.6968   1
   3  -3  -6 2.71774 1.49772   2
  -3  -3   6 0.46745 1.94628   2
  -3  -3   6 6.55195 14.5652   1
  -3   3   6 2.11346 1.89797   2
  -3   3   6 -11.044 11.9102   1
   3   3  -6 3.35478 1.89578   2
   3   3  -6 3.71138 12.5661   1
  -2  -3   6 826.870 44.2493   1
   2  -3  -6 822.985 40.5613   1
  -2  -3   6 840.379 26.3777   2
   2  -3  -6 824.998 25.6036   2
   2   3  -6 841.457 26.3605   2
  -2   3   6 863.152 40.4562   1
   2   3  -6 860.058 41.5247   1
  -2   3   6 841.723 25.9279   2
   1  -3  -6 797.590 24.2008   2
  -1  -3   6 793.454 33.7137   1
  -1  -3   6 809.003 25.1126   2
   1  -3  -6 834.316 33.7894   1
   1   3  -6 774.850 24.9901   2
   1   3  -6 825.689 35.1158   1
  -1   3   6 823.178 33.6231   1
  -1   3   6 775.083 24.3892   2
   0  -3   6 172.401 11.1994   1
   0  -3  -6 165.198 5.98310   2
   0  -3  -6 155.966 11.3581   1
   0   3  -6 161.379 14.0472   1
   0   3  -6 161.579 6.63269   2
  -1  -3  -6 26.9565 2.17781   2
   1  -3   6 21.9997 6.20949   1
  -1  -3  -6 26.8331 2.15959   3
   1  -3   6 31.5066 5.35943   1
  -1   3  -6 29.6302 2.87166   2
  -2  -3  -6 7.33451 1.53649   2
   2  -3   6 1.45016 7.40877   1
  -2  -3  -6 9.50960 1.55613   3
   2  -3   6 5.12545 6.83542   1
  -2  -3  -6 4.62469 6.15454   1
   2   3   6 8.87323 6.57993   1
   2   3   6 9.16135 1.72160   2
  -3  -3  -6 200.942 8.36342   2
   3  -3   6 181.691 8.63429   2
   3  -3   6 192.483 24.0832   1
  -3  -3  -6 189.654 23.1155   1
   3  -3   6 202.482 25.1114   1
   3   3   6 194.473 8.45545   2
  -3   3  -6 194.050 8.86974   2
   3   3   6 212.801 24.4928   1
   4  -3   6 9.74845 5.00041   2
   4   3   6 1.82744 2.66184   2
   5  -3   6 -0.2605 3.51067   2
   5   3   6 0.22881 3.63838   2
   6  -3   6 25.6275 8.51829   2
   6   3   6 15.7522 6.74161   2
   6  -4  -6 25.0511 5.40319   2
   6   4  -6 22.8666 6.09390   2
   5  -4  -6 71.8782 6.86091   2
  -5  -4   6 54.6360 55.6172   1
  -5   4   6 95.6515 36.2867   1
   5   4  -6 66.7449 7.38616   2
  -4  -4   6 139.393 25.4121   1
   4  -4  -6 154.116 7.36155   2
   4  -4  -6 112.841 27.4796   1
  -4   4   6 139.695 8.16325   2
   4   4  -6 173.884 31.3058   1
   4   4  -6 152.798 8.29502   2
  -4   4   6 171.691 27.1996   1
  -3  -4   6 2.14424 2.03577   2
   3  -4  -6 1.44004 12.0824   1
   3  -4  -6 3.26417 1.47032   2
  -3  -4   6 3.71434 12.7809   1
  -3   4   6 2.34239 12.2878   1
   3   4  -6 2.13098 1.89038   2
  -3   4   6 3.06636 1.91700   2
   3   4  -6 3.08647 12.1065   1
   2  -4  -6 1101.45 49.2151   1
  -2  -4   6 1130.08 48.7741   1
   2  -4  -6 1068.14 33.0195   2
  -2  -4   6 1106.25 34.0085   2
   2   4  -6 1102.88 34.0168   2
   2   4  -6 1096.85 49.9717   1
  -2   4   6 1109.89 33.3920   2
  -2   4   6 1117.36 48.6928   1
  -1  -4   6 178.751 15.2026   1
  -1  -4   6 160.921 7.67538   2
   1  -4  -6 171.035 15.4206   1
   1  -4  -6 195.223 6.49557   2
   1   4  -6 201.167 17.4466   1
   1   4  -6 188.210 7.55325   2
  -1   4   6 194.694 6.79059   2
   0  -4  -6 988.067 28.8290   2
   0  -4  -6 1007.64 33.8576   1
   0  -4   6 983.983 36.1427   1
   0  -4  -6 942.587 28.9105   2
   0  -4  -6 980.684 36.4791   1
   0   4  -6 914.033 29.7895   2
   0   4  -6 989.429 40.1565   1
  -1  -4  -6 12.2273 1.40989   2
  -1  -4  -6 9.03032 1.34376   3
   1  -4   6 6.29117 11.1307   1
  -1   4  -6 11.0875 2.03079   2
  -2  -4  -6 1925.80 57.2491   3
   2  -4   6 1986.84 71.1455   1
  -2  -4  -6 1857.53 57.3537   2
   2  -4   6 1915.48 58.0680   2
  -2  -4  -6 2019.83 65.9552   1
   2  -4   6 1937.31 67.1560   1
   2   4   6 1973.99 66.5792   1
   2   4   6 1919.65 57.4423   2
  -2   4  -6 1945.45 57.8562   2
   3  -4   6 11.0858 12.8161   1
  -3  -4  -6 10.6061 2.37719   2
  -3  -4  -6 15.3982 11.6143   1
   3  -4   6 -3.3034 11.6104   1
   3   4   6 10.2423 2.38394   2
   3   4   6 6.85580 11.6261   1
   4  -4   6 202.536 12.3484   2
   4   4   6 223.091 10.1354   2
   5  -4   6 0.33346 3.77219   2
   5   4   6 3.84042 3.83798   2
   6   4   6 204.415 15.1023   2
   6  -5  -6 7.76838 4.95582   2
   6   5  -6 11.0506 5.72695   2
   5  -5  -6 307.456 12.8561   2
  -5  -5   6 173.203 49.7840   1
  -5   5   6 258.392 45.7822   1
   5   5  -6 308.274 13.8226   2
  -4  -5   6 45.3173 21.3990   1
   4  -5  -6 42.7476 23.1399   1
   4  -5  -6 53.8937 4.71165   2
   4   5  -6 50.0715 5.64975   2
  -4   5   6 47.4292 22.1502   1
  -4   5   6 49.3536 5.93147   2
   4   5  -6 60.2875 25.5306   1
   3  -5  -6 80.1538 4.55933   2
   3  -5  -6 97.2630 19.8846   1
  -3  -5   6 93.9462 5.92806   2
  -3  -5   6 93.2332 18.3721   1
   3   5  -6 85.3015 5.56871   2
  -3   5   6 85.8490 5.20601   2
  -3   5   6 112.125 20.4303   1
   3   5  -6 80.4276 19.6514   1
   2  -5  -6 34.9833 2.64964   2
   2  -5  -6 29.0103 11.2905   1
  -2  -5   6 37.8517 11.3069   1
  -2  -5   6 38.6744 3.78872   2
  -2   5   6 35.5259 3.11590   2
   2   5  -6 38.0449 3.76754   2
   2   5  -6 34.6086 12.0978   1
   1  -5  -6 4345.45 130.171   2
  -1  -5   6 4552.42 142.956   1
   1  -5  -6 4704.42 142.554   1
   1  -5  -6 4651.17 143.098   1
   1   5  -6 4253.53 131.445   2
   1   5  -6 4761.49 145.704   1
  -1   5   6 4358.83 130.407   2
   0  -5  -6 -1.6646 5.98289   1
   0  -5  -6 3.62734 4.71645   1
   0  -5   6 2.05005 4.91994   1
   0  -5  -6 3.97906 0.98047   2
   0  -5  -6 2.34500 0.86292   2
   0   5  -6 2.83676 7.33433   1
   1  -5   6 168.512 16.2001   1
  -1  -5  -6 169.703 6.04155   2
  -1  -5  -6 174.670 6.55361   3
  -1  -5  -6 185.126 11.5233   1
  -1   5  -6 169.427 7.04455   2
  -1   5  -6 172.108 14.2987   1
   1   5   6 168.287 13.7401   1
  -2  -5  -6 54.6484 10.1848   1
  -2  -5  -6 84.2498 4.27640   3
   2  -5   6 59.1363 11.3449   1
   2  -5   6 63.0885 13.3587   1
  -2   5  -6 72.3246 2.79778   3
  -2   5  -6 81.6237 4.91967   2
   2   5   6 59.6521 10.7929   1
  -3  -5  -6 2536.45 74.6462   2
   3  -5   6 2510.05 75.4240   2
   3  -5   6 2471.11 95.0512   1
   3  -5   6 2519.93 91.9279   1
  -3  -5  -6 2540.78 90.3530   1
   3   5   6 2532.56 74.8919   2
  -3   5  -6 2550.50 75.3559   2
   3   5   6 2529.85 91.3366   1
   4  -5   6 14.5189 3.26869   2
   4   5   6 20.5751 3.55723   2
   5  -5   6 30.1651 5.16064   2
   5   5   6 30.5145 5.13272   2
   6   5   6 -1.5888 6.56386   2
   6  -6  -6 26.6402 5.40675   2
   6   6  -6 10.9911 6.10003   2
   5  -6  -6 212.051 10.4954   2
   5   6  -6 218.357 11.8148   2
  -4  -6   6 100.985 22.8856   1
   4  -6  -6 117.095 6.29348   2
   4  -6  -6 56.2139 25.9936   1
   4   6  -6 115.611 7.42679   2
   4   6  -6 126.792 29.8065   1
  -4   6   6 111.492 7.48057   2
   3  -6  -6 43.7973 3.42160   2
  -3  -6   6 84.7863 24.9901   1
   3  -6  -6 34.8235 16.3607   1
  -3  -6   6 47.5439 4.77061   2
   3   6  -6 24.8645 16.4385   1
  -3   6   6 43.3301 4.13260   2
   3   6  -6 40.4766 4.49265   2
  -2  -6   6 920.224 45.1401   1
   2  -6  -6 967.870 57.0505   1
  -2  -6   6 971.976 30.0112   2
   2  -6  -6 927.500 28.6637   2
   2   6  -6 945.010 30.0756   2
  -2   6   6 976.964 29.0713   2
   2   6  -6 986.246 47.8314   1
   1  -6  -6 209.998 18.8120   1
   1  -6  -6 220.846 7.14855   2
   1  -6  -6 234.847 18.6110   1
  -1  -6   6 227.393 8.90497   2
  -1   6   6 219.241 7.42392   2
   1   6  -6 200.677 8.56334   2
   1   6  -6 207.537 20.3874   1
   0  -6  -6 328.007 21.3859   1
   0  -6  -6 319.505 9.58781   2
   0  -6  -6 284.108 10.2282   2
   0  -6   6 307.741 21.9974   1
   0   6  -6 335.228 24.6027   1
   0   6  -6 297.681 11.0305   2
   1  -6   6 20.9248 8.69714   1
  -1  -6  -6 37.4808 2.84808   3
  -1  -6  -6 43.3174 7.11702   1
  -1  -6  -6 34.8964 2.18721   2
  -1   6  -6 45.6985 9.08801   1
  -1   6  -6 32.3134 3.36822   2
   1   6   6 41.6883 8.60214   1
   2  -6   6 1037.08 48.1581   1
  -2  -6  -6 1038.01 31.3955   3
  -2  -6  -6 963.267 31.6933   2
   2  -6   6 1024.16 43.5331   1
  -2  -6  -6 1048.31 41.2924   1
   2   6   6 1053.05 31.2166   2
  -2   6  -6 1035.79 31.9516   2
   2   6   6 1013.00 43.3029   1
   3  -6   6 59.3665 17.8871   1
   3  -6   6 58.0165 15.3345   1
  -3  -6  -6 61.9414 14.9961   1
   3  -6   6 80.4778 5.97693   2
   3   6   6 83.3822 16.5311   1
  -3   6  -6 76.4808 6.34553   2
   4  -6   6 149.820 8.73377   2
   4   6   6 162.340 8.41000   2
   5  -6   6 1.88232 3.84018   2
   5   6   6 1.49440 3.67146   2
   6   6   6 73.8404 9.11464   2
   6  -7  -6 168.292 11.3116   2
   6   7  -6 176.357 13.5251   2
   5  -7  -6 11.2100 3.36468   2
   5   7  -6 9.08674 4.10332   2
   4  -7  -6 106.373 6.00198   2
   4  -7  -6 112.846 41.1551   1
  -4  -7   6 81.1349 26.5873   1
   4   7  -6 87.4016 30.0350   1
  -4   7   6 99.4401 7.13609   2
   4   7  -6 97.2087 7.19151   2
   3  -7  -6 -3.8169 15.6604   1
  -3  -7   6 9.07644 2.44657   2
   3  -7  -6 10.6008 1.90073   2
  -3  -7   6 18.7287 13.3916   1
   3   7  -6 11.8641 2.66600   2
   3   7  -6 23.2198 17.0580   1
  -3   7   6 12.8697 2.29668   2
   2  -7  -6 626.184 19.6166   2
  -2  -7   6 603.580 36.2110   1
   2  -7  -6 649.349 42.7394   1
   2  -7  -6 654.421 37.5691   1
  -2  -7   6 660.188 21.1989   2
  -2   7   6 637.191 20.0044   2
   2   7  -6 632.970 21.2304   2
   2   7  -6 684.567 41.1200   1
   1  -7  -6 126.683 17.1259   1
  -1  -7   6 142.140 16.7387   1
   1  -7  -6 117.859 16.7111   1
   1  -7  -6 137.236 4.70594   2
  -1   7   6 138.224 4.97003   2
   1   7  -6 129.628 6.32736   2
   1   7  -6 137.904 19.2981   1
   0  -7  -6 119.917 4.29092   2
   0  -7  -6 129.621 4.22116   2
   0  -7   6 139.915 15.9829   1
   0  -7  -6 121.931 17.3412   1
   0   7  -6 121.493 5.83431   2
   0   7  -6 113.911 19.7676   1
  -1  -7  -6 0.22656 0.73902   2
  -1  -7  -6 1.28152 1.13137   3
   1  -7   6 7.25601 8.64072   1
  -1  -7  -6 9.85334 6.50150   1
   1   7   6 2.03566 7.36638   1
  -1   7  -6 0.42935 1.49316   2
   2  -7   6 172.652 25.2784   1
  -2  -7  -6 192.535 18.6487   1
  -2  -7  -6 188.465 7.86678   3
   2  -7   6 188.242 22.2079   1
  -2  -7  -6 205.749 7.33297   2
  -2   7  -6 200.928 8.54440   2
   2   7   6 206.806 7.56802   2
   2   7   6 182.492 21.6012   1
   3  -7   6 139.325 19.8138   1
  -3  -7  -6 144.265 24.6074   1
  -3  -7  -6 150.485 7.08433   2
   3  -7   6 107.358 20.7164   1
   3  -7   6 156.602 8.06496   2
   3   7   6 160.385 7.19219   2
   3   7   6 139.525 21.2919   1
  -3   7  -6 158.186 8.40609   2
   4  -7   6 9.67432 3.16140   2
   4   7   6 11.7294 3.19216   2
   5  -7   6 6.44780 4.18520   2
   5   7   6 4.44766 3.96904   2
   6  -8  -6 0.60194 4.81184   2
   6   8  -6 13.1145 6.40813   2
   5  -8  -6 335.346 13.8913   2
   5   8  -6 338.864 15.4649   2
   4  -8  -6 56.0438 4.70652   2
   4  -8  -6 47.8455 25.1334   1
   4  -8  -6 76.0373 29.9353   1
  -4  -8   6 54.0483 28.5305   1
   4   8  -6 88.9297 34.5376   1
  -4   8   6 61.3728 6.29510   2
   4   8  -6 50.3316 6.19478   2
   3  -8  -6 26.7602 23.3325   1
   3  -8  -6 -5.6749 16.0563   1
  -3  -8   6 -1.0930 14.2196   1
   3  -8  -6 13.6976 1.98826   2
  -3  -8   6 10.9851 2.69174   2
   3   8  -6 5.51110 15.9225   1
  -3   8   6 13.9057 2.41235   2
   3   8  -6 11.1910 2.70036   2
  -2  -8   6 238.702 25.0892   1
   2  -8  -6 254.173 8.48795   2
   2  -8  -6 276.156 26.7541   1
   2  -8  -6 238.532 26.7996   1
  -2  -8   6 261.697 10.2307   2
  -2   8   6 248.671 8.86569   2
   2   8  -6 248.085 10.1981   2
   1  -8  -6 540.559 31.9512   1
   1  -8  -6 501.681 30.7128   1
  -1  -8   6 501.363 30.5081   1
   1   8  -6 536.278 33.9447   1
   0  -8  -6 321.211 10.9784   3
   0  -8  -6 326.670 25.3563   1
   0  -8  -6 323.281 9.72604   2
   0  -8   6 322.418 23.1310   1
   0   8  -6 308.474 11.6408   2
   0   8   6 353.808 22.1487   1
   0   8  -6 331.488 28.1338   1
  -1  -8  -6 4.80751 1.38878   3
  -1  -8  -6 7.11730 1.00690   2
   1  -8   6 6.93957 9.37770   1
  -1  -8  -6 1.69960 7.48497   1
  -1   8  -6 3.65312 1.74525   2
   1   8   6 9.09485 8.58826   1
  -1   8  -6 7.67962 8.91452   1
  -2  -8  -6 525.674 17.9124   3
  -2  -8  -6 554.001 17.1464   2
   2  -8   6 540.952 38.1344   1
  -2  -8  -6 552.135 29.9278   1
   2  -8   6 575.730 33.8756   1
   2   8   6 546.495 17.3657   2
  -2   8  -6 537.915 18.4906   2
   2   8   6 551.817 33.5954   1
  -3  -8  -6 2.82043 12.3423   1
   3  -8   6 3.25905 16.0462   1
  -3  -8  -6 5.88362 2.18799   2
   3  -8   6 -31.126 17.0001   1
   3  -8   6 1.76276 2.47104   2
  -3   8  -6 5.43468 3.20461   2
   3   8   6 0.91154 15.8521   1
   3   8   6 5.05051 2.24364   2
   4  -8   6 96.2548 7.22016   2
   4   8   6 75.5946 6.45379   2
   5  -8   6 22.3566 5.03410   2
   5   8   6 14.9364 4.40950   2
   6  -9  -6 5.68972 4.96903   2
   6   9  -6 13.0970 6.59022   2
   5  -9  -6 165.983 9.07041   2
   5   9  -6 168.770 11.0565   2
  -4  -9   6 115.907 31.8020   1
   4  -9  -6 43.6792 29.6881   1
   4  -9  -6 111.427 28.7079   1
   4  -9  -6 111.153 6.07759   2
   4   9  -6 134.781 49.6815   1
  -4   9   6 103.417 7.32545   2
   3  -9  -6 13.2945 18.5109   1
  -3  -9   6 24.2655 15.5506   1
   3  -9  -6 37.4909 34.6521   1
   3   9  -6 -3.7985 16.0921   1
  -2  -9   6 17.5025 11.6697   1
   2  -9  -6 43.1443 15.3133   1
   2  -9  -6 26.9145 13.4030   1
  -2  -9   6 30.1269 4.32342   2
   2  -9  -6 30.1466 2.29180   2
   2   9  -6 31.1269 4.09921   2
  -2   9   6 25.3323 2.82906   2
   2   9  -6 48.9019 23.3624   1
   1  -9  -6 2597.18 77.6433   2
  -1  -9   6 2740.48 96.9567   1
   1  -9  -6 2777.37 98.2640   1
   1  -9  -6 2798.14 98.5776   1
   1   9  -6 2597.84 105.745   1
   1   9  -6 2671.13 79.9359   2
   0  -9  -6 292.320 26.3230   1
   0  -9   6 268.959 23.5482   1
   0  -9  -6 311.544 10.4663   3
   0   9  -6 298.673 11.1538   2
   0   9   6 312.550 22.9237   1
   1  -9   6 85.2526 14.7227   1
  -1  -9  -6 95.1498 4.89146   3
  -1  -9  -6 99.7439 3.70484   2
  -1  -9  -6 87.8378 14.0246   1
   1   9   6 106.649 19.3864   1
  -1   9  -6 106.742 20.6570   1
  -1   9  -6 103.237 5.64325   2
   2  -9   6 25.4034 16.8324   1
   2  -9   6 27.8812 13.6970   1
  -2  -9  -6 15.8777 10.1914   1
  -2  -9  -6 27.1851 2.76193   2
  -2  -9  -6 20.8681 2.71776   3
   2   9   6 27.8761 2.89187   2
  -2   9  -6 23.7180 3.23165   2
   2   9   6 16.7587 13.2138   1
  -3  -9  -6 1362.03 39.5982   2
   3  -9   6 1233.30 62.0109   1
  -3  -9  -6 1338.92 59.8017   1
   3  -9   6 1124.02 66.8687   1
   3   9   6 1286.02 63.2299   1
   3   9   6 1365.08 39.8216   2
  -3   9  -6 1339.98 41.4347   2
   4  -9   6 11.7791 3.68412   2
   4   9   6 11.6322 3.29889   2
   5  -9   6 13.9624 4.90125   2
   5   9   6 12.4552 4.50258   2
   6 -10  -6 42.4400 6.11632   2
   6  10  -6 39.5879 8.41955   2
   5 -10  -6 28.5876 4.16665   2
   5  10  -6 20.3956 5.03125   2
   4 -10  -6 206.258 39.2466   1
  -4 -10   6 188.387 36.0787   1
   4 -10  -6 180.505 8.08417   2
  -4  10   6 173.632 9.06437   2
   4  10  -6 176.388 10.0660   2
   3 -10  -6 41.3198 20.9094   1
  -3 -10   6 52.0119 6.05742   2
   3 -10  -6 74.1920 22.6348   1
   3 -10  -6 53.7831 3.58001   2
  -3 -10   6 47.8205 18.2287   1
  -3  10   6 51.7644 4.36278   2
   3  10  -6 79.9404 24.7651   1
   3  10  -6 48.8400 5.39160   2
  -2 -10   6 1087.65 33.1779   2
   2 -10  -6 1011.67 31.0227   2
   2 -10  -6 1109.26 55.3972   1
   2 -10  -6 1016.08 54.3123   1
  -2  10   6 1039.76 31.4053   2
   2  10  -6 1068.61 57.7195   1
   2  10  -6 1020.30 33.1694   2
   1 -10  -6 -9.5140 9.93293   1
   1 -10  -6 -9.0781 10.0259   1
  -1 -10   6 -9.5133 9.20326   1
   1  10  -6 11.0661 13.3364   1
   1  10  -6 1.26343 1.89822   2
   0 -10  -6 882.672 27.4935   3
   0 -10   6 901.693 44.9831   1
   0 -10  -6 920.647 46.6819   1
   0  10  -6 879.091 49.6928   1
   0  10  -6 866.751 28.1507   2
   0  10   6 913.503 42.7472   1
  -1 -10  -6 122.799 19.3853   1
   1 -10   6 102.347 17.7657   1
  -1 -10  -6 97.7571 3.64035   2
  -1 -10  -6 93.9544 5.09433   3
  -1  10  -6 118.978 20.1502   1
   1  10   6 90.9850 15.5580   1
  -1  10  -6 95.9160 5.76731   2
  -2 -10  -6 1102.80 50.0329   1
  -2 -10  -6 1135.53 34.9938   3
   2 -10   6 1143.15 55.6773   1
  -2 -10  -6 1164.84 33.8428   2
   2 -10   6 1075.98 59.5497   1
  -2  10  -6 1140.85 35.4766   2
   2  10   6 1135.69 55.5878   1
   2  10   6 1142.63 34.0164   2
  -3 -10  -6 15.6562 14.8409   1
   3 -10   6 8.72827 18.2143   1
   3 -10   6 -15.111 26.5252   1
  -3 -10  -6 4.64104 2.36237   2
   3  10   6 6.54721 2.35034   2
   3  10   6 -23.200 18.8866   1
   4 -10   6 305.655 13.8228   2
   4  10   6 322.413 12.7867   2
   5 -10   6 14.9174 5.20640   2
   5  10   6 5.27918 4.26149   2
   6 -11  -6 92.9631 10.0708   2
   6  11  -6 76.5405 11.0176   2
   5 -11  -6 48.4483 6.39469   2
   5  11  -6 40.7840 6.26542   2
   4 -11  -6 11.4207 2.54047   2
  -4 -11   6 16.3052 24.5068   1
   4 -11  -6 24.6679 45.1843   1
   4  11  -6 44.5936 50.2433   1
  -4  11   6 5.04073 3.22552   2
   4  11  -6 3.39875 3.31671   2
  -3 -11   6 30.1507 19.6497   1
   3 -11  -6 34.9931 21.6381   1
   3 -11  -6 13.6851 28.4481   1
  -3 -11   6 34.4637 4.12601   2
   3 -11  -6 35.0805 3.19764   2
   3  11  -6 7.44464 23.4030   1
   3  11  -6 25.6918 3.66040   2
  -3  11   6 37.5089 4.06034   2
  -2 -11   6 711.032 23.6547   2
   2 -11  -6 662.076 47.0346   1
   2 -11  -6 682.428 46.3352   1
  -2 -11   6 876.791 55.5389   1
   2 -11  -6 693.378 21.4306   2
   2  11  -6 672.749 23.6310   2
  -2  11   6 715.912 21.8041   2
   2  11  -6 782.191 50.6455   1
   1 -11  -6 1160.81 35.5283   3
   1 -11  -6 1153.82 55.9540   1
  -1 -11   6 1169.42 55.4948   1
   1  11  -6 1185.39 60.3534   1
   1  11  -6 1199.21 36.6958   2
   0 -11  -6 2.67144 11.4531   1
   0 -11  -6 1.26855 1.41193   3
   0 -11   6 2.27739 10.5440   1
   0  11  -6 3.95706 1.73523   2
   0  11   6 13.2089 11.2929   1
   0  11  -6 -5.2959 13.8371   1
  -1 -11  -6 209.781 6.69453   2
  -1 -11  -6 207.201 24.7294   1
  -1 -11  -6 209.862 8.49002   3
   1 -11   6 186.287 27.1333   1
   1  11   6 200.321 25.8517   1
  -1  11  -6 217.257 29.6280   1
  -1  11  -6 223.507 9.12593   2
   2 -11   6 135.448 24.4785   1
  -2 -11  -6 197.549 7.07722   2
  -2 -11  -6 208.892 25.5848   1
  -2 -11  -6 193.951 8.39196   3
   2  11   6 192.084 7.21532   2
   2  11   6 196.518 32.0802   1
  -2  11  -6 195.746 9.10694   2
  -3 -11  -6 530.906 41.3572   1
  -3 -11  -6 550.420 17.9944   2
   3  11   6 549.465 18.1016   2
   3  11   6 541.138 49.8636   1
   4  11   6 56.2572 6.04765   2
   5 -11   6 15.8819 5.59917   2
   5  11   6 12.4160 4.55706   2
   6 -12  -6 7.38804 5.65614   2
   5 -12  -6 281.187 12.1574   2
   5  12  -6 282.122 14.6799   2
   4 -12  -6 17.1258 2.81548   2
   4 -12  -6 -12.117 33.4725   1
  -4 -12   6 22.6169 29.3240   1
   4  12  -6 13.2139 3.70543   2
   4  12  -6 20.3290 34.0795   1
  -4  12   6 11.7472 3.66363   2
   3 -12  -6 27.2410 3.05745   2
  -3 -12   6 23.7434 19.4910   1
  -3 -12   6 20.4090 3.98405   2
   3 -12  -6 5.64645 22.8420   1
   3 -12  -6 48.3572 24.5973   1
  -3  12   6 28.2573 3.93000   2
   3  12  -6 15.3690 28.2609   1
   3  12  -6 28.1140 3.95523   2
   2 -12  -6 9.14477 17.0445   1
   2 -12  -6 7.41070 1.22878   2
  -2 -12   6 -8.1036 13.1110   1
   2 -12  -6 2.92167 13.8121   1
  -2 -12   6 9.25180 2.95973   2
   2  12  -6 -4.3102 15.7453   1
   2  12  -6 4.80902 2.41108   2
  -1 -12   6 435.307 35.3026   1
   1 -12  -6 465.233 38.6445   1
   1 -12  -6 434.568 14.9024   3
   1  12  -6 446.293 40.5043   1
   1  12  -6 459.613 15.9948   2
   0 -12  -6 1.41286 1.49575   3
   0 -12  -6 3.90473 14.4929   1
   0 -12   6 -2.9345 11.5901   1
   0  12  -6 2.74253 1.68474   2
   0  12  -6 -14.745 14.3368   1
   0  12   6 6.77495 11.7212   1
   1 -12   6 25.6408 16.1527   1
  -1 -12  -6 14.5472 2.40083   3
  -1 -12  -6 16.6047 12.6155   1
   1  12   6 31.7279 15.3874   1
  -1  12  -6 0.69971 14.6494   1
  -1  12  -6 18.8913 2.97994   2
   2 -12   6 7.47132 18.4208   1
  -2 -12  -6 2.99474 1.37394   2
  -2 -12  -6 3.73107 2.15621   3
  -2 -12  -6 11.8192 12.7473   1
   2  12   6 1.22743 1.34043   2
  -2  12  -6 -0.8784 2.53985   2
   2  12   6 7.08715 17.4749   1
  -3 -12  -6 -8.0146 18.4606   1
  -3 -12  -6 3.63913 2.34370   2
   3  12   6 1.87251 2.14086   2
   4  12   6 9.36818 3.27856   2
   5  12   6 3.92180 4.52152   2
   5 -13  -6 37.6401 4.66951   2
   5  13  -6 25.4030 5.84481   2
   4 -13  -6 102.153 5.91073   2
  -4 -13   6 120.799 34.3729   1
   4 -13  -6 -10.030 51.0957   1
  -4  13   6 85.6774 7.47291   2
   4  13  -6 79.9586 35.6177   1
   4  13  -6 91.5041 8.10195   2
   3 -13  -6 35.7870 26.2722   1
  -3 -13   6 -7.1209 23.6592   1
   3 -13  -6 8.33210 1.78816   2
   3 -13  -6 41.5354 28.5590   1
  -3  13   6 6.55230 2.27589   2
   3  13  -6 6.55207 2.89873   2
   3  13  -6 9.90483 23.9194   1
  -2 -13   6 106.441 22.4282   1
   2 -13  -6 118.800 5.84521   3
   2 -13  -6 128.060 26.3444   1
  -2 -13   6 128.838 7.55687   2
   2 -13  -6 116.798 4.53894   2
   2  13  -6 86.6650 25.1553   1
  -2  13   6 120.298 4.89382   2
   2  13  -6 128.154 7.26211   2
   1 -13  -6 539.775 43.0093   1
   1 -13  -6 543.376 17.4489   3
  -1 -13   6 508.611 39.5786   1
   1  13  -6 527.801 18.3547   2
   1  13  -6 502.527 45.0466   1
   0 -13  -6 89.7216 18.4848   1
   0 -13  -6 113.940 5.78246   3
   0 -13   6 119.556 21.2024   1
   0  13  -6 113.250 23.0159   1
   0  13  -6 118.179 6.24160   2
   0  13   6 100.306 18.0931   1
   1 -13   6 -0.0430 15.1357   1
  -1 -13  -6 4.85752 1.95575   3
  -1 -13  -6 -1.4088 13.2103   1
  -1  13  -6 3.82001 1.26843   3
  -1  13  -6 12.0076 16.9591   1
  -1  13  -6 -0.6718 2.25166   2
   1  13   6 -3.1128 14.5522   1
  -2 -13  -6 2.59880 2.01297   3
   2 -13   6 3.84066 23.0632   1
  -2 -13  -6 1.43302 12.8758   1
  -2 -13  -6 4.20185 1.41039   2
   2  13   6 -33.010 17.5157   1
   2  13   6 3.17959 1.45152   2
  -2  13  -6 2.53732 2.92316   2
  -3 -13  -6 311.242 11.3763   2
   3  13   6 308.761 11.3699   2
   4  13   6 3.85396 3.19800   2
   5  13   6 8.59774 4.87845   2
   5 -14  -6 26.3001 4.41168   2
   5 -14  -6 31.3929 4.06768   3
   5  14  -6 22.0910 5.88531   2
   4 -14  -6 98.3914 43.8547   1
   4 -14  -6 120.674 6.49241   2
   4 -14  -6 111.202 6.33844   3
  -4 -14   6 122.717 41.1752   1
   4  14  -6 110.236 8.80410   2
  -4  14   6 113.083 8.13133   2
   3 -14  -6 53.9372 4.39807   3
  -3 -14   6 68.6473 25.3721   1
   3 -14  -6 43.7402 26.5327   1
   3 -14  -6 50.8137 3.69811   2
   3 -14  -6 46.8647 30.5176   1
   3  14  -6 64.6334 6.22048   2
  -3  14   6 48.3931 4.55073   2
   3  14  -6 63.9063 27.7400   1
   2 -14  -6 593.809 51.5098   1
   2 -14  -6 582.392 17.6206   2
  -2 -14   6 537.060 46.6852   1
   2 -14  -6 573.878 19.0372   3
  -2 -14   6 621.397 20.7007   2
   2 -14  -6 591.374 50.6829   1
  -2  14   6 583.009 17.8171   2
   2  14  -6 604.486 20.5930   2
   2  14  -6 544.154 54.2889   1
   1 -14  -6 35.5035 4.02262   3
   1 -14  -6 5.26192 17.2255   1
  -1 -14   6 56.8745 17.6146   1
   1  14  -6 42.2196 4.83678   2
   1  14  -6 66.0164 23.8283   1
   0 -14  -6 538.194 43.4586   1
   0 -14   6 551.575 43.0708   1
   0 -14  -6 551.250 18.2610   3
   0  14   6 485.151 39.7507   1
   0  14  -6 564.178 18.7867   2
   0  14  -6 582.383 49.5375   1
  -1 -14  -6 69.7383 19.5684   1
  -1 -14  -6 75.2397 5.28169   3
   1 -14   6 63.6634 20.7318   1
  -1  14  -6 81.9436 6.04686   2
   1  14   6 63.7268 19.5209   1
  -1  14  -6 87.0275 3.99383   3
  -1  14  -6 61.7571 21.9799   1
  -2 -14  -6 918.325 27.3862   2
   2 -14   6 851.285 63.1230   1
  -2 -14  -6 887.035 52.9555   1
  -2 -14  -6 921.614 29.3022   3
  -2  14  -6 943.911 29.8603   2
   2  14   6 969.323 27.5555   2
   2  14   6 828.834 59.0401   1
  -3 -14  -6 2.71561 2.40141   2
   3  14   6 2.10695 2.32598   2
   4  14   6 146.807 8.55642   2
   5  14   6 36.8440 6.06031   2
   5 -15  -6 79.5241 7.02900   3
   5 -15  -6 90.7624 7.89128   2
   5  15  -6 80.5667 10.6602   2
   4 -15  -6 3.25715 2.57371   3
   4 -15  -6 6.27386 2.64349   2
   4 -15  -6 -38.472 58.5241   1
   4  15  -6 2.10321 3.72139   2
   3 -15  -6 29.1406 4.00954   3
  -3 -15   6 52.6569 25.5708   1
   3 -15  -6 92.3986 35.0626   1
   3 -15  -6 27.4828 3.30379   2
   3  15  -6 27.6416 4.25236   2
  -3  15   6 31.0941 4.39818   2
   3  15  -6 15.8036 31.3114   1
   2 -15  -6 212.807 8.53870   3
  -2 -15   6 221.835 39.7451   1
   2 -15  -6 148.219 30.8872   1
  -2 -15   6 202.612 10.1646   2
   2 -15  -6 188.032 31.2574   1
   2  15  -6 201.765 9.75544   2
   2  15  -6 163.880 31.9341   1
  -1 -15   6 1205.45 65.8400   1
   1 -15  -6 1178.82 68.5491   1
   1 -15  -6 1243.63 37.8029   3
   1  15  -6 1273.53 38.7382   2
   0 -15   6 136.944 25.1079   1
   0 -15  -6 211.156 31.6846   1
   0 -15  -6 173.449 7.85803   3
   0  15  -6 168.566 8.17918   2
   0  15  -6 170.310 31.7462   1
  -1 -15  -6 164.462 29.3010   1
   1 -15   6 131.422 25.2984   1
  -1 -15  -6 161.358 7.70604   3
  -1  15  -6 110.498 26.5983   1
  -1  15  -6 171.095 6.27212   3
   1  15   6 115.826 22.8176   1
  -1  15  -6 160.289 8.27775   2
   2 -15   6 21.1500 24.1890   1
  -2 -15  -6 35.5689 3.02415   2
  -2 -15  -6 35.5365 4.21975   3
  -2 -15  -6 23.5432 17.0625   1
  -2  15  -6 30.3410 4.61496   2
   2  15   6 17.8151 31.4509   1
   2  15   6 34.2416 2.99037   2
  -3 -15  -6 771.963 24.9086   2
   3  15   6 819.282 25.0657   2
   4  15   6 72.3961 6.92555   2
   5  15   6 9.18985 5.32981   2
   5 -16  -6 113.086 8.90854   2
   5  16  -6 109.037 11.6130   2
   4 -16  -6 11.4851 3.11264   3
   4 -16  -6 16.1885 3.12372   2
   4  16  -6 8.64024 4.17325   2
   3 -16  -6 18.9517 34.6404   1
   3 -16  -6 34.1566 4.54446   3
  -3 -16   6 71.3283 38.2437   1
   3 -16  -6 45.0936 3.72535   2
   3  16  -6 44.7020 35.4662   1
   2 -16  -6 198.404 34.1377   1
   2 -16  -6 225.502 9.14309   3
   2 -16  -6 158.645 32.3668   1
  -2 -16   6 163.949 28.4441   1
   2  16  -6 202.525 38.4602   1
   2  16  -6 240.789 10.5193   2
  -1 -16   6 105.809 23.9587   1
   1 -16  -6 152.806 7.30808   3
   1 -16  -6 105.574 26.0198   1
   1  16  -6 136.230 36.1422   1
   1  16  -6 164.614 8.13853   2
   0 -16  -6 223.000 38.9137   1
   0 -16  -6 193.989 8.90609   3
   0 -16   6 251.481 40.5771   1
   0  16  -6 214.807 9.38505   2
   0  16  -6 176.692 32.5806   1
   0  16  -6 218.226 8.27057   3
   1 -16   6 59.7861 22.4937   1
  -1 -16  -6 67.3563 5.35215   3
  -1 -16  -6 30.9827 23.1357   1
  -1  16  -6 79.6035 5.73637   2
   1  16   6 50.0437 19.6042   1
  -1  16  -6 69.2093 6.32182   2
  -1  16  -6 69.5578 5.10616   3
  -1  16  -6 63.4140 25.5386   1
  -2 -16  -6 292.285 9.70229   2
  -2 -16  -6 294.636 12.0499   3
   2  16   6 299.591 9.73474   2
  -3 -16  -6 2.10935 2.73086   2
   3  16   6 1.29943 2.26794   2
   4  16   6 64.6732 6.91287   2
   5  16   6 0.86408 5.53187   2
   5 -17  -6 -2.5885 4.35149   2
   5  17  -6 2.19452 5.93301   2
   4 -17  -6 32.4438 3.83444   2
   4 -17  -6 37.4801 4.15071   3
   4  17  -6 36.4166 5.31545   2
   3 -17  -6 34.7109 4.69249   3
   3 -17  -6 29.0036 3.62407   2
   3 -17  -6 14.5349 39.2212   1
  -3 -17   6 49.2907 43.7708   1
   3  17  -6 48.8212 41.9996   1
  -3  17   6 25.9050 3.90901   2
   3  17  -6 37.6204 4.80726   2
   2 -17  -6 330.867 56.4005   1
  -2 -17   6 347.328 60.5700   1
   2 -17  -6 287.519 11.6581   3
   2  17  -6 303.177 12.8016   2
   2  17  -6 449.043 72.0160   1
   1 -17  -6 16.7574 2.96418   3
  -1 -17   6 -8.5039 22.7338   1
   1 -17  -6 11.8125 24.1721   1
   1  17  -6 11.4883 2.98277   2
   1  17  -6 30.4399 39.5537   1
   0 -17  -6 1.55195 2.15677   3
   0 -17  -6 -19.538 33.6927   1
   0 -17   6 -18.842 20.9475   1
   0  17  -6 -8.3254 26.7755   1
   0  17  -6 0.54864 2.11611   2
   0  17  -6 1.64515 2.06650   3
   0  17   6 -15.101 19.7517   1
   1 -17   6 11.3838 23.4298   1
  -1 -17  -6 17.0809 3.18275   3
  -1 -17  -6 -31.309 22.4020   1
   1  17   6 -14.319 39.0521   1
  -1  17  -6 14.0477 2.91749   2
  -1  17  -6 6.37105 3.21857   2
  -1  17  -6 10.2047 2.19000   3
  -1  17  -6 57.7651 28.9869   1
  -3 -17  -6 9.17610 2.97106   2
   3  17   6 10.3611 2.59973   2
   4  17   6 4.75234 3.71627   2
   5  18  -6 81.4649 11.8576   2
   4 -18  -6 73.3168 6.31036   2
   4 -18  -6 82.7344 6.87241   3
   4  18  -6 58.3147 8.35849   2
   3 -18  -6 2.24945 2.63940   3
  -3 -18   6 -6.4609 37.7652   1
   3  18  -6 3.82975 3.27417   2
   3  18  -6 -34.527 41.2361   1
   2 -18  -6 100.610 6.33309   3
   2 -18  -6 47.0325 34.5823   1
  -2 -18   6 57.4627 24.7101   1
   2  18  -6 120.032 39.8184   1
   2  18  -6 102.327 7.27201   2
   1 -18  -6 228.707 9.70972   3
  -1 -18   6 255.529 38.4509   1
   1 -18  -6 146.378 31.6908   1
   1  18  -6 201.718 39.4309   1
   1  18  -6 225.002 9.80259   3
   1  18  -6 228.845 10.3113   2
   0 -18   6 193.673 33.5414   1
   0 -18  -6 173.971 8.44467   3
   0 -18  -6 155.152 31.0813   1
   0  18  -6 177.898 7.87680   3
   0  18  -6 129.210 34.8368   1
   0  18  -6 172.755 9.49452   2
   0  18  -6 181.430 8.64712   2
  -1 -18  -6 80.6956 5.94290   3
   1 -18   6 62.4665 32.2749   1
  -1  18  -6 78.2859 4.95541   3
  -1  18  -6 40.2660 31.3110   1
  -1  18  -6 73.1052 7.21336   2
  -1  18  -6 85.3829 6.24919   2
   3  18   6 0.09110 2.40124   2
   4  18   6 31.2802 4.66152   2
   5  19  -6 70.5526 8.87573   2
   4 -19  -6 52.4351 6.26827   2
   4 -19  -6 45.9179 5.73879   3
   4  19  -6 43.7621 6.20766   2
   3 -19  -6 3.27480 2.84794   3
   3  19  -6 -0.5562 3.31867   2
  -2 -19   6 28.6474 43.2684   1
   2 -19  -6 5.70821 38.1740   1
   2 -19  -6 14.9053 3.08086   3
   2  19  -6 11.2269 3.40159   2
   2  19  -6 15.1285 56.0702   1
  -1 -19   6 649.548 65.9590   1
   1 -19  -6 754.284 24.8252   3
   1  19  -6 769.370 25.4062   2
   1  19  -6 774.069 25.6966   3
   1  19  -6 765.920 77.3395   1
   0 -19   6 112.629 34.0588   1
   0 -19  -6 195.382 9.16893   3
   0  19  -6 188.539 8.64526   3
   0  19  -6 192.712 9.15969   2
   0  19  -6 225.834 45.9727   1
   0  19  -6 188.384 10.2050   2
  -1 -19  -6 7.45958 2.80114   3
  -1  19  -6 -14.269 33.3305   1
   3  19   6 507.289 16.5900   2
   4 -20  -6 40.3191 4.97184   3
   4  20  -6 25.8451 5.56411   2
   3 -20  -6 90.0398 10.7900   3
   3  20  -6 111.445 8.62013   2
  -2 -20   6 169.644 49.2474   1
   2 -20  -6 282.132 11.3200   3
   2  20  -6 240.911 67.4245   1
  -1 -20   6 43.4695 33.7491   1
   1 -20  -6 43.9614 5.66997   3
   1  20  -6 40.2132 4.64607   2
   1  20  -6 8.36916 40.2393   1
   0 -20  -6 165.492 9.62260   3
   0  20  -6 180.650 44.4506   1
   0  20  -6 169.527 8.87248   2
   0  20  -6 183.369 8.71996   3
  -1 -20  -6 160.341 8.79163   3
  -1  20  -6 181.493 9.06919   2
  -1  20  -6 165.547 7.82679   3
   4 -21  -6 4.94756 4.40789   3
   4  21  -6 7.64741 5.20125   2
   3 -21  -6 27.2224 4.23928   3
   3  21  -6 25.2542 4.71170   2
   2 -21  -6 179.230 9.42260   3
   2  21  -6 154.955 9.37218   2
   2  21  -6 33.9395 61.2918   1
   1 -21  -6 32.8597 4.10846   3
   1  21  -6 35.4820 4.30908   2
   1  21  -6 17.7959 41.4878   1
   0 -21  -6 8.50819 2.93457   3
   0  21  -6 9.90872 3.15332   2
   0  21  -6 9.76591 3.52171   3
   0  21  -6 6.73001 49.1131   1
  -1 -21  -6 9.72593 3.02010   3
  -1  21  -6 7.69066 3.14914   3
  -1  21  -6 14.3452 4.20222   2
  -2  21  -6 9.20096 3.91229   2
   4  22  -6 20.6611 6.09893   2
   3 -22  -6 4.02477 3.75142   3
   3  22  -6 8.04080 4.24745   2
   2 -22  -6 4.90375 3.32033   3
   2  22  -6 3.50384 3.53200   2
   1 -22  -6 151.544 8.61158   3
   0 -22  -6 6.79344 3.28385   3
   0  22  -6 21.3681 4.31254   2
   0  22  -6 12.3270 6.82894   3
  -1 -22  -6 3.07820 3.07048   3
  -1  22  -6 8.51435 3.50603   3
  -1  22  -6 -3.6465 2.82491   2
  -2  22  -6 3.68001 3.70890   2
   4  23  -6 40.6701 7.11435   2
   3 -23  -6 10.1039 4.16015   3
   3  23  -6 2.01579 4.25133   2
   2 -23  -6 1.49852 3.39818   3
   2  23  -6 -3.8258 3.32380   2
   1 -23  -6 214.212 10.4796   3
   1  23  -6 203.682 10.4342   2
   0 -23  -6 62.5536 6.59183   3
   0  23  -6 59.8479 6.76828   2
  -1  23  -6 3.83164 3.32196   2
  -2  23  -6 5.49644 4.01717   2
   3 -24  -6 36.7841 5.40086   3
   3  24  -6 38.8268 5.86750   2
   2 -24  -6 118.664 8.54126   3
   2  24  -6 123.187 9.02645   2
   1 -24  -6 7.08799 3.73789   3
   1  24  -6 6.78786 3.58782   2
   0 -24  -6 94.2037 7.76932   3
   0  24  -6 97.8549 7.97006   2
  -1  24  -6 112.268 8.53356   2
  -2  24  -6 221.694 12.0802   2
   3 -25  -6 3.63925 4.69262   3
   3  25  -6 12.9948 5.54972   2
   2 -25  -6 58.7005 7.73505   3
   2  25  -6 64.2213 8.29234   2
   1 -25  -6 153.317 9.67086   3
   1  25  -6 157.773 9.50567   2
   0 -25  -6 38.4801 5.08623   3
   0  25  -6 43.7036 5.22678   2
  -1  25  -6 4.88259 3.94311   2
  -2  25  -6 39.0199 5.96285   2
   2 -26  -6 51.8933 6.02855   3
   2  26  -6 43.8865 5.76504   2
   1 -26  -6 34.8068 5.33026   3
   1  26  -6 42.5345 5.34434   2
   0  26  -6 -1.7903 3.85405   2
  -1  26  -6 41.7212 5.53678   2
  -2  26  -6 41.3495 6.10792   2
   2 -27  -6 26.4735 5.70013   3
   2  27  -6 21.4107 5.74560   2
   1  27  -6 17.9553 4.96315   2
   0  27  -6 10.4098 4.71008   2
  -1  27  -6 5.50681 4.73494   2
  -2  27  -6 1.31182 5.45584   2
   1  28  -6 15.7611 5.08945   2
   0  28  -6 68.3409 9.02219   2
  -1  28  -6 17.2477 5.69595   2
   6   0  -7 0.21314 4.85561   2
  -5   0   7 14.7562 38.9930   1
   5   0  -7 -17.052 34.2713   1
   5   0  -7 4.67627 3.07627   2
   4   0  -7 -24.173 29.2558   1
  -4   0   7 2.48856 3.09515   2
   4   0  -7 -0.7308 2.00483   2
  -4   0   7 28.1360 19.4881   1
   3   0  -7 40.9911 15.9581   1
  -3   0   7 90.2306 18.7620   1
   3   0  -7 76.8805 4.98452   2
  -3   0   7 71.6486 5.56824   2
  -2   0   7 -0.1636 1.58028   2
   2   0  -7 2.76131 1.52364   2
   2   0  -7 -10.368 9.43085   1
  -1   0   7 613.974 19.5652   2
   1   0  -7 621.856 28.3362   1
   1   0  -7 602.861 19.3214   2
  -1   0   7 599.467 30.6116   1
   0   0  -7 1.61330 1.06331   2
  -1   0  -7 1852.82 54.9826   2
   2   0   7 1.90913 6.36152   1
   3   0   7 515.556 32.0764   1
   3   0   7 589.624 33.1036   1
  -3   0  -7 531.475 18.5057   2
   3   0   7 543.011 18.6359   2
   4   0   7 -3.2475 2.70508   2
   5   0   7 361.157 16.0398   2
   6  -1  -7 16.5343 5.38834   2
   6   1  -7 5.72219 5.16938   2
  -5  -1   7 38.3088 47.5467   1
   5  -1  -7 11.8484 43.6764   1
   5  -1  -7 68.2552 6.85496   2
   5   1  -7 27.9782 37.2468   1
   5   1  -7 68.7734 6.97887   2
  -5   1   7 96.7404 45.0921   1
  -4  -1   7 4.14141 5.56821   2
  -4  -1   7 27.6878 21.3429   1
   4  -1  -7 3.57428 22.3224   1
   4  -1  -7 -0.3566 2.06466   2
   4   1  -7 1.05189 2.13734   2
  -4   1   7 8.35158 19.4418   1
   4   1  -7 -7.1578 22.1268   1
  -4   1   7 -2.0678 3.10635   2
   3  -1  -7 579.363 40.3997   1
  -3  -1   7 552.334 19.0544   2
  -3  -1   7 585.092 38.0189   1
   3  -1  -7 553.923 18.5169   2
  -3   1   7 559.118 18.9176   2
  -3   1   7 553.987 38.0896   1
   3   1  -7 526.251 39.2902   1
   3   1  -7 561.786 18.7787   2
   2  -1  -7 474.469 14.9626   2
  -2  -1   7 452.883 15.3903   2
   2  -1  -7 437.536 30.9671   1
  -2  -1   7 469.513 28.6740   1
   2   1  -7 456.067 15.2210   2
  -2   1   7 446.093 28.4057   1
   2   1  -7 399.589 33.0541   1
  -2   1   7 440.379 15.2461   2
  -1  -1   7 459.748 15.2347   2
  -1  -1   7 462.125 23.8098   1
   1  -1  -7 465.470 23.4148   1
   1  -1  -7 440.413 14.6871   2
  -1   1   7 441.510 14.9347   2
   1   1  -7 434.762 14.9460   2
  -1   1   7 487.258 24.2089   1
   1   1  -7 449.812 23.9770   1
   0  -1  -7 6.97315 1.35331   2
   0   1  -7 7.37704 1.52555   2
  -1  -1  -7 478.043 15.1906   2
  -1   1  -7 463.747 17.4702   2
   2  -1   7 1327.76 44.9808   1
  -2  -1  -7 1293.92 38.3824   3
   2  -1   7 1285.62 47.1437   1
  -2  -1  -7 1294.71 38.9774   2
   2   1   7 1293.42 39.3143   2
  -2   1  -7 1281.01 39.1302   2
   2   1   7 1254.51 44.5612   1
   2   1   7 1293.96 44.1521   1
  -2   1  -7 1274.15 38.1252   3
   3  -1   7 66.1620 5.33698   2
   3  -1   7 74.0017 14.2347   1
   3  -1   7 71.2876 14.1038   1
  -3  -1  -7 84.9123 5.70847   2
   3   1   7 81.4750 5.45205   2
   3   1   7 81.6199 14.2690   1
  -3   1  -7 68.2639 5.69156   2
   4  -1   7 4.89271 2.81210   2
   5  -1   7 23.1659 5.14576   2
   6  -2  -7 373.991 17.1203   2
   6   2  -7 360.365 17.4479   2
  -5  -2   7 11.3584 39.4281   1
   5  -2  -7 -24.176 34.3355   1
   5  -2  -7 4.64178 3.22961   2
   5   2  -7 2.94424 3.34828   2
   5   2  -7 -7.4768 42.2626   1
  -5   2   7 -4.8872 50.5298   1
   4  -2  -7 13.7569 2.73109   2
  -4  -2   7 11.5766 19.9908   1
   4  -2  -7 -26.798 17.4998   1
   4   2  -7 8.05503 2.60354   2
  -4   2   7 15.0364 3.74217   2
  -4   2   7 20.7290 20.5779   1
   4   2  -7 2.55925 20.9005   1
  -3  -2   7 -4.0208 12.2682   1
   3  -2  -7 10.0817 2.11867   2
   3  -2  -7 13.3983 14.3329   1
  -3  -2   7 9.26151 2.65909   2
   3   2  -7 9.22824 17.1966   1
  -3   2   7 21.2063 13.9311   1
   3   2  -7 11.2118 2.34157   2
  -3   2   7 7.37700 2.34192   2
   2  -2  -7 3054.60 103.510   1
  -2  -2   7 3065.74 102.652   1
  -2  -2   7 3026.24 86.6180   2
   2  -2  -7 2877.14 85.8497   2
  -2   2   7 3104.28 102.619   1
  -2   2   7 2634.09 87.1158   2
   2   2  -7 2796.95 105.522   1
   2   2  -7 2945.14 86.4338   2
  -1  -2   7 62.8826 11.3611   1
   1  -2  -7 48.1107 8.96574   1
   1  -2  -7 42.9946 2.97673   2
   1   2  -7 46.5449 3.52007   2
  -1   2   7 48.7799 3.45113   2
   1   2  -7 68.1397 12.2787   1
  -1   2   7 48.6994 8.94409   1
   0  -2  -7 23.6424 2.24831   2
   0  -2   7 15.1578 4.33064   1
   0   2  -7 20.1748 6.57743   1
   0   2  -7 18.4088 2.44927   2
  -1  -2  -7 165.499 6.31794   2
  -1   2  -7 159.057 6.75864   2
   2  -2   7 1504.77 51.0779   1
   2  -2   7 1430.21 53.5985   1
  -2  -2  -7 1494.36 43.8275   2
  -2  -2  -7 1457.06 43.3855   3
  -2   2  -7 1422.88 44.0823   2
   2   2   7 1445.17 49.4752   1
  -2   2  -7 1442.55 42.8947   3
   2   2   7 1477.84 44.1179   2
   3  -2   7 11.8772 2.62208   2
   3  -2   7 11.3634 12.9390   1
   3  -2   7 -3.2748 10.8067   1
  -3  -2  -7 8.48814 2.44314   2
   3   2   7 14.5417 2.71131   2
  -3   2  -7 8.30748 2.71287   2
   3   2   7 20.7044 11.8966   1
   4  -2   7 6.49970 3.07858   2
   5  -2   7 28.4599 5.04099   2
   5   2   7 21.6556 4.99806   2
   6  -3  -7 3.87822 5.04688   2
   6   3  -7 14.0907 6.04393   2
   5  -3  -7 262.581 11.7507   2
   5  -3  -7 220.705 95.6963   1
  -5  -3   7 205.570 42.3675   1
   5   3  -7 257.216 12.4708   2
   4  -3  -7 -5.3764 20.1065   1
  -4  -3   7 -17.390 33.9851   1
   4  -3  -7 4.52932 2.38628   2
   4   3  -7 7.95837 2.80620   2
   4   3  -7 -16.921 21.3392   1
  -4   3   7 7.58178 3.44808   2
  -4   3   7 -9.2374 19.8532   1
  -3  -3   7 883.949 49.5769   1
   3  -3  -7 907.804 28.7712   2
   3  -3  -7 919.310 52.2181   1
  -3  -3   7 922.285 29.6494   2
   3   3  -7 922.080 52.8582   1
   3   3  -7 929.420 29.5389   2
  -3   3   7 958.581 51.3285   1
  -3   3   7 953.528 29.3153   2
  -2  -3   7 126.152 6.45086   2
   2  -3  -7 91.5870 17.8298   1
  -2  -3   7 112.173 18.7273   1
   2  -3  -7 126.460 5.46612   2
   2   3  -7 127.209 6.25844   2
  -2   3   7 122.269 18.5203   1
   2   3  -7 157.713 20.7181   1
   1  -3  -7 954.459 38.0982   1
   1  -3  -7 928.117 28.3989   2
  -1  -3   7 961.763 38.7190   1
   1   3  -7 922.900 29.2514   2
   1   3  -7 949.852 39.8807   1
   0  -3   7 4.50402 4.87829   1
   0  -3  -7 6.20724 1.25163   2
   0   3  -7 2.77837 6.69306   1
   0   3  -7 4.06067 1.39900   2
  -1  -3  -7 1164.95 35.2907   3
  -1  -3  -7 1188.52 35.2793   2
  -1   3  -7 1191.35 35.9825   2
  -2  -3  -7 316.703 17.8804   1
   2  -3   7 325.856 19.7620   1
  -2  -3  -7 329.545 11.0843   3
  -2  -3  -7 331.072 11.2940   2
   2  -3   7 298.671 22.9107   1
   2   3   7 295.999 18.6294   1
  -2   3  -7 311.408 11.7642   2
   2   3   7 345.534 11.6349   2
  -2   3  -7 321.922 10.2771   3
  -3  -3  -7 258.679 24.4097   1
   3  -3   7 281.980 28.4230   1
   3  -3   7 258.839 26.5654   1
   3  -3   7 265.443 10.8124   2
  -3  -3  -7 256.457 10.2035   2
   3   3   7 247.710 10.2340   2
  -3   3  -7 249.963 10.7832   2
   3   3   7 252.236 24.9539   1
   4  -3   7 -2.6358 2.57825   2
   4   3   7 0.37660 3.00601   2
   5  -3   7 31.4628 5.48068   2
   5   3   7 30.7886 5.28668   2
   6  -4  -7 116.996 10.1882   2
   6   4  -7 129.073 11.6366   2
  -5  -4   7 25.4633 41.8776   1
   5  -4  -7 16.4253 36.0657   1
   5  -4  -7 9.04504 3.33967   2
   5   4  -7 9.75917 3.73736   2
   4  -4  -7 17.5434 24.5677   1
   4  -4  -7 1.94026 2.01836   2
  -4  -4   7 5.39266 18.6223   1
   4   4  -7 -2.3382 22.2560   1
  -4   4   7 -3.2108 3.08208   2
  -4   4   7 -1.3136 20.4324   1
   4   4  -7 1.46617 2.45155   2
   3  -4  -7 23.2198 17.6870   1
  -3  -4   7 25.4880 13.6552   1
  -3  -4   7 22.0246 3.12848   2
   3  -4  -7 31.0283 3.31378   2
   3   4  -7 36.3982 17.1688   1
  -3   4   7 26.7728 3.13400   2
   3   4  -7 37.2901 4.43113   2
  -3   4   7 31.9855 14.1888   1
  -2  -4   7 831.002 40.9679   1
   2  -4  -7 777.133 24.2896   2
  -2  -4   7 822.265 25.5437   2
   2  -4  -7 782.939 41.1116   1
  -2   4   7 790.581 24.6856   2
   2   4  -7 782.428 41.9269   1
  -2   4   7 773.515 39.8769   1
   2   4  -7 779.864 25.3727   2
   1  -4  -7 462.920 24.6908   1
   1  -4  -7 454.210 24.0613   1
   1  -4  -7 423.959 13.7593   2
  -1  -4   7 451.931 24.4038   1
   1   4  -7 407.343 14.8050   2
   1   4  -7 434.022 25.7198   1
   0  -4  -7 25.9084 7.01010   1
   0  -4   7 20.7294 5.88403   1
   0  -4  -7 25.0943 4.99945   1
   0  -4  -7 31.7028 2.26712   2
   0  -4  -7 23.3050 2.16955   2
   0   4  -7 27.2416 2.89585   2
   0   4  -7 29.5030 9.33481   1
  -1  -4  -7 705.867 22.2487   3
  -1  -4  -7 727.078 22.0132   2
   1  -4   7 718.555 29.4385   1
  -1   4  -7 735.752 22.9792   2
   2  -4   7 525.877 26.2899   1
  -2  -4  -7 519.920 16.7544   2
  -2  -4  -7 508.347 16.7534   3
  -2  -4  -7 544.955 24.1518   1
   2  -4   7 483.548 30.1419   1
   2   4   7 533.909 25.7559   1
  -2   4  -7 515.719 15.7807   3
   2   4   7 510.318 17.0043   2
  -2   4  -7 519.631 17.4835   2
   3  -4   7 368.467 14.1048   2
  -3  -4  -7 408.734 28.8839   1
  -3  -4  -7 367.875 13.3620   2
   3  -4   7 332.819 32.0951   1
   3  -4   7 375.734 29.6807   1
  -3   4  -7 368.265 14.2152   2
   3   4   7 386.124 13.6295   2
   3   4   7 358.699 29.1973   1
   4  -4   7 4.02988 2.80116   2
   4   4   7 3.31529 2.85933   2
   5  -4   7 247.338 13.0857   2
   5   4   7 245.442 12.8651   2
   6  -5  -7 -4.5521 4.66092   2
   6   5  -7 2.04733 5.34222   2
   5  -5  -7 -0.7602 2.92386   2
   5  -5  -7 0.81842 48.3542   1
   5   5  -7 -2.1190 3.52318   2
   4  -5  -7 2.05306 1.95101   2
  -4  -5   7 -0.4390 22.3264   1
   4  -5  -7 6.20296 21.0210   1
  -4   5   7 24.4375 22.2500   1
   4   5  -7 30.2011 50.0593   1
   4   5  -7 -1.2076 2.40492   2
  -4   5   7 -2.2208 3.12405   2
  -3  -5   7 52.0916 14.1290   1
   3  -5  -7 36.6839 3.40568   2
  -3  -5   7 38.0978 4.88887   2
   3  -5  -7 33.0040 17.1110   1
  -3   5   7 33.7504 4.25511   2
  -3   5   7 36.8133 15.5025   1
   3   5  -7 24.5801 3.31847   2
   3   5  -7 32.0599 17.0875   1
   2  -5  -7 491.910 16.1157   2
  -2  -5   7 534.330 17.6297   2
   2  -5  -7 524.559 33.3679   1
  -2  -5   7 526.083 32.3029   1
   2   5  -7 465.968 33.4639   1
  -2   5   7 513.462 16.5772   2
   2   5  -7 511.615 17.5300   2
  -1  -5   7 -4.5815 6.28510   1
   1  -5  -7 8.22168 7.45512   1
   1  -5  -7 -2.4767 6.41392   1
   1   5  -7 3.04638 1.68221   2
   1   5  -7 0.72932 7.74099   1
   0  -5   7 -1.1524 5.12308   1
   0  -5  -7 1.34855 0.86457   2
   0  -5  -7 3.61599 6.87572   1
   0  -5  -7 0.63826 0.86684   2
   0  -5  -7 7.76857 4.84242   1
   0   5  -7 11.5298 9.21344   1
   1  -5   7 81.2729 13.2131   1
  -1  -5  -7 77.2793 4.11452   3
  -1  -5  -7 77.9183 3.71363   2
  -1   5  -7 86.3722 4.98211   2
   2  -5   7 1876.91 66.6286   1
  -2  -5  -7 1915.11 56.6075   3
   2  -5   7 1886.35 71.9464   1
  -2  -5  -7 1910.65 56.3494   2
  -2  -5  -7 1961.36 64.4118   1
   2   5   7 1914.52 56.6496   2
   2   5   7 1940.05 66.4456   1
  -2   5  -7 1889.87 57.2693   2
  -2   5  -7 1866.90 55.3604   3
   3  -5   7 7.26007 13.1889   1
  -3  -5  -7 9.09640 2.49957   2
   3  -5   7 3.69738 14.5697   1
  -3  -5  -7 18.4155 12.0747   1
   3  -5   7 7.05669 2.48256   2
   3   5   7 5.04537 13.1185   1
  -3   5  -7 1.98085 2.92369   2
   3   5   7 10.8436 2.45677   2
   4  -5   7 10.4742 3.12571   2
   4   5   7 8.27559 2.87619   2
   5  -5   7 2.74179 4.21794   2
   5   5   7 20.6136 4.73306   2
   6  -6  -7 135.525 11.2003   2
   6   6  -7 159.955 12.9926   2
   5  -6  -7 7.69611 3.20463   2
   5   6  -7 -2.9876 3.61871   2
   4  -6  -7 1.33059 2.05715   2
   4  -6  -7 4.36497 24.7150   1
  -4  -6   7 -7.5479 17.6535   1
   4   6  -7 2.27892 2.70820   2
  -4   6   7 0.82089 3.07154   2
   4   6  -7 9.07396 23.8612   1
  -3  -6   7 63.7532 16.2223   1
  -3  -6   7 76.5545 6.35365   2
   3  -6  -7 80.0633 4.60869   2
   3  -6  -7 66.8104 20.3762   1
   3   6  -7 80.2354 5.90936   2
  -3   6   7 77.7681 5.40327   2
   3   6  -7 97.7539 22.6277   1
   2  -6  -7 1283.62 56.9828   1
   2  -6  -7 1343.91 58.2983   1
   2  -6  -7 1255.58 38.0550   2
  -2  -6   7 1290.91 39.5833   2
  -2  -6   7 1257.44 55.9094   1
   2   6  -7 1276.07 39.6211   2
   2   6  -7 1269.30 58.0435   1
  -2   6   7 1269.60 38.4489   2
  -1  -6   7 89.7000 15.0191   1
   1  -6  -7 84.8800 15.7469   1
   1  -6  -7 100.486 17.8556   1
   1  -6  -7 98.3081 3.89082   2
   1   6  -7 94.6276 5.36818   2
   0  -6  -7 146.173 13.0845   1
   0  -6  -7 170.759 17.6464   1
   0  -6   7 155.693 14.9208   1
   0  -6  -7 141.714 5.19859   2
   0  -6  -7 143.843 5.07583   2
   0   6  -7 118.937 21.9979   1
   0   6  -7 128.949 6.37365   2
   1  -6   7 892.240 38.3664   1
  -1  -6  -7 869.295 25.8560   2
  -1  -6  -7 857.210 31.6971   1
  -1  -6  -7 840.901 26.4988   3
  -1   6  -7 860.410 27.2340   2
  -1   6  -7 831.980 36.1617   1
   1   6   7 884.974 33.3213   1
  -2  -6  -7 426.636 13.8317   2
  -2  -6  -7 422.409 14.3009   3
  -2  -6  -7 410.638 23.1825   1
   2  -6   7 424.027 26.5365   1
   2  -6   7 352.795 30.8428   1
   2   6   7 410.708 26.7588   1
   2   6   7 448.640 14.2125   2
  -2   6  -7 430.296 15.0932   2
   3  -6   7 92.2635 21.7919   1
  -3  -6  -7 140.048 6.89308   2
   3  -6   7 105.054 18.3026   1
   3  -6   7 137.622 7.64443   2
  -3  -6  -7 134.101 18.5897   1
  -3   6  -7 132.481 8.35809   2
   3   6   7 146.743 26.6177   1
   3   6   7 131.876 6.73359   2
   4  -6   7 7.18843 3.34009   2
   4   6   7 6.06132 2.91889   2
   5  -6   7 150.337 10.8687   2
   5   6   7 156.533 10.6163   2
   6  -7  -7 1.02956 5.01391   2
   6   7  -7 -6.2978 5.70850   2
   5  -7  -7 195.034 10.1679   2
   5   7  -7 221.371 12.1182   2
   4  -7  -7 -24.997 25.6708   1
  -4  -7   7 25.3450 22.9966   1
   4  -7  -7 14.8653 2.61316   2
   4   7  -7 9.54743 25.7285   1
  -4   7   7 18.2388 3.76302   2
  -3  -7   7 967.502 31.0413   2
  -3  -7   7 1003.92 54.8205   1
   3  -7  -7 955.158 56.8761   1
   3  -7  -7 935.127 29.3832   2
   3   7  -7 938.610 30.9975   2
  -3   7   7 978.613 29.9847   2
   3   7  -7 928.867 57.2044   1
  -2  -7   7 7.74426 10.6795   1
  -2  -7   7 4.01965 2.38294   2
   2  -7  -7 13.4857 11.8128   1
   2  -7  -7 20.5978 11.6824   1
   2  -7  -7 7.40387 1.41915   2
  -2   7   7 5.18342 1.72497   2
   2   7  -7 5.76138 2.30257   2
   2   7  -7 5.09258 12.4848   1
   1  -7  -7 1054.25 45.1040   1
  -1  -7   7 1029.21 45.3928   1
   1  -7  -7 1039.25 30.9523   2
   1  -7  -7 1074.73 46.6273   1
   1   7  -7 1057.83 49.5031   1
   0  -7  -7 43.9402 10.9434   1
   0  -7   7 50.1225 10.4102   1
   0  -7  -7 42.8142 10.5128   1
   0  -7  -7 48.9491 2.35773   2
   0  -7  -7 49.2975 2.47453   2
   0   7  -7 55.3782 14.7732   1
   0   7  -7 46.0674 3.84165   2
  -1  -7  -7 937.155 35.8899   1
  -1  -7  -7 902.734 28.3407   3
  -1  -7  -7 918.649 27.4659   2
   1  -7   7 911.321 41.8674   1
  -1   7  -7 921.975 29.1043   2
   1   7   7 958.059 37.8451   1
  -1   7  -7 904.858 40.5582   1
  -2  -7  -7 99.2622 4.73561   2
  -2  -7  -7 91.2602 5.21878   3
   2  -7   7 54.1216 16.2744   1
   2  -7   7 93.1605 14.5383   1
  -2  -7  -7 92.4937 15.3518   1
  -2   7  -7 85.4765 6.08655   2
   2   7   7 94.3124 4.90715   2
   2   7   7 72.4151 14.7099   1
   3  -7   7 165.712 28.3681   1
   3  -7   7 129.234 25.4002   1
  -3  -7  -7 182.347 25.5639   1
  -3  -7  -7 166.023 7.50444   2
   3   7   7 161.408 7.55606   2
   3   7   7 155.676 29.2955   1
   4  -7   7 12.9265 3.60227   2
   4   7   7 9.40902 3.21385   2
   5  -7   7 51.6017 6.50825   2
   5   7   7 70.4025 8.82006   2
   6  -8  -7 182.588 12.1308   2
   6   8  -7 188.051 14.8440   2
   5  -8  -7 19.9538 3.91801   2
   5   8  -7 21.0961 4.99561   2
  -4  -8   7 -7.2958 26.5870   1
   4  -8  -7 6.76706 27.8057   1
   4   8  -7 3.71006 3.04065   2
   4   8  -7 -10.739 32.0533   1
  -4   8   7 3.64888 3.30212   2
   3  -8  -7 9.00677 18.6568   1
   3  -8  -7 0.91608 1.50425   2
  -3  -8   7 16.1990 15.7655   1
   3  -8  -7 4.28725 17.0292   1
  -3  -8   7 -1.2232 2.84276   2
   3   8  -7 1.83416 2.35803   2
   3   8  -7 2.62015 16.9057   1
  -3   8   7 -1.3375 2.14642   2
  -2  -8   7 2025.01 59.4977   2
   2  -8  -7 2021.67 80.5454   1
   2  -8  -7 1981.37 79.5558   1
   2  -8  -7 1891.55 57.4625   2
  -2  -8   7 1958.94 78.6195   1
   2   8  -7 2004.34 82.1845   1
   2   8  -7 1929.06 59.4675   2
  -2   8   7 1930.42 57.8739   2
  -1  -8   7 130.902 18.2600   1
   1  -8  -7 157.419 20.6425   1
   1  -8  -7 153.670 5.21124   2
   1  -8  -7 158.100 19.7790   1
   1   8  -7 163.896 23.6453   1
   1   8  -7 147.865 7.21379   2
   0  -8  -7 -3.4730 9.68605   1
   0  -8  -7 3.23488 1.27088   3
   0  -8   7 0.53260 7.98091   1
   0   8  -7 4.44711 1.66764   2
   0   8  -7 -6.0491 10.9683   1
  -1  -8  -7 81.3418 4.69974   3
  -1  -8  -7 89.6803 3.65078   2
   1  -8   7 99.0944 16.2639   1
  -1  -8  -7 88.6697 14.6387   1
   1   8   7 74.1143 12.5380   1
  -1   8  -7 68.7585 13.5361   1
  -1   8  -7 86.7917 5.65725   2
  -2  -8  -7 826.961 25.8806   3
  -2  -8  -7 756.096 26.8228   2
  -2  -8  -7 897.001 38.1299   1
   2  -8   7 788.023 41.2250   1
   2  -8   7 772.646 46.5743   1
  -2   8  -7 834.545 26.6070   2
   2   8   7 826.675 25.2690   2
   2   8   7 823.452 42.1723   1
   3  -8   7 108.910 20.5455   1
  -3  -8  -7 139.041 26.8720   1
  -3  -8  -7 162.606 7.37799   2
   3   8   7 166.628 24.2182   1
   3   8   7 157.664 7.30906   2
   4  -8   7 -1.4749 3.02988   2
   4   8   7 -0.6592 2.72527   2
   5  -8   7 49.9217 6.83144   2
   5   8   7 62.9061 8.81627   2
   6  -9  -7 -0.2474 4.99851   2
   6   9  -7 -6.1689 7.24910   2
   5  -9  -7 62.1878 6.59022   2
   5   9  -7 59.2401 8.60268   2
   4  -9  -7 18.8445 30.6534   1
  -4  -9   7 46.0450 28.7046   1
   4  -9  -7 1.93051 2.09566   2
   4   9  -7 -0.9975 2.95690   2
   4   9  -7 7.79922 25.0734   1
  -4   9   7 6.60200 3.44690   2
  -3  -9   7 99.8236 7.27587   2
   3  -9  -7 89.4093 25.5827   1
   3  -9  -7 106.931 24.1165   1
   3  -9  -7 95.8289 4.77962   2
  -3  -9   7 78.7392 20.3871   1
  -3   9   7 98.4088 5.82760   2
   3   9  -7 78.7367 24.1091   1
   3   9  -7 89.3295 6.72257   2
   2  -9  -7 378.449 34.5242   1
  -2  -9   7 409.758 14.6157   2
   2  -9  -7 385.903 12.2414   2
   2  -9  -7 373.094 33.6995   1
  -2  -9   7 367.205 31.7618   1
   2   9  -7 347.868 35.9433   1
  -2   9   7 388.508 12.6858   2
   2   9  -7 385.748 14.4591   2
  -1  -9   7 160.830 20.5592   1
   1  -9  -7 130.560 21.0361   1
   1  -9  -7 137.028 22.4279   1
   1   9  -7 143.500 24.9231   1
   1   9  -7 139.723 7.08000   2
   0  -9  -7 0.68846 1.25419   3
   0  -9  -7 -0.6812 10.0252   1
   0  -9   7 5.88233 9.28434   1
   0   9  -7 3.47050 1.68752   2
   0   9  -7 13.2243 13.0887   1
  -1  -9  -7 40.3895 3.59848   3
   1  -9   7 35.9167 13.8806   1
  -1  -9  -7 53.5840 11.5479   1
  -1  -9  -7 45.8683 2.43695   2
   1   9   7 38.4809 11.7811   1
  -1   9  -7 36.8355 12.9272   1
  -1   9  -7 35.8095 4.60485   2
  -2  -9  -7 1331.84 40.4008   3
   2  -9   7 1364.43 58.7593   1
   2  -9   7 1266.31 63.5398   1
  -2  -9  -7 1393.66 53.9683   1
  -2  -9  -7 1200.87 39.8880   2
   2   9   7 1361.31 39.6036   2
   2   9   7 1293.64 58.4253   1
  -2   9  -7 1344.18 41.0927   2
  -3  -9  -7 91.4285 18.2516   1
   3  -9   7 110.507 23.7227   1
  -3  -9  -7 108.744 6.09335   2
   3   9   7 84.4799 21.2685   1
   3   9   7 103.427 5.91166   2
   4   9   7 6.12109 2.94890   2
   5  -9   7 7.60318 5.16534   2
   5   9   7 -0.6172 4.52057   2
   6 -10  -7 7.05389 5.36231   2
   5 -10  -7 10.1504 3.58907   2
   5  10  -7 9.26283 4.80733   2
   4 -10  -7 11.8723 2.56763   2
   4 -10  -7 -21.346 31.5063   1
  -4 -10   7 -13.042 25.3355   1
   4  10  -7 6.75766 31.5909   1
   4  10  -7 12.3303 3.70030   2
  -4  10   7 7.30645 3.54903   2
   3 -10  -7 56.0399 20.4134   1
   3 -10  -7 84.2988 24.6685   1
  -3 -10   7 105.355 33.6621   1
  -3 -10   7 60.9580 6.95706   2
   3 -10  -7 70.4758 4.09267   2
  -3  10   7 60.2688 5.14952   2
   3  10  -7 79.3311 24.0686   1
   3  10  -7 69.4945 6.31694   2
   2 -10  -7 28.5139 14.2270   1
  -2 -10   7 38.4719 15.1454   1
   2 -10  -7 44.1967 2.66509   2
  -2 -10   7 42.6837 5.36114   2
   2 -10  -7 10.3554 14.5488   1
  -2  10   7 45.5458 3.30447   2
   2  10  -7 21.6573 15.9808   1
   2  10  -7 41.3826 4.85789   2
  -1 -10   7 224.038 24.6445   1
   1 -10  -7 208.663 26.3623   1
   1 -10  -7 223.561 24.9164   1
   1  10  -7 214.042 29.6475   1
   1  10  -7 207.244 9.24429   2
   0 -10  -7 94.7558 17.4069   1
   0 -10   7 81.4088 14.3729   1
   0 -10  -7 87.0023 4.65180   3
   0  10  -7 86.8939 5.33382   2
   0  10   7 83.7910 14.1539   1
   0  10  -7 80.5754 18.4999   1
  -1 -10  -7 490.963 16.4467   3
   1 -10   7 472.464 34.9006   1
  -1 -10  -7 494.582 30.6772   1
  -1 -10  -7 505.872 14.8602   2
  -1  10  -7 488.457 35.7117   1
  -1  10  -7 496.583 17.2378   2
   1  10   7 460.982 32.1370   1
   2 -10   7 13.5579 15.0344   1
  -2 -10  -7 -5.4931 10.8626   1
  -2 -10  -7 5.73544 1.63910   2
   2 -10   7 -1.8363 17.7684   1
  -2 -10  -7 3.74918 2.26688   3
  -2  10  -7 5.87622 2.74781   2
   2  10   7 -1.9700 14.4565   1
   2  10   7 5.43972 1.73581   2
  -3 -10  -7 379.733 35.4352   1
  -3 -10  -7 360.380 13.0417   2
   3  10   7 360.527 42.8276   1
   3  10   7 361.904 13.0781   2
   4  10   7 28.8989 4.10519   2
   5  10   7 201.887 12.2711   2
   6 -11  -7 1.69867 5.24509   2
   5 -11  -7 69.5507 6.83388   2
   5  11  -7 71.6030 9.32843   2
   4 -11  -7 69.3016 48.7225   1
   4 -11  -7 13.5183 2.73359   2
  -4 -11   7 -32.274 32.5329   1
   4  11  -7 52.4766 37.5782   1
   4  11  -7 13.4829 4.01456   2
  -4  11   7 10.3519 3.69672   2
  -3 -11   7 453.797 45.9193   1
   3 -11  -7 434.210 50.9594   1
   3 -11  -7 476.108 15.8534   2
   3 -11  -7 516.030 49.3356   1
   3  11  -7 582.239 64.6603   1
  -3  11   7 504.494 16.6160   2
   3  11  -7 509.361 18.5335   2
   2 -11  -7 230.229 7.77924   2
  -2 -11   7 238.084 31.7776   1
   2 -11  -7 229.053 34.3908   1
  -2 -11   7 253.302 10.7332   2
   2 -11  -7 196.811 32.3075   1
   2  11  -7 230.707 10.4018   2
  -2  11   7 233.420 8.23935   2
   2  11  -7 205.267 36.8108   1
  -1 -11   7 299.044 29.3147   1
   1 -11  -7 327.302 32.4319   1
   1 -11  -7 332.408 30.1991   1
   1 -11  -7 308.033 11.1580   3
   1  11  -7 296.542 35.5383   1
   1  11  -7 319.112 12.3573   2
   0 -11   7 76.6334 15.2632   1
   0 -11  -7 70.1358 16.8007   1
   0 -11  -7 71.3948 4.49626   3
   0  11  -7 82.5121 20.3349   1
   0  11  -7 69.0799 5.00007   2
   0  11   7 73.0533 14.4298   1
  -1 -11  -7 846.093 24.7819   2
   1 -11   7 786.038 47.4846   1
  -1 -11  -7 826.218 43.5667   1
  -1 -11  -7 841.222 26.6424   3
  -1  11  -7 855.488 49.6853   1
   1  11   7 867.849 44.7896   1
  -1  11  -7 859.335 27.3947   2
   2 -11   7 501.853 44.4209   1
   2 -11   7 577.918 48.2576   1
  -2 -11  -7 624.967 20.6115   3
  -2 -11  -7 651.294 19.1207   2
  -2 -11  -7 614.829 37.1212   1
   2  11   7 615.938 43.7636   1
  -2  11  -7 610.158 21.2703   2
   2  11   7 638.114 19.3123   2
  -3 -11  -7 29.5488 3.29478   2
  -3 -11  -7 11.4217 16.1493   1
   3  11   7 24.5472 3.07106   2
   4  11   7 39.4810 4.62809   2
   5  11   7 40.0577 6.40850   2
   5 -12  -7 5.84897 3.64130   2
   5  12  -7 -3.2115 4.86019   2
   4 -12  -7 7.40769 2.48664   2
   4 -12  -7 -15.109 36.5323   1
  -4 -12   7 9.79629 51.4228   1
   4  12  -7 5.05461 3.57480   2
   4  12  -7 -45.781 60.1575   1
  -4  12   7 5.98384 3.71306   2
   3 -12  -7 28.6236 24.9081   1
  -3 -12   7 18.9608 21.2533   1
   3 -12  -7 33.0945 3.35496   2
   3 -12  -7 37.8356 22.9709   1
  -3  12   7 29.0201 3.32887   2
   3  12  -7 24.1661 4.02415   2
   3  12  -7 40.2375 25.0401   1
  -2 -12   7 1481.10 72.3155   1
  -2 -12   7 1678.69 49.0560   2
   2 -12  -7 1605.30 76.3535   1
   2 -12  -7 1461.81 74.2360   1
   2 -12  -7 1582.48 46.0186   2
   2  12  -7 1582.59 48.8833   2
   2  12  -7 1589.37 80.0176   1
  -2  12   7 1589.72 46.3148   2
   1 -12  -7 85.3128 4.98069   3
  -1 -12   7 89.8732 18.3624   1
   1 -12  -7 75.0722 18.3603   1
   1 -12  -7 94.0362 20.4314   1
   1  12  -7 82.0541 5.85826   2
   1  12  -7 97.7347 23.6077   1
   0 -12   7 28.8489 13.8949   1
   0 -12  -7 25.5071 14.7701   1
   0 -12  -7 40.1032 3.69815   3
   0  12   7 49.6173 14.9451   1
   0  12  -7 40.5305 4.21473   2
   0  12  -7 44.3337 19.3229   1
  -1 -12  -7 0.70221 13.1659   1
   1 -12   7 5.65061 15.8449   1
  -1 -12  -7 15.6927 2.63059   3
  -1  12  -7 8.95689 17.0935   1
   1  12   7 21.2351 14.2288   1
  -1  12  -7 17.2298 3.18305   2
  -2 -12  -7 838.226 26.3524   3
  -2 -12  -7 854.679 24.5931   2
   2 -12   7 685.176 54.4393   1
  -2 -12  -7 810.015 45.4299   1
  -2  12  -7 798.272 26.9319   2
   2  12   7 831.863 24.7952   2
   2  12   7 769.609 50.9975   1
  -3 -12  -7 13.7205 2.83185   2
   3  12   7 17.3658 2.76456   2
   4  12   7 -0.0265 3.15712   2
   5  12   7 3.12023 5.06311   2
   5 -13  -7 115.372 8.21906   2
   5  13  -7 140.327 11.5341   2
  -4 -13   7 85.8947 44.8885   1
   4 -13  -7 47.5494 4.72219   2
   4  13  -7 48.3338 5.75973   2
   4  13  -7 63.0900 43.8010   1
  -4  13   7 38.7002 4.83586   2
   3 -13  -7 333.765 11.2824   2
   3 -13  -7 387.434 53.6779   1
  -3 -13   7 329.735 48.2236   1
   3  13  -7 232.586 37.9409   1
  -3  13   7 344.263 12.0627   2
   3  13  -7 344.606 14.1790   2
  -2 -13   7 123.698 8.33738   2
  -2 -13   7 87.0204 21.9809   1
   2 -13  -7 119.830 26.0954   1
   2 -13  -7 120.119 6.17516   3
   2 -13  -7 100.838 25.1474   1
   2 -13  -7 117.452 4.45410   2
   2  13  -7 88.1236 27.7936   1
  -2  13   7 114.781 4.78287   2
   2  13  -7 121.297 7.53705   2
  -1 -13   7 580.993 41.8005   1
   1 -13  -7 544.495 18.4816   3
   1 -13  -7 584.035 42.2399   1
   1 -13  -7 511.423 43.5104   1
   1  13  -7 576.521 19.7213   2
   1  13  -7 592.007 49.1508   1
   0 -13  -7 43.8978 17.6615   1
   0 -13   7 49.7707 17.9290   1
   0 -13  -7 48.7662 4.19684   3
   0  13  -7 52.3418 20.5890   1
   0  13  -7 50.4121 4.59386   2
   0  13   7 40.1365 16.7811   1
   1 -13   7 236.818 35.3342   1
  -1 -13  -7 282.836 31.7792   1
  -1 -13  -7 257.276 10.1975   3
  -1  13  -7 214.313 36.9439   1
  -1  13  -7 264.705 11.0941   2
   1  13   7 202.381 31.9670   1
  -2 -13  -7 219.058 7.68394   2
  -2 -13  -7 219.432 9.61222   3
  -2 -13  -7 228.048 31.0050   1
   2 -13   7 142.442 30.0157   1
   2  13   7 190.263 28.5758   1
   2  13   7 221.263 7.90505   2
  -2  13  -7 226.329 11.5880   2
  -3 -13  -7 114.392 6.27926   2
   3  13   7 93.4205 5.87774   2
   4  13   7 7.81776 3.55855   2
   5  13   7 4.70448 5.34807   2
   5 -14  -7 12.6562 4.08913   2
   5  14  -7 21.1489 6.04147   2
   4  14  -7 27.3372 60.8555   1
   3 -14  -7 -15.062 28.9464   1
   3 -14  -7 3.14003 1.73263   2
  -3 -14   7 -12.074 21.5483   1
   3  14  -7 -1.8638 28.7771   1
  -3  14   7 5.61347 2.62612   2
   3  14  -7 3.81022 3.97100   2
  -2 -14   7 156.265 29.7703   1
   2 -14  -7 154.582 7.32520   3
   2 -14  -7 155.105 29.3603   1
   2 -14  -7 117.038 27.1557   1
   2  14  -7 185.965 33.2653   1
   2  14  -7 162.405 8.68382   2
   1 -14  -7 320.315 11.7702   3
   1 -14  -7 302.510 37.2870   1
  -1 -14   7 324.940 37.1663   1
   1 -14  -7 276.779 38.4792   1
   1  14  -7 325.411 12.7810   2
   1  14  -7 316.459 46.3767   1
   0 -14   7 23.9607 17.1543   1
   0 -14  -7 37.0096 4.05230   3
   0 -14  -7 56.9266 20.2848   1
   0  14  -7 40.3286 4.56434   2
   0  14  -7 46.6070 21.9279   1
   0  14   7 36.5411 16.8795   1
   1 -14   7 143.774 27.8321   1
  -1 -14  -7 149.391 7.53680   3
  -1 -14  -7 138.583 23.1510   1
   1  14   7 117.906 23.5242   1
  -1  14  -7 157.224 8.51925   2
  -1  14  -7 147.565 26.4149   1
  -2 -14  -7 51.1193 19.8986   1
  -2 -14  -7 48.1305 5.31747   3
  -2 -14  -7 48.4259 3.34084   2
   2  14   7 42.0846 22.1057   1
  -3 -14  -7 368.275 13.0371   2
   3  14   7 365.218 13.0136   2
   4  14   7 10.9567 3.68263   2
   5  14   7 146.761 11.6924   2
   5 -15  -7 -0.4304 4.08060   2
   5 -15  -7 1.46171 3.85329   3
   5  15  -7 5.45129 5.77637   2
   4 -15  -7 -0.4401 2.43626   2
   4 -15  -7 3.43766 2.78983   3
   4  15  -7 9.29884 4.04363   2
   3 -15  -7 90.4936 35.6057   1
   3 -15  -7 170.400 7.75978   3
   3 -15  -7 167.238 6.58138   2
  -3 -15   7 84.5871 32.5141   1
   3  15  -7 179.769 42.6784   1
   3  15  -7 172.091 9.87784   2
   2 -15  -7 234.825 9.45096   3
  -2 -15   7 217.938 32.9270   1
   2 -15  -7 215.982 32.8062   1
   2 -15  -7 192.524 32.6139   1
   2  15  -7 237.670 10.8549   2
   2  15  -7 196.967 35.2602   1
  -1 -15   7 -6.5521 17.6529   1
   1  15  -7 0.10473 2.22122   2
   1  15  -7 37.1240 24.9789   1
   0 -15  -7 124.659 6.63449   3
   0 -15  -7 98.5376 22.5796   1
   0 -15   7 124.847 23.4268   1
   0  15  -7 126.855 28.9301   1
   0  15  -7 136.811 7.27604   2
   0  15   7 103.009 22.6406   1
   1 -15   7 266.824 41.6998   1
  -1 -15  -7 315.574 37.6707   1
  -1 -15  -7 261.236 10.8951   3
  -1  15  -7 258.040 9.36488   3
  -1  15  -7 310.031 47.2135   1
   1  15   7 225.113 38.3475   1
  -1  15  -7 268.716 11.3909   2
  -1  15  -7 259.505 11.6897   2
  -2 -15  -7 593.753 71.0914   1
  -2 -15  -7 642.299 19.5957   2
  -2 -15  -7 663.201 22.1411   3
  -3 -15  -7 12.3610 2.97758   2
   3  15   7 16.0822 2.85165   2
   4  15   7 28.2173 4.35800   2
   5  15   7 18.4575 6.35275   2
   5 -16  -7 7.63493 4.36894   2
   5  16  -7 -3.6101 6.04762   2
   4 -16  -7 7.51778 2.89983   2
   4 -16  -7 8.92021 3.63917   3
   4  16  -7 4.70094 4.25435   2
   3 -16  -7 44.5916 3.72425   2
   3 -16  -7 43.4934 4.96168   3
  -3 -16   7 25.7311 37.7885   1
   3  16  -7 43.8199 5.37914   2
   3  16  -7 -10.492 42.2394   1
  -3  16   7 37.5924 3.53623   2
  -2 -16   7 606.466 57.4857   1
   2 -16  -7 619.569 20.4797   3
   2 -16  -7 560.687 60.3996   1
   2  16  -7 627.940 21.9092   2
   2  16  -7 620.896 66.5566   1
   1 -16  -7 0.49139 2.15388   3
  -1 -16   7 22.7826 21.6731   1
   1 -16  -7 -22.409 22.8040   1
   1  16  -7 -16.724 26.0767   1
   1  16  -7 -3.0622 2.22228   2
   0 -16  -7 7.53943 2.47396   3
   0 -16  -7 11.5730 20.1083   1
   0 -16   7 7.95426 19.6000   1
   0  16  -7 5.03425 24.2680   1
   0  16  -7 3.79513 2.44774   2
   0  16   7 30.4474 20.1456   1
  -1 -16  -7 177.460 8.57997   3
  -1 -16  -7 227.379 39.1327   1
   1 -16   7 119.011 29.3704   1
   1  16   7 120.785 27.8717   1
  -1  16  -7 184.500 9.05836   2
  -1  16  -7 147.826 30.9355   1
  -1  16  -7 161.142 9.63253   2
  -1  16  -7 178.906 7.49709   3
  -2 -16  -7 271.422 12.7587   3
  -3 -16  -7 20.1763 3.83576   2
   3  16   7 22.4003 2.96606   2
   4  16   7 15.3787 4.07152   2
   5 -17  -7 74.9149 9.05441   2
   5  17  -7 71.3367 8.54887   2
   4 -17  -7 54.8354 6.03650   3
   4 -17  -7 72.4445 5.91262   2
   4  17  -7 76.8226 8.78231   2
   3 -17  -7 333.220 12.9207   3
   3 -17  -7 352.786 11.3643   2
   3  17  -7 234.155 50.2917   1
   3  17  -7 351.442 14.8632   2
   2 -17  -7 -4.6480 28.6076   1
   2 -17  -7 -2.6751 2.25952   3
   2  17  -7 -39.880 32.1341   1
   2  17  -7 -3.1765 2.81330   2
   1 -17  -7 233.886 10.0782   3
  -1 -17   7 205.708 34.2658   1
   1 -17  -7 297.926 52.0412   1
   1  17  -7 266.915 11.1499   2
   1  17  -7 160.988 34.5626   1
   0 -17  -7 99.5634 26.9531   1
   0 -17   7 79.1616 26.9753   1
   0 -17  -7 110.216 6.70953   3
   0  17  -7 118.472 6.21859   3
   0  17  -7 118.055 7.07057   2
   0  17  -7 88.6114 30.9407   1
  -1 -17  -7 394.674 15.3361   3
  -1  17  -7 386.474 13.0596   3
  -1  17  -7 394.748 15.1485   2
  -1  17  -7 349.219 58.0524   1
  -2 -17  -7 5.61438 3.03834   3
   3  17   7 6.80834 2.54206   2
   4  17   7 -3.3157 3.68422   2
   5  18  -7 13.1150 7.01602   2
   4 -18  -7 3.21243 3.46357   3
   4 -18  -7 -1.3480 3.10757   2
   4  18  -7 -0.2439 4.50879   2
   3 -18  -7 2.21792 3.34557   3
   3  18  -7 6.30288 3.77141   2
   2 -18  -7 378.546 14.2623   3
   2  18  -7 382.855 73.1284   1
   1 -18  -7 184.012 8.77678   3
   1  18  -7 144.553 34.9566   1
   1  18  -7 186.382 9.44507   2
   0 -18  -7 1.85862 2.42026   3
   0 -18   7 4.48667 41.2205   1
   0  18  -7 0.75101 2.41165   2
   0  18  -7 0.09156 2.46040   3
   0  18  -7 -0.2550 28.4051   1
  -1 -18  -7 25.0741 3.67787   3
  -1  18  -7 24.5734 2.98736   3
  -1  18  -7 25.1743 3.80720   2
  -2 -18  -7 219.924 10.5668   3
   3  18   7 151.477 6.98743   2
   4 -19  -7 6.43359 3.91483   3
   4  19  -7 8.82262 4.97752   2
   3 -19  -7 4.70854 3.11493   3
   3  19  -7 3.69667 3.78209   2
   2  19  -7 -13.803 83.8353   1
   1  19  -7 123.619 42.2760   1
   1  19  -7 173.877 9.31998   2
   0 -19  -7 -2.2803 2.37205   3
   0  19  -7 1.34981 2.82629   3
   0  19  -7 -1.8480 2.43538   2
   0  19  -7 -7.6565 36.5699   1
  -1 -19  -7 -2.1278 2.31347   3
  -1  19  -7 4.81590 2.70604   3
  -1  19  -7 4.72708 3.59937   2
   4 -20  -7 5.69426 4.26691   3
   4  20  -7 -5.6513 4.95831   2
   3 -20  -7 22.0055 3.93191   3
   3  20  -7 13.4357 4.41030   2
   2 -20  -7 82.5530 6.75766   3
   2  20  -7 76.3691 7.41575   2
   1 -20  -7 97.1034 7.01520   3
   0 -20  -7 44.3754 5.73909   3
   0  20  -7 48.2249 6.42819   2
   0  20  -7 37.7920 4.30414   3
  -1 -20  -7 188.631 9.73157   3
  -1  20  -7 192.021 10.0793   2
  -1  20  -7 195.999 8.67940   3
   4 -21  -7 31.8915 5.38067   3
   4  21  -7 25.2379 6.12045   2
   3 -21  -7 239.237 11.3060   3
   3  21  -7 233.383 12.7173   2
   2 -21  -7 -0.0601 2.97674   3
   2  21  -7 -4.0846 3.28856   2
   1 -21  -7 20.9747 3.68892   3
   1  21  -7 22.7560 4.22415   2
   0 -21  -7 52.8453 6.20164   3
   0  21  -7 78.2271 6.92052   2
   0  21  -7 59.8021 7.35972   3
  -1 -21  -7 253.867 11.9755   3
  -1  21  -7 268.386 10.9263   3
  -1  21  -7 275.067 12.2190   2
  -2  21  -7 33.1821 4.93152   2
   4  22  -7 -8.3560 5.67599   2
   3 -22  -7 22.5293 4.58629   3
   3  22  -7 22.6337 5.27902   2
   2 -22  -7 476.125 18.0066   3
   2  22  -7 497.222 18.8006   2
   1 -22  -7 72.4370 7.00407   3
   1  22  -7 69.3320 7.21709   2
   0 -22  -7 2.50815 2.92879   3
   0  22  -7 2.75831 3.18071   2
  -1 -22  -7 35.8640 5.16206   3
  -1  22  -7 36.3959 4.77773   2
  -2  22  -7 191.988 11.2945   2
   3 -23  -7 29.7846 5.19732   3
   3  23  -7 33.6221 5.83029   2
   2 -23  -7 15.5217 4.20923   3
   2  23  -7 17.0534 4.46950   2
   1 -23  -7 105.781 8.13169   3
   1  23  -7 108.124 8.28764   2
   0 -23  -7 50.3592 6.57853   3
   0  23  -7 50.1427 7.04963   2
  -1 -23  -7 19.6001 4.43534   3
  -1  23  -7 25.2453 4.39471   2
  -2  23  -7 178.024 11.2177   2
   3 -24  -7 5.85348 4.83050   3
   3  24  -7 -6.7467 4.86392   2
   2 -24  -7 -3.2959 3.84312   3
   2  24  -7 8.20692 4.30236   2
   1 -24  -7 115.479 8.53455   3
   1  24  -7 90.2103 8.24975   2
   0 -24  -7 55.2171 7.09460   3
   0  24  -7 56.3666 7.34858   2
  -1  24  -7 96.4187 8.69220   2
  -2  24  -7 -2.8665 4.54599   2
  -3  24  -7 59.1865 7.93074   2
   3 -25  -7 22.9000 5.73302   3
   2 -25  -7 -3.1465 4.21907   3
   2  25  -7 6.96192 4.68820   2
   1 -25  -7 -1.0581 3.85140   3
   1  25  -7 -3.3159 3.91991   2
   0 -25  -7 7.54744 4.07838   3
   0  25  -7 8.80743 4.18742   2
  -1  25  -7 59.2352 8.37097   2
  -2  25  -7 90.5663 10.1029   2
   2 -26  -7 167.819 10.9610   3
   2  26  -7 161.434 11.5242   2
   1 -26  -7 10.1936 4.45264   3
   1  26  -7 9.24979 4.55714   2
   0 -26  -7 41.6386 5.97833   3
   0  26  -7 33.6584 5.39398   2
  -1  26  -7 73.6356 9.57688   2
  -2  26  -7 50.9178 7.02915   2
   2 -27  -7 2.91973 5.40346   3
   2  27  -7 4.42118 5.25123   2
   1 -27  -7 39.2732 6.14396   3
   1  27  -7 22.5598 5.68983   2
   0  27  -7 25.1813 5.40501   2
  -1  27  -7 36.3188 6.18307   2
   0  28  -7 18.7505 5.77657   2
   6   0  -8 29.8232 6.14004   2
   5   0  -8 1.28694 3.22052   2
   4   0  -8 69.0684 5.89007   2
   4   0  -8 94.2483 28.6033   1
  -4   0   8 75.3630 24.6048   1
  -3   0   8 2.58947 2.29879   2
   3   0  -8 9.04902 14.5228   1
  -3   0   8 -4.8221 12.8160   1
   3   0  -8 2.12988 1.92936   2
   2   0  -8 7.04850 8.70364   1
   2   0  -8 7.63344 1.95178   2
  -2   0   8 20.1222 9.36104   1
  -2   0   8 2.11869 1.91221   2
   1   0  -8 -4.7144 6.33029   1
  -1   0   8 4.11214 6.02864   1
   1   0  -8 1.06440 1.31774   2
   0   0  -8 24.0635 2.86242   2
  -1   0  -8 -0.0890 1.35734   2
  -2   0  -8 82.7654 5.18082   2
  -2   0  -8 81.9599 4.21250   3
   3   0   8 4.68553 11.0804   1
   3   0   8 0.98505 2.03871   2
  -3   0  -8 -3.3529 2.38503   2
   4   0   8 135.115 8.54123   2
   5   0   8 10.5193 4.94488   2
   6  -1  -8 33.2354 6.34900   2
   6   1  -8 37.9310 6.58307   2
   5  -1  -8 0.91789 3.18025   2
   5   1  -8 1.02205 3.25250   2
   4  -1  -8 160.351 8.24825   2
  -4  -1   8 166.295 28.7737   1
   4  -1  -8 152.257 35.0393   1
   4   1  -8 121.907 27.7052   1
  -4   1   8 156.280 28.4150   1
   4   1  -8 175.715 8.67742   2
  -3  -1   8 118.044 7.06020   2
   3  -1  -8 123.662 6.27511   2
  -3  -1   8 113.886 21.0558   1
   3  -1  -8 72.4794 18.4354   1
   3   1  -8 92.4032 20.4312   1
  -3   1   8 99.6323 18.9058   1
   3   1  -8 114.232 6.40279   2
  -3   1   8 123.939 7.02165   2
  -2  -1   8 648.285 21.1130   2
   2  -1  -8 680.314 36.4460   1
  -2  -1   8 644.792 34.7222   1
   2  -1  -8 624.534 20.4958   2
   2   1  -8 631.152 20.8016   2
  -2   1   8 652.956 35.4674   1
   2   1  -8 632.477 36.9051   1
  -2   1   8 631.258 20.8869   2
  -1  -1   8 -1.8098 5.84835   1
   1  -1  -8 5.01535 6.29118   1
   1  -1  -8 2.48214 1.25545   2
  -1   1   8 11.8273 6.52922   1
   1   1  -8 -4.7305 6.06473   1
   1   1  -8 0.47044 1.22291   2
   0  -1  -8 846.789 26.1529   2
   0   1  -8 838.264 26.3887   2
  -1  -1  -8 92.3579 4.99670   2
  -1   1  -8 104.340 5.20875   2
  -2  -1  -8 478.401 16.2370   2
  -2  -1  -8 487.478 15.6641   3
  -2   1  -8 487.614 15.4147   3
  -2   1  -8 490.888 16.5170   2
  -3  -1  -8 1.86056 2.53504   2
   3  -1   8 5.09335 2.32388   2
   3  -1   8 2.80890 11.9378   1
   3  -1   8 -7.7849 12.8581   1
  -3  -1  -8 0.13054 1.35514   3
   3   1   8 0.52412 10.7776   1
   3   1   8 1.92366 2.11059   2
   3   1   8 -4.5316 11.4409   1
  -3   1  -8 3.77170 2.69259   2
   4  -1   8 131.062 8.60873   2
   4   1   8 150.974 8.69371   2
   5  -1   8 162.778 11.2991   2
   5   1   8 157.881 11.0829   2
   6  -2  -8 1.72368 5.08075   2
   6   2  -8 5.99546 5.67869   2
   5  -2  -8 1.44953 3.19953   2
   5   2  -8 0.23536 3.04509   2
   4  -2  -8 8.33834 2.64247   2
  -4  -2   8 -15.981 20.8128   1
   4  -2  -8 12.6742 21.2539   1
  -4   2   8 36.5033 23.1498   1
   4   2  -8 5.03268 2.70210   2
   4   2  -8 20.4460 21.8416   1
   3  -2  -8 1727.56 53.3315   2
  -3  -2   8 1803.19 76.2547   1
   3  -2  -8 1833.80 78.8567   1
  -3  -2   8 1749.32 54.1519   2
   3   2  -8 1752.74 53.9264   2
  -3   2   8 1781.77 76.9185   1
   3   2  -8 1820.39 79.3085   1
  -3   2   8 1764.53 53.8582   2
   2  -2  -8 14.8451 2.06694   2
  -2  -2   8 21.5796 10.4200   1
  -2  -2   8 13.1503 2.57516   2
   2  -2  -8 29.3125 12.7676   1
  -2   2   8 15.4353 2.59164   2
   2   2  -8 15.4593 2.51965   2
   2   2  -8 12.2506 10.8561   1
  -2   2   8 19.4955 10.1510   1
  -1  -2   8 4.61254 6.03639   1
   1  -2  -8 5.21319 6.42401   1
   1  -2  -8 2.28907 1.17635   2
  -1   2   8 7.85003 6.18692   1
   1   2  -8 -0.4760 6.97784   1
   1   2  -8 4.72706 1.65566   2
   0  -2  -8 38.1146 3.01716   2
   0   2  -8 32.6199 3.39929   2
  -1  -2  -8 3442.57 107.017   2
  -1   2  -8 3825.55 106.428   2
  -2  -2  -8 6.23915 1.63153   3
  -2  -2  -8 3.27800 1.77058   2
  -2   2  -8 4.57182 2.03205   2
  -3  -2  -8 0.81714 1.47719   3
   3  -2   8 -1.2702 2.06986   2
   3  -2   8 -20.658 13.0674   1
  -3  -2  -8 2.72806 2.48058   2
   3  -2   8 16.8664 12.0553   1
   3   2   8 2.19710 2.03347   2
   3   2   8 -10.278 11.3683   1
  -3   2  -8 0.90221 2.68557   2
   4  -2   8 19.0594 3.94195   2
   4   2   8 27.7024 4.27234   2
   5  -2   8 421.860 18.4738   2
   5   2   8 439.173 18.3577   2
   6  -3  -8 100.492 10.1561   2
   6   3  -8 93.5678 11.2145   2
   5  -3  -8 6.61567 3.24876   2
   5   3  -8 5.77855 3.67813   2
  -4  -3   8 418.201 45.4810   1
   4  -3  -8 397.219 49.9920   1
   4  -3  -8 368.685 13.8928   2
  -4   3   8 363.131 47.8867   1
   4   3  -8 384.579 14.8512   2
   4   3  -8 347.329 50.1584   1
  -4   3   8 342.136 15.1635   2
  -3  -3   8 30.4364 15.3437   1
   3  -3  -8 30.7374 3.83222   2
   3  -3  -8 30.2355 18.9459   1
   3   3  -8 35.8634 4.66969   2
   3   3  -8 45.1327 18.0898   1
  -3   3   8 32.4139 16.3313   1
   2  -3  -8 1328.79 41.7368   2
  -2  -3   8 1399.48 42.8459   2
   2  -3  -8 1409.89 59.3303   1
  -2  -3   8 1441.95 59.0358   1
   2   3  -8 1411.80 60.5466   1
  -2   3   8 1408.16 58.2165   1
   2   3  -8 1391.13 42.7208   2
  -2   3   8 1380.21 42.2152   2
   1  -3  -8 47.4047 3.04113   2
   1  -3  -8 54.8083 10.0981   1
  -1  -3   8 54.0216 9.43850   1
   1   3  -8 51.6236 10.3014   1
   1   3  -8 45.8822 3.80386   2
   0  -3  -8 1479.09 44.7354   2
   0  -3   8 1574.93 50.1660   1
   0  -3  -8 1596.15 44.7119   2
   0   3  -8 1484.16 58.9373   1
   0   3  -8 1378.30 45.3411   2
  -1  -3  -8 35.6051 3.22462   2
  -1   3  -8 31.8731 3.95120   2
  -2  -3  -8 1039.65 30.6952   2
   2  -3   8 943.762 40.7533   1
  -2  -3  -8 981.587 30.3969   3
  -2   3  -8 1012.91 29.7472   3
  -2   3  -8 988.286 31.2193   2
   3  -3   8 2.29354 15.5356   1
  -3  -3  -8 6.45522 2.69199   2
   3  -3   8 12.2219 13.5387   1
  -3  -3  -8 5.40136 1.77966   3
   3   3   8 7.98885 2.40923   2
  -3   3  -8 3.57134 3.35157   2
   3   3   8 16.3681 12.5048   1
   4  -3   8 288.392 13.0805   2
   4   3   8 292.965 12.6936   2
   5  -3   8 21.5647 5.38543   2
   6  -4  -8 15.0830 5.48591   2
   6   4  -8 25.4127 6.53516   2
   5  -4  -8 -3.4454 2.87716   2
   5   4  -8 0.15130 3.50340   2
   4  -4  -8 114.053 33.7474   1
   4  -4  -8 91.9007 6.03534   2
  -4  -4   8 67.7330 24.4517   1
   4   4  -8 107.003 31.4533   1
  -4   4   8 98.7743 26.4846   1
   4   4  -8 99.9669 11.0887   2
  -4   4   8 72.2232 7.68681   2
   3  -4  -8 527.939 42.2092   1
  -3  -4   8 508.441 18.7171   2
   3  -4  -8 523.942 17.4797   2
  -3  -4   8 514.709 39.4636   1
  -3   4   8 565.347 40.7470   1
   3   4  -8 524.814 43.2177   1
   3   4  -8 532.579 18.6205   2
  -3   4   8 529.277 18.1487   2
  -2  -4   8 -2.6133 9.99612   1
  -2  -4   8 0.57643 2.19384   2
   2  -4  -8 0.36471 10.4851   1
  -2   4   8 2.51074 1.73325   2
   2   4  -8 9.90359 10.7847   1
   2   4  -8 6.14414 2.07845   2
  -2   4   8 7.87137 9.65189   1
   1  -4  -8 4.32231 6.80890   1
   1  -4  -8 3.40714 1.10981   2
  -1  -4   8 3.87553 6.99893   1
   1  -4  -8 8.58996 7.36486   1
   1   4  -8 -1.8410 7.81969   1
   1   4  -8 4.47384 1.78370   2
   0  -4  -8 40.6090 2.91573   2
   0  -4  -8 35.7812 2.75041   2
   0  -4   8 53.2209 9.71777   1
   0   4  -8 34.2910 10.2104   1
   0   4  -8 40.6840 3.69076   2
  -1  -4  -8 1125.24 34.3092   3
  -1  -4  -8 1132.15 34.0798   2
  -1   4  -8 1150.85 35.1422   2
   2  -4   8 146.395 15.7412   1
   2  -4   8 111.502 20.2597   1
  -2  -4  -8 145.510 6.24445   3
  -2  -4  -8 139.585 6.20252   2
  -2   4  -8 136.240 5.18140   3
  -2   4  -8 120.685 6.94435   2
  -3  -4  -8 -0.7524 1.59369   3
   3  -4   8 5.01228 20.4556   1
  -3  -4  -8 2.21519 2.50855   2
  -3  -4  -8 14.8726 21.3045   1
   3   4   8 -11.792 11.6552   1
   3   4   8 5.98825 2.34726   2
   4  -4   8 82.7708 7.62834   2
   4   4   8 97.1314 7.28750   2
   5  -4   8 120.085 10.5957   2
   5   4   8 107.707 9.89625   2
   6  -5  -8 1.92023 4.90466   2
   6   5  -8 -3.9590 5.86095   2
   5  -5  -8 7.46722 3.19714   2
   5   5  -8 3.97842 3.70854   2
  -4  -5   8 7.77348 22.6794   1
   4  -5  -8 -36.106 22.9224   1
   4  -5  -8 4.03159 2.25431   2
  -4   5   8 -16.274 23.7229   1
   4   5  -8 -13.087 38.3140   1
  -4   5   8 -0.8828 3.50041   2
   4   5  -8 -2.4023 4.19263   2
  -3  -5   8 183.073 30.7782   1
  -3  -5   8 170.623 9.28985   2
   3  -5  -8 134.099 22.8576   1
   3  -5  -8 173.675 7.46015   2
  -3   5   8 174.812 8.38087   2
   3   5  -8 194.854 9.10603   2
   3   5  -8 202.329 33.9097   1
  -3   5   8 203.965 31.4461   1
  -2  -5   8 36.6560 12.3502   1
   2  -5  -8 33.2666 13.3115   1
   2  -5  -8 29.1613 2.70316   2
  -2  -5   8 26.4233 3.50389   2
  -2   5   8 27.4956 4.70862   2
   2   5  -8 23.1940 11.2757   1
   2   5  -8 27.0114 3.91698   2
   1  -5  -8 1.28119 7.29214   1
  -1  -5   8 0.46529 6.88032   1
   1  -5  -8 2.31058 1.02244   2
   1  -5  -8 -0.2757 7.51178   1
   1   5  -8 1.54620 1.42735   2
   1   5  -8 -5.1095 9.16736   1
   0  -5  -8 42.0107 7.83156   1
   0  -5  -8 37.5788 2.69808   2
   0  -5   8 34.2297 7.75739   1
   0  -5  -8 42.2229 9.18691   1
   0  -5  -8 38.4392 2.69499   2
   0   5  -8 47.3992 11.8155   1
   0   5  -8 41.8524 3.77899   2
  -1  -5  -8 68.5163 3.79833   2
   1  -5   8 74.8780 10.3233   1
  -1  -5  -8 75.8595 4.28521   3
  -1   5  -8 74.0075 5.31404   2
  -2  -5  -8 4.64358 1.84388   3
   2  -5   8 9.13060 11.5601   1
  -2  -5  -8 5.67645 1.89380   2
   2  -5   8 2.84651 8.48193   1
  -2   5  -8 11.1848 2.71052   2
  -2   5  -8 5.20741 1.22171   3
  -3  -5  -8 1.79881 1.74063   3
   3  -5   8 4.13890 14.3655   1
  -3  -5  -8 -0.2369 2.31515   2
   3   5   8 -11.586 12.5479   1
   3   5   8 3.24316 2.08257   2
   4  -5   8 24.9134 4.31181   2
   4   5   8 22.5328 4.08540   2
   5  -5   8 221.824 13.5048   2
   5   5   8 208.931 12.3113   2
   6  -6  -8 28.3376 6.07630   2
   6   6  -8 26.4565 7.27590   2
   5  -6  -8 -0.5338 3.01761   2
   5   6  -8 -5.2705 3.71897   2
  -4  -6   8 -13.539 25.4321   1
   4  -6  -8 30.0255 4.34654   2
   4  -6  -8 23.0957 26.4854   1
   4   6  -8 17.6238 4.18774   2
   4   6  -8 28.8864 28.5443   1
  -4   6   8 25.9891 4.26037   2
  -3  -6   8 795.603 49.2228   1
   3  -6  -8 755.081 51.4781   1
  -3  -6   8 799.063 26.4609   2
   3  -6  -8 769.366 24.6995   2
  -3   6   8 812.827 25.4707   2
   3   6  -8 769.900 53.1919   1
   3   6  -8 796.456 26.4133   2
   2  -6  -8 13.5457 1.74416   2
  -2  -6   8 7.30406 10.9365   1
   2  -6  -8 10.9772 12.3781   1
   2  -6  -8 10.9213 13.2597   1
  -2  -6   8 12.1476 2.78184   2
   2   6  -8 11.1282 2.57064   2
  -2   6   8 12.3572 2.18308   2
   2   6  -8 -0.7279 11.4507   1
  -1  -6   8 16.6274 8.84548   1
   1  -6  -8 1.35485 8.06414   1
   1  -6  -8 6.06656 9.45073   1
   1  -6  -8 6.50142 1.20141   2
   1   6  -8 10.2016 11.3084   1
   1   6  -8 7.47490 2.02666   2
   0  -6   8 23.4648 7.89948   1
   0  -6  -8 26.8944 9.48458   1
   0  -6  -8 32.6883 2.40406   2
   0  -6  -8 28.0345 2.34838   2
   0  -6  -8 25.0986 7.10710   1
   0   6  -8 34.2051 3.74119   2
   0   6  -8 25.3179 11.4511   1
   1  -6   8 1272.11 48.9278   1
  -1  -6  -8 1280.59 39.0804   3
  -1  -6  -8 1317.11 38.4357   2
  -1   6  -8 1308.08 39.9827   2
  -2  -6  -8 4.83322 1.87087   3
  -2  -6  -8 7.85341 1.85248   2
   2  -6   8 12.7445 10.0414   1
   2  -6   8 10.0204 12.3880   1
  -2  -6  -8 0.97860 7.19737   1
  -2   6  -8 3.08046 2.53723   2
  -2   6  -8 6.87516 1.24286   3
   3  -6   8 3.11048 14.8245   1
  -3  -6  -8 0.72664 1.83922   3
  -3  -6  -8 4.34502 2.45052   2
   3   6   8 -3.4654 14.2606   1
   3   6   8 1.14731 1.93418   2
   4   6   8 97.7769 8.65550   2
   5  -6   8 152.402 12.1941   2
   5   6   8 173.498 11.4144   2
   6  -7  -8 113.890 10.5509   2
   6   7  -8 107.121 13.7625   2
   5  -7  -8 6.80793 3.33921   2
   5   7  -8 13.0402 4.50325   2
   4  -7  -8 308.888 55.1180   1
   4  -7  -8 307.770 11.7678   2
  -4  -7   8 262.316 50.0141   1
  -4   7   8 310.564 13.1635   2
   4   7  -8 233.527 36.8881   1
   4   7  -8 332.909 13.9019   2
   3  -7  -8 1.87984 17.4034   1
   3  -7  -8 1.03010 1.64245   2
  -3  -7   8 -9.2824 18.4236   1
  -3  -7   8 0.05059 3.10010   2
   3  -7  -8 -9.8829 18.1405   1
  -3   7   8 -5.1227 2.27070   2
   3   7  -8 3.71237 2.58359   2
   3   7  -8 5.17447 18.5696   1
   2  -7  -8 1216.09 56.8283   1
   2  -7  -8 1220.23 57.0834   1
   2  -7  -8 1165.20 35.9351   2
  -2  -7   8 1215.01 37.9555   2
  -2  -7   8 1203.36 55.8354   1
   2   7  -8 1177.48 37.8600   2
   2   7  -8 1241.44 59.7575   1
  -2   7   8 1223.01 36.4605   2
   1  -7  -8 79.2950 3.40544   2
   1  -7  -8 75.1187 13.9544   1
  -1  -7   8 84.2869 14.2753   1
   1  -7  -8 87.0283 13.4113   1
   1   7  -8 72.7208 5.03622   2
   1   7  -8 51.8776 13.9907   1
   0  -7  -8 1387.35 40.3874   2
   0  -7  -8 1394.91 49.7841   1
   0  -7   8 1369.66 53.0838   1
   0  -7  -8 1398.32 54.1131   1
   0  -7  -8 1349.88 40.4915   2
   0   7  -8 1329.10 42.2730   2
   0   7  -8 1411.84 59.9417   1
  -1  -7  -8 8.11764 1.96197   3
   1  -7   8 -7.6560 8.70936   1
  -1  -7  -8 5.83634 1.43372   2
  -1   7  -8 6.01938 2.45922   2
  -1   7  -8 2.26357 8.62508   1
  -2  -7  -8 1055.52 40.0265   1
  -2  -7  -8 1036.02 31.5144   3
   2  -7   8 1012.28 44.1807   1
   2  -7   8 973.836 49.7213   1
  -2  -7  -8 1025.87 30.7717   2
  -2   7  -8 1002.52 32.2875   2
   2   7   8 963.762 43.0238   1
  -3  -7  -8 22.1303 3.14021   2
  -3  -7  -8 19.2410 2.75002   3
   3  -7   8 20.1637 16.4552   1
   3   7   8 5.96946 15.8118   1
   3   7   8 21.3923 2.89208   2
   4   7   8 260.936 15.5683   2
   5   7   8 10.0161 4.98441   2
   6  -8  -8 -0.2979 5.29079   2
   5  -8  -8 1.84309 3.22504   2
   5   8  -8 -1.8147 4.20411   2
   4  -8  -8 61.2939 35.2359   1
   4  -8  -8 61.1600 5.05968   2
  -4  -8   8 21.2749 25.0845   1
  -4   8   8 55.3289 7.26993   2
   4   8  -8 23.4501 30.6755   1
   4   8  -8 67.8129 7.22590   2
   3  -8  -8 1241.11 38.3205   2
  -3  -8   8 1231.84 40.6311   2
   3  -8  -8 1355.95 68.5893   1
  -3  -8   8 1205.67 65.0998   1
   3  -8  -8 1272.90 68.4070   1
  -3   8   8 1284.08 39.0221   2
   3   8  -8 1301.49 40.5648   2
   3   8  -8 1286.50 70.6691   1
   2  -8  -8 10.8068 1.61370   2
  -2  -8   8 11.7071 3.09832   2
   2  -8  -8 11.9747 13.6844   1
   2  -8  -8 0.73621 13.0220   1
  -2  -8   8 0.30661 11.6114   1
  -2   8   8 15.8957 2.22288   2
   2   8  -8 22.2326 15.5439   1
   2   8  -8 10.2306 2.53386   2
   1  -8  -8 5.34001 9.33237   1
   1  -8  -8 -0.6331 10.8873   1
  -1  -8   8 1.25618 8.59119   1
   1  -8  -8 2.51140 0.90225   2
   1   8  -8 6.37049 2.20033   2
   1   8  -8 -5.5659 12.0445   1
   0  -8  -8 42.8642 2.46259   2
   0  -8  -8 46.6833 2.51809   2
   0  -8   8 38.5628 10.5050   1
   0  -8  -8 46.8213 12.6749   1
   0  -8  -8 36.0576 9.50160   1
   0  -8  -8 42.6355 3.60085   3
   0   8  -8 41.4533 4.24996   2
   0   8  -8 36.4706 14.1296   1
  -1  -8  -8 2700.99 80.7708   3
   1  -8   8 2677.41 95.5608   1
  -1  -8  -8 2775.89 79.6561   2
  -1  -8  -8 2792.86 88.7158   1
  -1   8  -8 2792.22 81.7206   2
   1   8   8 2843.00 89.5340   1
  -1   8  -8 2609.40 94.4001   1
  -2  -8  -8 94.5584 5.70851   3
   2  -8   8 82.0465 16.0017   1
   2  -8   8 95.2635 19.5927   1
  -2  -8  -8 90.1526 17.1187   1
  -2  -8  -8 110.650 5.05862   2
   2   8   8 95.9008 18.0586   1
  -2   8  -8 96.1817 6.91060   2
  -3  -8  -8 -1.6816 2.30795   2
  -3  -8  -8 1.53461 2.05688   3
   3   8   8 1.82032 2.08005   2
   3   8   8 9.00837 18.4052   1
   5   8   8 264.780 13.7941   2
   6  -9  -8 11.7496 5.71413   2
   5  -9  -8 7.09917 3.57041   2
   5   9  -8 13.3440 5.07291   2
   4  -9  -8 6.49738 33.6719   1
  -4  -9   8 42.5586 38.3505   1
   4  -9  -8 69.1087 5.14826   2
   4   9  -8 60.4930 7.26626   2
  -4   9   8 55.5780 7.41982   2
   4   9  -8 73.4272 37.1997   1
   3  -9  -8 90.9790 26.4005   1
   3  -9  -8 89.2215 4.81617   2
  -3  -9   8 68.3100 22.1853   1
   3  -9  -8 73.8740 25.7321   1
  -3   9   8 88.4104 6.00645   2
   3   9  -8 94.6223 7.14780   2
   3   9  -8 69.0017 26.4974   1
  -2  -9   8 110.211 19.3161   1
   2  -9  -8 144.108 23.5626   1
   2  -9  -8 96.6757 21.6793   1
   2  -9  -8 125.219 5.04147   2
  -2  -9   8 132.254 7.85694   2
  -2   9   8 131.788 5.66713   2
   2   9  -8 131.759 7.44471   2
   2   9  -8 132.123 24.4736   1
  -1  -9   8 36.0179 11.2621   1
   1  -9  -8 35.6948 12.5179   1
   1  -9  -8 46.3055 2.29220   2
   1  -9  -8 44.3139 12.1996   1
   1   9  -8 40.8672 4.35543   2
   1   9  -8 48.9377 17.4474   1
   0  -9  -8 216.909 24.2859   1
   0  -9  -8 228.257 8.47149   3
   0  -9   8 199.040 22.4208   1
   0  -9  -8 218.243 6.88181   2
   0  -9  -8 201.627 19.9551   1
   0  -9  -8 209.028 7.07023   2
   0   9  -8 210.938 29.8735   1
   0   9  -8 211.718 9.24187   2
  -1  -9  -8 11.5110 9.44140   1
  -1  -9  -8 25.8829 2.32968   2
  -1  -9  -8 31.4229 3.75657   3
   1  -9   8 17.7708 12.4294   1
  -1   9  -8 21.5502 3.37623   2
   1   9   8 28.0918 10.5746   1
  -1   9  -8 2.59112 12.3298   1
   2  -9   8 85.9095 17.4645   1
   2  -9   8 84.7165 19.1747   1
  -2  -9  -8 99.6995 4.81817   2
  -2  -9  -8 88.1302 5.62940   3
  -2  -9  -8 86.6330 13.7364   1
  -2   9  -8 94.1018 7.07463   2
  -3  -9  -8 3.53036 2.28118   3
  -3  -9  -8 4.07893 2.66275   2
   3   9   8 13.7037 20.3781   1
   3   9   8 3.92329 2.12735   2
   5   9   8 106.915 10.3992   2
   5 -10  -8 5.61228 3.50863   2
   5  10  -8 2.15605 4.78180   2
   4 -10  -8 53.5079 4.82525   2
   4  10  -8 53.2344 7.15215   2
   4  10  -8 32.6543 33.1593   1
  -4  10   8 40.9563 5.18306   2
  -3 -10   8 124.901 39.9963   1
   3 -10  -8 87.5458 25.0610   1
   3 -10  -8 23.4237 22.5749   1
   3 -10  -8 77.4734 4.41378   2
  -3  10   8 80.6823 5.66779   2
   3  10  -8 70.7281 29.2222   1
   3  10  -8 74.2921 6.77848   2
  -2 -10   8 13.2877 15.2976   1
   2 -10  -8 -4.0704 16.5364   1
   2 -10  -8 31.2987 16.1470   1
  -2 -10   8 23.3589 3.70098   2
   2 -10  -8 19.8054 2.16033   2
  -2  10   8 19.2830 2.24367   2
   2  10  -8 17.7175 3.35731   2
   2  10  -8 22.0091 19.2511   1
   1 -10  -8 29.5831 14.3833   1
   1 -10  -8 19.7326 12.6472   1
  -1 -10   8 13.6777 12.1367   1
   1  10  -8 0.79801 14.4079   1
   0 -10  -8 7.98228 12.8227   1
   0 -10   8 23.1222 11.8721   1
   0 -10  -8 4.18546 1.68890   3
   0  10  -8 36.5334 16.5512   1
   0  10  -8 10.1040 2.45958   2
  -1 -10  -8 42.0186 4.12015   3
  -1 -10  -8 28.1933 11.9107   1
  -1 -10  -8 44.3979 2.61612   2
   1 -10   8 53.0493 14.5734   1
  -1  10  -8 43.3844 5.58367   2
  -1  10  -8 53.3127 15.2892   1
   1  10   8 43.2060 12.9095   1
   2 -10   8 133.435 22.1002   1
  -2 -10  -8 117.532 6.60846   3
  -2 -10  -8 118.556 22.1425   1
  -2 -10  -8 118.954 7.54844   2
   2 -10   8 79.4220 20.7631   1
   2  10   8 83.9673 28.4207   1
  -2  10  -8 116.292 8.01418   2
  -3 -10  -8 9.23699 2.82689   2
   3  10   8 3.13978 2.18506   2
   5  10   8 2.61689 5.19267   2
   5 -11  -8 2.16535 3.62924   2
   5  11  -8 5.97923 5.17861   2
   4 -11  -8 146.510 7.11682   2
  -4  11   8 139.059 9.27449   2
   4  11  -8 31.4285 45.6999   1
   4  11  -8 141.756 9.84986   2
   3 -11  -8 14.9726 23.8253   1
  -3 -11   8 33.3071 22.7290   1
   3 -11  -8 19.4995 25.6243   1
   3 -11  -8 29.6960 3.33081   2
  -3  11   8 21.6514 3.29689   2
   3  11  -8 59.8037 28.9689   1
   3  11  -8 19.7925 3.99628   2
   2 -11  -8 475.701 14.9587   2
   2 -11  -8 465.971 41.1042   1
  -2 -11   8 502.881 18.2532   2
  -2 -11   8 446.705 38.6584   1
   2  11  -8 523.609 48.4343   1
   2  11  -8 499.839 18.0468   2
  -2  11   8 485.258 15.3794   2
   1 -11  -8 78.4756 18.4175   1
   1 -11  -8 60.2222 15.4768   1
  -1 -11   8 96.1663 19.4913   1
   1  11  -8 82.7973 5.85645   2
   1  11  -8 104.240 23.0642   1
   0 -11   8 588.876 38.0444   1
   0 -11  -8 614.106 19.8687   3
   0 -11  -8 630.645 40.1640   1
   0  11  -8 604.889 20.7089   2
   0  11  -8 584.663 45.3791   1
  -1 -11  -8 79.5872 3.43565   2
   1 -11   8 74.6831 17.4406   1
  -1 -11  -8 70.7538 15.7187   1
  -1 -11  -8 92.1030 5.54452   3
  -1  11  -8 82.6038 6.79868   2
  -1  11  -8 63.5726 17.9021   1
   1  11   8 74.7049 16.4709   1
  -2 -11  -8 395.349 14.1509   2
  -2 -11  -8 420.933 15.2690   3
   2 -11   8 409.067 40.9553   1
  -2 -11  -8 452.848 32.3341   1
   2 -11   8 404.452 53.2467   1
   2  11   8 468.481 38.6332   1
  -3 -11  -8 38.7836 5.26025   2
   3  11   8 29.5504 4.25691   2
   5  11   8 47.7052 6.72016   2
   5 -12  -8 3.59361 3.66259   2
   5  12  -8 -5.3566 4.97202   2
   4 -12  -8 31.8428 4.50380   2
   4  12  -8 37.6525 5.55111   2
  -4  12   8 24.9380 4.73963   2
   3 -12  -8 1102.81 74.5328   1
   3 -12  -8 1085.58 33.5389   2
  -3 -12   8 1127.02 69.7527   1
  -3  12   8 1162.00 34.2920   2
   3  12  -8 1079.38 76.5337   1
   2 -12  -8 49.3470 22.2671   1
   2 -12  -8 49.9420 20.5170   1
  -2 -12   8 66.2109 20.1110   1
   2 -12  -8 68.2347 3.11776   2
  -2  12   8 58.4378 3.63558   2
   2  12  -8 64.6700 6.25939   2
   2  12  -8 43.1654 23.5930   1
   1 -12  -8 -8.6444 14.5479   1
  -1 -12   8 10.2985 13.4889   1
   1 -12  -8 -9.9889 16.5391   1
   1 -12  -8 2.02249 1.75242   3
   1  12  -8 21.3765 18.0530   1
   1  12  -8 8.32202 2.67181   2
   0 -12   8 74.1645 17.8471   1
   0 -12  -8 73.0913 19.1545   1
   0 -12  -8 97.3239 5.65472   3
   0  12  -8 104.855 24.7443   1
   0  12  -8 96.4228 6.24707   2
  -1 -12  -8 1969.65 76.7888   1
  -1 -12  -8 1937.36 57.9915   3
   1 -12   8 1850.59 81.3390   1
   1  12   8 1957.91 77.0367   1
  -1  12  -8 1946.96 58.8203   2
  -1  12  -8 1875.47 83.3274   1
  -2 -12  -8 78.8298 5.97690   3
  -2 -12  -8 57.9739 16.7519   1
  -2 -12  -8 75.3924 4.23033   2
   2 -12   8 65.7830 23.9613   1
   2  12   8 48.5638 19.8666   1
  -3 -12  -8 -2.0028 2.66491   2
   3  12   8 0.32492 2.24000   2
   4  12   8 14.0270 6.79945   2
   5  12   8 250.139 14.0493   2
   5 -13  -8 31.3601 4.48309   2
   5  13  -8 26.8328 6.80139   2
   4 -13  -8 147.441 7.16124   2
   4  13  -8 125.055 10.2159   2
  -3 -13   8 7.02687 26.5661   1
   3 -13  -8 11.4195 29.3275   1
   3 -13  -8 22.0056 2.46212   2
  -3  13   8 20.1572 3.21143   2
   3  13  -8 7.97130 29.4469   1
   3  13  -8 21.9584 4.84683   2
   2 -13  -8 462.527 49.5544   1
   2 -13  -8 346.437 41.5487   1
  -2 -13   8 384.076 42.6715   1
   2  13  -8 395.116 15.5376   2
   2  13  -8 398.888 52.3179   1
   1 -13  -8 68.9610 20.0716   1
   1 -13  -8 77.2019 5.01592   3
   1 -13  -8 32.5154 18.8616   1
  -1 -13   8 93.6155 21.2519   1
   1  13  -8 52.3817 24.1234   1
   1  13  -8 72.6276 5.82441   2
   0 -13   8 523.226 41.4775   1
   0 -13  -8 539.169 42.2634   1
   0 -13  -8 562.030 18.3583   3
   0  13  -8 477.778 48.1409   1
   0  13  -8 554.317 19.1402   2
  -1 -13  -8 39.7892 5.00592   3
  -1 -13  -8 45.9951 17.7454   1
   1 -13   8 11.9465 17.5740   1
  -1  13  -8 37.3938 20.1032   1
   1  13   8 42.6762 17.6358   1
  -1  13  -8 48.0567 6.79087   2
  -2 -13  -8 265.391 33.8937   1
  -2 -13  -8 323.072 12.3712   3
  -2 -13  -8 300.827 10.1254   2
   2  13   8 255.444 40.7472   1
  -3 -13  -8 27.3553 3.58965   2
   3  13   8 31.3828 3.38276   2
   4  13   8 113.348 9.84574   2
   5  13   8 23.0247 6.43183   2
   5 -14  -8 2.98003 3.97213   2
   5  14  -8 -3.0901 5.71512   2
   4 -14  -8 53.2426 5.07366   2
   4  14  -8 49.3770 6.32222   2
   3 -14  -8 110.652 5.17861   2
   3  14  -8 124.858 8.64453   2
  -3  14   8 98.9079 7.35991   2
   3  14  -8 50.5012 34.6815   1
   2 -14  -8 5.17811 22.4188   1
   2 -14  -8 35.8501 24.7744   1
  -2 -14   8 5.00266 16.9252   1
   2 -14  -8 -2.0220 1.97782   3
   2  14  -8 0.17681 2.59405   2
   2  14  -8 -22.833 25.5896   1
   1 -14  -8 2.75772 2.01373   3
  -1 -14   8 13.3926 17.4319   1
   1 -14  -8 -2.3689 21.7629   1
   1 -14  -8 -2.0221 16.7245   1
   1  14  -8 5.66727 2.47096   2
   1  14  -8 14.2107 25.0398   1
   0 -14  -8 42.8196 21.8430   1
   0 -14   8 17.4442 16.9170   1
   0 -14  -8 44.4569 4.58695   3
   0  14   8 12.0244 17.1894   1
   0  14  -8 20.1531 23.6133   1
   0  14  -8 39.3163 4.33835   2
  -1 -14  -8 219.532 9.71852   3
  -1 -14  -8 203.747 34.6817   1
  -1  14  -8 217.590 41.2828   1
  -1  14  -8 225.119 10.4337   2
  -1  14  -8 225.308 12.2227   2
   1  14   8 202.797 35.1227   1
  -2 -14  -8 164.031 6.36385   2
  -2 -14  -8 169.888 8.72399   3
  -2 -14  -8 203.210 35.8474   1
  -3 -14  -8 35.4824 5.08809   2
   3  14   8 34.7271 3.61154   2
   4  14   8 17.3521 5.03775   2
   5 -15  -8 8.29657 4.41449   2
   5 -15  -8 -0.1276 4.22260   3
   5  15  -8 -2.0523 6.17294   2
   4 -15  -8 19.1303 3.22993   2
   4 -15  -8 20.1173 3.68966   3
   4  15  -8 16.3874 5.07372   2
   3 -15  -8 51.9532 3.85940   2
   3 -15  -8 52.8192 5.51231   3
   3  15  -8 -17.779 38.8236   1
  -3  15   8 39.9530 5.93900   2
   3  15  -8 57.2782 7.22803   2
   2 -15  -8 43.5338 4.75456   3
  -2 -15   8 51.7947 23.4942   1
   2 -15  -8 54.6317 27.7234   1
   2  15  -8 5.73300 27.4789   1
   2  15  -8 47.2423 6.00447   2
   1 -15  -8 7.00900 2.36446   3
   1 -15  -8 9.80347 21.8526   1
   1 -15  -8 -12.899 19.1661   1
  -1 -15   8 -3.3705 19.7758   1
   1  15  -8 3.72144 2.57867   2
   1  15  -8 -39.345 26.4378   1
   0 -15   8 87.1688 23.6511   1
   0 -15  -8 106.304 25.8570   1
   0 -15  -8 110.672 6.48900   3
   0  15   8 94.7217 23.7137   1
   0  15  -8 101.314 29.4061   1
   0  15  -8 115.905 7.17991   2
  -1 -15  -8 51.4550 5.45405   3
  -1 -15  -8 47.0632 21.0213   1
  -1  15  -8 41.4896 25.5463   1
  -1  15  -8 51.7519 6.08802   2
   1  15   8 24.0182 20.5216   1
  -2 -15  -8 18.8740 3.34867   3
  -2 -15  -8 15.0035 1.88781   2
   3  15   8 50.6148 4.84560   2
   4  15   8 30.4441 4.69102   2
   5 -16  -8 0.39086 4.84655   3
   5  16  -8 1.67434 6.73950   2
   4 -16  -8 5.02106 3.33851   3
   4 -16  -8 1.36610 2.89492   2
   4  16  -8 -2.7272 4.41441   2
   3 -16  -8 384.866 12.7912   2
   3  16  -8 407.648 16.7274   2
   2 -16  -8 71.5314 5.83235   3
   2  16  -8 108.173 36.7205   1
  -1 -16   8 5.73537 23.7654   1
   1 -16  -8 -2.0166 2.08402   3
   1 -16  -8 -21.667 27.7638   1
   1 -16  -8 -1.0510 22.6378   1
   1  16  -8 3.04597 2.59620   2
   1  16  -8 2.81709 29.2592   1
   0 -16  -8 27.9100 23.2038   1
   0 -16   8 7.14037 30.9501   1
   0 -16  -8 20.0727 3.20821   3
   0  16  -8 23.1552 3.64033   2
   0  16  -8 39.5000 26.7090   1
  -1 -16  -8 647.034 79.8549   1
  -1 -16  -8 640.085 27.8512   3
  -1  16  -8 831.337 26.0956   2
  -1  16  -8 799.345 23.2304   3
  -2 -16  -8 1.20017 2.78090   3
   3  16   8 -5.8641 2.33357   2
   4  16   8 48.3990 6.05069   2
   5  17  -8 16.0347 10.6902   2
   4 -17  -8 137.135 8.52895   3
   4 -17  -8 140.974 7.47057   2
   4  17  -8 129.663 11.2713   2
   3 -17  -8 -0.7466 2.77330   3
   3  17  -8 -3.5081 3.59528   2
   2 -17  -8 447.249 19.7180   3
   2  17  -8 336.994 64.7108   1
   2  17  -8 466.613 17.5845   2
   1 -17  -8 146.306 7.83808   3
   1  17  -8 131.666 35.3091   1
   1  17  -8 144.067 8.46467   2
   0 -17  -8 403.658 18.5537   3
   0  17  -8 370.532 61.7444   1
   0  17  -8 511.825 17.3546   2
  -1 -17  -8 3.11996 2.97347   3
  -1  17  -8 5.98034 2.34765   3
  -2 -17  -8 355.768 14.3143   3
   4 -18  -8 92.9305 8.11429   3
   4  18  -8 97.6434 10.3800   2
   3 -18  -8 383.965 14.6891   3
   3  18  -8 380.708 16.5637   2
   2 -18  -8 29.1360 3.94441   3
   2  18  -8 28.8288 4.39221   2
   1 -18  -8 0.23947 2.61545   3
   0 -18  -8 134.702 7.94887   3
   0  18  -8 141.026 7.48288   3
   0  18  -8 126.903 9.37366   2
  -1 -18  -8 434.590 16.7464   3
  -1  18  -8 439.067 14.9299   3
  -1  18  -8 460.465 17.3425   2
  -2 -18  -8 86.2239 7.36942   3
   4 -19  -8 -0.6237 4.22442   3
   4  19  -8 0.40884 5.25074   2
   3 -19  -8 56.3917 6.87299   3
   3  19  -8 57.2747 8.34137   2
   2 -19  -8 4.74257 2.99410   3
   2  19  -8 5.22184 3.38131   2
   1 -19  -8 7.76199 3.00799   3
   1  19  -8 4.96368 3.14657   2
   0 -19  -8 1.38699 2.73223   3
   0  19  -8 8.38721 3.22905   2
   0  19  -8 8.21270 3.28265   3
  -1 -19  -8 29.9286 4.34428   3
  -1  19  -8 43.6342 6.33063   2
  -1  19  -8 38.8747 3.78578   3
  -2 -19  -8 47.6560 6.63621   3
   4 -20  -8 11.5489 4.67840   3
   4  20  -8 11.1713 5.93722   2
   3 -20  -8 35.7449 4.62258   3
   3  20  -8 38.5503 5.71925   2
   2 -20  -8 -4.9058 2.96221   3
   2  20  -8 1.74596 3.40010   2
   1 -20  -8 0.95420 2.93242   3
   1  20  -8 4.18512 3.32229   2
   0 -20  -8 9.65500 3.46215   3
   0  20  -8 11.7056 3.87904   3
   0  20  -8 6.60846 3.29107   2
  -1 -20  -8 145.145 8.96257   3
  -1  20  -8 164.035 9.43224   2
  -1  20  -8 152.855 8.70630   3
  -2  20  -8 15.2862 4.54660   2
   4 -21  -8 43.8238 6.04871   3
   4  21  -8 56.3884 7.67825   2
   3 -21  -8 -1.8138 3.70082   3
   3  21  -8 2.37498 4.43527   2
   2 -21  -8 179.557 9.77889   3
   2  21  -8 195.474 10.9152   2
   1 -21  -8 108.068 7.70862   3
   1  21  -8 108.485 8.36337   2
   0 -21  -8 275.679 12.4098   3
   0  21  -8 270.732 12.5822   2
  -1 -21  -8 3.45320 3.29570   3
  -1  21  -8 -4.5872 3.22726   2
  -2  21  -8 74.5758 8.80061   2
   3 -22  -8 209.196 11.7045   3
   3  22  -8 231.844 13.0980   2
   2 -22  -8 60.8089 7.34010   3
   2  22  -8 54.8098 7.89365   2
   1 -22  -8 3.57384 3.42722   3
   1  22  -8 5.43618 3.61048   2
   0 -22  -8 53.9040 7.01212   3
   0  22  -8 68.6372 7.43525   2
  -1 -22  -8 424.763 17.3828   3
  -1  22  -8 461.977 17.9653   2
  -2  22  -8 70.9573 8.86839   2
   3 -23  -8 8.14542 5.04434   3
   3  23  -8 14.1577 5.67892   2
   2 -23  -8 78.7165 8.45010   3
   2  23  -8 88.8733 8.97615   2
   1 -23  -8 61.5757 7.41874   3
   1  23  -8 50.9983 5.96805   2
   0 -23  -8 80.0741 7.85833   3
   0  23  -8 97.7007 8.37749   2
  -1 -23  -8 0.36340 3.94374   3
  -1  23  -8 1.31096 3.97941   2
  -2  23  -8 101.022 10.0248   2
  -3  23  -8 36.1079 7.58308   2
   3 -24  -8 -12.095 4.92542   3
   3  24  -8 4.99743 5.64485   2
   2 -24  -8 15.2722 4.72085   3
   2  24  -8 13.8782 4.95874   2
   1 -24  -8 -2.6188 3.78735   3
   1  24  -8 -1.4056 3.92524   2
   0 -24  -8 6.65912 4.04517   3
   0  24  -8 6.30355 4.15884   2
  -1 -24  -8 3.59079 4.23928   3
  -1  24  -8 -3.8235 4.14914   2
  -2  24  -8 20.6251 5.63013   2
   2 -25  -8 15.8273 5.25517   3
   2  25  -8 15.3394 5.58603   2
   1 -25  -8 27.1407 4.99603   3
   1  25  -8 21.7112 5.04341   2
   0 -25  -8 22.4651 4.71596   3
   0  25  -8 29.6322 5.27152   2
  -1  25  -8 0.87668 4.60008   2
  -2  25  -8 0.89736 5.41032   2
   2 -26  -8 25.3105 6.06697   3
   2  26  -8 19.3095 5.86827   2
   1 -26  -8 0.69141 4.78595   3
   1  26  -8 1.60372 4.75146   2
   0 -26  -8 37.2084 6.21148   3
   0  26  -8 44.0049 6.12157   2
  -1  26  -8 213.248 13.3403   2
   1 -27  -8 72.7165 10.0301   3
   1  27  -8 67.4325 7.13177   2
   0 -27  -8 50.7638 7.56048   3
   0  27  -8 55.0166 6.85869   2
   6   0  -9 6.67589 5.87110   2
   5   0  -9 146.982 9.60261   2
   4   0  -9 24.9881 28.9846   1
   3   0  -9 510.160 17.9170   2
   3   0  -9 491.704 42.5945   1
  -3   0   9 563.918 41.0651   1
  -3   0   9 528.317 18.6657   2
  -2   0   9 2.25799 9.45037   1
   2   0  -9 -3.1114 10.4735   1
  -2   0   9 -0.8748 2.00190   2
   2   0  -9 0.19188 1.52408   2
   1   0  -9 60.2508 10.9093   1
  -1   0   9 54.9714 9.87154   1
   1   0  -9 65.8410 4.25314   2
   0   0  -9 8.18402 1.96518   2
  -1   0  -9 264.011 9.99312   2
  -2   0  -9 2.63338 2.08637   2
  -2   0  -9 -0.5901 1.28264   3
  -3   0  -9 3.24783 1.61499   3
   4   0   9 3.78537 3.62219   2
   5   0   9 7.83945 5.28501   2
   6  -1  -9 1.51253 5.48041   2
   6   1  -9 6.34225 5.84623   2
   5  -1  -9 1.06149 3.38759   2
   5   1  -9 4.42768 3.85483   2
   4  -1  -9 455.864 55.7492   1
   4  -1  -9 525.531 18.2655   2
   4   1  -9 484.170 54.8279   1
   4   1  -9 494.649 21.1917   2
   3  -1  -9 186.342 32.2693   1
  -3  -1   9 216.431 31.1825   1
  -3  -1   9 215.171 10.0927   2
   3  -1  -9 214.538 9.07584   2
   3   1  -9 215.823 9.44622   2
   3   1  -9 199.320 32.6538   1
  -3   1   9 227.561 32.0974   1
  -3   1   9 203.122 9.86026   2
  -2  -1   9 0.77392 2.13820   2
   2  -1  -9 0.57377 10.3648   1
  -2  -1   9 -5.7480 9.79958   1
   2  -1  -9 6.08876 1.74432   2
   2   1  -9 -2.5091 10.6134   1
  -2   1   9 1.08201 10.0361   1
   2   1  -9 1.11060 1.66505   2
  -2   1   9 2.02446 2.05002   2
   1  -1  -9 369.493 22.9422   1
   1  -1  -9 354.059 12.5813   2
  -1  -1   9 366.718 21.9917   1
   1   1  -9 373.305 23.3878   1
   1   1  -9 351.222 12.8665   2
  -1   1   9 372.688 22.0274   1
   0  -1  -9 838.121 26.3500   2
   0   1  -9 842.432 26.6263   2
  -1  -1  -9 545.936 18.0459   2
  -1   1  -9 562.312 18.3762   2
  -2  -1  -9 5.71540 2.24751   2
  -2  -1  -9 3.99148 1.53904   3
  -2   1  -9 1.86039 2.11845   2
  -2   1  -9 3.92724 1.46424   3
  -3  -1  -9 242.659 8.94825   3
  -3  -1  -9 238.457 11.5937   2
  -3   1  -9 243.298 8.53320   3
   4   1   9 3.91984 3.42381   2
   5  -1   9 70.5319 10.1670   2
   5   1   9 76.5528 9.64953   2
   6  -2  -9 1.77848 5.40305   2
   6   2  -9 2.80732 5.91182   2
   5  -2  -9 11.9258 3.66759   2
   5   2  -9 6.66223 4.02185   2
   4  -2  -9 283.149 11.3761   2
   4  -2  -9 292.623 50.6137   1
   4   2  -9 309.620 53.1081   1
   4   2  -9 217.532 14.7173   2
  -3  -2   9 38.6710 16.3668   1
   3  -2  -9 31.6686 17.3238   1
  -3  -2   9 30.2979 4.11172   2
   3  -2  -9 29.5705 3.96339   2
  -3   2   9 33.5942 3.95189   2
  -3   2   9 57.8318 17.5681   1
   3   2  -9 32.2745 19.0658   1
   3   2  -9 31.3242 3.85672   2
  -2  -2   9 4.51759 10.2108   1
   2  -2  -9 6.33994 10.9618   1
   2  -2  -9 3.51224 1.57157   2
  -2  -2   9 3.15749 2.31193   2
   2   2  -9 2.57701 1.80693   2
  -2   2   9 14.8729 10.4855   1
  -2   2   9 4.91414 2.08171   2
   2   2  -9 17.3055 12.9019   1
  -1  -2   9 21.8641 7.83141   1
   1  -2  -9 19.6571 2.86014   2
   1  -2  -9 22.6865 8.20507   1
   1   2  -9 29.5031 3.51128   2
   1   2  -9 24.1586 9.41472   1
   0  -2  -9 2273.47 62.1961   2
   0  -2  -9 1779.91 64.4064   2
   0   2  -9 2214.11 62.7318   2
  -1  -2  -9 61.4310 4.25337   2
  -1   2  -9 68.3906 4.97048   2
  -2  -2  -9 17.6674 2.66520   2
  -2  -2  -9 17.8237 2.21224   3
  -2   2  -9 16.0924 2.00866   3
  -2   2  -9 19.8652 3.12143   2
  -3  -2  -9 3.67854 1.92109   3
  -3  -2  -9 7.68166 3.11423   2
  -3   2  -9 9.25319 1.57123   3
   4  -2   9 1036.60 34.2947   2
   4   2   9 1007.02 33.7313   2
   5  -2   9 7.45970 5.23907   2
   5   2   9 8.13672 4.95302   2
   6  -3  -9 -2.6661 5.25005   2
   6   3  -9 2.20406 5.79100   2
   5  -3  -9 29.5995 4.56773   2
   5   3  -9 31.7832 5.22967   2
   4  -3  -9 142.403 7.61712   2
   4  -3  -9 111.994 36.5577   1
   4   3  -9 124.656 8.35656   2
   4   3  -9 110.496 34.9624   1
   3  -3  -9 520.931 17.5650   2
  -3  -3   9 533.922 19.0417   2
   3  -3  -9 476.417 43.0058   1
  -3  -3   9 493.472 40.2469   1
  -3   3   9 536.958 18.4431   2
   3   3  -9 531.314 18.5378   2
   3   3  -9 489.653 43.6422   1
  -3   3   9 547.252 41.3969   1
  -2  -3   9 3.75763 10.2814   1
   2  -3  -9 -13.882 10.3914   1
   2  -3  -9 7.20034 1.70293   2
  -2  -3   9 3.25404 2.38412   2
  -2   3   9 -0.6286 10.4789   1
   2   3  -9 7.52454 2.06732   2
   2   3  -9 5.22289 11.4747   1
  -2   3   9 6.27000 2.14996   2
   1  -3  -9 700.700 21.8600   2
   1  -3  -9 712.752 33.1623   1
   1  -3  -9 681.361 32.2061   1
  -1  -3   9 713.868 32.9802   1
   1   3  -9 721.158 35.3636   1
   1   3  -9 657.775 22.6566   2
   0  -3  -9 111.576 5.21520   2
   0  -3  -9 93.5091 5.29038   2
   0   3  -9 114.584 5.99954   2
  -1  -3  -9 1222.41 36.7839   2
  -1   3  -9 1214.59 37.6241   2
  -2  -3  -9 4.41021 1.97139   2
  -2  -3  -9 0.67871 1.57986   3
  -2   3  -9 3.92504 1.39420   3
  -2   3  -9 2.16809 2.46172   2
  -3  -3  -9 430.333 14.2563   3
   3  -3   9 408.922 28.6235   1
  -3  -3  -9 400.675 15.1871   2
   5  -3   9 226.145 14.2627   2
   5   3   9 255.702 13.7000   2
   6  -4  -9 2.26063 5.37159   2
   6   4  -9 -0.8027 6.14216   2
   5  -4  -9 104.078 7.88682   2
   5   4  -9 117.877 9.45554   2
   4  -4  -9 122.493 7.02225   2
   4  -4  -9 64.2399 24.6420   1
   4   4  -9 105.565 8.04140   2
   4   4  -9 99.7655 34.9207   1
  -3  -4   9 330.022 35.5204   1
  -3  -4   9 318.473 13.4764   2
   3  -4  -9 333.526 38.8534   1
   3  -4  -9 325.451 11.7315   2
   3   4  -9 302.229 38.5910   1
  -3   4   9 305.975 12.5003   2
  -3   4   9 330.402 37.2581   1
   3   4  -9 311.956 12.8623   2
   2  -4  -9 8.75057 11.4216   1
   2  -4  -9 20.2951 2.80431   2
  -2  -4   9 23.6351 12.3934   1
  -2  -4   9 21.2126 3.19012   2
  -2   4   9 27.4445 3.79926   2
   2   4  -9 12.5302 11.2189   1
   2   4  -9 18.1294 2.74059   2
   1  -4  -9 314.177 22.2810   1
   1  -4  -9 314.712 21.8291   1
  -1  -4   9 317.548 22.2289   1
   1  -4  -9 316.438 10.6996   2
   1   4  -9 288.689 24.7097   1
   1   4  -9 308.284 11.8660   2
   0  -4  -9 1096.01 33.8570   2
   0  -4   9 1159.18 40.6170   1
   0  -4  -9 1155.65 33.7602   2
   0   4  -9 1097.98 45.4975   1
   0   4  -9 1085.76 34.8887   2
  -1  -4  -9 173.134 6.81148   2
  -1  -4  -9 167.238 6.93125   3
  -1   4  -9 161.653 8.03293   2
  -2  -4  -9 7.21079 2.12843   2
  -2  -4  -9 9.20452 1.97236   3
  -2   4  -9 10.5477 1.59905   3
  -2   4  -9 5.32487 2.61060   2
  -3  -4  -9 12.1721 2.38361   3
   3  -4   9 9.65670 13.2022   1
  -3  -4  -9 14.6195 3.29205   2
   3   4   9 18.6887 3.18205   2
   4   4   9 287.420 12.9387   2
   5   4   9 11.8538 5.19305   2
   6  -5  -9 -2.1956 5.31395   2
   6   5  -9 -14.043 8.42095   2
   5  -5  -9 1.04609 3.30969   2
   5   5  -9 6.28498 4.25139   2
   4  -5  -9 665.275 22.3600   2
   4   5  -9 631.518 64.1682   1
   4   5  -9 684.973 23.9264   2
  -3  -5   9 51.5784 5.40856   2
   3  -5  -9 59.0168 21.6181   1
   3  -5  -9 51.6454 4.17582   2
  -3  -5   9 47.7502 18.9785   1
  -3   5   9 46.8950 5.56811   2
   3   5  -9 50.9142 5.54720   2
   3   5  -9 35.4639 20.4755   1
  -2  -5   9 -6.9687 11.2504   1
   2  -5  -9 6.19056 11.0853   1
   2  -5  -9 1.09160 1.30418   2
  -2  -5   9 -2.2754 2.43810   2
  -2   5   9 0.58933 1.81421   2
   2   5  -9 2.41988 2.00085   2
   2   5  -9 -9.5960 11.6058   1
   1  -5  -9 -0.0774 7.61179   1
  -1  -5   9 -4.5030 8.00503   1
   1  -5  -9 3.11171 8.90506   1
   1  -5  -9 1.72548 1.16076   2
   1   5  -9 1.81748 1.77301   2
   1   5  -9 12.5843 10.2946   1
   0  -5   9 1248.28 45.8737   1
   0  -5  -9 1291.35 37.3906   2
   0  -5  -9 1250.65 37.5202   2
   0   5  -9 1198.29 38.7657   2
   0   5  -9 1269.33 51.8924   1
  -1  -5  -9 107.890 7.22130   2
  -1  -5  -9 129.845 5.96359   3
  -1   5  -9 135.048 7.19331   2
  -2  -5  -9 3.53857 1.85128   2
  -2  -5  -9 2.01036 1.75875   3
   2  -5   9 2.59086 8.65308   1
   2  -5   9 5.31952 10.1198   1
  -2   5  -9 1.74411 1.23357   3
  -2   5  -9 3.09269 2.52649   2
  -3  -5  -9 13.4518 3.18041   2
   3  -5   9 4.05142 14.2029   1
  -3  -5  -9 14.8302 2.61126   3
   3   5   9 10.0897 2.84508   2
   4   5   9 31.7333 4.67875   2
   5   5   9 10.2014 5.34239   2
   6  -6  -9 4.82870 5.52088   2
   5  -6  -9 60.6914 6.82989   2
   5   6  -9 60.7870 8.52204   2
   4  -6  -9 146.916 7.60232   2
   4   6  -9 163.103 9.47102   2
   4   6  -9 106.913 34.3517   1
  -4   6   9 107.746 12.2406   2
  -3  -6   9 332.206 38.5844   1
   3  -6  -9 380.973 41.4056   1
  -3  -6   9 359.324 17.0331   2
   3  -6  -9 329.240 11.9168   2
  -3   6   9 324.585 12.8252   2
   3   6  -9 326.313 13.6484   2
   3   6  -9 303.599 42.1218   1
   2  -6  -9 13.1168 12.2969   1
   2  -6  -9 9.80832 1.71383   2
  -2  -6   9 -0.4351 11.2025   1
  -2  -6   9 11.5313 3.10454   2
   2  -6  -9 7.26516 13.7362   1
   2   6  -9 7.04594 2.30477   2
   2   6  -9 12.3515 15.8823   1
  -2   6   9 5.34351 2.07107   2
   1  -6  -9 89.1978 4.13803   2
   1  -6  -9 98.6706 18.7441   1
  -1  -6   9 81.4054 14.0671   1
   1  -6  -9 84.3173 13.6813   1
   1   6  -9 95.4156 17.7756   1
   1   6  -9 97.8736 5.92817   2
   0  -6  -9 832.042 24.7294   2
   0  -6  -9 822.796 24.8794   2
   0  -6   9 802.415 34.8435   1
   0   6  -9 816.025 41.8695   1
   0   6  -9 798.647 26.4461   2
  -1  -6  -9 78.3023 4.17720   2
  -1  -6  -9 82.2530 4.83130   3
   1  -6   9 71.1303 10.6808   1
  -1   6  -9 80.5841 6.26602   2
  -2  -6  -9 14.2162 2.43968   3
   2  -6   9 7.15415 9.76960   1
  -2  -6  -9 11.3336 2.24585   2
   2  -6   9 19.8832 12.1529   1
  -2   6  -9 10.2142 2.94812   2
  -2   6  -9 15.8224 1.70316   3
  -3  -6  -9 3.25155 2.15932   3
   3  -6   9 20.0802 15.9902   1
  -3  -6  -9 3.28530 2.71348   2
   3   6   9 3.66216 2.61493   2
   4   6   9 367.877 15.0721   2
   5   6   9 -0.0961 4.84769   2
   6  -7  -9 11.9985 5.66888   2
   5  -7  -9 27.7980 4.30385   2
   5   7  -9 15.1123 5.05855   2
   4  -7  -9 8.08279 2.58489   2
  -4   7   9 -8.6447 4.13173   2
   4   7  -9 1.56202 3.62180   2
   3  -7  -9 480.627 46.3749   1
   3  -7  -9 386.918 44.3319   1
  -3  -7   9 452.906 42.9667   1
   3  -7  -9 447.201 15.1770   2
  -3   7   9 461.971 16.1149   2
   3   7  -9 464.420 17.3111   2
   3   7  -9 450.045 47.8249   1
  -2  -7   9 72.8363 6.57715   2
   2  -7  -9 77.9504 18.2246   1
  -2  -7   9 64.7737 16.0065   1
   2  -7  -9 78.5729 3.99656   2
   2  -7  -9 90.2332 19.5516   1
   2   7  -9 80.0485 5.91072   2
   2   7  -9 68.9201 17.7556   1
   1  -7  -9 562.752 17.3977   2
  -1  -7   9 587.331 32.6539   1
   1  -7  -9 605.087 34.0972   1
   1  -7  -9 569.225 31.5832   1
   1   7  -9 518.240 19.3143   2
   1   7  -9 556.147 38.0819   1
   0  -7   9 12.3285 8.46792   1
   0  -7  -9 4.81009 7.25751   1
   0  -7  -9 11.0152 1.57178   2
   0  -7  -9 21.9277 10.4676   1
   0  -7  -9 10.0075 1.58607   2
   0   7  -9 9.87280 12.8709   1
   0   7  -9 10.7625 2.57644   2
  -1  -7  -9 1578.98 48.0634   3
   1  -7   9 1518.86 58.3097   1
  -1  -7  -9 1650.79 47.1683   2
  -1   7  -9 1630.28 49.1415   2
   2  -7   9 36.9711 13.2159   1
  -2  -7  -9 21.5080 2.76131   3
  -2  -7  -9 30.1446 3.54017   2
   2  -7   9 15.5100 13.9787   1
  -2   7  -9 22.8448 4.09023   2
  -3  -7  -9 447.854 15.7381   3
  -3  -7  -9 454.326 15.8147   2
   3   7   9 422.230 36.8509   1
   3   7   9 440.484 15.9923   2
   4   7   9 9.25045 3.79496   2
   5   7   9 249.829 13.8704   2
   5   8  -9 40.0929 5.93798   2
   4  -8  -9 194.690 8.84561   2
  -4   8   9 181.714 11.0025   2
   4   8  -9 218.197 11.4339   2
   3  -8  -9 41.8720 3.82655   2
  -3  -8   9 21.2633 19.8437   1
   3  -8  -9 30.4352 21.1992   1
   3  -8  -9 24.1747 21.3319   1
   3   8  -9 9.24027 22.3976   1
  -3   8   9 52.7084 5.41594   2
   3   8  -9 49.7625 6.04856   2
   2  -8  -9 2.00335 1.23856   2
  -2  -8   9 -12.057 12.6484   1
   2  -8  -9 -11.822 16.3448   1
  -2  -8   9 2.31097 3.03613   2
   2  -8  -9 -6.5776 14.2186   1
   2   8  -9 -0.5493 2.01906   2
   2   8  -9 0.05590 15.7268   1
  -2   8   9 2.76748 1.69064   2
   1  -8  -9 203.586 23.3692   1
   1  -8  -9 245.564 26.7079   1
   1  -8  -9 228.107 7.72859   2
  -1  -8   9 249.013 23.5806   1
   1   8  -9 227.522 10.0585   2
   1   8  -9 230.626 30.5124   1
   0  -8  -9 1713.81 50.5495   2
   0  -8  -9 1737.73 60.8596   1
   0  -8  -9 1763.77 50.4607   2
   0  -8   9 1728.10 64.9372   1
   0  -8  -9 1724.99 65.4732   1
   0   8  -9 1690.97 52.7447   2
   0   8  -9 1715.51 72.1486   1
   1  -8   9 3.05654 9.93098   1
  -1  -8  -9 1.98615 1.85690   3
  -1  -8  -9 5.12135 1.41623   2
  -1   8  -9 1.35414 2.69603   2
  -1   8  -9 13.1447 10.7928   1
   2  -8   9 -1.9537 14.2871   1
  -2  -8  -9 2.83589 2.00355   3
   2  -8   9 1.65756 20.0398   1
  -2  -8  -9 0.02389 1.76313   2
  -3  -8  -9 81.5445 16.9709   1
  -3  -8  -9 83.8499 6.26873   2
  -3  -8  -9 72.0900 5.77201   3
   3   8   9 51.0418 20.7277   1
   3   8   9 82.0524 6.09407   2
   4   8   9 651.414 22.8923   2
   5   8   9 16.8959 5.90763   2
   5  -9  -9 8.52253 3.71425   2
   5   9  -9 8.61978 5.21537   2
   4  -9  -9 428.035 15.3753   2
  -4   9   9 423.563 16.9876   2
   4   9  -9 453.905 18.2302   2
   3  -9  -9 15.1742 2.22239   2
  -3  -9   9 16.4679 20.2608   1
   3  -9  -9 -7.1087 22.8121   1
   3   9  -9 -17.402 22.2632   1
  -3   9   9 17.0692 3.19309   2
   3   9  -9 8.22166 3.58832   2
   2  -9  -9 -0.1736 1.11242   2
   2  -9  -9 14.1970 15.4920   1
  -2  -9   9 -14.253 13.1631   1
   2  -9  -9 8.42030 15.0994   1
  -2   9   9 0.63528 1.74458   2
   2   9  -9 10.3450 19.1682   1
   2   9  -9 3.09211 2.45913   2
   1  -9  -9 160.066 22.6404   1
   1  -9  -9 198.825 6.34607   2
   1  -9  -9 173.728 26.3608   1
  -1  -9   9 142.457 22.6724   1
   1   9  -9 196.877 30.4652   1
   1   9  -9 182.494 8.86348   2
   0  -9  -9 415.690 25.6731   1
   0  -9   9 402.059 29.4131   1
   0  -9  -9 422.938 12.6274   2
   0  -9  -9 407.343 12.6655   2
   0  -9  -9 379.936 29.9509   1
   0  -9  -9 410.627 14.1486   3
   0   9  -9 373.398 36.2581   1
   0   9  -9 405.895 15.1426   2
  -1  -9  -9 18.7320 13.4203   1
  -1  -9  -9 33.8952 3.96334   3
  -1  -9  -9 43.4240 2.94088   2
   1  -9   9 41.4456 13.1605   1
  -1   9  -9 33.1139 13.0206   1
  -1   9  -9 42.4109 5.93721   2
  -2  -9  -9 4.34748 2.21769   3
  -2  -9  -9 9.03752 9.61415   1
   2  -9   9 5.07318 14.7601   1
  -2  -9  -9 0.70843 1.69095   2
   2   9   9 -8.1782 11.8576   1
  -3  -9  -9 115.369 18.3424   1
  -3  -9  -9 112.443 6.94826   3
  -3  -9  -9 117.740 7.09710   2
   3   9   9 107.101 6.77162   2
   4   9   9 15.8431 4.05734   2
   5   9   9 29.9538 6.44598   2
   5 -10  -9 59.9208 6.94360   2
   5  10  -9 75.2490 10.3779   2
   4 -10  -9 2.63098 2.55687   2
   4  10  -9 -2.1467 3.96180   2
  -4  10   9 -7.4811 4.28682   2
   3 -10  -9 364.225 50.6582   1
   3 -10  -9 373.518 13.0028   2
  -3 -10   9 389.791 54.8602   1
  -3  10   9 398.805 14.0627   2
   3  10  -9 445.680 55.2632   1
   2 -10  -9 -0.5869 16.5108   1
   2 -10  -9 24.2218 19.1901   1
  -2 -10   9 -15.753 15.0217   1
   2 -10  -9 6.74476 1.40495   2
  -2  10   9 7.29097 1.96720   2
   2  10  -9 5.64198 2.87236   2
   2  10  -9 22.7962 21.1657   1
   1 -10  -9 300.240 9.26939   2
   1 -10  -9 269.794 27.6497   1
  -1 -10   9 303.020 28.9307   1
   1 -10  -9 270.437 31.6806   1
   1  10  -9 314.502 36.9500   1
   1  10  -9 297.053 12.2622   2
   0 -10  -9 52.8638 4.50611   3
   0 -10   9 47.2497 13.8427   1
   0 -10  -9 58.6670 15.5667   1
   0 -10  -9 48.1000 12.6693   1
   0  10  -9 59.3685 5.30613   2
   0  10  -9 70.2080 20.2338   1
  -1 -10  -9 97.7875 4.12223   2
   1 -10   9 90.9898 17.2409   1
  -1 -10  -9 98.8666 5.82688   3
  -1 -10  -9 89.4809 13.6926   1
  -1  10  -9 68.4855 16.6226   1
  -1  10  -9 100.893 7.60897   2
  -2 -10  -9 6.52731 1.84952   2
  -2 -10  -9 3.87577 2.24832   3
   2 -10   9 4.37871 16.4682   1
  -2 -10  -9 10.6473 11.0551   1
   2  10   9 3.95031 13.7123   1
  -3 -10  -9 -6.7643 26.8780   1
  -3 -10  -9 2.10316 2.89617   2
  -3 -10  -9 0.26894 2.58526   3
   3  10   9 0.13622 2.50586   2
   4  10   9 11.8821 4.06372   2
   5  10   9 2.19200 5.66761   2
   5 -11  -9 3.00077 3.76609   2
   5  11  -9 3.88987 5.52990   2
   4 -11  -9 176.641 7.97624   2
  -4  11   9 155.823 11.4497   2
   4  11  -9 170.411 11.2598   2
   3 -11  -9 202.951 7.81747   2
   3 -11  -9 167.033 56.7096   1
   3  11  -9 172.223 36.4216   1
   3  11  -9 215.168 11.0154   2
  -3  11   9 201.832 8.93879   2
   2 -11  -9 41.7383 20.3629   1
   2 -11  -9 51.6445 2.92107   2
  -2 -11   9 34.3337 18.2772   1
   2 -11  -9 54.6084 19.5015   1
   2  11  -9 54.8342 23.7297   1
   2  11  -9 53.9260 5.90084   2
  -1 -11   9 77.7991 18.3928   1
   1 -11  -9 93.5352 18.8109   1
   1 -11  -9 76.2037 20.3375   1
   1  11  -9 109.724 6.93821   2
   1  11  -9 93.0272 24.0808   1
   0 -11  -9 144.708 23.5711   1
   0 -11  -9 176.234 7.94411   3
   0 -11   9 151.748 26.7215   1
   0 -11  -9 157.345 28.2951   1
   0  11  -9 209.776 35.7550   1
   0  11  -9 185.386 8.83657   2
  -1 -11  -9 714.780 20.9981   2
  -1 -11  -9 716.265 37.7594   1
   1 -11   9 653.172 42.8585   1
  -1 -11  -9 708.914 23.0046   3
  -1 -11  -9 707.426 21.2253   2
  -1  11  -9 683.549 44.7778   1
  -1  11  -9 693.724 24.1769   2
   1  11   9 701.823 44.2648   1
   2 -11   9 135.002 27.7179   1
  -2 -11  -9 130.497 25.0970   1
  -2 -11  -9 140.563 6.11269   2
  -2 -11  -9 140.415 7.46687   3
   2  11   9 122.999 20.9012   1
  -3 -11  -9 155.836 8.27468   2
   4  11   9 -3.9934 3.64151   2
   5  11   9 124.150 11.7055   2
   5 -12  -9 7.34596 4.14190   2
   5  12  -9 1.06164 5.84324   2
   4 -12  -9 142.562 7.36229   2
   4  12  -9 144.887 10.9275   2
   3 -12  -9 25.4854 3.29977   2
   3  12  -9 19.1558 4.17395   2
  -3  12   9 23.0553 3.34558   2
   3  12  -9 8.83513 31.9853   1
   2 -12  -9 34.2508 21.1797   1
  -2 -12   9 19.7792 18.5140   1
   2 -12  -9 -19.875 19.3116   1
   2 -12  -9 24.5949 2.23146   2
   2  12  -9 22.9050 3.95147   2
   2  12  -9 33.5962 24.5504   1
   1 -12  -9 25.2530 3.01505   3
   1 -12  -9 37.1414 16.2455   1
  -1 -12   9 12.0728 15.0490   1
   1 -12  -9 45.8606 20.0248   1
   1  12  -9 7.78855 20.2354   1
   1  12  -9 28.4341 3.98849   2
   0 -12  -9 1315.38 39.9009   3
   0 -12   9 1218.72 61.2293   1
   0 -12  -9 1256.88 57.4015   1
   0 -12  -9 1310.37 62.6129   1
   0  12  -9 1335.05 70.1295   1
   0  12  -9 1308.78 40.8856   2
  -1 -12  -9 53.9609 5.15158   3
  -1 -12  -9 44.4438 15.7661   1
   1 -12   9 13.8447 20.5317   1
  -1  12  -9 36.5234 19.9690   1
  -1  12  -9 60.0991 6.07078   2
  -2 -12  -9 5.95818 14.4971   1
   2  12   9 13.7551 18.4514   1
  -3 -12  -9 22.6003 3.71738   2
  -3 -12  -9 25.1007 4.04667   3
   4  12   9 538.747 19.6275   2
   5 -13  -9 23.2950 4.60381   2
   5  13  -9 17.9438 7.09035   2
   4 -13  -9 131.114 7.02620   2
   4  13  -9 125.108 10.9013   2
   3 -13  -9 137.683 6.03312   2
   3  13  -9 135.641 9.49049   2
  -3  13   9 145.233 7.25825   2
   2 -13  -9 22.9041 22.8554   1
  -2 -13   9 8.43581 24.8293   1
   2  13  -9 36.0323 27.5753   1
   1 -13  -9 296.617 11.5711   3
   1 -13  -9 315.257 40.8694   1
   1 -13  -9 253.878 35.0590   1
  -1 -13   9 260.678 36.2558   1
   1  13  -9 347.271 48.8416   1
   1  13  -9 317.575 13.0112   2
   0 -13  -9 154.169 7.73329   3
   0 -13   9 102.475 22.1738   1
   0 -13  -9 124.814 23.5551   1
   0  13  -9 123.221 29.5487   1
   0  13  -9 154.212 8.46556   2
  -1 -13  -9 532.401 18.9197   3
  -1 -13  -9 567.887 40.8347   1
   1  13   9 522.645 41.1948   1
  -1  13  -9 491.760 47.9929   1
  -1  13  -9 587.819 20.2052   2
  -2 -13  -9 -14.041 15.9386   1
  -2 -13  -9 22.9196 4.77542   3
  -3 -13  -9 251.909 12.4534   2
   4  13   9 0.15125 3.92393   2
   5 -14  -9 113.387 8.86490   2
   5  14  -9 107.715 13.3804   2
   4 -14  -9 34.9518 5.10959   2
   4  14  -9 23.5604 5.87226   2
   3 -14  -9 179.633 7.10571   2
   3  14  -9 191.478 11.0564   2
   2  14  -9 4.80637 28.0087   1
   1 -14  -9 296.212 44.2706   1
   1 -14  -9 305.775 40.0954   1
  -1 -14   9 260.810 46.9145   1
   1 -14  -9 325.769 12.2861   3
   1  14  -9 236.294 35.3754   1
   1  14  -9 357.967 13.7694   2
   0 -14  -9 133.059 7.35459   3
   0 -14  -9 91.3782 22.9111   1
   0  14  -9 135.188 8.14782   2
   0  14  -9 131.273 30.7269   1
  -1 -14  -9 57.6958 5.61818   3
  -1 -14  -9 38.6704 20.6235   1
   1  14   9 79.0650 21.5211   1
  -1  14  -9 54.5958 6.30110   2
  -2 -14  -9 1.43231 1.69375   2
  -2 -14  -9 -0.5926 2.58470   3
   4  14   9 49.4186 6.17553   2
   5 -15  -9 9.43990 4.77230   3
   5  15  -9 -1.0260 6.89605   2
   4 -15  -9 339.482 12.4334   2
   4 -15  -9 334.050 13.4813   3
   4  15  -9 328.725 16.8104   2
   3 -15  -9 76.6026 4.44521   2
   3 -15  -9 83.1250 6.57548   3
   3  15  -9 79.5910 8.34327   2
   2  15  -9 6.04699 3.31784   2
   1 -15  -9 0.27552 2.26490   3
   1  15  -9 -2.1644 26.8218   1
   1  15  -9 4.70989 2.96348   2
   0 -15  -9 183.041 8.83672   3
   0 -15  -9 133.605 26.9748   1
   0  15  -9 181.850 9.56373   2
   0  15  -9 140.266 44.4883   1
  -1 -15  -9 60.7655 24.9795   1
  -1 -15  -9 80.1550 6.74769   3
  -2 -15  -9 15.0604 3.23759   3
   5 -16  -9 -4.2819 4.96233   3
   4 -16  -9 48.9640 5.81752   2
   4 -16  -9 54.5868 6.83563   3
   4  16  -9 57.9027 7.57179   2
   3 -16  -9 78.8314 6.56747   3
   3  16  -9 87.5821 8.64503   2
   2 -16  -9 25.0565 3.48814   3
   2  16  -9 26.7511 4.52440   2
   1 -16  -9 3.28217 3.35548   3
   0 -16  -9 631.054 21.3804   3
   0  16  -9 545.312 25.2539   2
  -1 -16  -9 108.467 7.58774   3
  -1  16  -9 136.387 8.51365   2
  -2 -16  -9 5.91286 3.15073   3
   4 -17  -9 7.10949 3.92990   3
   4  17  -9 13.8953 5.88982   2
   3 -17  -9 153.408 8.81250   3
   3  17  -9 174.676 10.8823   2
   2 -17  -9 91.8178 6.74979   3
   2  17  -9 84.6564 7.69819   2
   1 -17  -9 196.005 9.69816   3
   1  17  -9 213.444 10.7948   2
   0 -17  -9 5.20511 2.96714   3
   0  17  -9 9.19845 3.50269   2
  -1 -17  -9 455.454 17.5197   3
  -1  17  -9 466.140 15.6169   3
  -1  17  -9 497.240 18.4893   2
  -2 -17  -9 136.409 8.63030   3
   4 -18  -9 45.1547 5.59632   3
   4  18  -9 48.1936 7.50884   2
   3 -18  -9 18.9920 3.97569   3
   3  18  -9 19.5278 5.01670   2
   2 -18  -9 2.69511 3.04989   3
   2  18  -9 4.31822 3.38831   2
   1 -18  -9 224.393 10.5316   3
   1  18  -9 229.884 11.4740   2
   0 -18  -9 350.780 14.5338   3
   0  18  -9 383.474 15.3246   2
  -1 -18  -9 1.93764 3.12985   3
  -1  18  -9 2.84893 2.88616   3
  -1  18  -9 5.56947 3.31241   2
  -2 -18  -9 -0.2893 3.11717   3
   4 -19  -9 174.811 11.0351   3
   4  19  -9 181.556 14.2198   2
   3 -19  -9 2.62025 3.66413   3
   3  19  -9 9.23762 4.49806   2
   2 -19  -9 -0.2592 3.09535   3
   2  19  -9 -1.6651 3.29554   2
   1 -19  -9 18.8039 3.91479   3
   1  19  -9 18.5652 4.12374   2
   0 -19  -9 166.975 9.45801   3
   0  19  -9 178.157 9.46274   3
   0  19  -9 180.251 10.0805   2
  -1 -19  -9 4.87007 3.26135   3
  -1  19  -9 6.86554 3.51833   2
  -2 -19  -9 -1.0519 3.24479   3
  -2  19  -9 1.71417 3.80600   2
   4 -20  -9 -3.8978 4.79701   3
   4  20  -9 4.39150 6.59764   2
   3 -20  -9 97.3398 8.66773   3
   3  20  -9 105.514 10.1668   2
   2 -20  -9 20.9122 4.13508   3
   2  20  -9 26.4819 4.77556   2
   1 -20  -9 28.8261 4.36960   3
   1  20  -9 31.9685 4.86559   2
   0 -20  -9 64.3393 7.08005   3
   0  20  -9 71.6951 7.58473   2
  -1 -20  -9 80.3184 7.58182   3
  -1  20  -9 83.5368 7.88334   2
  -2 -20  -9 17.2943 4.37331   3
  -2  20  -9 15.9413 4.95230   2
   3 -21  -9 97.2446 8.83711   3
   3  21  -9 114.470 10.6920   2
   2 -21  -9 65.4737 7.38620   3
   2  21  -9 66.2201 8.43307   2
   1 -21  -9 22.4989 4.38993   3
   1  21  -9 26.7359 4.77650   2
   0 -21  -9 7.80221 3.81867   3
   0  21  -9 4.49094 3.76216   2
  -1 -21  -9 154.375 9.73787   3
  -1  21  -9 156.900 10.3452   2
  -2  21  -9 51.0777 6.43754   2
   3 -22  -9 -4.8472 4.57936   3
   3  22  -9 4.44970 5.31711   2
   2 -22  -9 4.32067 3.96753   3
   2  22  -9 -4.3425 4.05052   2
   1 -22  -9 89.9083 8.12022   3
   1  22  -9 89.4437 8.71819   2
   0 -22  -9 288.064 13.7914   3
   0  22  -9 323.645 14.3735   2
  -1 -22  -9 33.6141 5.27428   3
  -1  22  -9 33.9173 5.58914   2
  -2  22  -9 -4.1280 4.79024   2
   3 -23  -9 12.6118 5.54931   3
   3  23  -9 14.5604 6.09468   2
   2 -23  -9 9.12604 4.60501   3
   2  23  -9 14.5002 5.04046   2
   1 -23  -9 53.0550 6.15006   3
   1  23  -9 49.7115 5.98268   2
   0 -23  -9 91.4576 8.62939   3
   0  23  -9 81.4029 8.91427   2
  -1 -23  -9 66.4064 8.30769   3
  -1  23  -9 59.2569 6.63082   2
  -2  23  -9 35.1485 6.31623   2
   2 -24  -9 29.9502 5.58030   3
   2  24  -9 31.5860 6.14981   2
   1 -24  -9 73.9896 8.80373   3
   1  24  -9 77.7155 9.25005   2
   0 -24  -9 4.69614 4.26447   3
   0  24  -9 0.20667 4.39459   2
  -1 -24  -9 4.37258 4.75912   3
  -1  24  -9 4.38028 4.79163   2
  -2  24  -9 7.46786 5.89989   2
   2 -25  -9 2.00254 5.38791   3
   2  25  -9 3.40382 5.46690   2
   1 -25  -9 5.36539 4.80998   3
   1  25  -9 1.13517 4.85002   2
   0 -25  -9 43.7646 5.97469   3
   0  25  -9 47.7452 6.56801   2
  -1 -25  -9 34.2224 6.72664   3
  -1  25  -9 46.5908 6.66656   2
   1 -26  -9 0.87470 5.18617   3
   1  26  -9 -5.2460 5.23894   2
   0 -26  -9 119.844 11.9817   3
   0  26  -9 140.396 11.7797   2
   6   0 -10 46.9961 7.84547   2
   5   0 -10 6.17267 4.33300   2
   4   0 -10 608.362 21.5765   2
  -3   0  10 11.4399 17.9424   1
   3   0 -10 -16.491 18.4132   1
  -3   0  10 -4.6228 3.00422   2
   3   0 -10 0.90546 2.08932   2
  -2   0  10 461.650 16.7041   2
  -2   0  10 471.173 32.3393   1
   2   0 -10 449.275 16.0081   2
   2   0 -10 486.425 34.7763   1
   1   0 -10 11.4847 9.12535   1
  -1   0  10 2.51738 8.18899   1
   0   0 -10 1341.88 41.0924   2
  -1   0 -10 -1.1071 1.80829   2
  -2   0 -10 137.880 6.24632   3
  -2   0 -10 139.222 7.43427   2
  -3   0 -10 11.6477 2.24446   3
   6  -1 -10 -4.9619 6.10002   2
   6   1 -10 -3.1521 6.97811   2
   5  -1 -10 339.537 14.9278   2
   5   1 -10 332.607 15.1360   2
   4  -1 -10 17.1573 4.69404   2
   4   1 -10 24.3177 4.05666   2
  -3  -1  10 30.2292 17.0162   1
   3  -1 -10 64.6048 4.84660   2
  -3  -1  10 56.9493 6.73644   2
   3  -1 -10 13.1735 18.9778   1
   3   1 -10 59.3638 5.15771   2
   3   1 -10 26.7938 20.2526   1
  -3   1  10 46.3335 6.42149   2
  -3   1  10 17.6706 19.5343   1
  -2  -1  10 -11.127 11.1546   1
  -2  -1  10 -0.3236 2.55726   2
   2  -1 -10 4.22179 1.80691   2
   2  -1 -10 -12.142 12.1431   1
  -2   1  10 3.71664 2.47488   2
   2   1 -10 3.85691 12.4841   1
  -2   1  10 13.8600 11.8306   1
   2   1 -10 3.53739 1.90674   2
   1  -1 -10 2294.42 78.9295   1
  -1  -1  10 2369.49 78.3433   1
   1  -1 -10 2210.85 67.6281   2
   1   1 -10 2242.86 67.9995   2
   1   1 -10 2280.68 79.9263   1
   0  -1 -10 272.950 9.94812   2
   0  -1 -10 236.603 9.67059   2
   0   1 -10 245.658 10.0324   2
  -1  -1 -10 51.8724 4.38236   2
  -1   1 -10 47.2740 4.60221   2
  -2  -1 -10 117.505 5.66784   3
  -2  -1 -10 107.850 6.57669   2
  -2   1 -10 116.935 5.50520   3
  -2   1 -10 104.639 6.89087   2
  -3  -1 -10 473.874 16.1261   3
  -3   1 -10 495.917 15.7588   3
   6  -2 -10 -5.3924 5.81135   2
   5  -2 -10 4.55909 3.86103   2
   5   2 -10 10.6685 4.46775   2
   4   2 -10 30.6991 4.32575   2
   3  -2 -10 5.17584 2.14863   2
  -3  -2  10 18.0099 18.4870   1
   3  -2 -10 3.91782 16.9618   1
  -3  -2  10 1.16073 3.60333   2
   3   2 -10 6.55056 2.42599   2
  -3   2  10 -7.0166 18.1355   1
   3   2 -10 7.91894 18.6338   1
  -3   2  10 7.95164 3.16193   2
  -2  -2  10 42.1846 5.54979   2
  -2  -2  10 40.2931 12.4645   1
   2  -2 -10 38.2307 13.6916   1
   2  -2 -10 45.7050 3.91478   2
  -2   2  10 44.4506 13.3092   1
  -2   2  10 42.2990 5.05283   2
   2   2 -10 41.6461 4.42037   2
   2   2 -10 32.6852 14.5802   1
   1  -2 -10 86.1301 5.03871   2
   1  -2 -10 79.6912 12.3421   1
  -1  -2  10 96.1709 15.5443   1
   1   2 -10 90.9657 14.4892   1
   1   2 -10 84.3317 5.60694   2
   0  -2 -10 23.9500 3.20911   2
   0  -2 -10 13.4415 2.46120   2
   0   2 -10 13.2581 2.51046   2
  -1  -2 -10 53.4521 4.25993   2
  -1   2 -10 51.9298 4.76944   2
  -2  -2 -10 15.2662 2.76447   2
  -2  -2 -10 10.9825 2.25734   3
  -2   2 -10 11.5528 1.98291   3
  -2   2 -10 7.53415 3.02021   2
  -3  -2 -10 560.582 18.7301   3
  -3   2 -10 579.320 17.9186   3
   5  -3 -10 80.2052 7.91511   2
   5   3 -10 95.9152 9.34903   2
   4  -3 -10 8.54230 2.97698   2
   4   3 -10 7.14415 3.33421   2
  -3  -3  10 -3.3774 3.93408   2
   3  -3 -10 0.78451 1.81486   2
   3  -3 -10 22.3795 17.5836   1
  -3  -3  10 -5.9913 16.6096   1
  -3   3  10 -2.5159 2.93362   2
  -3   3  10 2.30273 20.8181   1
   3   3 -10 -0.8037 2.21613   2
   3   3 -10 -2.1371 20.2920   1
  -2  -3  10 142.357 22.7279   1
   2  -3 -10 202.996 26.2798   1
  -2  -3  10 177.284 9.09434   2
   2  -3 -10 157.361 7.05789   2
   2   3 -10 175.907 26.5447   1
  -2   3  10 167.449 8.12790   2
   2   3 -10 159.178 8.03611   2
  -1  -3  10 400.569 25.3144   1
   1  -3 -10 416.802 14.2956   2
   1  -3 -10 453.807 25.9515   1
   1  -3 -10 431.047 25.4582   1
   1   3 -10 419.964 15.3055   2
   1   3 -10 422.409 29.0199   1
   0  -3 -10 486.620 16.0935   2
   0  -3 -10 488.650 15.9455   2
   0   3 -10 467.474 16.8470   2
  -1  -3 -10 0.46087 1.61730   2
  -1   3 -10 0.66053 2.30678   2
  -2  -3 -10 330.879 12.3161   2
  -2  -3 -10 339.043 12.0791   3
  -2   3 -10 331.183 13.3344   2
  -2   3 -10 335.986 11.3930   3
  -3  -3 -10 93.9399 5.83505   3
  -3   3 -10 82.7811 4.29359   3
   5   3  10 1.92425 5.64335   2
   5  -4 -10 9.34760 3.89339   2
   5   4 -10 6.06038 4.73947   2
   4  -4 -10 393.062 15.0679   2
   4   4 -10 414.890 16.4082   2
   3  -4 -10 0.26899 1.72845   2
   3  -4 -10 18.8644 19.7290   1
  -3  -4  10 -17.970 19.0979   1
  -3   4  10 -0.5929 3.04497   2
   3   4 -10 -1.9895 2.21082   2
   3   4 -10 17.6086 21.4022   1
   2  -4 -10 252.064 28.6743   1
  -2  -4  10 256.549 26.5830   1
  -2  -4  10 267.090 11.7734   2
   2  -4 -10 259.375 9.71858   2
  -2   4  10 267.574 10.5974   2
   2   4 -10 259.706 10.9688   2
   2   4 -10 267.935 31.0217   1
   1  -4 -10 79.0493 12.7776   1
  -1  -4  10 87.0802 13.3610   1
   1  -4 -10 85.9897 4.69333   2
   1  -4 -10 74.6674 12.7377   1
   1   4 -10 77.9064 15.6669   1
   1   4 -10 87.7248 5.92104   2
   0  -4 -10 980.411 28.8399   2
   0  -4 -10 933.780 28.9221   2
   0   4 -10 895.263 29.9404   2
   0   4 -10 935.981 38.8681   1
  -1  -4 -10 16.6336 2.27729   2
  -1  -4 -10 12.8394 2.07202   3
  -1   4 -10 13.5724 3.11602   2
  -2  -4 -10 246.564 9.81540   2
  -2  -4 -10 250.157 9.73171   3
  -2   4 -10 247.669 11.2556   2
  -2   4 -10 244.408 8.84218   3
  -3  -4 -10 259.811 10.4522   3
   5   4  10 -2.2303 5.59586   2
   5  -5 -10 412.684 16.5398   2
   5   5 -10 420.832 18.4790   2
   4  -5 -10 1.51006 2.60433   2
   4   5 -10 2.65002 3.47976   2
   3  -5 -10 24.7873 3.61240   2
  -3  -5  10 31.9513 35.3975   1
   3  -5 -10 14.9600 20.0613   1
   3   5 -10 20.2237 3.74662   2
   3   5 -10 29.2326 21.6949   1
  -3   5  10 30.8413 4.12658   2
   2  -5 -10 52.4941 3.77197   2
   2  -5 -10 40.2342 16.1695   1
  -2  -5  10 49.8565 14.7861   1
   2  -5 -10 52.0451 16.3726   1
  -2   5  10 49.1279 4.85533   2
   2   5 -10 51.6065 5.24441   2
   2   5 -10 43.6484 15.2740   1
   1  -5 -10 2180.84 78.0774   1
  -1  -5  10 2173.25 77.9285   1
   1  -5 -10 2142.60 63.9145   2
   1  -5 -10 2201.27 76.9337   1
   1   5 -10 2069.17 65.4266   2
   1   5 -10 2270.67 83.8171   1
   0  -5 -10 122.571 7.98261   2
   0  -5 -10 134.959 5.82268   2
   0  -5  10 123.393 14.9071   1
   0   5 -10 114.822 20.3826   1
   0   5 -10 125.555 7.05027   2
  -1  -5 -10 43.4557 3.73424   3
  -1  -5 -10 48.4025 3.69498   2
  -1   5 -10 41.7507 5.55659   2
  -2  -5 -10 10.2521 2.41407   2
  -2  -5 -10 7.32016 2.18801   3
  -2   5 -10 5.32713 1.68824   3
  -3  -5 -10 645.259 25.5748   2
  -3  -5 -10 703.929 22.4209   3
   5   5  10 5.70034 5.91927   2
   5  -6 -10 8.17270 3.79513   2
   5   6 -10 16.9698 5.06622   2
   4  -6 -10 325.122 12.7053   2
   4   6 -10 328.739 14.5913   2
   3  -6 -10 20.7165 19.9929   1
   3  -6 -10 2.52179 1.83680   2
   3   6 -10 7.06692 21.1236   1
  -3   6  10 -0.9310 2.83156   2
   3   6 -10 2.01993 2.76394   2
   2  -6 -10 303.128 30.3733   1
   2  -6 -10 315.797 32.4669   1
   2  -6 -10 273.015 10.0051   2
  -2  -6  10 289.710 31.1611   1
   2   6 -10 274.952 34.1009   1
   2   6 -10 273.637 11.8690   2
   1  -6 -10 150.922 22.4261   1
   1  -6 -10 151.424 19.8296   1
   1  -6 -10 176.273 6.59136   2
  -1  -6  10 142.948 20.9481   1
   1   6 -10 168.712 8.39120   2
   1   6 -10 182.453 27.3696   1
   0  -6 -10 527.504 16.6667   2
   0  -6 -10 534.920 16.5336   2
   0  -6  10 512.077 26.6909   1
   0   6 -10 515.490 18.2954   2
   0   6 -10 489.117 32.5761   1
  -1  -6 -10 2.68515 1.64828   3
  -1  -6 -10 0.84189 1.48242   2
  -1   6 -10 0.80658 2.81145   2
  -2  -6 -10 92.3521 5.46923   2
  -2  -6 -10 87.0822 5.64338   3
  -2   6 -10 84.4532 4.29429   3
  -3  -6 -10 254.583 11.6166   2
   3  -6  10 301.222 49.6758   1
  -3  -6 -10 291.941 11.4163   3
   5   6  10 11.1913 6.11459   2
   5  -7 -10 10.3645 3.94967   2
   5   7 -10 -0.9774 4.60027   2
   4  -7 -10 4.63209 2.76364   2
   4   7 -10 0.57393 3.63431   2
   3  -7 -10 35.1476 3.78973   2
   3  -7 -10 9.00673 23.8368   1
   3   7 -10 8.07656 22.6314   1
  -3   7  10 43.2213 5.63874   2
   3   7 -10 33.3963 5.76149   2
  -2  -7  10 -2.3807 13.5805   1
   2  -7 -10 4.57035 1.59637   2
   2  -7 -10 6.28231 15.7034   1
   2  -7 -10 6.28906 13.2531   1
   2   7 -10 8.43833 2.87926   2
   2   7 -10 -10.896 16.3010   1
  -1  -7  10 80.9578 15.4802   1
   1  -7 -10 76.2889 14.0747   1
   1  -7 -10 88.0098 15.9133   1
   1  -7 -10 77.0564 3.93744   2
   1   7 -10 78.6044 6.05979   2
   1   7 -10 94.0461 19.1303   1
   0  -7 -10 442.912 14.1939   2
   0  -7 -10 462.769 14.1555   2
   0  -7  10 454.653 26.4142   1
   0   7 -10 423.512 16.0796   2
   0   7 -10 387.290 32.6708   1
  -1  -7 -10 143.670 6.15184   2
  -1  -7 -10 137.860 6.72285   3
   1  -7  10 138.279 17.8739   1
  -1   7 -10 144.983 8.62716   2
   2  -7  10 153.884 21.1753   1
  -2  -7 -10 170.868 7.31672   2
  -2  -7 -10 162.859 7.92923   3
  -3  -7 -10 27.0946 3.80899   3
  -3  -7 -10 24.9963 3.98524   2
   5   7  10 6.90899 6.12480   2
   5  -8 -10 13.5056 3.96615   2
   5   8 -10 1.82335 5.34318   2
   4  -8 -10 117.562 6.75686   2
   4   8 -10 94.8701 9.15896   2
   3  -8 -10 11.4148 2.20326   2
   3   8 -10 12.6287 3.83176   2
   3   8 -10 -1.4268 27.2133   1
  -3   8  10 10.3768 3.27283   2
   2  -8 -10 50.0720 17.9808   1
   2  -8 -10 73.2234 20.6978   1
  -2  -8  10 73.2566 19.1078   1
   2  -8 -10 98.0243 4.53588   2
   2   8 -10 94.4772 6.92283   2
   2   8 -10 110.680 23.3182   1
   1  -8 -10 180.389 23.1080   1
   1  -8 -10 188.803 6.70144   2
  -1  -8  10 158.480 23.4619   1
   1  -8 -10 178.332 27.0887   1
   1   8 -10 185.410 9.24056   2
   1   8 -10 176.752 31.0996   1
   0  -8 -10 308.194 9.85153   2
   0  -8  10 293.134 24.5247   1
   0  -8 -10 285.118 20.0326   1
   0  -8 -10 300.837 9.91112   2
   0  -8 -10 250.659 28.6162   1
   0   8 -10 289.701 31.5510   1
   0   8 -10 290.630 12.1342   2
  -1  -8 -10 -1.4315 1.74572   3
  -1  -8 -10 1.72633 1.55049   2
   1  -8  10 -3.6947 10.1936   1
  -1   8 -10 2.06168 3.19558   2
  -2  -8 -10 142.937 6.58328   2
   2  -8  10 115.369 17.6699   1
  -2  -8 -10 144.617 7.39751   3
  -3  -8 -10 396.932 15.1061   2
  -3  -8 -10 412.888 15.2761   3
   5   8  10 6.38180 6.09142   2
   5  -9 -10 270.285 12.7233   2
   5   9 -10 294.310 16.3283   2
   4  -9 -10 9.18625 2.89292   2
   4   9 -10 2.93556 4.49521   2
   3  -9 -10 2.25256 1.79352   2
   3   9 -10 3.70725 3.19357   2
  -3   9  10 0.13843 2.85802   2
   2  -9 -10 46.8511 19.7385   1
  -2  -9  10 39.9293 18.2714   1
   2  -9 -10 65.3934 3.66477   2
   2  -9 -10 54.6754 20.6560   1
   2   9 -10 30.6393 20.6038   1
   2   9 -10 69.2649 6.31783   2
   1  -9 -10 1144.68 56.3408   1
   1  -9 -10 1219.94 35.5953   2
  -1  -9  10 1147.88 54.4640   1
   1  -9 -10 1237.34 53.9472   1
   1   9 -10 1244.69 63.6936   1
   1   9 -10 1224.90 38.5481   2
   0  -9  10 1.44812 11.2366   1
   0  -9 -10 13.5940 12.9203   1
   0  -9 -10 16.8480 2.46233   2
   0  -9 -10 17.7633 2.27786   2
   0  -9 -10 12.5937 9.78758   1
   0  -9 -10 14.9444 2.51887   3
   0   9 -10 17.8394 16.4335   1
   0   9 -10 13.2001 2.99500   2
  -1  -9 -10 21.3421 2.85720   2
  -1  -9 -10 26.1660 3.23047   3
   1  -9  10 26.5635 13.3130   1
  -1  -9 -10 29.1107 2.98764   2
  -1   9 -10 25.7941 5.04556   2
   2  -9  10 82.9012 18.2564   1
  -2  -9 -10 106.122 5.58827   2
  -2  -9 -10 100.197 6.58250   3
  -3  -9 -10 424.693 15.8020   3
  -3  -9 -10 413.292 15.4245   2
   5 -10 -10 9.71260 4.16728   2
   5  10 -10 -5.3239 5.38468   2
   4 -10 -10 506.793 17.6258   2
   4  10 -10 520.850 21.0309   2
   3 -10 -10 43.5560 3.77913   2
   3  10 -10 28.9437 4.52666   2
  -3  10  10 38.9631 5.59540   2
   2 -10 -10 350.734 11.7123   2
   2 -10 -10 398.059 42.0735   1
   2 -10 -10 359.004 39.6773   1
   2  10 -10 375.517 15.0718   2
   2  10 -10 316.855 46.7629   1
   1 -10 -10 -18.410 16.2803   1
  -1 -10  10 -21.113 13.3457   1
   1 -10 -10 0.77649 1.05386   2
   1 -10 -10 7.33809 13.6485   1
   1 -10 -10 2.33335 1.38338   2
   1  10 -10 4.53642 2.75522   2
   1  10 -10 -2.9920 18.1460   1
   0 -10 -10 1257.05 37.2881   3
   0 -10 -10 1255.12 35.2823   2
   0 -10 -10 1186.44 35.2925   2
   0 -10 -10 1230.60 54.8644   1
   0 -10 -10 1236.69 49.4148   1
   0 -10  10 1057.59 53.1732   1
   0  10 -10 1128.26 61.6939   1
   0  10 -10 1213.72 38.3626   2
  -1 -10 -10 15.0027 2.67138   3
  -1 -10 -10 16.1209 1.87596   2
  -1 -10 -10 16.7714 1.95354   2
  -1  10 -10 10.9613 14.7287   1
  -1  10 -10 15.1951 3.27084   2
   2 -10  10 182.594 32.6305   1
  -2 -10 -10 240.054 8.92660   2
  -2 -10 -10 229.222 10.1506   3
  -3 -10 -10 15.9114 6.53373   3
  -3 -10 -10 19.1754 4.07891   2
   5 -11 -10 116.853 8.99145   2
   5  11 -10 134.619 12.9233   2
   4 -11 -10 11.7604 3.03129   2
   4  11 -10 22.9445 5.57021   2
   3 -11 -10 22.1607 2.50141   2
   3  11 -10 20.8086 4.45208   2
  -3  11  10 23.3518 3.52595   2
   2 -11 -10 20.5581 2.45453   2
   2 -11 -10 9.67232 36.8065   1
   2  11 -10 6.96780 25.0069   1
   2  11 -10 17.3933 3.83756   2
  -1 -11  10 354.542 36.9926   1
   1 -11 -10 371.762 39.4826   1
   1 -11 -10 353.975 32.9228   1
   1  11 -10 345.815 45.8490   1
   1  11 -10 412.747 15.4130   2
   0 -11 -10 189.182 25.3745   1
   0 -11 -10 173.451 31.0045   1
   0 -11 -10 255.827 9.99399   3
   0 -11  10 234.994 30.2311   1
   0  11 -10 253.785 11.1207   2
   0  11 -10 217.728 37.8221   1
  -1 -11 -10 73.2795 13.6265   1
  -1 -11 -10 79.7878 3.83537   2
  -1 -11 -10 72.3665 3.67120   2
  -1 -11 -10 69.2767 5.43446   3
  -1  11 -10 49.9454 18.9311   1
  -1  11 -10 78.0213 6.45384   2
  -2 -11 -10 -1.1850 2.02703   2
  -2 -11 -10 1.49352 2.52396   3
  -3 -11 -10 148.165 10.0587   2
  -3 -11 -10 144.899 8.72782   3
   5 -12 -10 15.1296 4.66424   2
   5  12 -10 0.38876 5.75415   2
   4 -12 -10 4.03842 2.76241   2
   4  12 -10 4.67653 4.76177   2
   3 -12 -10 5.81848 1.98055   2
  -3  12  10 6.20596 3.03748   2
   3  12 -10 6.15832 3.64800   2
   2 -12 -10 4.33817 1.26978   2
   2  12 -10 6.86723 6.12247   2
   1 -12 -10 250.227 10.0992   3
   1 -12 -10 195.155 32.2502   1
   1 -12 -10 199.843 38.5910   1
   1  12 -10 188.138 31.7486   1
   1  12 -10 248.977 11.3612   2
   0 -12 -10 16.4792 14.1870   1
   0 -12 -10 17.6046 2.99470   3
   0 -12 -10 2.29678 17.5764   1
   0  12 -10 17.5909 3.56264   2
   0  12 -10 0.75907 20.4085   1
  -1 -12 -10 15.8026 13.3652   1
  -1 -12 -10 5.68480 2.48867   3
  -1 -12 -10 5.44646 1.32503   2
  -1  12 -10 7.76856 3.40100   2
  -2 -12 -10 12.9244 14.1692   1
  -2 -12 -10 7.47791 2.21888   2
  -2 -12 -10 0.06335 3.03642   3
   2  12  10 26.8041 16.8698   1
  -3 -12 -10 400.104 15.8583   3
   5 -13 -10 64.1386 8.16720   2
   5  13 -10 48.7216 8.12693   2
   4 -13 -10 1.12131 2.84639   2
   4  13 -10 -2.9756 4.69589   2
   3 -13 -10 -0.0794 1.85159   2
   3  13 -10 3.69821 3.71393   2
   2  13 -10 27.7653 4.52477   2
   1 -13 -10 380.281 14.3204   3
   1 -13 -10 356.120 44.8557   1
   1  13 -10 379.983 15.5791   2
   1  13 -10 493.908 87.2351   1
   0 -13 -10 108.091 6.88745   3
   0 -13 -10 81.5550 22.1941   1
   0  13 -10 112.361 7.81033   2
  -1 -13 -10 -13.736 15.6856   1
  -1  13 -10 4.50585 3.06506   2
  -2 -13 -10 137.585 7.77251   2
  -2 -13 -10 161.826 8.73669   3
  -2 -13 -10 131.099 27.5577   1
  -3 -13 -10 143.494 9.12332   3
   4 -14 -10 268.103 10.9799   2
   4  14 -10 289.507 15.6473   2
   3 -14 -10 47.7226 3.92592   2
   3  14 -10 35.8292 5.47733   2
   2 -14 -10 286.301 11.8829   3
   2  14 -10 302.547 13.7540   2
   1 -14 -10 39.2241 5.23196   3
   1  14 -10 46.4732 8.71819   2
   0 -14 -10 425.622 20.5385   3
   0 -14 -10 479.101 45.9901   1
  -1 -14 -10 62.1901 20.3994   1
  -1 -14 -10 67.1204 6.11805   3
  -1  14 -10 74.4928 6.94953   2
  -2 -14 -10 170.880 6.87634   2
  -2 -14 -10 184.985 9.58330   3
   4  15 -10 6.60077 5.62203   2
   3 -15 -10 14.6489 3.47762   3
   3  15 -10 8.31214 4.13240   2
   2 -15 -10 20.7235 3.47431   3
   2  15 -10 20.8190 4.36539   2
   1 -15 -10 706.267 24.0381   3
   1  15 -10 725.864 25.3970   2
   0 -15 -10 76.6963 6.34352   3
   0  15 -10 72.2047 7.21154   2
  -1 -15 -10 12.2260 3.17564   3
  -1  15 -10 15.4266 3.72168   2
  -2 -15 -10 17.3873 3.94843   3
   4 -16 -10 72.3816 7.79393   3
   4  16 -10 77.2356 11.1013   2
   3 -16 -10 31.8279 4.35878   3
   3  16 -10 30.2250 5.42429   2
   2 -16 -10 21.6310 3.59490   3
   2  16 -10 28.5950 4.81259   2
   1 -16 -10 32.1364 4.26279   3
   1  16 -10 30.6299 4.73317   2
   0 -16 -10 331.655 13.4920   3
   0  16 -10 334.657 14.4382   2
  -1 -16 -10 34.2286 4.29740   3
  -1  16 -10 42.1438 5.23361   2
  -2 -16 -10 11.8127 3.83638   3
   4 -17 -10 8.05224 4.48120   3
   4  17 -10 -0.7916 5.89818   2
   3 -17 -10 12.3020 3.64659   3
   3  17 -10 14.9627 5.08764   2
   2 -17 -10 -0.2959 2.92176   3
   2  17 -10 -0.7515 3.52039   2
   1 -17 -10 10.2671 3.43578   3
   1  17 -10 12.3598 3.97281   2
   0 -17 -10 125.682 8.03592   3
   0  17 -10 119.564 8.70493   2
  -1 -17 -10 25.5996 4.10609   3
  -1  17 -10 35.5781 4.83287   2
  -1  17 -10 25.7378 3.50580   3
  -2 -17 -10 50.8999 7.06795   3
  -2  17 -10 60.2669 8.19657   2
   4 -18 -10 59.4455 6.50232   3
   4  18 -10 59.0107 8.19565   2
   3 -18 -10 12.6499 4.08894   3
   3  18 -10 11.3111 5.20229   2
   2 -18 -10 125.008 8.40554   3
   2  18 -10 119.848 9.35103   2
   1 -18 -10 76.5690 7.23642   3
   1  18 -10 76.7170 7.80281   2
   0 -18 -10 63.0070 6.84938   3
   0  18 -10 76.0009 7.50045   2
  -1 -18 -10 2.43792 3.37949   3
  -1  18 -10 2.71798 3.71442   2
  -2 -18 -10 92.8236 8.26563   3
  -2  18 -10 90.1891 9.36401   2
   4 -19 -10 10.1249 5.34051   3
   4  19 -10 4.58339 7.46438   2
   3 -19 -10 15.4434 4.30012   3
   3  19 -10 2.68081 4.91865   2
   2 -19 -10 43.1559 5.09642   3
   2  19 -10 41.7126 5.50170   2
   1 -19 -10 518.615 19.8546   3
   1  19 -10 572.772 21.2023   2
   0 -19 -10 10.1700 3.52983   3
   0  19 -10 8.37889 3.90746   2
  -1 -19 -10 8.57328 3.82539   3
  -1  19 -10 -0.2547 3.63418   2
  -2 -19 -10 38.0697 5.52782   3
  -2  19 -10 40.0503 6.28506   2
   3 -20 -10 40.3262 5.69860   3
   3  20 -10 50.8811 7.09312   2
   2 -20 -10 81.4603 8.00075   3
   2  20 -10 94.0724 9.12269   2
   1 -20 -10 0.75824 3.59753   3
   1  20 -10 -0.0825 3.72798   2
   0 -20 -10 275.828 13.0801   3
   0  20 -10 294.377 13.8667   2
  -1 -20 -10 90.8270 8.50036   3
  -1  20 -10 107.759 9.16144   2
  -2 -20 -10 32.2723 5.45934   3
  -2  20 -10 24.7698 5.72617   2
   3 -21 -10 12.9822 4.98378   3
   3  21 -10 13.1122 5.98609   2
   2 -21 -10 8.37136 4.34138   3
   2  21 -10 13.7605 4.90389   2
   1 -21 -10 51.6679 6.03278   3
   1  21 -10 47.9870 6.01854   2
   0 -21 -10 94.6716 8.90366   3
   0  21 -10 126.257 9.69185   2
  -1 -21 -10 19.5360 4.49478   3
  -1  21 -10 29.9428 5.28468   2
  -2 -21 -10 3.95096 4.73550   3
  -2  21 -10 13.8087 5.59066   2
   3 -22 -10 -3.4344 5.02111   3
   3  22 -10 4.45736 5.91366   2
   2 -22 -10 17.7490 4.96419   3
   2  22 -10 21.8388 5.50829   2
   1 -22 -10 13.8245 4.68107   3
   1  22 -10 23.2927 5.20732   2
   0 -22 -10 1.30479 4.11325   3
   0  22 -10 3.49405 4.32650   2
  -1 -22 -10 0.71989 4.02181   3
  -1  22 -10 1.49865 4.69464   2
  -2  22 -10 29.1884 6.62660   2
   2 -23 -10 18.9344 5.46238   3
   2  23 -10 25.9795 6.14034   2
   1 -23 -10 149.145 10.8332   3
   1  23 -10 158.072 11.4352   2
   0 -23 -10 8.83798 4.75591   3
   0  23 -10 6.40420 4.72170   2
  -1 -23 -10 7.49321 4.68278   3
  -1  23 -10 2.68510 4.94867   2
  -2  23 -10 38.1435 7.42086   2
   2 -24 -10 88.3119 10.6760   3
   2  24 -10 61.6237 7.74913   2
   1 -24 -10 17.5247 5.34152   3
   1  24 -10 4.52677 5.25636   2
   0 -24 -10 109.866 10.3810   3
   0  24 -10 132.597 11.2456   2
  -1 -24 -10 29.6563 6.75837   3
  -1  24 -10 53.1446 7.10899   2
   1 -25 -10 103.592 11.0946   3
   1  25 -10 114.280 11.5995   2
   0 -25 -10 38.8004 8.80751   3
   0  25 -10 32.7101 6.57355   2
   5   0 -11 208.585 11.8621   2
   4   0 -11 0.88332 2.91475   2
  -3   0  11 281.977 16.0258   2
   3   0 -11 303.335 12.0170   2
  -2   0  11 -14.456 12.8556   1
   2   0 -11 -8.4944 14.3767   1
   1   0 -11 1595.19 48.7469   2
   1   0 -11 1608.96 60.4299   1
   0   0 -11 1.10631 2.22566   2
   0   0 -11 6.09122 2.03018   2
  -1   0 -11 460.843 16.2262   2
  -2   0 -11 10.9910 3.52553   2
  -3   0 -11 906.338 28.2255   3
   5  -1 -11 27.2838 5.28098   2
   5   1 -11 25.7269 5.17539   2
   4  -1 -11 30.8430 4.09526   2
   4   1 -11 48.7353 5.96817   2
   3  -1 -11 23.0406 3.23280   2
   3   1 -11 27.6861 3.55601   2
  -3   1  11 10.2808 4.35295   2
   2  -1 -11 808.997 46.6356   1
   2  -1 -11 843.479 27.0683   2
  -2  -1  11 870.082 46.1553   1
   2   1 -11 861.753 27.5275   2
  -2   1  11 853.970 46.3198   1
   2   1 -11 833.748 47.2192   1
   1  -1 -11 0.18007 9.56707   1
  -1  -1  11 16.3033 10.1166   1
   1  -1 -11 16.2984 2.71239   2
   1   1 -11 11.8020 10.8548   1
   1   1 -11 28.1551 4.00402   2
   0  -1 -11 186.717 8.27653   2
   0  -1 -11 185.431 8.24476   2
   0   1 -11 182.115 8.40622   2
   0   1 -11 199.713 8.88183   2
  -1  -1 -11 0.53127 2.22958   2
  -1   1 -11 -1.4340 2.35201   2
  -2  -1 -11 1094.72 36.0637   2
  -2  -1 -11 1163.55 35.4664   3
  -2   1 -11 1174.89 37.3799   2
  -2   1 -11 1177.06 35.2799   3
  -3   1 -11 33.9357 4.30865   3
   5  -2 -11 24.8655 4.88509   2
   5   2 -11 31.6509 5.79125   2
   4  -2 -11 11.0328 3.22940   2
   4   2 -11 10.7658 3.45841   2
   3  -2 -11 32.9434 4.38747   2
  -3   2  11 26.3921 4.63349   2
   3   2 -11 24.0253 3.56793   2
   2  -2 -11 300.014 31.1248   1
  -2  -2  11 326.002 31.2381   1
   2  -2 -11 298.235 11.3597   2
   2   2 -11 312.170 31.8310   1
  -2   2  11 259.227 30.2501   1
   2   2 -11 297.725 12.0170   2
   1  -2 -11 93.0846 5.54144   2
  -1  -2  11 111.488 18.3223   1
   1  -2 -11 96.1619 13.9863   1
   1  -2 -11 111.342 17.8866   1
   1   2 -11 111.469 6.32866   2
   1   2 -11 108.759 16.6249   1
   0  -2 -11 4.63621 2.16220   2
   0  -2 -11 8.06360 1.98733   2
   0   2 -11 3.35302 1.86578   2
   0   2 -11 3.76377 2.66125   2
  -1  -2 -11 42.5064 4.52123   2
  -1   2 -11 41.6361 5.27071   2
  -2  -2 -11 13.0538 3.07984   2
  -2  -2 -11 10.6398 2.48787   3
  -2   2 -11 11.3120 2.29191   3
  -3  -2 -11 41.3827 5.13075   3
  -3   2 -11 56.4890 4.33385   3
   5  -3 -11 75.3518 8.09188   2
   5   3 -11 66.0321 9.16693   2
   4  -3 -11 1.07433 2.78465   2
   4   3 -11 2.92037 3.37281   2
   3  -3 -11 54.6034 4.87243   2
   3   3 -11 56.9389 5.80156   2
  -3   3  11 46.7601 5.39427   2
   2  -3 -11 333.689 32.1785   1
  -2  -3  11 313.439 30.6602   1
   2  -3 -11 339.348 12.2151   2
   2   3 -11 330.252 33.9826   1
   2   3 -11 341.927 13.3011   2
   1  -3 -11 20.0216 10.6586   1
   1  -3 -11 21.2569 10.8264   1
   1  -3 -11 15.1953 2.30828   2
  -1  -3  11 12.9373 9.90664   1
   1   3 -11 20.1250 13.0776   1
   1   3 -11 13.1066 2.91123   2
   0  -3 -11 2.25289 1.70764   2
   0  -3 -11 1.18027 1.97786   2
   0   3 -11 -1.0376 1.72193   2
  -1  -3 -11 35.4375 4.15245   2
  -1  -3 -11 36.8764 3.55631   3
  -1   3 -11 28.5184 3.68688   2
  -2  -3 -11 239.643 9.57410   3
  -2  -3 -11 215.985 9.87980   2
  -2   3 -11 236.706 8.86289   3
  -3  -3 -11 46.6525 5.37392   3
  -3   3 -11 53.2941 4.01061   3
   5  -4 -11 155.662 9.94463   2
   5   4 -11 155.452 11.4691   2
   4  -4 -11 20.1528 3.62422   2
   4   4 -11 23.6117 4.39780   2
   3  -4 -11 66.8787 4.92022   2
   3   4 -11 67.4496 6.37575   2
  -3   4  11 56.2298 6.96494   2
  -2  -4  11 145.857 26.7756   1
   2  -4 -11 139.684 23.0786   1
   2  -4 -11 101.199 19.0352   1
   2  -4 -11 120.091 6.21334   2
   2   4 -11 107.486 20.2574   1
   2   4 -11 147.160 7.92331   2
  -1  -4  11 1215.42 50.0616   1
   1  -4 -11 1249.74 50.3436   1
   1  -4 -11 1200.79 36.9427   2
   1  -4 -11 1220.85 48.8837   1
   1   4 -11 1222.19 55.2795   1
   1   4 -11 1185.45 38.2950   2
   0  -4 -11 28.1085 3.67737   2
   0  -4 -11 26.9655 3.24391   2
   0   4 -11 32.4026 3.93449   2
  -1  -4 -11 225.704 9.16632   3
  -1  -4 -11 234.311 9.14993   2
  -1   4 -11 233.081 10.7765   2
  -2  -4 -11 17.7835 2.92706   3
  -2  -4 -11 13.7022 3.25581   2
  -2   4 -11 28.5084 3.58406   3
  -3  -4 -11 610.463 20.6370   3
  -3   4 -11 610.095 18.8089   3
   5  -5 -11 1.73270 3.98160   2
   5   5 -11 -0.9362 5.22186   2
   4   5 -11 55.2930 7.20293   2
   3  -5 -11 33.9754 4.10782   2
  -3   5  11 29.2062 4.22589   2
   2  -5 -11 1197.31 58.1787   1
   2  -5 -11 1255.93 59.6946   1
   2  -5 -11 1181.76 36.6483   2
   2   5 -11 1189.17 38.3845   2
   2   5 -11 1210.96 61.7811   1
  -1  -5  11 9.37105 11.0505   1
   1  -5 -11 6.10161 11.6931   1
   1  -5 -11 3.97242 1.75535   2
   1  -5 -11 11.2102 10.8506   1
   1   5 -11 10.0967 2.93537   2
   1   5 -11 10.1894 14.5958   1
   0  -5 -11 203.153 7.90869   2
   0  -5 -11 194.514 7.82541   2
   0   5 -11 193.614 9.21727   2
  -1  -5 -11 42.3720 4.07921   3
  -1  -5 -11 42.2706 4.09694   2
  -1   5 -11 30.7158 4.32621   2
  -2  -5 -11 1275.43 40.2996   2
  -2  -5 -11 1316.08 40.6506   3
  -2   5 -11 1364.00 39.6513   3
  -3  -5 -11 17.4033 3.45000   3
   5  -6 -11 120.487 8.83357   2
   5   6 -11 117.935 11.3602   2
   4  -6 -11 0.30761 4.38058   2
   4   6 -11 7.47122 4.01141   2
   3  -6 -11 149.793 7.09397   2
  -3   6  11 147.860 8.91346   2
   3   6 -11 161.342 9.23222   2
   2  -6 -11 99.0586 20.3273   1
   2  -6 -11 142.065 6.32171   2
   2  -6 -11 123.811 22.3818   1
   2   6 -11 155.889 8.50349   2
   2   6 -11 119.036 25.7693   1
   1  -6 -11 781.249 37.8226   1
   1  -6 -11 753.291 23.4438   2
   1  -6 -11 709.316 40.0156   1
  -1  -6  11 753.845 40.0130   1
   1   6 -11 757.243 25.5344   2
   1   6 -11 767.665 45.9457   1
   0  -6  11 9.00945 9.16530   1
   0   6 -11 15.7620 11.9895   1
  -1  -6 -11 265.275 10.3518   2
  -1  -6 -11 277.932 10.6231   3
  -1  -6 -11 273.241 9.98845   2
  -1   6 -11 273.314 14.1696   2
  -2  -6 -11 4.37614 2.61510   2
  -2   6 -11 11.5593 2.10524   3
  -3  -6 -11 366.816 14.1463   3
   5  -7 -11 67.7120 7.88150   2
   5   7 -11 82.3237 10.9780   2
   4  -7 -11 3.24304 2.83224   2
   4   7 -11 -6.9308 3.54103   2
   3  -7 -11 21.8133 2.87459   2
  -3   7  11 21.6957 3.99624   2
   3   7 -11 22.3058 4.20652   2
   2  -7 -11 -10.367 16.1373   1
   2  -7 -11 15.5858 18.4678   1
   2   7 -11 8.20438 3.23936   2
   2   7 -11 -0.5853 19.6090   1
  -1  -7  11 35.0001 14.1976   1
   1  -7 -11 63.0783 3.70310   2
   1  -7 -11 59.8244 14.1236   1
   1  -7 -11 38.1326 15.1658   1
   1   7 -11 34.4890 17.9547   1
   1   7 -11 62.6016 5.96956   2
   0  -7  11 31.8127 11.1477   1
   0  -7 -11 34.1196 3.16571   2
   0   7 -11 37.8161 4.90354   2
   0   7 -11 26.6380 14.2516   1
  -1  -7 -11 1.73781 1.94036   3
  -1  -7 -11 7.05497 1.97583   2
  -1  -7 -11 5.38289 1.94199   2
  -1   7 -11 3.79525 2.47356   2
  -2  -7 -11 48.3065 5.34268   3
  -2  -7 -11 52.7215 5.11084   2
  -2   7 -11 45.8217 3.73438   3
  -3  -7 -11 64.3146 6.48058   3
   5  -8 -11 33.5516 5.21904   2
   5   8 -11 37.3346 7.07497   2
   4  -8 -11 5.05570 2.82656   2
   4   8 -11 0.39766 3.92110   2
   3  -8 -11 3.33650 2.00502   2
  -3   8  11 -6.8857 3.20607   2
   3   8 -11 1.44440 3.00772   2
   2  -8 -11 78.7365 4.33602   2
   2  -8 -11 69.1023 23.6468   1
   2   8 -11 45.0629 29.0041   1
   2   8 -11 71.8729 7.04798   2
   1  -8 -11 286.340 32.1864   1
   1  -8 -11 346.746 11.1155   2
   1  -8 -11 310.159 27.8247   1
  -1  -8  11 319.038 39.3813   1
   1   8 -11 345.347 39.3050   1
   1   8 -11 342.890 13.8475   2
   0  -8 -11 1.35437 1.57469   2
   0  -8 -11 2.97872 1.35672   2
   0  -8  11 -3.0551 10.8808   1
   0   8 -11 0.46261 2.23707   2
   0   8 -11 -17.887 14.9863   1
  -1  -8 -11 40.6798 3.70859   2
  -1  -8 -11 31.0856 3.48491   2
  -1  -8 -11 32.2809 4.40156   3
  -1   8 -11 30.8820 4.17355   2
  -2  -8 -11 32.7576 4.79282   2
  -2  -8 -11 24.1637 3.67503   3
  -3  -8 -11 90.5658 10.2897   3
   5  -9 -11 19.6441 4.80979   2
   5   9 -11 7.04534 5.77930   2
   4  -9 -11 13.0343 3.12516   2
   4   9 -11 5.57030 4.49242   2
   3  -9 -11 9.10171 2.31964   2
  -3   9  11 6.44735 3.47216   2
   3   9 -11 10.2605 3.80216   2
   2  -9 -11 925.609 27.2178   2
   2   9 -11 849.937 32.7407   2
   1  -9 -11 42.2665 3.76421   2
   1  -9 -11 31.6158 14.8440   1
   1  -9 -11 27.5898 17.7542   1
   1  -9 -11 45.0292 3.04359   2
   1   9 -11 52.9158 6.01210   2
   1   9 -11 40.2993 21.4148   1
   0  -9 -11 32.5441 2.78016   2
   0  -9 -11 33.1908 4.18896   3
   0  -9 -11 33.0679 3.07536   2
   0   9 -11 52.9625 18.9768   1
   0   9 -11 28.1291 4.00881   2
  -1  -9 -11 32.9097 3.66923   3
  -1  -9 -11 37.8744 4.21202   2
  -1  -9 -11 34.7380 3.49412   2
  -1   9 -11 28.6249 4.32962   2
  -2  -9 -11 926.247 29.9037   3
  -2  -9 -11 927.098 28.6216   2
   2  -9  11 898.734 44.2752   1
  -3  -9 -11 10.2851 3.71848   3
   5 -10 -11 149.753 9.74065   2
   5  10 -11 129.358 13.5864   2
   4 -10 -11 10.1513 3.05176   2
   4  10 -11 11.5092 4.76662   2
   3 -10 -11 110.849 5.67719   2
   3  10 -11 115.256 8.89065   2
  -3  10  11 104.772 7.38667   2
   2 -10 -11 16.6744 2.10245   2
   2  10 -11 15.3822 4.31954   2
   1 -10 -11 1183.00 32.9868   2
   1 -10 -11 991.595 55.1579   1
   1 -10 -11 1108.08 32.7704   2
   1 -10 -11 1119.09 59.0466   1
   1  10 -11 1124.76 36.2479   2
   1  10 -11 1063.67 77.9166   1
   0 -10 -11 86.1879 4.02031   2
   0 -10 -11 97.8249 17.3030   1
   0 -10 -11 81.0600 5.69685   3
   0 -10 -11 77.3886 13.5415   1
   0 -10 -11 87.2086 3.85817   2
   0  10 -11 82.3719 6.93718   2
   0  10 -11 50.9480 21.3440   1
  -1 -10 -11 316.493 10.5009   2
  -1 -10 -11 329.859 12.4179   3
  -1 -10 -11 324.427 10.7338   2
  -1  10 -11 248.575 15.4201   2
  -2 -10 -11 3.26410 2.66920   2
  -2 -10 -11 -2.1271 4.72493   3
  -3 -10 -11 570.892 20.5917   3
   5 -11 -11 16.5578 4.94750   2
   5  11 -11 25.7902 6.98824   2
   4 -11 -11 17.7426 3.48254   2
   4  11 -11 17.9155 5.29731   2
   3 -11 -11 67.1078 4.51260   2
   3  11 -11 63.3498 7.72869   2
   2 -11 -11 399.822 12.8282   2
   2  11 -11 398.369 16.6011   2
   1 -11 -11 14.2957 20.8442   1
   1  11 -11 8.10346 3.78544   2
   0 -11 -11 33.8317 14.5101   1
   0 -11 -11 51.9285 2.91073   2
   0 -11 -11 53.0699 17.2383   1
   0 -11 -11 52.5989 5.10967   3
   0  11 -11 51.9499 6.82388   2
  -1 -11 -11 42.4227 3.40327   2
  -1 -11 -11 43.4637 3.26722   2
  -1  11 -11 33.4697 4.65878   2
  -2 -11 -11 367.678 14.6227   3
  -2 -11 -11 363.809 12.8002   2
  -3 -11 -11 49.5159 5.43851   3
   5 -12 -11 -3.0328 5.17644   2
   4 -12 -11 5.19759 3.03586   2
   4  12 -11 6.33671 5.16955   2
   3 -12 -11 6.22943 2.15130   2
   3  12 -11 6.93674 4.09710   2
   2 -12 -11 91.9477 4.16601   2
   2  12 -11 98.8682 8.47027   2
   1 -12 -11 -0.2338 2.39288   3
   1 -12 -11 13.0634 26.3870   1
   1  12 -11 3.76607 3.19244   2
   0 -12 -11 2.90020 2.62674   3
   0 -12 -11 -9.3993 18.3299   1
   0  12 -11 3.51572 2.70746   2
  -1 -12 -11 -0.6104 2.48532   3
  -1  12 -11 4.91866 2.90352   2
  -2 -12 -11 11.7409 2.76492   2
  -2 -12 -11 8.59975 3.43834   3
  -3 -12 -11 4.63873 3.63083   3
   4 -13 -11 5.90159 3.27757   2
   4  13 -11 3.67639 5.03810   2
   3 -13 -11 2.61321 2.02657   2
   3  13 -11 5.97405 4.12906   2
   2  13 -11 177.280 10.6219   2
   1 -13 -11 107.089 7.11345   3
   1  13 -11 105.598 8.21145   2
   0 -13 -11 31.3099 4.03618   3
   0 -13 -11 34.3288 21.1718   1
   0  13 -11 18.8111 3.83244   2
  -1 -13 -11 19.8863 14.8642   1
  -1 -13 -11 8.20679 3.09917   3
  -1  13 -11 15.2056 3.84851   2
  -2 -13 -11 324.936 13.8350   3
  -3 -13 -11 10.4212 3.92178   3
   4 -14 -11 18.8548 5.29104   2
   4  14 -11 22.2921 6.14740   2
   3 -14 -11 56.0952 4.31902   2
   3  14 -11 41.9588 5.84772   2
   2 -14 -11 7.98318 3.22887   3
   2  14 -11 6.33224 3.93989   2
   1 -14 -11 752.585 24.9746   3
   1  14 -11 735.354 26.3564   2
   0 -14 -11 80.9312 6.51363   3
   0  14 -11 81.6656 7.35322   2
  -1 -14 -11 121.011 7.95724   3
  -1  14 -11 139.959 9.06691   2
  -2 -14 -11 8.96759 3.72939   3
  -3 -14 -11 301.525 14.0130   3
   4  15 -11 17.7943 6.32814   2
   3 -15 -11 90.3747 7.61716   3
   3  15 -11 91.4940 9.52720   2
   2 -15 -11 517.710 18.5787   3
   2  15 -11 499.742 20.2159   2
   1 -15 -11 6.26594 3.15155   3
   1  15 -11 12.7055 3.92116   2
   0 -15 -11 36.4868 4.45870   3
   0  15 -11 43.0370 5.17301   2
  -1 -15 -11 106.599 7.63299   3
  -1  15 -11 84.5317 8.16619   2
  -2 -15 -11 528.621 19.9649   3
   4 -16 -11 -0.4046 4.50044   3
   4  16 -11 4.96994 6.17176   2
   3 -16 -11 20.8746 4.15453   3
   3  16 -11 28.3242 5.82417   2
   2 -16 -11 69.8317 6.86833   3
   2  16 -11 66.6088 8.44203   2
   1 -16 -11 163.021 9.26400   3
   1  16 -11 164.214 10.3425   2
   0 -16 -11 24.1042 4.05266   3
   0  16 -11 32.2572 4.90948   2
  -1 -16 -11 39.9039 4.69126   3
  -1  16 -11 37.5786 5.21013   2
  -2 -16 -11 -7.0934 3.38814   3
  -2  16 -11 -2.5716 4.50284   2
   4 -17 -11 -0.8677 4.84822   3
   4  17 -11 10.5751 7.21510   2
   3 -17 -11 23.5662 4.41951   3
   3  17 -11 21.2906 5.57262   2
   2 -17 -11 1.98727 3.23173   3
   2  17 -11 1.79061 3.91636   2
   1 -17 -11 19.8937 4.03972   3
   1  17 -11 20.5819 4.55768   2
   0 -17 -11 0.01692 3.17728   3
   0  17 -11 3.01642 3.41132   2
  -1 -17 -11 -0.2590 3.40551   3
  -1  17 -11 5.56338 3.76194   2
  -2 -17 -11 -0.3718 3.78640   3
  -2  17 -11 -2.9611 4.56019   2
   4 -18 -11 8.69749 5.53757   3
   3 -18 -11 14.7894 4.62249   3
   3  18 -11 18.7889 5.98747   2
   2 -18 -11 13.4924 4.26133   3
   2  18 -11 8.10675 4.33662   2
   1 -18 -11 149.940 9.58613   3
   1  18 -11 170.514 10.7592   2
   0 -18 -11 19.4668 4.28615   3
   0  18 -11 28.2868 4.87037   2
  -1 -18 -11 43.7939 5.46286   3
  -1  18 -11 43.4671 5.66016   2
  -2 -18 -11 15.5174 4.58677   3
  -2  18 -11 15.2042 5.13373   2
   3 -19 -11 30.5947 5.35716   3
   3  19 -11 19.5231 6.06266   2
   2 -19 -11 239.146 12.4493   3
   2  19 -11 260.838 13.7852   2
   1 -19 -11 25.2698 4.78005   3
   1  19 -11 28.7264 5.29020   2
   0 -19 -11 18.5326 4.32565   3
   0  19 -11 22.3116 4.92303   2
  -1 -19 -11 70.6074 8.19044   3
  -1  19 -11 79.9133 9.04013   2
  -2 -19 -11 356.473 16.5789   3
  -2  19 -11 387.763 18.0100   2
   3 -20 -11 26.9334 5.92890   3
   3  20 -11 35.6174 7.22441   2
   2 -20 -11 30.9785 5.32547   3
   2  20 -11 29.9704 5.90679   2
   1 -20 -11 308.511 14.3384   3
   1  20 -11 320.318 15.4534   2
   0 -20 -11 58.6359 6.30042   3
   0  20 -11 53.3376 6.49048   2
  -1 -20 -11 66.1607 8.45568   3
  -1  20 -11 47.4383 6.58197   2
  -2 -20 -11 7.80010 4.99791   3
  -2  20 -11 -2.5155 5.49663   2
   3 -21 -11 40.3077 6.54948   3
   3  21 -11 51.9569 8.37379   2
   2 -21 -11 55.4342 6.41090   3
   2  21 -11 56.2827 7.21668   2
   1 -21 -11 1.06967 4.26514   3
   1  21 -11 0.61913 4.61359   2
   0 -21 -11 4.44561 4.31585   3
   0  21 -11 8.15416 4.69718   2
  -1 -21 -11 23.2043 5.35649   3
  -1  21 -11 33.7686 6.36330   2
  -2 -21 -11 22.5166 6.02037   3
   2 -22 -11 35.3076 6.22033   3
   2  22 -11 31.9108 6.88493   2
   1 -22 -11 14.8327 5.24744   3
   1  22 -11 2.31362 4.97562   2
   0 -22 -11 -2.5009 4.33126   3
   0  22 -11 2.66474 4.76440   2
  -1 -22 -11 3.32823 4.81369   3
  -1  22 -11 3.53932 5.34401   2
   2 -23 -11 69.0513 7.80518   3
   2  23 -11 91.3602 11.5771   2
   1 -23 -11 9.76699 5.44456   3
   1  23 -11 19.8629 5.94073   2
   0 -23 -11 7.68572 5.20864   3
   0  23 -11 12.0747 5.49985   2
  -1  23 -11 28.9760 6.60884   2
   1 -24 -11 208.120 18.3183   3
   1  24 -11 200.918 14.1456   2
   0  24 -11 78.8366 11.3869   2
   5   0 -12 0.87243 4.58957   2
   4   0 -12 -2.5947 3.12102   2
   3   0 -12 4.12568 2.75816   2
   2   0 -12 618.391 21.0871   2
   1   0 -12 3.08276 2.11190   2
   1   0 -12 8.72027 11.8017   1
   0   0 -12 229.877 9.88062   2
   0   0 -12 228.906 10.0242   2
  -1   0 -12 6.02820 2.58777   2
  -1   0 -12 -1.7774 2.99332   2
  -2   0 -12 971.340 30.5055   3
  -3   0 -12 0.06908 2.76727   3
   5  -1 -12 11.0892 4.65266   2
   5   1 -12 0.54019 4.80375   2
   4  -1 -12 35.0070 4.53810   2
   4   1 -12 35.5412 4.79707   2
   3  -1 -12 109.721 6.99069   2
   3   1 -12 97.9027 8.30167   2
   2  -1 -12 271.385 11.0634   2
   2   1 -12 273.373 11.4239   2
   1  -1 -12 65.3842 5.01059   2
   1  -1 -12 67.8904 13.2138   1
   1  -1 -12 78.0026 12.8817   1
   1   1 -12 71.9711 5.40932   2
   1   1 -12 58.1294 14.8109   1
   0  -1 -12 29.2260 3.59901   2
   0  -1 -12 34.5847 4.22437   2
   0   1 -12 37.8166 4.59094   2
   0   1 -12 39.1169 5.57370   2
  -1  -1 -12 731.422 23.6895   2
  -1  -1 -12 684.882 23.0369   2
  -1   1 -12 692.133 23.8272   2
  -1   1 -12 671.333 23.4467   2
  -2  -1 -12 87.5180 5.78921   3
  -2   1 -12 74.3021 5.44875   3
  -3  -1 -12 71.0350 6.06090   3
  -3   1 -12 63.6274 5.59475   3
   5  -2 -12 36.0040 5.48895   2
   5   2 -12 33.8594 6.09030   2
   4  -2 -12 3.66990 3.12458   2
   4   2 -12 1.38478 3.32898   2
   3  -2 -12 580.466 19.7549   2
   3   2 -12 552.045 22.9040   2
   2  -2 -12 98.5188 6.03605   2
   2   2 -12 92.4912 6.55183   2
  -1  -2  12 134.780 21.1943   1
   1  -2 -12 167.936 7.62335   2
   1  -2 -12 160.868 20.5771   1
   1  -2 -12 168.579 20.5106   1
   1   2 -12 167.250 25.9929   1
   1   2 -12 165.620 8.21811   2
   0  -2 -12 27.2636 3.88597   2
   0  -2 -12 28.4672 3.40245   2
   0   2 -12 32.5936 4.33268   2
   0   2 -12 23.9530 3.53643   2
  -1  -2 -12 441.622 15.8607   2
  -1  -2 -12 470.246 16.4032   2
  -1   2 -12 424.357 16.6583   2
  -1   2 -12 445.307 16.8118   2
  -2  -2 -12 61.2189 5.29004   3
  -2   2 -12 62.4540 5.02272   3
  -3  -2 -12 12.8487 3.44531   3
  -3   2 -12 7.34171 2.69559   3
   5  -3 -12 5.39464 4.60008   2
   5   3 -12 3.02592 5.13993   2
   4  -3 -12 65.2611 6.51328   2
   4   3 -12 83.8724 7.86044   2
   3  -3 -12 24.5065 3.50565   2
   3   3 -12 21.4468 3.87426   2
   2  -3 -12 518.294 17.6443   2
   2   3 -12 518.140 18.7404   2
   1  -3 -12 25.5907 11.3110   1
   1  -3 -12 29.4509 3.60338   2
  -1  -3  12 14.0694 12.4953   1
   1  -3 -12 20.5547 11.5022   1
   1   3 -12 6.62568 14.7996   1
   1   3 -12 25.8006 3.44886   2
   0  -3 -12 83.3143 5.59419   2
   0  -3 -12 88.3199 5.22998   2
   0   3 -12 73.1084 6.06562   2
   0   3 -12 78.8599 7.23842   2
  -1  -3 -12 151.790 7.89430   2
  -1  -3 -12 160.268 7.49453   3
  -1  -3 -12 152.148 7.70326   2
  -1   3 -12 161.480 8.79256   2
  -2  -3 -12 209.494 9.29439   3
  -2  -3 -12 195.956 10.4014   2
  -2   3 -12 220.756 8.76076   3
  -3  -3 -12 12.4749 3.56933   3
  -3   3 -12 15.0469 2.68131   3
   5  -4 -12 12.2033 4.54628   2
   5   4 -12 16.9865 6.09454   2
   4  -4 -12 -0.8708 2.96398   2
   4   4 -12 3.13943 3.68433   2
   3  -4 -12 117.658 6.74888   2
   3   4 -12 128.522 8.21264   2
  -3   4  12 91.9752 9.23181   2
   2  -4 -12 394.144 14.0296   2
   2  -4 -12 432.067 39.1788   1
   2   4 -12 386.719 15.4326   2
   1  -4 -12 81.3843 4.93100   2
   1  -4 -12 67.1662 13.6505   1
   1  -4 -12 69.5029 14.3944   1
   1   4 -12 97.6943 19.2638   1
   1   4 -12 84.6599 6.29982   2
   0  -4 -12 69.1353 4.68110   2
   0  -4 -12 63.9580 5.04712   2
   0   4 -12 61.2530 7.19988   2
   0   4 -12 63.3291 5.81392   2
  -1  -4 -12 147.276 7.58790   2
  -1  -4 -12 157.805 7.46652   3
  -1  -4 -12 138.023 7.38390   2
  -1   4 -12 152.704 8.82003   2
  -2  -4 -12 693.078 23.5565   2
  -2  -4 -12 714.452 23.4895   3
  -2   4 -12 722.320 22.6242   3
  -3  -4 -12 6.67045 3.46707   3
  -3   4 -12 9.97316 2.34573   3
   5  -5 -12 13.8551 4.63336   2
   5   5 -12 6.00538 5.67080   2
   4  -5 -12 0.09182 3.06884   2
   4   5 -12 4.07205 4.07784   2
   3  -5 -12 185.826 8.39005   2
  -3   5  12 171.860 10.6245   2
   3   5 -12 173.730 10.0813   2
   2  -5 -12 1.89395 1.91208   2
   2  -5 -12 19.9338 18.6953   1
   2   5 -12 3.89610 3.02953   2
   1  -5 -12 123.909 21.4933   1
   1  -5 -12 147.189 24.2471   1
   1  -5 -12 127.767 6.17401   2
   1   5 -12 123.539 22.0838   1
   1   5 -12 138.410 7.90819   2
   0  -5 -12 34.6227 3.62275   2
   0  -5 -12 27.2522 3.10913   2
   0   5 -12 42.2212 7.08359   2
   0   5 -12 24.8743 3.73485   2
  -1  -5 -12 891.731 28.4601   2
  -1  -5 -12 931.284 29.0912   3
  -1  -5 -12 892.841 28.9482   2
  -1   5 -12 927.856 30.6591   2
  -2  -5 -12 6.40104 2.72007   3
  -2  -5 -12 0.12090 3.23315   2
  -2   5 -12 8.56412 2.37200   3
  -3  -5 -12 76.7033 6.96755   3
  -3   5 -12 90.9173 4.58767   3
   5  -6 -12 13.3228 4.63866   2
   5   6 -12 13.5496 6.35133   2
   4  -6 -12 7.49917 3.27226   2
   4   6 -12 5.62220 4.31978   2
   3  -6 -12 408.113 14.4841   2
   3   6 -12 419.087 16.7100   2
  -3   6  12 382.195 15.9367   2
   2  -6 -12 275.109 10.2785   2
   2   6 -12 268.767 13.6246   2
   1  -6 -12 2.71863 1.67576   2
   1  -6 -12 -9.7070 13.8277   1
   1  -6 -12 20.8395 12.0797   1
   1   6 -12 4.51079 2.82488   2
   1   6 -12 5.82996 18.5860   1
   0  -6 -12 142.757 6.43338   2
   0  -6 -12 142.472 6.55515   2
   0   6 -12 131.917 8.18788   2
  -1  -6 -12 224.512 9.31665   2
  -1  -6 -12 230.811 9.60360   2
  -1  -6 -12 246.653 10.0811   3
  -1   6 -12 237.783 11.7817   2
  -2  -6 -12 464.354 16.8250   2
  -2  -6 -12 498.774 17.3926   3
  -2   6 -12 475.060 15.9052   3
  -3  -6 -12 2.57294 3.46959   3
   5  -7 -12 0.27487 4.38043   2
   5   7 -12 -4.9468 6.18823   2
   4  -7 -12 67.2105 6.31773   2
   4   7 -12 68.9005 8.73256   2
   3  -7 -12 0.57910 2.24424   2
   3   7 -12 -4.1836 3.40309   2
  -3   7  12 -5.2120 3.89009   2
   2  -7 -12 579.126 18.2898   2
   2   7 -12 537.418 22.6217   2
   1  -7 -12 2.93208 13.3162   1
   1  -7 -12 1.26899 1.54238   2
   1  -7 -12 16.7935 15.4800   1
   1   7 -12 0.40536 2.63000   2
   0  -7 -12 67.7360 4.26009   2
   0  -7 -12 67.1580 4.55623   2
   0   7 -12 70.2534 15.4419   1
   0   7 -12 65.5770 6.25606   2
  -1  -7 -12 36.8899 4.26917   2
  -1  -7 -12 40.9157 4.56278   2
  -1  -7 -12 32.2607 3.85099   3
  -1   7 -12 23.4989 6.47718   2
  -2  -7 -12 203.202 9.68073   3
  -2  -7 -12 198.538 9.27201   2
  -2   7 -12 191.721 8.01641   3
  -3  -7 -12 -3.9860 3.28476   3
   5  -8 -12 27.3746 5.41513   2
   5   8 -12 19.8167 7.63439   2
   4  -8 -12 7.59979 3.94521   2
   4   8 -12 6.52218 4.60713   2
   3  -8 -12 446.708 15.4434   2
   3   8 -12 449.590 18.3434   2
   2  -8 -12 77.3680 4.62809   2
   2   8 -12 73.5546 7.42800   2
   1  -8 -12 112.166 5.66543   2
   1  -8 -12 106.595 5.03122   2
   1  -8 -12 84.4936 20.1871   1
   1   8 -12 94.6138 8.16926   2
   0  -8 -12 1.50586 1.82927   2
   0  -8 -12 1.13290 2.13495   3
   0  -8 -12 -1.7965 1.40599   2
   0   8 -12 -1.0534 2.60952   2
  -1  -8 -12 225.120 9.05328   2
  -1  -8 -12 229.446 10.1350   3
  -1  -8 -12 224.006 8.93425   2
  -1   8 -12 225.684 11.4288   2
  -2  -8 -12 177.260 13.9019   3
  -2  -8 -12 210.120 9.41884   2
  -2   8 -12 223.712 8.34390   3
  -3  -8 -12 28.4015 4.51360   3
   5   9 -12 9.67257 11.9766   2
   4  -9 -12 6.16625 5.07932   2
   4   9 -12 6.28642 4.73140   2
   3  -9 -12 107.716 6.05319   2
   3   9 -12 96.1913 8.86586   2
   2  -9 -12 113.046 5.35880   2
   2   9 -12 94.5335 8.34179   2
   1  -9 -12 84.8912 22.0186   1
   1  -9 -12 96.5336 4.57614   2
   1  -9 -12 103.730 6.68635   2
   1   9 -12 88.5456 9.53677   2
   0  -9 -12 6.44624 1.68172   2
   0  -9 -12 7.19894 2.07794   2
   0   9 -12 5.38791 3.91006   2
  -1  -9 -12 451.721 21.9615   3
  -1  -9 -12 521.233 16.6548   2
  -1  -9 -12 517.234 16.8810   2
  -1   9 -12 544.025 19.8591   2
  -2  -9 -12 46.9679 6.42277   3
  -2  -9 -12 49.3486 5.92265   2
  -3  -9 -12 82.4874 7.73483   3
   5 -10 -12 -3.7529 4.93069   2
   4  10 -12 7.67967 4.86614   2
   3 -10 -12 78.0458 5.20989   2
   3  10 -12 64.7779 8.25516   2
   2 -10 -12 279.266 9.82543   2
   2  10 -12 281.414 13.5758   2
   1 -10 -12 8.26762 2.00104   2
   1 -10 -12 8.63854 1.61902   2
   1 -10 -12 -8.0959 20.2482   1
   1  10 -12 4.70472 3.20977   2
   0 -10 -12 119.526 5.26289   2
   0 -10 -12 113.096 4.90592   2
   0 -10 -12 114.543 6.99337   3
   0  10 -12 111.392 8.08953   2
  -1 -10 -12 45.7048 5.86591   3
  -1 -10 -12 40.1328 3.92641   2
  -1 -10 -12 50.4396 4.26912   2
  -1  10 -12 32.1212 4.76173   2
  -2 -10 -12 731.568 25.1309   3
  -3 -10 -12 19.6733 4.37083   3
   4 -11 -12 32.6720 4.24367   2
   4  11 -12 37.1719 6.64842   2
   3 -11 -12 63.6226 4.75247   2
   3  11 -12 51.6797 6.62193   2
   2 -11 -12 248.338 8.77690   2
   2  11 -12 251.467 12.7433   2
   1 -11 -12 23.0732 3.18873   2
   1 -11 -12 24.5773 2.51089   2
   1  11 -12 17.0095 3.63085   2
   0 -11 -12 117.384 7.05666   3
   0 -11 -12 108.126 4.80925   2
   0 -11 -12 106.172 4.51224   2
   0  11 -12 116.902 8.45150   2
  -1 -11 -12 318.183 10.7268   2
  -1 -11 -12 309.600 12.9582   3
  -1 -11 -12 294.360 10.7250   2
  -1  11 -12 324.704 14.3551   2
  -2 -11 -12 50.4847 6.75762   3
  -3 -11 -12 -1.1476 3.73459   3
   4 -12 -12 39.1567 4.39352   2
   4  12 -12 31.8927 6.71173   2
   3 -12 -12 345.448 12.0559   2
   3  12 -12 348.508 16.4215   2
   2 -12 -12 5.12950 1.60817   2
   2  12 -12 1.67586 3.59968   2
   1 -12 -12 17.9940 3.34815   3
   1  12 -12 15.3909 3.92344   2
   0 -12 -12 34.3800 4.04081   3
   0 -12 -12 32.5482 17.6387   1
   0  12 -12 31.5599 4.67371   2
  -1 -12 -12 251.114 11.3954   3
  -1 -12 -12 240.787 8.63785   2
  -1 -12 -12 246.739 8.67729   2
  -1  12 -12 260.577 12.7388   2
  -2 -12 -12 4.38493 3.55086   3
  -3 -12 -12 6.14404 3.95361   3
   4  13 -12 8.82563 6.19888   2
   3 -13 -12 19.1859 2.77584   2
   3  13 -12 24.2309 5.54674   2
   2  13 -12 375.204 16.6598   2
   1 -13 -12 48.5536 5.89799   3
   1  13 -12 55.1577 6.89651   2
   0 -13 -12 8.70702 3.13318   3
   0  13 -12 6.61733 3.27314   2
  -1 -13 -12 116.011 8.15575   3
  -1  13 -12 134.388 9.48658   2
  -2 -13 -12 62.5108 5.19163   2
  -2 -13 -12 59.5009 7.59793   3
  -3 -13 -12 31.4801 5.14333   3
   4  14 -12 -7.4426 5.90259   2
   3  14 -12 19.8301 5.56069   2
   2 -14 -12 235.803 11.1744   3
   2  14 -12 225.578 12.8498   2
   1 -14 -12 81.4632 6.76720   3
   1  14 -12 66.6546 7.63320   2
   0 -14 -12 38.2786 4.57210   3
   0  14 -12 40.1078 5.22347   2
  -1 -14 -12 0.82004 3.29241   3
  -1  14 -12 3.41991 3.71435   2
  -2 -14 -12 418.330 17.4878   3
  -2  14 -12 458.876 19.3267   2
  -3 -14 -12 67.7017 8.85791   3
   4  15 -12 14.4982 7.11582   2
   3 -15 -12 60.2922 7.75912   3
   3  15 -12 50.2620 7.08838   2
   2 -15 -12 17.3638 4.06080   3
   2  15 -12 17.0263 4.89188   2
   1 -15 -12 42.9242 5.04914   3
   1  15 -12 35.4889 5.20166   2
   0 -15 -12 106.193 7.90648   3
   0  15 -12 108.862 8.78807   2
  -1 -15 -12 335.337 14.7090   3
  -1  15 -12 356.683 15.9627   2
  -2 -15 -12 -3.6477 4.13472   3
  -2  15 -12 2.86914 4.45711   2
  -3 -15 -12 44.1666 6.47518   3
   4 -16 -12 9.08481 5.52117   3
   3 -16 -12 180.175 10.8746   3
   3  16 -12 181.703 13.0050   2
   2 -16 -12 30.9775 4.83327   3
   2  16 -12 34.5620 6.04987   2
   1 -16 -12 -3.4015 3.15592   3
   1  16 -12 -0.6427 3.65640   2
   0 -16 -12 63.6628 7.27357   3
   0  16 -12 57.5243 7.88480   2
  -1 -16 -12 160.298 10.2023   3
  -1  16 -12 170.084 11.1034   2
  -2 -16 -12 98.2716 9.41708   3
  -2  16 -12 108.228 10.9940   2
   3 -17 -12 8.18312 4.57963   3
   3  17 -12 12.3642 6.04521   2
   2 -17 -12 384.313 16.0657   3
   2  17 -12 388.287 17.6153   2
   1 -17 -12 41.1400 5.28011   3
   1  17 -12 37.9960 5.55707   2
   0 -17 -12 43.8598 5.31435   3
   0  17 -12 42.0190 5.82003   2
  -1 -17 -12 8.07959 4.15556   3
  -1  17 -12 6.89100 4.22048   2
  -2 -17 -12 72.9794 9.11700   3
  -2  17 -12 76.4401 10.3429   2
   3 -18 -12 56.9491 6.78091   3
   3  18 -12 80.5985 11.7556   2
   2 -18 -12 83.4877 8.91855   3
   2  18 -12 87.0456 10.0795   2
   1 -18 -12 57.3384 7.86845   3
   1  18 -12 31.8630 5.61536   2
   0 -18 -12 1.62637 3.99216   3
   0  18 -12 -1.4478 4.09792   2
  -1 -18 -12 37.7075 5.83820   3
  -1  18 -12 66.6982 9.17222   2
  -2 -18 -12 105.993 10.2187   3
  -2  18 -12 104.870 11.5675   2
   3 -19 -12 31.5280 6.29088   3
   3  19 -12 10.9765 6.83327   2
   2 -19 -12 6.80237 4.69910   3
   2  19 -12 12.5040 5.59210   2
   1 -19 -12 50.3045 6.22154   3
   1  19 -12 73.4724 9.27435   2
   0 -19 -12 37.7907 5.77749   3
   0  19 -12 26.7747 5.48070   2
  -1 -19 -12 191.093 11.9637   3
  -1  19 -12 197.449 12.9502   2
  -2 -19 -12 8.56542 5.63583   3
  -2  19 -12 8.58396 6.34924   2
   2 -20 -12 85.7147 9.93216   3
   2  20 -12 90.8084 11.0596   2
   1 -20 -12 17.9672 5.26582   3
   1  20 -12 20.3212 5.79219   2
   0 -20 -12 38.5350 5.79646   3
   0  20 -12 36.8017 6.18500   2
  -1 -20 -12 44.4497 6.43166   3
  -1  20 -12 56.8471 7.53009   2
   2 -21 -12 92.5505 10.8621   3
   2  21 -12 99.7001 12.1610   2
   1 -21 -12 9.70172 5.32852   3
   1  21 -12 14.6423 5.77250   2
   0 -21 -12 32.0146 6.20273   3
   0  21 -12 37.7268 6.55488   2
  -1 -21 -12 43.8533 6.72786   3
  -1  21 -12 58.1674 7.48903   2
   1 -22 -12 1.23467 5.63278   3
   1  22 -12 2.06750 5.85284   2
   0 -22 -12 8.70271 6.15899   3
   0  22 -12 10.7737 5.82417   2
  -1  22 -12 38.3891 10.8737   2
   5   0 -13 9.14245 5.69082   2
   4   0 -13 2.37654 3.69990   2
   3   0 -13 0.10527 2.90806   2
   2   0 -13 -1.3580 2.31880   2
   1   0 -13 9.66808 2.79536   2
   0   0 -13 4.46899 2.54439   2
   0   0 -13 1.94520 3.31695   2
  -1   0 -13 203.817 10.0827   2
  -2   0 -13 -1.9295 2.45397   3
  -3   0 -13 70.0899 6.82155   3
   5  -1 -13 0.60213 5.11190   2
   5   1 -13 14.7795 5.73146   2
   4  -1 -13 7.39160 3.74471   2
   4   1 -13 3.86894 3.77490   2
   3  -1 -13 271.626 12.3528   2
   3   1 -13 277.220 12.2881   2
   2  -1 -13 3.03652 2.33500   2
   2   1 -13 6.50906 2.80368   2
   1  -1 -13 40.9114 4.70622   2
   1   1 -13 40.8329 5.04550   2
   0  -1 -13 46.0846 5.01141   2
   0  -1 -13 53.7059 6.26352   2
   0   1 -13 58.8355 5.58376   2
   0   1 -13 35.2043 4.88736   2
  -1  -1 -13 414.735 15.6476   2
  -1  -1 -13 383.700 15.7200   2
  -1   1 -13 421.118 16.0689   2
  -2  -1 -13 47.1085 5.34141   3
  -2   1 -13 50.3151 5.17612   3
  -3  -1 -13 18.7001 4.12421   3
  -3   1 -13 22.9148 3.93821   3
   5  -2 -13 1.37592 5.00974   2
   5   2 -13 0.16042 5.60776   2
   4  -2 -13 337.685 14.3843   2
   4   2 -13 355.203 15.4128   2
   3   2 -13 4.32310 3.21066   2
   2  -2 -13 250.990 10.5105   2
   2   2 -13 256.193 11.2861   2
   1  -2 -13 5.93793 2.28321   2
   1   2 -13 5.37482 2.50112   2
   0  -2 -13 954.754 30.3701   2
   0  -2 -13 944.167 30.1983   2
   0   2 -13 938.671 31.0079   2
  -1  -2 -13 27.8828 3.99790   2
  -1  -2 -13 36.7682 5.24729   2
  -1   2 -13 27.8912 4.48556   2
  -2  -2 -13 134.260 7.68241   3
  -2   2 -13 152.112 7.56501   3
  -3  -2 -13 5.12856 3.88189   3
  -3   2 -13 0.64439 3.12848   3
   5  -3 -13 24.1200 5.65969   2
   5   3 -13 6.71320 5.59653   2
   4  -3 -13 -0.6512 3.21853   2
   4   3 -13 4.19804 4.15380   2
   3  -3 -13 678.384 23.3831   2
   3   3 -13 698.857 24.3485   2
   2  -3 -13 5.13876 2.44289   2
   2   3 -13 12.5334 5.03204   2
   1  -3 -13 95.9926 5.82022   2
   1   3 -13 96.1140 6.79487   2
   0  -3 -13 4.35791 2.97541   2
   0  -3 -13 8.19886 2.50873   2
   0   3 -13 12.5928 3.22239   2
  -1  -3 -13 961.431 31.5276   2
  -1  -3 -13 994.017 31.5295   3
  -1  -3 -13 995.138 32.0465   2
  -1   3 -13 1038.56 36.2361   2
  -2  -3 -13 25.1142 3.62691   3
  -2   3 -13 19.9275 3.20023   3
  -3  -3 -13 15.9626 4.36827   3
  -3   3 -13 25.0326 3.53097   3
   5  -4 -13 13.4640 5.28115   2
   5   4 -13 28.3833 6.92268   2
   4  -4 -13 92.5632 7.48409   2
   4   4 -13 82.3724 8.90329   2
   3  -4 -13 -0.4432 2.61491   2
   3   4 -13 5.59913 3.57903   2
   2  -4 -13 84.2523 5.53689   2
   2   4 -13 84.8752 7.95038   2
   1  -4 -13 3.58833 1.96835   2
   1   4 -13 -0.7391 2.39559   2
   0  -4 -13 318.926 12.1198   2
   0  -4 -13 322.475 12.0372   2
   0   4 -13 303.607 13.3761   2
  -1  -4 -13 178.802 8.80693   2
  -1  -4 -13 195.560 8.86642   3
  -1  -4 -13 189.640 8.99944   2
  -1   4 -13 156.205 11.0132   2
  -2  -4 -13 57.1411 5.89540   3
  -2   4 -13 60.0371 5.23270   3
  -3  -4 -13 18.6981 4.42928   3
   5  -5 -13 1.30845 5.09268   2
   5   5 -13 1.97802 7.27587   2
   4  -5 -13 13.4586 3.84888   2
   4   5 -13 5.49096 4.73082   2
   3  -5 -13 7.34545 2.76816   2
   3   5 -13 9.28049 3.71092   2
   2  -5 -13 8.19143 2.35501   2
   2   5 -13 0.01076 2.76390   2
   1  -5 -13 1.68913 1.93770   2
   1   5 -13 5.10098 2.98498   2
   0  -5 -13 78.2311 5.37092   2
   0  -5 -13 80.8813 5.82489   2
   0   5 -13 80.5364 7.59846   2
  -1  -5 -13 26.7976 3.70503   2
  -1  -5 -13 28.7193 3.68797   3
  -1  -5 -13 27.2824 3.56184   2
  -1   5 -13 24.2059 4.17195   2
  -2  -5 -13 66.4572 7.10632   3
  -2   5 -13 62.3092 5.23739   3
  -3  -5 -13 8.62115 4.20599   3
   5  -6 -13 -6.9790 4.79330   2
   4  -6 -13 172.946 9.46992   2
   4   6 -13 181.198 11.8381   2
   3  -6 -13 1.19967 2.57981   2
   3   6 -13 -1.4980 3.61724   2
   2  -6 -13 108.504 5.91790   2
   2   6 -13 112.135 8.10145   2
   1  -6 -13 17.4005 2.52912   2
   1   6 -13 14.9798 4.18726   2
   0  -6 -13 465.753 15.4936   2
   0  -6 -13 467.963 15.5092   2
   0   6 -13 400.364 18.5601   2
  -1  -6 -13 113.797 6.69371   2
  -1  -6 -13 109.441 6.94492   2
  -1   6 -13 116.570 8.59897   2
  -2  -6 -13 23.5112 6.12778   2
  -2  -6 -13 35.6640 4.45344   3
  -2   6 -13 36.9287 4.68784   3
  -3  -6 -13 27.6285 4.90188   3
   4  -7 -13 2.93777 3.41826   2
   4   7 -13 -1.1718 4.80863   2
   3  -7 -13 597.778 20.5527   2
   3   7 -13 641.472 23.4492   2
   2  -7 -13 7.56799 2.35167   2
   2   7 -13 7.02606 3.40701   2
   1  -7 -13 128.267 5.90973   2
   1  -7 -13 125.507 20.5974   1
   1  -7 -13 111.057 6.76801   2
   1   7 -13 120.273 8.30709   2
   0  -7 -13 18.0630 2.62115   2
   0  -7 -13 14.4321 2.75934   2
   0   7 -13 16.6680 4.02548   2
  -1  -7 -13 988.161 30.2048   2
  -1  -7 -13 946.561 30.4152   2
  -1  -7 -13 964.585 31.2232   3
  -1   7 -13 965.686 32.8090   2
  -2  -7 -13 9.80843 3.36164   3
  -2  -7 -13 7.96116 4.93956   2
  -2   7 -13 8.74734 2.87548   3
  -3  -7 -13 38.7206 5.23948   3
   4  -8 -13 174.251 9.58118   2
   4   8 -13 201.660 12.9616   2
   3  -8 -13 4.68003 2.69472   2
   3   8 -13 5.38237 4.22897   2
   2  -8 -13 189.420 7.88679   2
   2   8 -13 189.754 10.7898   2
   1  -8 -13 51.8005 3.92447   2
   1  -8 -13 45.9034 5.06569   2
   1  -8 -13 47.9599 19.6658   1
   1   8 -13 47.9746 6.46951   2
   0  -8 -13 643.325 20.8574   2
   0  -8 -13 674.516 22.4036   3
   0  -8 -13 659.272 20.8916   2
   0   8 -13 643.875 23.6488   2
  -1  -8 -13 78.7764 6.12186   2
  -1  -8 -13 67.8214 5.32523   2
  -1  -8 -13 88.7494 6.82817   3
  -1   8 -13 69.6913 7.69683   2
  -2  -8 -13 102.591 7.83236   3
  -2   8 -13 112.568 6.29410   3
  -3  -8 -13 -5.0197 3.89212   3
   4  -9 -13 16.4522 3.89747   2
   4   9 -13 8.50072 5.58740   2
   3  -9 -13 122.493 6.82112   2
   3   9 -13 118.721 9.91620   2
   2  -9 -13 23.8582 2.75155   2
   2   9 -13 22.0214 4.50592   2
   1  -9 -13 3.11846 1.69971   2
   1  -9 -13 5.92297 2.52222   2
   1  -9 -13 -6.9869 19.6014   1
   1   9 -13 6.18056 3.57920   2
   0  -9 -13 46.9214 3.84615   2
   0  -9 -13 36.9849 4.42936   2
   0  -9 -13 42.9979 4.69274   3
   0   9 -13 34.1796 4.99464   2
  -1  -9 -13 124.648 6.60119   2
  -1  -9 -13 126.498 6.95997   2
  -1  -9 -13 139.034 8.24807   3
  -1   9 -13 137.020 9.61676   2
  -2  -9 -13 46.4987 6.39289   3
  -2   9 -13 40.5671 4.85058   3
  -3  -9 -13 -4.1222 3.99400   3
   4 -10 -13 12.4877 4.09101   2
   4  10 -13 8.50244 5.98623   2
   3 -10 -13 -1.1433 2.58215   2
   3  10 -13 2.87360 4.41265   2
   2 -10 -13 -1.6068 1.85984   2
   2  10 -13 -3.5464 3.35460   2
   1 -10 -13 10.5604 1.89451   2
   1  10 -13 6.84942 3.52672   2
   0 -10 -13 52.6171 5.89546   3
   0 -10 -13 47.7636 3.72045   2
   0  10 -13 53.9658 6.89302   2
  -1 -10 -13 166.701 7.31871   2
  -1 -10 -13 156.889 9.22363   3
  -1  10 -13 171.149 10.6597   2
  -2 -10 -13 3.97062 2.97276   2
  -2 -10 -13 -5.5745 3.28458   3
  -2  10 -13 6.09667 2.74871   3
  -3 -10 -13 22.3286 5.14508   3
   4  11 -13 13.5653 6.39513   2
   3 -11 -13 281.280 10.5371   2
   3  11 -13 273.322 14.7113   2
   2 -11 -13 5.06738 2.00405   2
   2  11 -13 8.02329 4.04352   2
   1 -11 -13 63.0510 3.67048   2
   1 -11 -13 69.5515 6.38979   3
   1 -11 -13 64.6869 4.53475   2
   1  11 -13 58.7220 7.38246   2
   0 -11 -13 53.5718 6.10731   3
   0 -11 -13 47.3528 4.10466   2
   0 -11 -13 48.8137 3.40444   2
   0  11 -13 43.7220 5.63554   2
  -1 -11 -13 372.016 12.9363   2
  -1 -11 -13 383.394 15.3388   3
  -1  11 -13 394.919 16.8786   2
  -2 -11 -13 0.76087 3.58825   3
  -2 -11 -13 0.59708 2.83163   2
  -2  11 -13 -0.5052 3.86489   2
  -3 -11 -13 25.0293 5.25416   3
   4  12 -13 201.836 15.1763   2
   3 -12 -13 4.74298 2.63044   2
   3  12 -13 -0.9330 4.68616   2
   2 -12 -13 109.948 5.06114   2
   2  12 -13 115.172 9.63393   2
   1 -12 -13 66.5135 6.55702   3
   1  12 -13 64.5142 7.75482   2
   0 -12 -13 488.557 18.3807   3
   0  12 -13 498.175 19.7484   2
  -1 -12 -13 1.32750 1.98678   2
  -1 -12 -13 3.11476 3.51055   3
  -1  12 -13 1.72843 3.99098   2
  -2 -12 -13 86.0722 8.53671   3
  -2 -12 -13 110.183 6.69132   2
  -2  12 -13 105.730 10.2061   2
  -3 -12 -13 3.08763 4.75936   3
   4  13 -13 19.6087 7.72633   2
   3  13 -13 363.278 17.6673   2
   2  13 -13 32.0041 5.82973   2
   1 -13 -13 30.3017 4.50777   3
   1  13 -13 20.6791 4.37065   2
   0 -13 -13 1.33556 3.23782   3
   0  13 -13 2.80315 3.73450   2
  -1 -13 -13 493.208 18.8974   3
  -1  13 -13 499.689 20.3627   2
  -2 -13 -13 47.0230 5.73152   3
  -2  13 -13 48.8929 7.08868   2
  -3 -13 -13 4.27983 5.06111   3
   3  14 -13 0.54669 5.24007   2
   2 -14 -13 7.31946 4.02481   3
   2  14 -13 10.8738 4.84558   2
   1 -14 -13 7.44142 3.39293   3
   1  14 -13 14.5448 4.66457   2
   0 -14 -13 24.6603 4.45736   3
   0  14 -13 20.9650 4.68753   2
  -1 -14 -13 98.2251 8.71595   3
  -1  14 -13 103.398 9.65171   2
  -2 -14 -13 30.8706 5.49172   3
  -2  14 -13 45.9910 6.73987   2
  -3 -14 -13 4.32653 5.42708   3
   3 -15 -13 48.4718 5.98511   3
   3  15 -13 58.5160 7.77122   2
   2 -15 -13 3.94858 3.89939   3
   2  15 -13 7.78618 4.72095   2
   1 -15 -13 12.0661 3.82042   3
   1  15 -13 13.7977 4.87932   2
   0 -15 -13 35.5587 5.13946   3
   0  15 -13 28.7882 5.14416   2
  -1 -15 -13 12.0437 4.33649   3
  -1  15 -13 17.7336 5.04320   2
  -2 -15 -13 -2.2192 4.58975   3
  -2  15 -13 1.52345 4.98548   2
   3 -16 -13 3.31702 4.82843   3
   3  16 -13 8.46654 6.16629   2
   2 -16 -13 18.3216 4.69652   3
   2  16 -13 13.4842 5.23446   2
   1 -16 -13 41.1114 5.42544   3
   1  16 -13 37.7665 5.83398   2
   0 -16 -13 306.872 14.2018   3
   0  16 -13 303.613 15.1956   2
  -1 -16 -13 44.8610 5.97323   3
  -1  16 -13 47.7912 6.20992   2
  -2 -16 -13 15.6161 5.38945   3
  -2  16 -13 26.4990 6.42371   2
   3 -17 -13 313.150 15.5057   3
   3  17 -13 341.217 18.6468   2
   2 -17 -13 91.0462 9.37919   3
   2  17 -13 92.4007 10.6403   2
   1 -17 -13 30.9256 5.40818   3
   1  17 -13 32.5440 5.84239   2
   0 -17 -13 14.2976 4.64906   3
   0  17 -13 18.8841 5.34971   2
  -1 -17 -13 380.288 17.0290   3
  -1  17 -13 392.678 18.3446   2
  -2 -17 -13 50.6402 6.81381   3
  -2  17 -13 40.1277 7.57905   2
   3 -18 -13 6.69805 5.95829   3
   2 -18 -13 18.4879 5.53385   3
   2  18 -13 19.5431 6.03146   2
   1 -18 -13 22.3051 5.49585   3
   1  18 -13 14.2444 5.45837   2
   0 -18 -13 139.813 10.7025   3
   0  18 -13 133.734 11.5865   2
  -1 -18 -13 22.7269 5.85121   3
  -1  18 -13 23.3923 6.63755   2
  -2 -18 -13 38.2527 8.05393   3
   2 -19 -13 9.50475 5.27167   3
   2  19 -13 4.18018 5.67253   2
   1 -19 -13 6.73530 5.02567   3
   1  19 -13 6.14034 5.48740   2
   0 -19 -13 0.75485 4.89226   3
   0  19 -13 17.7725 5.88940   2
  -1 -19 -13 19.0608 6.08538   3
  -1  19 -13 30.7536 6.42291   2
   2 -20 -13 -0.9702 6.92020   3
   1 -20 -13 4.61924 5.60629   3
   1  20 -13 1.33754 5.77278   2
   0 -20 -13 75.3196 10.4389   3
   0  20 -13 78.0069 8.59334   2
   1  21 -13 8.55906 10.0803   2
   0  21 -13 8.53860 10.0066   2
   4   0 -14 160.876 10.5756   2
   3   0 -14 -3.5152 2.96504   2
   1   0 -14 -0.0365 2.58468   2
   0   0 -14 106.475 7.32719   2
  -2   0 -14 7.06929 3.17782   3
  -3   0 -14 3.24332 4.29308   3
   4  -1 -14 91.2383 8.44014   2
   4   1 -14 81.5289 8.76270   2
   3  -1 -14 33.8156 4.41758   2
   3   1 -14 37.5310 4.93211   2
   2  -1 -14 7.79378 2.93475   2
   2   1 -14 2.14826 2.65837   2
   1  -1 -14 110.000 7.08741   2
   1   1 -14 115.428 7.69547   2
   0  -1 -14 572.789 20.1498   2
   0   1 -14 561.839 20.3777   2
  -1  -1 -14 4.68283 3.11176   2
  -1   1 -14 1.57709 3.17252   2
  -2  -1 -14 6.56905 3.31957   3
  -2   1 -14 0.96704 2.94369   3
  -3  -1 -14 -2.5097 4.23600   3
   4  -2 -14 12.7867 4.35852   2
   4   2 -14 -7.0446 4.34847   2
   3  -2 -14 205.927 10.1745   2
   3   2 -14 207.095 10.8404   2
   2  -2 -14 1.52121 2.61147   2
   2   2 -14 3.90018 2.88831   2
   1  -2 -14 552.999 19.2881   2
   0  -2 -14 13.0577 3.08380   2
   0  -2 -14 0.41839 3.80660   2
   0   2 -14 12.0170 5.29758   2
  -1  -2 -14 296.189 12.5916   2
  -1   2 -14 293.694 13.3037   2
  -2  -2 -14 -0.7119 3.47034   3
  -2   2 -14 3.07487 2.97113   3
  -3  -2 -14 269.109 13.6159   3
   4  -3 -14 196.107 10.7243   2
   4   3 -14 192.515 12.1478   2
   3  -3 -14 6.77614 3.18879   2
   3   3 -14 1.45324 3.74977   2
   2  -3 -14 51.1541 5.12550   2
   2   3 -14 42.4323 5.07062   2
   1  -3 -14 53.6462 5.31907   2
   1   3 -14 54.4632 6.58462   2
   0  -3 -14 1015.26 31.4783   2
   0  -3 -14 949.894 31.2124   2
   0   3 -14 966.435 32.7566   2
  -1  -3 -14 4.27067 2.96024   3
  -1  -3 -14 10.2600 3.19239   2
  -1   3 -14 6.04510 3.52924   2
  -2  -3 -14 46.0910 5.91599   3
  -2   3 -14 58.9935 6.00570   3
  -3  -3 -14 2.08740 4.80138   3
   4  -4 -14 118.099 8.61612   2
   4   4 -14 104.574 10.4470   2
   3  -4 -14 45.0014 5.73127   2
   3   4 -14 51.2676 6.01935   2
   2  -4 -14 31.5751 3.80851   2
   2   4 -14 31.6422 4.72590   2
   1  -4 -14 164.237 8.00725   2
   1   4 -14 164.586 9.45876   2
   0  -4 -14 56.8374 5.35432   2
   0  -4 -14 44.6798 4.70947   2
   0   4 -14 52.8810 6.68531   2
  -1  -4 -14 65.5743 6.09986   3
  -1  -4 -14 72.9078 6.22904   2
  -1   4 -14 75.7417 7.54379   2
  -2  -4 -14 5.47252 3.34660   3
  -2   4 -14 1.85726 3.02945   3
  -3  -4 -14 116.013 9.77569   3
   4  -5 -14 10.0430 4.19493   2
   4   5 -14 -4.0946 4.97165   2
   3   5 -14 54.8333 7.60150   2
   2  -5 -14 6.11511 2.56335   2
   2   5 -14 5.84356 3.40100   2
   1  -5 -14 87.2373 7.24959   2
   1  -5 -14 80.7324 5.66896   2
   1   5 -14 85.8419 7.57963   2
   0  -5 -14 26.2785 3.36530   2
   0  -5 -14 18.6455 3.69306   2
   0   5 -14 23.6286 4.32777   2
  -1  -5 -14 1.56283 2.63098   2
  -1  -5 -14 0.52549 3.64258   2
  -1  -5 -14 8.32965 2.92876   3
  -1   5 -14 0.02764 3.43515   2
  -2  -5 -14 5.12162 3.28778   3
  -2  -5 -14 2.93360 4.33069   2
  -2   5 -14 4.40696 3.03944   3
  -3  -5 -14 2.27071 4.74824   3
   4  -6 -14 96.1252 8.26875   2
   4   6 -14 75.9005 10.4921   2
   3  -6 -14 60.8639 5.94981   2
   3   6 -14 47.1135 6.30406   2
   2  -6 -14 0.06827 2.29572   2
   2   6 -14 -1.7683 2.96324   2
   1  -6 -14 226.705 9.20714   2
   1  -6 -14 207.824 9.96362   2
   1   6 -14 236.129 11.6017   2
   0  -6 -14 34.3625 4.15020   2
   0  -6 -14 38.3029 4.72280   2
   0   6 -14 51.0093 6.75644   2
  -1  -6 -14 84.6435 7.39975   2
  -1  -6 -14 99.9569 6.60931   2
  -1  -6 -14 88.4329 6.92332   3
  -1   6 -14 98.6236 8.49551   2
  -2  -6 -14 3.62663 3.45849   3
  -2  -6 -14 1.00284 3.91100   2
  -2   6 -14 3.96263 3.01894   3
  -3  -6 -14 183.893 11.4439   3
   4  -7 -14 204.592 10.8972   2
   4   7 -14 203.030 13.8832   2
   3  -7 -14 14.6000 3.35546   2
   3   7 -14 13.8364 4.60087   2
   2  -7 -14 33.6455 4.37418   2
   2   7 -14 36.3242 5.38404   2
   1  -7 -14 2.04264 2.13053   2
   1  -7 -14 2.56961 3.24479   2
   1   7 -14 2.25276 3.28729   2
   0  -7 -14 969.935 30.2349   2
   0  -7 -14 968.013 30.2576   2
   0  -7 -14 984.123 31.4674   3
   0   7 -14 938.375 32.7209   2
  -1  -7 -14 37.9086 5.22365   2
  -1  -7 -14 43.7445 4.87597   3
  -1   7 -14 42.1439 5.68862   2
  -2  -7 -14 28.6176 4.36280   2
  -2  -7 -14 26.1922 4.39198   3
  -2   7 -14 26.5716 3.73866   3
  -2   7 -14 30.7180 5.39188   2
  -3  -7 -14 1.17828 4.87954   3
   4  -8 -14 58.3186 7.75274   2
   4   8 -14 43.5505 7.37309   2
   3  -8 -14 96.2214 6.64161   2
   3   8 -14 98.6386 9.70730   2
   2  -8 -14 42.9989 4.50599   2
   2   8 -14 31.1039 5.19101   2
   1  -8 -14 330.652 11.5233   2
   1  -8 -14 292.832 13.0495   2
   1   8 -14 331.602 14.6303   2
   0  -8 -14 14.2637 4.28850   2
   0  -8 -14 17.4292 2.85518   2
   0  -8 -14 21.7797 3.77779   3
   0   8 -14 13.2493 4.33582   2
  -1  -8 -14 271.431 12.1121   3
  -1  -8 -14 271.608 10.9269   2
  -1   8 -14 276.629 13.7466   2
  -2  -8 -14 3.46127 3.72134   3
  -2  -8 -14 6.18937 3.58307   2
  -2   8 -14 5.76751 3.14586   3
  -2   8 -14 -4.7614 4.16305   2
  -3  -8 -14 294.631 14.5161   3
   4  -9 -14 73.8362 7.79414   2
   4   9 -14 58.4972 8.59558   2
   3  -9 -14 8.92358 3.24932   2
   3   9 -14 2.42994 4.64559   2
   2  -9 -14 6.37548 2.47406   2
   2   9 -14 4.79348 3.88972   2
   1  -9 -14 67.8661 4.71492   2
   1   9 -14 67.2357 7.89290   2
   0  -9 -14 157.700 9.07620   3
   0  -9 -14 157.540 7.04224   2
   0   9 -14 148.400 10.1633   2
  -1  -9 -14 -4.2471 2.98647   3
  -1  -9 -14 -2.3218 2.48967   2
  -1   9 -14 -6.3777 3.57300   2
  -2  -9 -14 -1.2554 3.67490   3
  -2  -9 -14 0.81629 3.35670   2
  -2   9 -14 6.56915 4.87634   2
  -3  -9 -14 -3.3384 5.09068   3
   4  10 -14 167.493 15.1819   2
   3 -10 -14 18.6149 3.50081   2
   3  10 -14 13.5559 5.59302   2
   2 -10 -14 8.47934 2.49525   2
   2  10 -14 13.3863 4.39395   2
   1 -10 -14 14.6582 2.39537   2
   1  10 -14 11.2824 4.33148   2
   0 -10 -14 92.1075 5.20096   2
   0 -10 -14 102.470 7.73142   3
   0  10 -14 93.7220 8.94495   2
  -1 -10 -14 10.3103 3.69730   3
  -1 -10 -14 6.74085 2.66928   2
  -1  10 -14 17.5555 4.68372   2
  -2 -10 -14 3.20519 4.12530   3
  -2 -10 -14 -4.5572 3.31101   2
  -2  10 -14 3.77687 5.00731   2
  -3 -10 -14 0.91612 5.37008   3
   3  11 -14 18.8499 5.72087   2
   2 -11 -14 0.02403 2.15218   2
   2  11 -14 -7.0017 3.85975   2
   1 -11 -14 10.2537 2.02935   2
   1 -11 -14 10.6374 3.72585   3
   1  11 -14 3.61100 4.03778   2
   0 -11 -14 445.842 16.9845   3
   0 -11 -14 409.921 13.7278   2
   0  11 -14 426.152 18.1674   2
  -1 -11 -14 34.0582 4.57204   2
  -1 -11 -14 25.8459 4.48562   3
  -1  11 -14 21.7950 5.35284   2
  -2 -11 -14 2.48005 4.26262   3
  -2  11 -14 2.55731 5.21317   2
  -3 -11 -14 17.1137 5.75991   3
   3  12 -14 68.8330 7.97430   2
   2  12 -14 29.3776 5.43963   2
   1 -12 -14 369.980 15.2428   3
   1  12 -14 349.043 16.4978   2
   0 -12 -14 13.2137 4.07291   3
   0  12 -14 5.18669 4.55896   2
  -1 -12 -14 190.633 10.6329   3
  -1  12 -14 176.819 12.0462   2
  -2 -12 -14 26.0119 5.24759   3
  -2  12 -14 28.3360 6.44331   2
   3  13 -14 14.6322 6.07910   2
   2 -13 -14 12.6316 4.35910   3
   2  13 -14 7.72347 4.85944   2
   1 -13 -14 67.7956 7.63981   3
   1  13 -14 58.3324 7.15325   2
   0 -13 -14 468.154 18.6858   3
   0  13 -14 479.969 20.1849   2
  -1 -13 -14 18.8420 4.60612   3
  -1  13 -14 26.5355 5.77986   2
  -2 -13 -14 14.0483 5.20266   3
  -2  13 -14 17.2512 6.12595   2
   3  14 -14 2.83081 6.03471   2
   2 -14 -14 1.18617 4.31141   3
   2  14 -14 1.71715 4.83588   2
   1 -14 -14 33.6655 5.23715   3
   1  14 -14 26.9131 5.48457   2
   0 -14 -14 49.9449 5.92604   3
   0  14 -14 39.1107 6.12895   2
  -1 -14 -14 1.74153 4.19599   3
  -1  14 -14 7.67988 4.57576   2
  -2 -14 -14 3.42973 5.20873   3
  -2  14 -14 12.5267 6.15843   2
   3 -15 -14 26.8303 6.19688   3
   3  15 -14 10.5951 7.98651   2
   2 -15 -14 1.56059 4.77996   3
   2  15 -14 4.77178 5.00333   2
   1 -15 -14 23.9568 5.24981   3
   1  15 -14 30.0514 5.97734   2
   0 -15 -14 28.8743 5.62937   3
   0  15 -14 36.7401 6.03987   2
  -1 -15 -14 4.93030 4.57745   3
  -1  15 -14 0.63271 5.07489   2
  -2 -15 -14 5.17274 5.77540   3
  -2  15 -14 7.79783 8.60920   2
   3 -16 -14 36.6215 10.1956   3
   2 -16 -14 21.5515 5.52749   3
   2  16 -14 12.9637 6.03933   2
   1 -16 -14 147.379 11.1985   3
   1  16 -14 155.400 12.3915   2
   0 -16 -14 23.1559 5.26654   3
   0  16 -14 11.7667 5.58135   2
  -1 -16 -14 72.5201 9.65768   3
  -1  16 -14 73.8810 8.85897   2
   2 -17 -14 3.39194 5.27054   3
   2  17 -14 0.34734 5.61550   2
   1 -17 -14 25.8876 5.54267   3
   1  17 -14 29.3741 6.53502   2
   0 -17 -14 378.326 17.0404   3
   0  17 -14 362.916 18.1244   2
  -1 -17 -14 56.5687 7.20319   3
  -1  17 -14 48.4887 8.20388   2
   2 -18 -14 6.38917 10.4613   3
   1 -18 -14 152.598 12.4441   3
   1  18 -14 160.347 13.2287   2
   0 -18 -14 12.4909 6.09151   3
   0  18 -14 4.33898 5.90026   2
   4   0 -15 -6.7990 4.53486   2
   3   0 -15 38.2317 5.02523   2
   2   0 -15 -0.2828 3.11791   2
   1   0 -15 609.364 21.6609   2
   0   0 -15 -2.0014 2.98143   2
  -1   0 -15 0.12941 3.29632   2
  -2   0 -15 -4.7157 3.90674   2
  -2   0 -15 4.25877 3.93711   3
   4  -1 -15 113.417 9.70425   2
   4   1 -15 102.031 10.1459   2
   3  -1 -15 -5.8044 3.25944   2
   3   1 -15 0.24194 3.63086   2
   2  -1 -15 212.148 10.3052   2
   2   1 -15 208.995 10.7120   2
   1   1 -15 165.708 9.42753   2
   0  -1 -15 77.1323 11.0383   2
   0   1 -15 97.7781 7.60546   2
  -1  -1 -15 2.65320 2.73172   3
  -1  -1 -15 2.63095 3.26084   2
  -1   1 -15 3.16557 3.39688   2
  -2  -1 -15 43.5769 5.78024   2
  -2  -1 -15 68.9864 7.46662   3
  -2   1 -15 75.8816 8.70337   2
   4  -2 -15 19.8059 5.02976   2
   4   2 -15 25.3262 5.62871   2
   3  -2 -15 -0.0118 3.36225   2
   3   2 -15 6.76475 3.80897   2
   2  -2 -15 75.5431 6.69178   2
   2   2 -15 69.4409 7.17526   2
   1  -2 -15 67.9243 6.48631   2
   1   2 -15 63.4726 7.15299   2
   0  -2 -15 147.910 8.52472   2
   0   2 -15 122.315 8.74131   2
  -1  -2 -15 2.99643 3.28011   2
  -1  -2 -15 -0.0778 2.82915   3
  -1   2 -15 0.80069 3.28725   2
  -2  -2 -15 249.869 11.7860   3
  -2  -2 -15 236.751 12.5903   2
  -2   2 -15 243.648 11.4486   3
  -2   2 -15 240.823 13.2736   2
   4  -3 -15 7.63868 4.52653   2
   4   3 -15 2.70271 5.29105   2
   3  -3 -15 7.95667 3.42036   2
   3   3 -15 -1.7654 3.62911   2
   2  -3 -15 46.8188 6.16485   2
   2   3 -15 49.3626 6.88416   2
   1  -3 -15 289.057 12.1420   2
   1   3 -15 292.518 13.3479   2
   0  -3 -15 15.1193 3.55350   2
   0   3 -15 12.4190 3.89508   2
  -1  -3 -15 1.91621 2.90747   3
  -1  -3 -15 -1.1410 3.13384   2
  -1   3 -15 3.12711 3.49007   2
  -2  -3 -15 62.0032 8.05685   2
  -2  -3 -15 60.6321 7.49925   3
  -2   3 -15 53.4337 6.71951   2
  -2   3 -15 59.8150 7.35857   3
   4  -4 -15 2.24025 4.47187   2
   4   4 -15 10.9887 5.74852   2
   3  -4 -15 13.1783 3.72266   2
   3   4 -15 11.2956 4.46228   2
   2  -4 -15 12.9612 3.62026   2
   2   4 -15 5.87321 3.79952   2
   1  -4 -15 503.858 18.0802   2
   1   4 -15 524.107 19.8597   2
   0  -4 -15 43.6664 5.53863   2
   0   4 -15 35.9181 5.03936   2
  -1  -4 -15 -1.3782 2.90391   3
  -1   4 -15 2.47268 3.67998   2
  -2  -4 -15 112.918 8.55039   3
  -2  -4 -15 118.323 9.06760   2
  -2   4 -15 88.0360 10.0644   2
  -2   4 -15 103.345 8.18416   3
  -3  -4 -15 109.174 11.7754   3
   4  -5 -15 146.136 10.1095   2
   4   5 -15 117.095 12.4513   2
   3  -5 -15 5.23180 3.45913   2
   3   5 -15 9.38486 4.64166   2
   2  -5 -15 257.352 10.8730   2
   2   5 -15 246.182 12.6220   2
   1  -5 -15 8.98456 2.94477   2
   1   5 -15 7.89905 4.06441   2
   0  -5 -15 204.038 9.45888   2
   0   5 -15 201.937 11.2373   2
  -1  -5 -15 -0.6875 3.04136   2
  -1  -5 -15 6.11204 3.19690   3
  -1   5 -15 -3.2901 3.63719   2
  -2  -5 -15 91.9408 8.47266   2
  -2  -5 -15 79.6653 8.41475   3
  -2   5 -15 78.0773 10.0150   2
  -2   5 -15 103.000 7.87914   3
  -3  -5 -15 1.18426 6.01056   3
   4  -6 -15 32.3933 5.51327   2
   4   6 -15 33.7773 7.43134   2
   3  -6 -15 0.31616 3.44617   2
   3   6 -15 1.31262 4.36973   2
   2  -6 -15 13.7566 3.22849   2
   2   6 -15 16.1996 4.26036   2
   1  -6 -15 361.292 13.7009   2
   1   6 -15 383.810 16.3480   2
   0  -6 -15 85.6649 6.45224   2
   0   6 -15 97.2538 8.46302   2
  -1  -6 -15 6.52328 3.27243   3
  -1  -6 -15 1.29420 3.16146   2
  -1   6 -15 1.85571 3.88374   2
  -2  -6 -15 37.3391 5.33553   3
  -2  -6 -15 31.6639 5.01814   2
  -2   6 -15 33.0465 4.85028   3
  -2   6 -15 35.0338 6.50827   2
  -3  -6 -15 83.3876 11.0961   3
   4  -7 -15 4.38107 4.99151   2
   4   7 -15 -4.7726 6.53941   2
   3  -7 -15 -0.0924 3.41933   2
   3   7 -15 3.39105 4.70199   2
   2  -7 -15 0.67761 2.72729   2
   2   7 -15 1.54894 4.17075   2
   1  -7 -15 260.743 10.4957   2
   1   7 -15 254.419 13.3002   2
   0  -7 -15 10.6703 3.60633   3
   0  -7 -15 14.2205 3.11245   2
   0   7 -15 13.6969 4.33260   2
  -1  -7 -15 14.6911 3.87033   3
  -1  -7 -15 17.1901 3.55000   2
  -1   7 -15 13.7798 4.75891   2
  -2  -7 -15 2.31848 4.31907   3
  -2  -7 -15 8.74540 4.42060   2
  -2   7 -15 5.91575 5.35555   2
   3  -8 -15 5.05784 6.24337   2
   3   8 -15 3.89657 4.81771   2
   2  -8 -15 53.5291 5.43660   2
   2   8 -15 39.4534 5.83979   2
   1  -8 -15 142.527 7.15509   2
   1   8 -15 139.311 10.4352   2
   0  -8 -15 101.851 6.37478   2
   0  -8 -15 111.597 8.08346   3
   0   8 -15 89.2791 9.10880   2
  -1  -8 -15 9.33418 3.81968   3
  -1  -8 -15 10.9401 3.40487   2
  -1   8 -15 2.85252 4.36102   2
  -2  -8 -15 230.853 12.5884   3
  -2  -8 -15 233.078 13.1024   2
  -2   8 -15 226.705 14.3889   2
   3  -9 -15 11.3278 4.21656   2
   3   9 -15 5.56640 5.32319   2
   2  -9 -15 210.076 9.16545   2
   2   9 -15 221.678 12.8522   2
   1  -9 -15 73.4241 5.43818   2
   1   9 -15 60.5775 8.83915   2
   0  -9 -15 56.7567 5.35198   2
   0  -9 -15 64.9257 7.23118   3
   0   9 -15 67.5127 8.60681   2
  -1  -9 -15 8.23224 3.86592   3
  -1  -9 -15 7.37765 3.21323   2
  -1   9 -15 13.8733 4.85655   2
  -2  -9 -15 127.586 12.6185   2
  -2  -9 -15 122.137 10.0814   3
  -2   9 -15 113.540 12.2158   2
   3  10 -15 -0.4112 5.52301   2
   2 -10 -15 0.95395 3.86170   2
   2  10 -15 1.19888 4.60010   2
   1 -10 -15 523.516 19.4212   3
   1 -10 -15 490.899 16.4214   2
   1  10 -15 479.716 20.6093   2
   0 -10 -15 35.2905 4.81080   3
   0 -10 -15 39.6185 4.61821   2
   0  10 -15 28.4193 5.77434   2
  -1 -10 -15 0.40454 3.87728   3
  -1  10 -15 1.80667 5.04995   2
  -2 -10 -15 0.40972 4.83715   3
  -2  10 -15 1.36210 5.65860   2
   3  11 -15 7.32216 6.07021   2
   2  11 -15 41.3693 6.50116   2
   1 -11 -15 121.561 9.30202   3
   1  11 -15 111.703 10.7387   2
   0 -11 -15 149.895 9.78907   3
   0  11 -15 131.058 11.1406   2
  -1 -11 -15 0.51130 4.09690   3
  -1  11 -15 1.46542 5.19840   2
  -2 -11 -15 15.4804 5.60782   3
  -2  11 -15 8.34674 6.48156   2
   3  12 -15 6.16613 6.56737   2
   2  12 -15 29.3859 6.14705   2
   1 -12 -15 4.47968 4.35984   3
   1  12 -15 -1.7733 4.69251   2
   0 -12 -15 147.926 10.3195   3
   0  12 -15 149.445 11.6586   2
  -1 -12 -15 30.0152 5.33215   3
  -1  12 -15 26.8894 5.98100   2
  -2 -12 -15 134.237 11.7721   3
  -2  12 -15 158.358 19.5113   2
   2 -13 -15 113.010 10.1654   3
   2  13 -15 111.787 11.5702   2
   1 -13 -15 92.0398 9.26944   3
   1  13 -15 81.4298 10.6451   2
   0 -13 -15 -3.7485 4.55935   3
   0  13 -15 -1.0878 4.70647   2
  -1 -13 -15 10.9035 5.02822   3
  -1  13 -15 10.8876 5.54436   2
  -2 -13 -15 54.2025 7.44047   3
   2 -14 -15 39.6147 6.31782   3
   2  14 -15 30.3700 7.10402   2
   1 -14 -15 302.948 15.2772   3
   1  14 -15 321.585 16.8962   2
   0 -14 -15 5.76139 5.13274   3
   0  14 -15 21.4551 6.10884   2
  -1 -14 -15 19.6343 5.81629   3
  -1  14 -15 4.18364 5.92757   2
   2 -15 -15 154.230 12.9888   3
   2  15 -15 154.261 14.3814   2
   1 -15 -15 3.19566 5.27017   3
   1  15 -15 2.46758 5.87973   2
   0 -15 -15 102.291 10.6779   3
   0  15 -15 105.351 11.7937   2
  -1 -15 -15 1.66770 5.65132   3
  -1  15 -15 3.24395 7.92168   2
   1 -16 -15 62.7977 7.74924   3
   1  16 -15 53.9066 8.35968   2
   0 -16 -15 89.5407 10.9319   3
   0  16 -15 103.851 12.9239   2
   3   0 -16 1.93934 4.23430   2
   2   0 -16 616.646 22.2641   2
   1   0 -16 3.16048 3.42495   2
   0   0 -16 18.1000 4.17150   2
  -1   0 -16 5.08726 4.14114   2
  -1   0 -16 1.85162 3.40855   3
  -2   0 -16 577.023 21.1926   3
  -2   0 -16 570.767 22.6154   2
   3  -1 -16 88.9005 8.44724   2
   3   1 -16 79.4988 8.78361   2
   2  -1 -16 7.57814 3.92300   2
   2   1 -16 5.27588 3.88260   2
   1  -1 -16 231.956 11.1812   2
   1   1 -16 228.583 11.4908   2
   0  -1 -16 2.83271 3.33185   2
   0   1 -16 -2.2496 3.46296   2
  -1  -1 -16 270.691 12.8500   2
  -1  -1 -16 244.352 11.7296   3
  -1   1 -16 249.778 13.0745   2
  -2  -1 -16 17.8645 5.43365   2
  -2  -1 -16 30.2090 5.45041   3
  -2   1 -16 21.9941 5.47001   2
  -2   1 -16 29.1612 5.40959   3
   3  -2 -16 13.2886 4.28294   2
   3   2 -16 6.12498 4.37969   2
   2  -2 -16 51.3203 6.67835   2
   2   2 -16 32.8705 5.05208   2
   1  -2 -16 5.45324 3.49320   2
   1   2 -16 4.47589 3.66717   2
   0  -2 -16 5.06725 3.37717   2
   0   2 -16 0.18006 3.54293   2
  -1  -2 -16 29.9685 4.57872   3
  -1  -2 -16 32.0414 5.09762   2
  -1   2 -16 22.8691 5.22300   2
  -2  -2 -16 66.8994 9.39044   2
  -2  -2 -16 57.1198 6.46737   3
  -2   2 -16 69.6317 6.58629   3
  -2   2 -16 46.5805 6.60130   2
   3  -3 -16 12.8757 4.31674   2
   3   3 -16 15.1990 5.40024   2
   2  -3 -16 7.08347 3.64917   2
   2   3 -16 10.7582 4.22818   2
   1  -3 -16 42.9374 6.19082   2
   1   3 -16 31.9145 4.87358   2
   0  -3 -16 5.19750 3.39121   2
   0   3 -16 -1.0619 3.69495   2
  -1  -3 -16 37.9320 5.16853   2
  -1  -3 -16 29.4144 4.57211   3
  -1   3 -16 31.5636 5.64844   2
  -2  -3 -16 56.4483 6.32559   3
  -2  -3 -16 42.5482 6.32895   2
  -2   3 -16 38.9197 6.32045   2
  -2   3 -16 53.1982 6.81156   3
   3  -4 -16 5.78492 4.09591   2
   3   4 -16 -1.1898 4.93390   2
   2  -4 -16 468.753 17.5922   2
   2   4 -16 490.417 19.4710   2
   1  -4 -16 1.50712 3.71165   2
   1   4 -16 -1.5215 3.94099   2
   0  -4 -16 1.07761 3.26027   2
   0   4 -16 -5.3185 3.72847   2
  -1  -4 -16 29.8044 4.74789   3
  -1  -4 -16 32.9278 4.89202   2
  -1   4 -16 28.7620 5.69237   2
  -2  -4 -16 469.751 18.9272   2
  -2  -4 -16 435.816 18.2585   3
  -2   4 -16 462.896 20.3736   2
   3  -5 -16 154.193 9.70152   2
   3   5 -16 170.717 11.9312   2
   2  -5 -16 3.45759 3.57133   2
   2   5 -16 1.17339 4.28408   2
   1  -5 -16 302.080 12.7067   2
   1   5 -16 298.775 14.5533   2
   0  -5 -16 15.3966 4.38870   2
   0   5 -16 13.6632 4.47919   2
  -1  -5 -16 315.802 13.9139   3
  -1  -5 -16 313.824 13.6227   2
  -1   5 -16 302.374 15.6517   2
  -2  -5 -16 34.0682 5.99413   3
  -2  -5 -16 21.5088 5.57819   2
  -2   5 -16 26.5219 6.93413   2
   3  -6 -16 17.7972 4.67074   2
   3   6 -16 11.8699 5.84453   2
   2   6 -16 344.815 16.1352   2
   1  -6 -16 3.54269 3.08734   2
   1   6 -16 5.20126 4.32950   2
   0  -6 -16 -4.2466 3.38208   3
   0  -6 -16 -0.4273 3.14451   2
   0   6 -16 -3.8362 3.95707   2
  -1  -6 -16 -1.5897 3.91664   3
  -1  -6 -16 11.3719 4.16408   2
  -1   6 -16 1.33077 4.91199   2
  -2  -6 -16 308.498 14.5117   2
  -2  -6 -16 306.067 15.1088   3
  -2   6 -16 300.847 17.0889   2
   3  -7 -16 5.59275 4.21017   2
   3   7 -16 6.11515 5.77760   2
   2  -7 -16 9.30421 3.67982   2
   2   7 -16 -0.7214 4.39416   2
   1  -7 -16 7.72425 3.33367   2
   1   7 -16 9.55921 4.60755   2
   0  -7 -16 0.48871 3.07539   2
   0  -7 -16 -0.1512 3.75303   3
   0   7 -16 -1.2937 4.19715   2
  -1  -7 -16 5.29426 7.19226   2
  -1  -7 -16 3.89160 4.09568   3
  -1   7 -16 -1.3805 5.14897   2
  -2  -7 -16 74.7406 9.03766   2
  -2  -7 -16 65.7660 7.18377   3
  -2   7 -16 62.0317 8.62316   2
   3   8 -16 -3.8952 6.08859   2
   2  -8 -16 132.725 8.47987   2
   2   8 -16 136.910 11.3814   2
   1  -8 -16 -1.5209 2.99001   2
   1   8 -16 2.25601 4.61243   2
   0  -8 -16 0.28604 3.92595   3
   0  -8 -16 5.48596 3.14593   2
   0   8 -16 1.03727 4.47113   2
  -1  -8 -16 17.6287 4.81226   3
  -1  -8 -16 25.9640 5.34985   2
  -1   8 -16 27.9286 6.35557   2
  -2  -8 -16 93.9327 10.5784   3
  -2   8 -16 83.8594 10.2781   2
   3   9 -16 136.047 14.6011   2
   2   9 -16 -2.4912 5.24037   2
   1   9 -16 205.290 13.1936   2
   0  -9 -16 19.3211 4.60647   3
   0   9 -16 15.1392 5.08060   2
  -1  -9 -16 116.803 10.0113   3
  -1   9 -16 121.395 12.3999   2
   2  10 -16 419.586 19.5046   2
   1 -10 -16 12.4881 4.84748   3
   1  10 -16 11.8720 5.63270   2
   0 -10 -16 -0.7678 4.08000   3
   0  10 -16 5.80662 5.24504   2
  -1 -10 -16 23.5272 5.53979   3
  -1  10 -16 38.5133 7.27252   2
   2  11 -16 -11.882 5.54038   2
   1 -11 -16 105.974 10.0862   3
   1  11 -16 111.970 11.6775   2
   0 -11 -16 5.40873 4.69980   3
   0  11 -16 -1.7242 5.44458   2
  -1 -11 -16 42.7033 6.44562   3
  -1  11 -16 40.8120 7.66535   2
   2 -12 -16 0.50385 5.88115   3
   2  12 -16 4.86665 6.37523   2
   1 -12 -16 10.2455 5.04377   3
   1  12 -16 -0.4426 5.88610   2
   0 -12 -16 1.97246 5.15466   3
   0  12 -16 -1.4619 5.72908   2
  -1 -12 -16 14.9734 5.60161   3
  -1  12 -16 11.7971 8.92498   2
   1 -13 -16 50.5270 6.91100   3
   1  13 -16 41.3657 7.45130   2
   0 -13 -16 -4.5025 5.45205   3
   0  13 -16 -0.8067 5.93010   2
   3   0 -17 159.144 11.4831   2
   2   0 -17 -2.2377 4.08179   2
   1   0 -17 5.65164 4.06870   2
   0   0 -17 1.72013 4.19033   2
  -1   0 -17 476.437 19.6641   2
  -1   0 -17 471.563 18.4140   3
   3  -1 -17 71.3870 9.37399   2
   3   1 -17 54.4302 7.17279   2
   2  -1 -17 130.920 9.74106   2
   2   1 -17 152.252 10.2884   2
   1  -1 -17 1.42207 3.83624   2
   1   1 -17 4.00244 4.23353   2
   0  -1 -17 162.018 10.3792   2
   0   1 -17 158.615 10.6764   2
  -1  -1 -17 30.0076 5.77819   2
  -1  -1 -17 26.9090 5.27733   3
  -1   1 -17 28.5782 5.24589   3
  -1   1 -17 25.4700 5.71178   2
   3  -2 -17 15.0932 5.22389   2
   3   2 -17 12.3086 5.78725   2
   2  -2 -17 93.6071 8.52906   2
   2   2 -17 79.5810 9.25402   2
   1  -2 -17 -0.8721 3.69025   2
   1   2 -17 1.35770 4.10774   2
   0  -2 -17 61.6807 7.92752   2
   0   2 -17 53.1687 6.31481   2
  -1  -2 -17 12.2456 4.64137   3
  -1  -2 -17 17.1753 5.20619   2
  -1   2 -17 12.1713 5.49157   2
  -1   2 -17 25.1947 4.73040   3
   3  -3 -17 151.007 11.0330   2
   3   3 -17 163.809 12.4624   2
   2  -3 -17 21.0623 4.68032   2
   2   3 -17 13.8577 5.32269   2
   1  -3 -17 2.78659 3.80324   2
   1   3 -17 2.34448 4.42715   2
   0  -3 -17 12.8184 4.37813   2
   0   3 -17 14.5640 5.23577   2
  -1  -3 -17 66.6388 9.00984   2
  -1  -3 -17 47.7090 5.88706   3
  -1   3 -17 49.5651 7.03890   2
   2  -4 -17 32.4242 5.08700   2
   2   4 -17 25.7337 6.17387   2
   1  -4 -17 15.1761 4.19267   2
   1   4 -17 10.2060 4.81805   2
   0  -4 -17 9.33926 4.27650   2
   0   4 -17 3.89941 4.63912   2
  -1  -4 -17 387.092 16.5899   3
  -1  -4 -17 405.157 16.5366   2
  -1   4 -17 350.734 17.8231   2
   2  -5 -17 177.893 10.1478   2
   2   5 -17 176.121 12.5123   2
   1  -5 -17 13.0342 4.04243   2
   1   5 -17 9.76245 4.89273   2
   0  -5 -17 205.014 10.8988   2
   0  -5 -17 214.901 11.6872   3
   0   5 -17 207.434 12.8499   2
  -1  -5 -17 7.28346 4.83188   2
  -1  -5 -17 6.56598 4.87313   3
  -1   5 -17 6.83223 5.95428   2
   2  -6 -17 25.7393 5.24738   2
   2   6 -17 23.2429 5.93464   2
   1  -6 -17 4.16258 3.91609   2
   1   6 -17 -1.1660 4.86452   2
   0  -6 -17 22.6671 4.81140   2
   0  -6 -17 31.5396 5.51911   3
   0   6 -17 25.7610 6.29438   2
  -1  -6 -17 254.257 13.8213   3
  -1  -6 -17 273.870 16.3090   2
  -1   6 -17 263.653 15.9822   2
   2   7 -17 1.07271 6.13296   2
   1   7 -17 5.72326 5.28535   2
   0  -7 -17 10.5333 4.92374   3
   0   7 -17 3.78807 5.56654   2
  -1  -7 -17 56.3990 6.82144   3
  -1   7 -17 36.6052 7.59150   2
   2   8 -17 53.5635 7.40479   2
   1   8 -17 0.85618 5.45404   2
   0  -8 -17 -7.6486 4.62849   3
   0   8 -17 8.53769 6.13329   2
  -1  -8 -17 141.200 11.7822   3
  -1   8 -17 149.773 15.1873   2
   2   9 -17 111.349 13.9252   2
   1  -9 -17 15.8563 5.71931   3
   1   9 -17 5.00083 5.86511   2
   0  -9 -17 90.2038 10.4373   3
   0   9 -17 87.6656 12.0558   2
   1 -10 -17 10.3564 8.23164   3
   1  10 -17 0.20359 6.22381   2
   0 -10 -17 25.4151 6.41059   3
   0  10 -17 25.6815 7.79987   2
   1   0 -18 0.02465 4.81629   2
   0   0 -18 103.400 10.6821   2
   1  -1 -18 6.85778 4.97002   2
   1   1 -18 3.81614 5.27733   2
   0  -1 -18 111.973 10.6941   2
   0   1 -18 120.782 11.0354   2
   1  -2 -18 120.426 10.0866   2
   1   2 -18 127.083 11.0958   2
   0  -2 -18 6.56711 5.29267   2
   0   2 -18 0.78748 5.50096   2
   1  -3 -18 8.99096 4.98007   2
   1   3 -18 7.88327 5.62987   2
   0  -3 -18 296.425 14.5879   2
   0   3 -18 297.902 16.0187   2
   1  -4 -18 18.7218 5.08745   2
   1   4 -18 9.82595 5.88286   2
   0  -4 -18 87.8001 10.4697   3
   0  -4 -18 97.9015 9.93314   2
   1   5 -18 24.9351 6.64231   2
   0   0   0    0.00    0.00   0

 _exptl_absorpt_process_details
)
 SADABS 2016/2: Krause, L., Herbst-Irmer, R., Sheldrick G.M. & Stalke D.,
 J. Appl. Cryst. 48 (2015) 3-10
)
 _exptl_absorpt_correction_type   multi-scan
 _exptl_absorpt_correction_T_max  0.7465
 _exptl_absorpt_correction_T_min  0.5329
 _exptl_special_details
)
 The following wavelength and cell were deduced by SADABS from the
 direction cosines etc. They are given here for emergency use only:
 CELL 0.71075    4.415   19.809   11.901   90.045   95.790   89.966
)

;
_shelx_hkl_checksum              60791
loop_
_space_group_symop_operation_xyz
'x, y, z'
'-x+1/2, y+1/2, -z+1/2'
'-x, -y, -z'
'x-1/2, -y-1/2, z-1/2'
loop_
_atom_site_label
_atom_site_type_symbol
_atom_site_fract_x
_atom_site_fract_y
_atom_site_fract_z
_atom_site_U_iso_or_equiv
_atom_site_adp_type
_atom_site_occupancy
_atom_site_site_symmetry_order
_atom_site_calc_flag
_atom_site_refinement_flags_posn
_atom_site_refinement_flags_adp
C1 C 0.7143(6) 0.45790(14) 0.8640(2) 0.0213(5) Uani 1 1 d . .
H1 H 0.860693 0.492992 0.876956 0.026 Uiso 1 1 calc R U
C2 C 0.5985(6) 0.44129(14) 0.7538(2) 0.0215(5) Uani 1 1 d . .
H2 H 0.667042 0.466671 0.693494 0.026 Uiso 1 1 calc R U
C3 C 0.3062(6) 0.35625(14) 0.8165(2) 0.0187(5) Uani 1 1 d . .
C4 C 0.1003(6) 0.30210(15) 0.7964(2) 0.0232(6) Uani 1 1 d . .
H4 H 0.028547 0.290434 0.720922 0.028 Uiso 1 1 calc R U
C5 C 0.0027(7) 0.26627(16) 0.8834(3) 0.0278(6) Uani 1 1 d . .
H5 H -0.136066 0.229913 0.868116 0.033 Uiso 1 1 calc R U
C6 C 0.1063(7) 0.28273(16) 0.9961(3) 0.0279(6) Uani 1 1 d . .
H6 H 0.036517 0.257241 1.056020 0.033 Uiso 1 1 calc R U
C7 C 0.3067(7) 0.33512(15) 1.0204(2) 0.0245(6) Uani 1 1 d . .
H7 H 0.373568 0.346589 1.096344 0.029 Uiso 1 1 calc R U
C8 C 0.4105(6) 0.37136(14) 0.9302(2) 0.0192(5) Uani 1 1 d . .
N1 N 0.6184(5) 0.42429(12) 0.95077(19) 0.0198(4) Uani 1 1 d . .
N2 N 0.3998(5) 0.39252(11) 0.72855(18) 0.0173(4) Uani 1 1 d . .
O1 O 0.7142(5) 0.43952(11) 1.05323(16) 0.0272(5) Uani 1 1 d . .
I1 I 0.14344(4) 0.39324(2) 0.51704(2) 0.01932(5) Uani 1 1 d . .
I2 I -0.10768(4) 0.40036(2) 0.29840(2) 0.02279(5) Uani 1 1 d . .
loop_
_atom_site_aniso_label
_atom_site_aniso_U_11
_atom_site_aniso_U_22
_atom_site_aniso_U_33
_atom_site_aniso_U_23
_atom_site_aniso_U_13
_atom_site_aniso_U_12
C1 0.0237(14) 0.0198(14) 0.0203(12) -0.0006(10) 0.0018(10) -0.0024(10)
C2 0.0238(14) 0.0225(14) 0.0181(12) 0.0031(10) 0.0011(10) 0.0014(11)
C3 0.0170(12) 0.0195(13) 0.0196(12) 0.0000(10) 0.0008(10) 0.0032(10)
C4 0.0250(14) 0.0219(14) 0.0220(12) -0.0035(11) -0.0014(11) -0.0017(11)
C5 0.0271(15) 0.0222(15) 0.0336(15) 0.0015(12) -0.0001(12) -0.0030(12)
C6 0.0293(16) 0.0280(16) 0.0266(14) 0.0073(12) 0.0039(12) -0.0006(12)
C7 0.0264(15) 0.0257(15) 0.0208(12) 0.0044(11) 0.0000(11) 0.0004(11)
C8 0.0180(12) 0.0180(13) 0.0213(12) -0.0001(10) 0.0014(10) 0.0029(10)
N1 0.0224(11) 0.0188(11) 0.0173(10) -0.0019(9) -0.0026(9) 0.0026(9)
N2 0.0177(10) 0.0201(11) 0.0136(9) -0.0003(8) -0.0009(8) 0.0003(8)
O1 0.0344(12) 0.0308(12) 0.0148(8) -0.0031(8) -0.0055(8) -0.0040(9)
I1 0.02063(9) 0.02144(9) 0.01565(8) -0.00052(6) 0.00064(6) 0.00140(6)
I2 0.02329(9) 0.02788(10) 0.01634(8) 0.00222(7) -0.00221(6) -0.00271(7)
loop_
_atom_type_symbol
_atom_type_description
_atom_type_scat_dispersion_real
_atom_type_scat_dispersion_imag
_atom_type_scat_source
C C 0.0033 0.0016 'International Tables Vol C Tables 4.2.6.8 and 6.1.1.4'
H H 0.0000 0.0000 'International Tables Vol C Tables 4.2.6.8 and 6.1.1.4'
N N 0.0061 0.0033 'International Tables Vol C Tables 4.2.6.8 and 6.1.1.4'
O O 0.0106 0.0060 'International Tables Vol C Tables 4.2.6.8 and 6.1.1.4'
I I -0.4742 1.8119 'International Tables Vol C Tables 4.2.6.8 and 6.1.1.4'
loop_
_geom_angle_atom_site_label_1
_geom_angle_atom_site_label_2
_geom_angle_atom_site_label_3
_geom_angle
N1 C1 C2 119.7(3)
N1 C1 H1 120.1
C2 C1 H1 120.1
N2 C2 C1 123.9(3)
N2 C2 H2 118.1
C1 C2 H2 118.1
N2 C3 C4 120.5(2)
N2 C3 C8 121.8(2)
C4 C3 C8 117.6(2)
C5 C4 C3 121.0(3)
C5 C4 H4 119.5
C3 C4 H4 119.5
C4 C5 C6 120.5(3)
C4 C5 H5 119.8
C6 C5 H5 119.8
C7 C6 C5 120.9(3)
C7 C6 H6 119.6
C5 C6 H6 119.6
C6 C7 C8 118.5(3)
C6 C7 H7 120.8
C8 C7 H7 120.8
N1 C8 C7 120.5(2)
N1 C8 C3 118.0(2)
C7 C8 C3 121.5(3)
O1 N1 C1 121.3(2)
O1 N1 C8 119.2(2)
C1 N1 C8 119.5(2)
C2 N2 C3 117.1(2)
loop_
_geom_bond_atom_site_label_1
_geom_bond_atom_site_label_2
_geom_bond_distance
C1 N1 1.333(3)
C1 C2 1.398(4)
C1 H1 0.9500
C2 N2 1.317(4)
C2 H2 0.9500
C3 N2 1.367(3)
C3 C4 1.409(4)
C3 C8 1.416(4)
C4 C5 1.360(4)
C4 H4 0.9500
C5 C6 1.411(4)
C5 H5 0.9500
C6 C7 1.374(4)
C6 H6 0.9500
C7 C8 1.405(4)
C7 H7 0.9500
C8 N1 1.397(4)
N1 O1 1.285(3)
I1 I2 2.7262(3)
loop_
_geom_torsion_atom_site_label_1
_geom_torsion_atom_site_label_2
_geom_torsion_atom_site_label_3
_geom_torsion_atom_site_label_4
_geom_torsion
N1 C1 C2 N2 -1.4(4)
N2 C3 C4 C5 -179.1(3)
C8 C3 C4 C5 0.8(4)
C3 C4 C5 C6 0.0(5)
C4 C5 C6 C7 0.1(5)
C5 C6 C7 C8 -1.0(5)
C6 C7 C8 N1 -178.9(3)
C6 C7 C8 C3 1.9(4)
N2 C3 C8 N1 -1.0(4)
C4 C3 C8 N1 179.0(2)
N2 C3 C8 C7 178.2(3)
C4 C3 C8 C7 -1.8(4)
C2 C1 N1 O1 -178.1(3)
C2 C1 N1 C8 2.1(4)
C7 C8 N1 O1 0.1(4)
C3 C8 N1 O1 179.3(2)
C7 C8 N1 C1 179.9(3)
C3 C8 N1 C1 -0.9(4)
C1 C2 N2 C3 -0.6(4)
C4 C3 N2 C2 -178.3(3)
C8 C3 N2 C2 1.7(4)
