#------------------------------------------------------------------------------
#$Date: 2019-11-12 01:12:24 +0200 (Tue, 12 Nov 2019) $
#$Revision: 227474 $
#$URL: file:///home/coder/svn-repositories/cod/cif/1/55/28/1552841.cif $
#------------------------------------------------------------------------------
#
# This file is available in the Crystallography Open Database (COD),
# http://www.crystallography.net/
#
# All data on this site have been placed in the public domain by the
# contributors.
#
data_1552841
loop_
_publ_author_name
'Chen, Jianhua'
'Wang, Lei'
'Yang, Jie'
'Yang, Kun'
'Uddin, Mohammad Afsar'
'Tang, Yumin'
'Zhou, Xin'
'Liao, Qiaogan'
'Yu, Jianwei'
'Liu, Bin'
'Woo, Han Young'
'Guo, Xugang'
_publ_section_title
;
 Backbone Conformation Tuning of Carboxylate-Functionalized Wide Band Gap
 Polymers for Efficient Non-Fullerene Organic Solar Cells
;
_journal_issue                   1
_journal_name_full               Macromolecules
_journal_page_first              341
_journal_paper_doi               10.1021/acs.macromol.8b02360
_journal_volume                  52
_journal_year                    2018
_chemical_absolute_configuration ad
_chemical_formula_moiety         'C16 H12 O4 S3'
_chemical_formula_sum            'C16 H12 O4 S3'
_chemical_formula_weight         364.44
_space_group_crystal_system      monoclinic
_space_group_IT_number           5
_space_group_name_Hall           'C 2y'
_space_group_name_H-M_alt        'C 1 2 1'
_atom_sites_solution_hydrogens   geom
_atom_sites_solution_primary     dual
_audit_creation_date             2017-09-14
_audit_creation_method
;
Olex2 1.2
(compiled 2017.08.10 svn.r3458 for OlexSys, GUI svn.r5381)
;
_cell_angle_alpha                90
_cell_angle_beta                 124.152(5)
_cell_angle_gamma                90
_cell_formula_units_Z            2
_cell_length_a                   14.089(2)
_cell_length_b                   6.7932(13)
_cell_length_c                   10.3076(17)
_cell_measurement_reflns_used    7030
_cell_measurement_temperature    100
_cell_measurement_theta_max      24.795
_cell_measurement_theta_min      2.388
_cell_volume                     816.4(2)
_computing_cell_refinement       'SAINT v8.37A (Bruker, 2015)'
_computing_data_reduction        'SAINT v8.37A (Bruker, 2015)'
_computing_molecular_graphics    'Olex2 (Dolomanov et al., 2009)'
_computing_publication_material  'Olex2 (Dolomanov et al., 2009)'
_computing_structure_refinement  'ShelXL (Sheldrick, 2015)'
_computing_structure_solution    'ShelXT (Sheldrick, 2015)'
_diffrn_ambient_temperature      100.0
_diffrn_detector                 'Bruker PHOTO 100 area detector'
_diffrn_detector_area_resol_mean 7.9
_diffrn_detector_type            'CCD area detector'
_diffrn_measured_fraction_theta_full 0.998
_diffrn_measured_fraction_theta_max 0.996
_diffrn_measurement_device       'three-circle diffractometer'
_diffrn_measurement_device_type  'Bruker PHOTO 100 area detector'
_diffrn_measurement_method       '\w and \f scans'
_diffrn_radiation_monochromator  'mirror optics'
_diffrn_radiation_probe          x-ray
_diffrn_radiation_type           MoK\a
_diffrn_radiation_wavelength     0.71073
_diffrn_reflns_av_R_equivalents  0.0302
_diffrn_reflns_av_unetI/netI     0.0277
_diffrn_reflns_Laue_measured_fraction_full 0.998
_diffrn_reflns_Laue_measured_fraction_max 0.996
_diffrn_reflns_limit_h_max       18
_diffrn_reflns_limit_h_min       -15
_diffrn_reflns_limit_k_max       8
_diffrn_reflns_limit_k_min       -8
_diffrn_reflns_limit_l_max       13
_diffrn_reflns_limit_l_min       -13
_diffrn_reflns_number            7271
_diffrn_reflns_point_group_measured_fraction_full 0.999
_diffrn_reflns_point_group_measured_fraction_max 0.992
_diffrn_reflns_theta_full        25.242
_diffrn_reflns_theta_max         27.529
_diffrn_reflns_theta_min         3.471
_diffrn_source                   'microfocus sealed X-ray tube'
_diffrn_source_type              'Incoatec I\ms'
_diffrn_standards_number         0
_exptl_absorpt_coefficient_mu    0.470
_exptl_absorpt_correction_T_max  0.7456
_exptl_absorpt_correction_T_min  0.6861
_exptl_absorpt_correction_type   multi-scan
_exptl_absorpt_process_details
'SADABS-2014/5 (Bruker,2014/5) was used for absorption correction. wR2(int) was 0.1220 before and 0.0561 after correction. The Ratio of minimum to maximum transmission is 0.9202. The \l/2 correction factor is Not present.'
_exptl_crystal_colour            yellow
_exptl_crystal_colour_primary    yellow
_exptl_crystal_density_diffrn    1.483
_exptl_crystal_description       block
_exptl_crystal_F_000             376
_exptl_crystal_size_max          0.4
_exptl_crystal_size_mid          0.4
_exptl_crystal_size_min          0.4
_refine_diff_density_max         0.152
_refine_diff_density_min         -0.307
_refine_diff_density_rms         0.049
_refine_ls_abs_structure_details
;
 Flack x determined using 809 quotients [(I+)-(I-)]/[(I+)+(I-)]
 (Parsons, Flack and Wagner, Acta Cryst. B69 (2013) 249-259).
;
_refine_ls_abs_structure_Flack   0.04(3)
_refine_ls_extinction_method     none
_refine_ls_goodness_of_fit_ref   1.152
_refine_ls_hydrogen_treatment    constr
_refine_ls_matrix_type           full
_refine_ls_number_parameters     106
_refine_ls_number_reflns         1861
_refine_ls_number_restraints     1
_refine_ls_restrained_S_all      1.152
_refine_ls_R_factor_all          0.0231
_refine_ls_R_factor_gt           0.0222
_refine_ls_shift/su_max          0.000
_refine_ls_shift/su_mean         0.000
_refine_ls_structure_factor_coef Fsqd
_refine_ls_weighting_details
'w=1/[\s^2^(Fo^2^)+(0.0273P)^2^+0.1954P] where P=(Fo^2^+2Fc^2^)/3'
_refine_ls_weighting_scheme      calc
_refine_ls_wR_factor_gt          0.0563
_refine_ls_wR_factor_ref         0.0568
_reflns_Friedel_coverage         0.835
_reflns_Friedel_fraction_full    1.000
_reflns_Friedel_fraction_max     0.987
_reflns_number_gt                1810
_reflns_number_total             1861
_reflns_threshold_expression     'I > 2\s(I)'
_cod_data_source_file            ma8b02360_si_004.cif
_cod_data_source_block           mo_cxy0150_0m
_cod_database_code               1552841
_shelx_shelxl_version_number     2016/6
_shelx_space_group_comment
;
The symmetry employed for this shelxl refinement is uniquely defined
by the following loop, which should always be used as a source of
symmetry information in preference to the above space-group names.
They are only intended as comments.
;
_shelx_estimated_absorpt_t_max   0.834
_shelx_estimated_absorpt_t_min   0.834
_olex2_refinement_description
;
1. Fixed Uiso
 At 1.2 times of:
  All C(H) groups
 At 1.5 times of:
  All C(H,H,H) groups
2.a Aromatic/amide H refined with riding coordinates:
 C5(H5), C6(H6), C1(H1)
2.b Idealised Me refined as rotating group:
 C8(H8A,H8B,H8C)
;
_shelx_res_file
;
TITL mo_cxy0150_0m_a.res in C2
    mo_cxy0150_0m.res
    created by SHELXL-2016/6 at 09:08:31 on 14-Sep-2017
REM Old TITL mo_cxy0150_0m in C2
REM SHELXT solution in C2
REM R1 0.090, Rweak 0.028, Alpha 0.003, Orientation as input
REM Flack x = 0.214 ( 0.147 ) from Parsons' quotients
REM Formula found by SHELXT: C16 O4 S3
CELL 0.71073 14.0889 6.7932 10.3076 90 124.152 90
ZERR 2 0.0022 0.0013 0.0017 0 0.005 0
LATT -7
SYMM -X,+Y,-Z
SFAC C H O S
UNIT 32 24 8 6

L.S. 4
PLAN  20
SIZE 0.4 0.4 0.4
TEMP -173.15
BOND $H
list 4
fmap 2
ACTA
OMIT 0 0 1
REM <olex2.extras>
REM <HklSrc "%.\\mo_cxy0150_0m.hkl">
REM </olex2.extras>

WGHT    0.027300    0.195400
FVAR       0.60225
S1    4    0.500000    0.456961    0.500000    10.50000    0.01141    0.01100 =
         0.01877    0.00000    0.00682    0.00000
S2    4    0.196650    0.156880    0.381057    11.00000    0.02422    0.02736 =
         0.02240    0.00250    0.01169   -0.01174
O1    3    0.326363    0.680148    0.227410    11.00000    0.01353    0.02084 =
         0.03489    0.00679    0.01256   -0.00058
O2    3    0.138107    0.743890    0.081786    11.00000    0.01357    0.03592 =
         0.03668    0.01986    0.00756    0.00071
C4    1    0.197617    0.473033    0.246938    11.00000    0.01301    0.02054 =
         0.01221   -0.00290    0.00644   -0.00537
C5    1    0.083410    0.449241    0.207238    11.00000    0.01276    0.03332 =
         0.01624   -0.00228    0.00720   -0.00611
AFIX  43
H5    2    0.022837    0.538835    0.143056    11.00000   -1.20000
AFIX   0
C2    1    0.392893    0.280056    0.416850    11.00000    0.01742    0.01673 =
         0.01465   -0.00135    0.00748   -0.00435
C7    1    0.230245    0.639732    0.188379    11.00000    0.01450    0.01688 =
         0.01423   -0.00240    0.00803   -0.00210
C6    1    0.070810    0.285007    0.271043    11.00000    0.01765    0.03939 =
         0.01971   -0.00324    0.00968   -0.01339
AFIX  43
H6    2    0.000687    0.245870    0.256447    11.00000   -1.20000
AFIX   0
C1    1    0.439281    0.094932    0.453696    11.00000    0.02559    0.01410 =
         0.03095   -0.00137    0.00894   -0.00368
AFIX  43
H1    2    0.394471   -0.021855    0.420452    11.00000   -1.20000
AFIX   0
C3    1    0.270712    0.322595    0.342083    11.00000    0.01552    0.01751 =
         0.01466   -0.00283    0.00807   -0.00698
C8    1    0.158688    0.907123    0.010813    11.00000    0.02541    0.03488 =
         0.04068    0.02340    0.01207    0.00292
AFIX 137
H8A   2    0.196240    0.859180   -0.039345    11.00000   -1.50000
H8B   2    0.208279    1.003778    0.091704    11.00000   -1.50000
H8C   2    0.085506    0.969143   -0.068066    11.00000   -1.50000
AFIX   0
HKLF 4




REM  mo_cxy0150_0m_a.res in C2
REM R1 =  0.0222 for    1810 Fo > 4sig(Fo)  and  0.0231 for all    1861 data
REM    106 parameters refined using      1 restraints

END

WGHT      0.0273      0.1954

REM Highest difference peak  0.152,  deepest hole -0.307,  1-sigma level  0.049
Q1    1   0.1802  1.0060  0.1913  11.00000  0.05    0.15
Q2    1   0.2429  0.4430  0.3281  11.00000  0.05    0.15
Q3    1   0.2537  0.3413  0.5132  11.00000  0.05    0.15
Q4    1   0.3401  0.2187  0.5834  11.00000  0.05    0.14
Q5    1   0.0000  0.4858  0.0000  10.50000  0.05    0.14
Q6    1   0.5000  0.7166  0.5000  10.50000  0.05    0.13
Q7    1   0.2444  0.5343  0.4094  11.00000  0.05    0.13
Q8    1   0.1428  0.4676  0.2348  11.00000  0.05    0.13
Q9    1   0.3789  0.7810  0.2370  11.00000  0.05    0.13
Q10   1   0.2567  0.1472  0.5018  11.00000  0.05    0.13
Q11   1   0.3432  0.3139  0.4056  11.00000  0.05    0.13
Q12   1   0.0768 -0.0479  0.2911  11.00000  0.05    0.13
Q13   1   0.4449 -0.0579  0.5275  11.00000  0.05    0.12
Q14   1   0.0995  0.9983  0.1089  11.00000  0.05    0.12
Q15   1   0.4368 -0.2344  0.4064  11.00000  0.05    0.12
Q16   1   0.0920  1.0278  0.0002  11.00000  0.05    0.12
Q17   1   0.0739  0.0805  0.2069  11.00000  0.05    0.12
Q18   1   0.0709  0.1163  0.1553  11.00000  0.05    0.12
Q19   1   0.4754  0.0023  0.3629  11.00000  0.05    0.12
Q20   1  -0.0194  0.8596 -0.0758  11.00000  0.05    0.12
;
_shelx_res_checksum              64051
_shelx_hkl_file
;
   2   0   0 970.691 36.6763   3
  -4   0   0 2.04429 0.47675   2
   4   0   0 0.98204 0.32415   2
   4   0   0 1.80952 0.64847   3
   4   0   0 1.62534 0.42616   4
  -4   0   0 1.95798 0.47183   4
   6   0   0 199.009 8.25573   2
   6   0   0 218.789 9.33117   3
   6   0   0 201.308 8.67949   4
  -6   0   0 205.738 8.81493   4
  -6   0   0 225.994 8.41225   2
  -8   0   0 156.008 7.32037   4
   8   0   0 152.945 7.07692   4
   8   0   0 152.211 6.40716   2
   8   0   0 177.070 8.05124   3
  10   0   0 300.414 12.5118   4
  10   0   0 285.088 11.3425   2
  12   0   0 33.8526 3.45249   4
  14   0   0 97.5168 6.30168   4
   1  -1   0 66.6900 2.93289   2
   1  -1   0 72.3120 2.94230   3
  -1  -1   0 65.9596 2.84362   4
   1  -1   0 77.6078 2.76121   4
  -1  -1   0 69.8050 2.80535   2
  -1  -1   0 70.4142 3.00429   3
  -1   1   0 67.7515 2.72952   4
   1   1   0 66.7969 2.83678   4
  -1   1   0 68.7504 2.92277   3
   1   1   0 61.9252 2.95166   3
  -1   1   0 62.4179 2.93760   2
   1   1   0 63.5889 2.92412   2
   3  -1   0 216.645 8.74331   2
   3  -1   0 235.409 8.93499   3
  -3  -1   0 228.538 9.02368   3
   3  -1   0 221.480 8.60746   4
  -3  -1   0 216.355 8.34823   2
   3   1   0 216.367 8.38028   2
   3   1   0 218.699 8.76594   4
  -3   1   0 208.503 8.60323   4
  -3   1   0 221.276 8.82272   2
   3   1   0 213.407 8.97686   3
   5  -1   0 1361.33 49.9391   2
  -5  -1   0 1308.24 50.5049   3
   5  -1   0 1354.82 50.3649   3
  -5   1   0 1380.51 50.1033   2
   5   1   0 1216.50 49.4040   2
  -5   1   0 1309.39 49.9733   4
   5   1   0 1316.32 50.5018   3
   5   1   0 1312.57 50.0771   4
   7  -1   0 697.885 27.3651   2
   7  -1   0 700.156 28.1057   3
   7  -1   0 702.297 27.5422   4
  -7  -1   0 691.240 28.3357   3
   7  -1   0 744.397 28.4389   3
   7   1   0 733.785 27.7626   4
  -7   1   0 694.270 27.5790   2
  -7   1   0 732.681 27.7382   4
   7   1   0 716.002 28.3598   3
   9  -1   0 274.550 11.6961   3
   9  -1   0 241.293 10.0672   2
   9  -1   0 251.489 10.5192   4
   9  -1   0 246.783 11.2136   3
  -9   1   0 242.324 10.7286   4
   9   1   0 235.553 11.4042   3
  -9   1   0 250.353 10.4181   2
   9   1   0 229.938 10.5750   4
  11  -1   0 390.704 17.5519   3
  11  -1   0 423.097 16.7239   4
  11  -1   0 390.578 15.8626   2
  11   1   0 404.255 16.8431   4
 -11   1   0 400.217 16.2511   2
  13  -1   0 137.301 8.47082   3
  13  -1   0 121.989 5.69701   2
  13  -1   0 136.900 7.15797   4
  13   1   0 129.286 7.29089   4
  15  -1   0 56.8518 7.11988   4
   0  -2   0 623.709 24.7808   3
   0  -2   0 628.191 24.4856   4
   0  -2   0 644.248 24.7223   2
   0   2   0 682.478 24.8230   2
   0   2   0 646.043 24.4604   4
   0   2   0 646.926 24.7688   3
  -2  -2   0 1298.22 48.5702   2
   2  -2   0 1268.35 48.8255   3
   2  -2   0 1270.56 48.8357   2
  -2  -2   0 1219.66 48.9277   3
   2  -2   0 1363.70 48.4687   4
  -2   2   0 1265.48 48.9262   2
   2   2   0 1254.75 48.6474   4
  -2   2   0 1292.26 48.4320   4
  -2   2   0 1343.02 48.8545   3
   2   2   0 1282.65 48.6172   2
   2   2   0 1310.05 48.9707   3
   4  -2   0 531.842 20.6765   2
  -4  -2   0 512.558 20.1034   2
   4  -2   0 524.352 20.2952   4
  -4  -2   0 522.943 20.9683   3
   4  -2   0 550.504 20.8324   3
  -4   2   0 520.762 20.8184   2
   4   2   0 520.118 20.9731   3
  -4   2   0 524.619 20.3359   4
  -4   2   0 533.328 20.8337   3
   4   2   0 546.718 20.2090   2
   6  -2   0 49.7731 3.21403   3
   6  -2   0 46.9172 2.92731   2
   6  -2   0 51.4144 2.71925   4
  -6  -2   0 50.1575 3.47444   3
  -6   2   0 50.9835 2.81950   4
  -6   2   0 49.6611 3.21564   2
   6   2   0 54.6887 3.52190   3
   6   2   0 49.6329 2.98486   4
   6   2   0 52.3144 2.31751   2
  -8  -2   0 425.381 17.3579   3
   8  -2   0 418.368 16.2177   4
   8  -2   0 403.009 16.2449   2
   8  -2   0 402.847 16.9312   3
   8   2   0 395.330 16.4795   4
   8   2   0 380.582 17.0928   3
  -8   2   0 406.861 16.6339   2
  -8   2   0 393.789 16.3340   4
  10  -2   0 70.2939 5.06320   3
 -10  -2   0 66.6550 5.36884   3
  10  -2   0 72.2073 4.34437   4
  10  -2   0 75.3552 5.51360   3
  10  -2   0 71.9677 4.11279   2
 -10   2   0 68.8422 4.56808   2
  10   2   0 74.7438 4.53389   4
 -10   2   0 65.6898 4.42817   4
  12  -2   0 149.519 7.40654   4
  12  -2   0 147.335 8.65002   3
  12  -2   0 138.091 8.88112   3
  12  -2   0 136.529 6.85368   2
  12   2   0 153.511 7.75319   4
 -12   2   0 142.376 7.93887   4
 -12   2   0 146.274 7.59950   2
  14  -2   0 68.2891 6.97272   3
  14  -2   0 52.8936 4.84477   4
  14   2   0 50.0171 5.22340   4
   1  -3   0 154.189 6.43124   4
  -1  -3   0 155.062 6.70560   2
   1  -3   0 158.156 6.86408   2
  -1  -3   0 146.200 6.51151   4
   1  -3   0 151.704 6.88324   3
  -1  -3   0 158.489 6.99331   3
  -1   3   0 144.258 6.75913   3
  -1   3   0 161.883 6.36104   4
   1   3   0 158.318 6.85970   2
  -1   3   0 158.484 7.00135   2
   1   3   0 160.716 6.95269   3
   1   3   0 162.006 6.52205   4
  -3  -3   0 2205.49 82.9721   2
   3  -3   0 2217.82 82.8216   4
   3  -3   0 2185.83 83.3812   2
  -3  -3   0 2027.80 83.5144   3
   3  -3   0 2297.67 83.4705   3
  -3   3   0 2282.63 82.8018   4
   3   3   0 2248.28 83.1450   4
   3   3   0 2220.05 83.0980   2
  -3   3   0 2120.13 83.3422   3
  -3   3   0 2193.45 83.6067   2
   3   3   0 2240.15 83.6036   3
  -5  -3   0 536.891 20.8405   2
   5  -3   0 542.722 21.5735   2
  -5  -3   0 461.278 21.7286   3
   5  -3   0 580.631 21.0593   4
   5  -3   0 577.966 21.8067   3
   5   3   0 556.815 21.0294   2
  -5   3   0 547.115 21.7635   3
   5   3   0 586.424 22.1004   3
   5   3   0 521.621 21.4217   4
  -5   3   0 524.365 21.8160   2
  -5   3   0 527.068 21.0289   4
  -7  -3   0 260.325 12.6048   3
  -7  -3   0 286.210 11.0587   2
   7  -3   0 303.844 11.7136   4
   7  -3   0 270.641 12.0639   2
   7  -3   0 304.116 12.5417   3
  -7   3   0 280.747 12.5245   2
   7   3   0 287.317 12.2413   4
   7   3   0 290.515 12.1330   4
  -7   3   0 292.285 12.1028   4
   7   3   0 285.973 11.2566   2
   7   3   0 268.397 12.6775   3
  -9  -3   0 72.2475 5.36043   3
   9  -3   0 76.1076 4.54419   2
   9  -3   0 62.0435 6.24248   3
   9  -3   0 73.7327 4.09424   4
   9   3   0 66.7062 5.18558   4
  -9   3   0 73.2987 4.35528   4
  -9   3   0 79.1269 5.09070   2
  11  -3   0 76.1190 4.95365   2
  11  -3   0 77.2326 4.75206   4
  11  -3   0 73.5174 6.04970   3
 -11  -3   0 86.3455 6.70427   3
 -11   3   0 82.9282 5.81474   2
  11   3   0 76.6778 5.20113   4
  13  -3   0 278.741 13.9879   3
  13  -3   0 278.466 12.4306   4
  13  -3   0 276.609 12.2860   2
 -13   3   0 266.852 13.2103   2
  13   3   0 270.691 12.8735   4
   0  -4   0 896.652 33.9222   2
   0  -4   0 825.959 34.0609   3
   0  -4   0 838.239 33.4686   4
   0   4   0 872.915 33.9960   3
   0   4   0 909.277 33.3866   4
   0   4   0 897.694 34.1876   2
  -2  -4   0 521.695 20.3107   4
   2  -4   0 502.146 20.7312   3
  -2  -4   0 517.266 20.9421   3
   2  -4   0 498.879 20.6205   2
   2  -4   0 504.430 20.0543   4
  -2  -4   0 510.984 20.3797   2
   2   4   0 520.489 20.2185   4
  -2   4   0 518.059 20.9674   2
   2   4   0 512.333 20.6083   2
  -2   4   0 510.718 20.6235   3
  -2   4   0 535.788 19.9301   4
   2   4   0 524.929 20.8428   3
  -4  -4   0 155.395 7.50332   3
  -4  -4   0 147.885 6.55552   2
   4  -4   0 148.654 7.84342   2
   4  -4   0 161.353 6.47651   4
   4  -4   0 160.678 7.26151   3
   4   4   0 130.943 7.70771   3
  -4   4   0 136.286 7.31543   2
   4   4   0 146.120 6.77725   2
   4   4   0 133.965 6.69124   4
  -4   4   0 149.214 6.33104   4
  -6  -4   0 624.091 24.3732   2
   6  -4   0 619.405 25.2580   2
   6  -4   0 615.889 25.4352   3
  -6  -4   0 672.546 25.9581   3
   6  -4   0 625.858 24.5471   4
  -6   4   0 647.967 25.8503   2
   6   4   0 626.512 24.6636   2
   6   4   0 609.673 25.7217   3
  -6   4   0 637.393 24.6218   4
  -6   4   0 637.092 25.5442   3
   6   4   0 621.362 25.1116   4
  -8  -4   0 178.971 7.30203   2
   8  -4   0 182.118 8.00379   4
   8  -4   0 174.795 8.61670   2
  -8  -4   0 159.033 9.16364   3
   8  -4   0 182.020 9.08904   3
   8   4   0 180.000 8.72273   4
  -8   4   0 183.989 9.30499   2
  -8   4   0 184.070 8.15364   4
   8   4   0 182.952 7.64771   2
  10  -4   0 237.634 10.7499   2
  10  -4   0 235.821 11.4350   3
 -10  -4   0 203.102 11.6691   3
  10  -4   0 223.164 10.0753   4
  10   4   0 221.972 11.8803   3
  10   4   0 228.476 11.0592   4
  10   4   0 240.215 10.8482   4
  12  -4   0 69.1582 6.66140   3
  12  -4   0 70.2505 5.02823   4
  12  -4   0 74.1216 5.74836   2
 -12  -4   0 71.7354 7.44624   3
  12   4   0 70.6265 5.69160   4
 -12   4   0 72.8154 6.94800   2
   1  -5   0 262.382 12.0223   3
   1  -5   0 263.770 11.7657   2
   1  -5   0 284.567 11.3266   4
  -1  -5   0 271.791 11.7067   2
  -1  -5   0 275.203 12.1512   3
  -1  -5   0 271.879 11.3764   4
  -1   5   0 227.451 10.8542   4
   1   5   0 261.025 11.9962   2
  -1   5   0 258.284 12.1148   2
   1   5   0 289.042 12.0691   3
   1   5   0 296.389 11.2467   4
  -1   5   0 281.038 11.9168   3
  -3  -5   0 62.0625 3.82657   2
  -3  -5   0 64.3060 4.52470   3
   3  -5   0 57.3998 4.24032   3
   3  -5   0 56.0510 4.03623   2
   3  -5   0 55.8894 3.40282   4
   3   5   0 59.4550 4.10283   2
  -3   5   0 60.2763 4.62786   2
  -3   5   0 58.7859 3.18688   4
  -3   5   0 62.0347 4.17960   3
   3   5   0 58.0845 4.29639   3
   5  -5   0 295.950 12.5033   4
   5  -5   0 301.201 13.5050   3
  -5  -5   0 293.822 13.7187   3
   5  -5   0 296.111 13.3491   2
  -5  -5   0 306.885 12.6391   2
   5   5   0 305.148 12.9530   4
   5   5   0 309.317 13.0480   2
  -5   5   0 297.971 13.4163   3
  -5   5   0 294.767 13.9189   2
   5   5   0 326.261 13.8880   3
   7  -5   0 133.645 7.50975   2
  -7  -5   0 138.814 8.12795   3
   7  -5   0 137.713 7.69818   3
   7  -5   0 134.195 6.60950   4
  -7  -5   0 137.160 6.31595   2
  -7   5   0 139.844 6.64138   4
  -7   5   0 143.322 8.38710   2
   7   5   0 143.216 8.11380   3
   7   5   0 155.213 7.41142   4
   7   5   0 140.200 6.89219   2
  -7   5   0 134.441 7.70145   3
   9  -5   0 10.5276 1.78850   4
  -9  -5   0 11.5285 1.68748   2
   9  -5   0 13.3604 2.94242   3
  -9  -5   0 9.15782 2.91914   3
   9  -5   0 9.69790 2.63524   2
  -9   5   0 9.51995 2.15125   4
  -9   5   0 10.1947 3.33085   2
   9   5   0 9.98506 3.09510   3
   9   5   0 15.6064 2.06618   2
   9   5   0 16.5013 3.01118   4
   9   5   0 11.0045 2.33087   4
  11  -5   0 94.2340 7.37085   3
  11  -5   0 91.5043 7.14630   2
 -11  -5   0 78.9785 7.80332   3
  11  -5   0 89.2163 5.69399   4
 -11   5   0 99.5074 6.18234   4
 -11   5   0 93.1891 8.17401   2
  11   5   0 93.5311 6.60274   4
   0  -6   0 680.999 28.2992   2
   0  -6   0 663.196 30.6445   3
   0  -6   0 774.470 27.9721   4
   0   6   0 724.180 28.6042   3
   0   6   0 683.725 28.9348   2
   0   6   0 698.379 27.4449   4
  -2  -6   0 392.528 16.2476   2
   2  -6   0 404.058 18.6611   3
  -2  -6   0 383.819 17.6144   3
  -2  -6   0 376.502 15.9593   4
   2  -6   0 362.317 15.6902   4
  -2   6   0 375.016 16.5116   3
  -2   6   0 382.979 15.3626   4
  -2   6   0 384.574 17.1378   2
   2   6   0 383.484 16.7658   2
   2   6   0 384.132 15.6919   4
   2   6   0 382.087 16.7136   3
  -4  -6   0 230.202 10.6522   2
   4  -6   0 237.840 10.4420   4
   4  -6   0 241.201 11.5617   3
  -4  -6   0 241.390 11.8411   3
   4   6   0 219.598 10.5610   4
   4   6   0 236.718 11.5904   3
  -4   6   0 238.780 10.0758   4
  -4   6   0 255.130 12.1854   2
   4   6   0 238.856 11.2947   2
  -4   6   0 242.294 11.3567   3
  -6  -6   0 48.1929 3.74926   2
   6  -6   0 48.9497 4.93737   3
   6  -6   0 51.7444 4.97125   2
   6  -6   0 51.4826 3.83444   4
  -6  -6   0 51.2001 5.18595   3
   6   6   0 57.0878 5.31180   3
  -6   6   0 54.5920 6.00829   2
  -6   6   0 53.9333 4.79045   3
   6   6   0 54.7106 4.58689   2
  -6   6   0 54.7719 3.64492   4
   8  -6   0 83.8441 5.45107   4
   8  -6   0 97.3645 6.89286   2
   8  -6   0 98.9481 7.09022   3
  -8  -6   0 104.638 7.68289   3
   8   6   0 92.5044 5.97675   2
  -8   6   0 94.1924 7.90989   2
   8   6   0 97.7131 6.31953   4
   8   6   0 95.8095 6.87778   4
  10  -6   0 194.201 9.87139   4
 -10  -6   0 202.405 12.0989   3
  10  -6   0 208.449 11.6516   3
  10   6   0 226.136 10.8673   4
 -10   6   0 199.631 12.4749   2
 -10   6   0 205.979 10.2412   4
   1  -7   0 21.2417 2.75582   4
  -1  -7   0 19.3091 2.67414   4
  -1  -7   0 17.0693 3.35478   3
   1  -7   0 17.7775 3.16552   3
   1  -7   0 17.9880 3.09965   2
  -1   7   0 22.6250 3.90865   2
   1   7   0 23.3810 2.84636   4
  -1   7   0 16.1309 2.66244   3
   1   7   0 20.2072 3.68866   2
  -1   7   0 20.1351 2.60408   4
   1   7   0 17.2299 2.84673   3
   3  -7   0 343.117 14.2307   4
  -3  -7   0 296.326 15.4562   3
   3  -7   0 330.183 15.3673   2
   3  -7   0 328.976 15.6110   3
  -3   7   0 334.979 13.6991   4
  -3   7   0 323.649 15.2222   3
   3   7   0 334.091 15.4268   2
   3   7   0 331.340 15.5376   3
  -3   7   0 345.057 16.2451   2
   3   7   0 328.237 14.1543   4
   5  -7   0 4.03604 2.69344   3
  -5  -7   0 7.06189 3.06207   3
  -5  -7   0 2.94218 2.19504   2
  -5   7   0 2.82896 1.62125   4
   5   7   0 2.89727 2.55307   4
   5   7   0 2.33879 2.71600   2
  -5   7   0 2.29703 3.66879   2
   7  -7   0 103.615 8.18385   3
  -7  -7   0 118.111 6.58636   2
  -7  -7   0 102.922 8.38754   3
   7  -7   0 113.322 6.76132   4
   7   7   0 131.455 8.70584   2
  -7   7   0 114.528 9.48641   2
  -9  -7   0 165.693 14.7401   3
   9  -7   0 170.697 9.10267   4
   9  -7   0 159.583 10.7682   3
   9   7   0 166.203 9.69130   4
  -9   7   0 188.106 9.69711   4
  -9   7   0 151.593 12.2746   2
   0  -8   0 37.1560 4.78462   4
   0  -8   0 35.3753 5.06580   3
   0   8   0 33.8142 4.92173   2
   2  -8   0 115.835 9.09218   3
   2  -8   0 126.582 7.71073   4
  -2  -8   0 138.426 9.65652   3
   2   8   0 138.419 9.64408   2
  -2   8   0 138.116 10.0737   2
   2   8   0 147.581 7.40487   4
  -4  -8   0 51.7480 6.08589   2
  -4  -8   0 39.6315 6.53232   3
   4  -8   0 43.1473 5.24804   4
   4  -8   0 39.1450 6.36364   3
   4   8   0 32.3443 4.96306   2
  -4   8   0 40.0203 6.60436   2
   4   8   0 52.7995 5.33042   4
  -6  -8   0 21.7691 3.82860   2
  -6  -8   0 24.2135 5.14837   3
   6  -8   0 21.4497 3.56048   4
   6  -8   0 17.5635 4.59899   3
   6   8   0 19.4976 4.63318   2
  -6   8   0 15.9616 2.82826   4
  14   0  -1 102.740 6.29810   4
  12   0  -1 -0.2775 0.86846   2
  12   0  -1 0.58416 0.67742   2
  12   0  -1 -0.7934 1.27392   4
  10   0  -1 626.573 24.6544   4
  10   0  -1 618.556 24.0134   2
   8   0  -1 70.6888 3.70612   4
   8   0  -1 71.0400 4.35228   3
   8   0  -1 69.4705 3.42910   2
   6   0  -1 490.953 18.4177   4
   6   0  -1 460.822 18.2497   2
   6   0  -1 462.886 18.8571   3
   4   0  -1 1440.59 52.1767   2
   4   0  -1 1371.17 52.4430   3
   4   0  -1 1342.40 52.1381   4
   0   0  -1 -0.1413 0.09163   2
   2   0   1 1392.64 53.0686   4
  -2   0  -1 1358.42 53.0755   4
  -2   0  -1 1461.15 53.3306   3
   2   0   1 1435.93 53.3162   3
  -4   0  -1 526.112 20.6862   4
  -4   0  -1 546.542 20.6150   2
   4   0   1 509.559 20.1371   2
   4   0   1 533.943 20.6228   4
   4   0   1 555.426 21.0977   3
   6   0   1 200.482 9.67136   3
  -6   0  -1 238.672 8.65093   2
  -6   0  -1 216.508 9.28851   4
   6   0   1 214.743 8.43195   2
   6   0   1 220.984 9.16484   4
   8   0   1 325.240 13.5024   3
  -8   0  -1 293.406 12.7237   4
   8   0   1 292.370 11.4115   2
   8   0   1 289.688 12.4630   4
  10   0   1 231.844 11.6557   3
  12   0   1 2.58666 4.81460   3
  12   0   1 -0.4624 1.67891   4
  14   0   1 15.0534 3.61539   3
  14   0   1 7.04481 2.50699   4
  15  -1  -1 122.824 7.11918   4
  15  -1  -1 116.505 8.63748   3
  15   1  -1 115.506 7.28242   4
  13  -1  -1 28.4134 4.38164   3
  13  -1  -1 23.2504 3.16648   4
  13  -1  -1 27.5310 2.63417   2
  13  -1  -1 32.0227 5.01042   3
  13   1  -1 29.5449 3.42586   4
  13   1  -1 19.0746 3.41060   3
  11  -1  -1 115.246 6.68972   3
  11  -1  -1 120.751 5.95946   4
  11  -1  -1 117.520 5.59823   2
  11   1  -1 120.469 4.85843   2
  11   1  -1 121.248 6.13933   4
  11   1  -1 108.026 4.77823   2
 -11   1   1 122.236 6.30826   4
   9  -1  -1 376.257 15.2756   2
   9  -1  -1 404.811 16.4759   3
   9  -1  -1 393.060 15.4088   4
   9  -1  -1 384.472 16.0830   3
   9   1  -1 390.370 14.5924   2
   9   1  -1 371.138 16.2716   3
   9   1  -1 361.620 14.7590   2
  -9   1   1 364.117 15.4316   2
   9   1  -1 373.062 15.5708   4
  -9   1   1 388.642 15.6383   4
   7  -1  -1 32.6673 2.04086   4
  -7  -1   1 28.3783 2.58774   3
   7  -1  -1 32.7243 2.48260   3
   7  -1  -1 34.4003 2.21070   2
   7   1  -1 28.2256 1.79484   2
  -7   1   1 33.8479 2.33156   2
   7   1  -1 32.0603 1.59997   2
   7   1  -1 32.6208 2.22010   4
   7   1  -1 32.0438 2.63105   3
  -7   1   1 32.0828 2.14333   4
   5  -1  -1 887.700 34.2465   2
  -5  -1   1 896.464 34.5166   3
   5  -1  -1 874.964 33.9549   4
   5  -1  -1 929.916 34.4422   3
   5   1  -1 947.492 34.5564   3
   5   1  -1 881.658 34.2118   4
  -5   1   1 881.799 34.3013   2
   5   1  -1 869.232 33.7358   2
  -5   1   1 894.198 34.0319   4
   3  -1  -1 1583.90 61.6876   3
   3  -1  -1 1620.67 61.7531   2
  -3  -1   1 1609.54 61.7152   3
   3   1  -1 1765.43 61.7671   3
  -3   1   1 1655.78 61.7895   2
   3   1  -1 1625.35 61.6188   4
  -3   1   1 1604.75 61.6979   3
  -1  -1   1 1047.08 38.9096   4
  -1  -1   1 1033.03 38.9278   2
   1  -1  -1 971.421 38.9631   3
   1  -1  -1 1025.50 39.0633   2
  -1   1   1 1086.04 38.9950   3
   1   1  -1 1019.70 38.8789   3
  -1   1   1 998.511 39.0626   2
   1   1  -1 1070.26 38.9014   4
   1   1  -1 1056.54 38.9486   2
  -1  -1  -1 315.958 12.5190   2
   1  -1   1 327.890 12.6768   3
   1  -1   1 327.385 12.6666   2
   1  -1   1 314.410 12.5588   4
  -1  -1  -1 344.729 12.8772   3
   1   1   1 303.449 12.7916   3
  -1   1  -1 339.551 12.6922   3
   1   1   1 334.310 12.5821   4
  -1   1  -1 329.884 12.6862   2
  -1   1  -1 341.044 12.5847   4
   3  -1   1 586.116 22.0315   2
  -3  -1  -1 570.898 22.4721   3
  -3  -1  -1 577.880 22.1831   4
   3  -1   1 589.902 22.3278   3
   3  -1   1 571.010 22.0451   4
   3   1   1 523.268 22.3934   3
  -3   1  -1 597.492 22.1016   4
  -3   1  -1 581.947 22.1058   2
   3   1   1 586.237 22.1362   4
  -5  -1  -1 1034.87 39.3595   4
  -5  -1  -1 1031.62 39.7845   3
   5  -1   1 1011.76 38.9153   2
   5  -1   1 1019.96 39.1219   4
   5   1   1 1014.47 39.7492   3
  -5   1  -1 1049.98 39.1292   2
   5   1   1 1030.42 39.2341   4
  -5   1  -1 1021.05 39.2030   4
   7  -1   1 36.3453 2.05784   2
  -7  -1  -1 31.2743 3.04629   3
   7  -1   1 22.2727 3.86599   3
   7  -1   1 34.5442 2.37782   4
   7   1   1 36.6819 2.50013   4
   7   1   1 31.9039 2.98875   3
  -7   1  -1 35.1405 2.35465   2
  -7   1  -1 35.1425 2.62703   4
   9  -1   1 579.882 23.0075   2
   9  -1   1 584.991 24.4795   3
   9  -1   1 566.909 23.6699   4
   9  -1   1 622.115 24.9209   3
  -9   1  -1 577.099 23.3483   2
   9   1   1 670.889 25.1858   3
  -9   1  -1 606.369 24.0660   4
   9   1   1 575.512 24.1394   4
  11  -1   1 140.767 8.57198   3
  11  -1   1 148.908 7.38393   4
  11  -1   1 146.894 6.12974   2
  11  -1   1 143.771 8.25396   3
  11   1   1 154.574 8.81809   3
 -11   1  -1 145.946 6.60390   2
 -11   1  -1 131.836 7.70108   4
  11   1   1 142.847 7.43138   4
  13  -1   1 45.4905 4.47825   4
  13  -1   1 42.4745 5.87205   3
  13   1   1 43.9267 4.47506   4
  14  -2  -1 25.6405 4.15669   3
  14  -2  -1 30.0240 3.62329   2
  14  -2  -1 30.0630 3.80992   4
  14   2  -1 32.2734 3.94129   4
  12  -2  -1 44.2705 4.12144   2
  12  -2  -1 46.8803 3.59039   4
  12  -2  -1 47.5167 4.70018   3
 -12   2   1 42.0252 4.05181   2
  12   2  -1 44.5776 4.03933   4
  10  -2  -1 132.268 6.24807   4
 -10  -2   1 142.888 7.62193   3
  10  -2  -1 136.438 7.18062   3
  10  -2  -1 134.893 6.41968   2
  10   2  -1 133.765 6.68265   4
 -10   2   1 131.225 6.73697   2
  10   2  -1 129.763 5.50447   2
 -10   2   1 136.933 6.55164   4
  10   2  -1 119.137 7.27107   3
  10   2  -1 120.388 5.28689   2
   8  -2  -1 455.945 18.5554   3
  -8  -2   1 461.855 18.8328   3
   8  -2  -1 447.848 17.7517   4
   8  -2  -1 439.907 18.0828   2
  -8   2   1 441.648 18.3693   2
   8   2  -1 454.925 18.7597   3
  -8   2   1 456.620 17.9501   4
   8   2  -1 445.456 17.2634   2
   8   2  -1 445.567 18.1786   4
  -6  -2   1 129.043 6.28807   3
   6  -2  -1 130.776 5.52166   4
  -6  -2   1 127.324 5.27494   2
   6  -2  -1 127.286 6.12965   3
   6  -2  -1 123.179 5.96525   2
  -6   2   1 129.205 5.60289   4
   6   2  -1 143.283 6.38749   3
   6   2  -1 129.320 5.98145   4
   6   2  -1 126.726 5.37602   2
  -6   2   1 130.981 6.19918   2
  -4  -2   1 315.279 12.9564   3
   4  -2  -1 318.932 12.9214   2
   4  -2  -1 314.239 12.8729   3
   4  -2  -1 320.241 12.3072   4
  -4  -2   1 320.114 12.8843   2
   4   2  -1 315.919 12.7325   4
  -4   2   1 321.500 13.0498   2
  -4   2   1 311.959 12.3306   4
   4   2  -1 329.388 12.4835   2
  -4   2   1 328.918 12.9295   3
   4   2  -1 307.681 12.9333   3
   2  -2  -1 214.761 9.40773   3
   2  -2  -1 234.546 9.54496   2
   2  -2  -1 209.421 8.92861   4
  -2  -2   1 232.708 9.45856   3
  -2  -2   1 238.608 9.29187   2
  -2  -2   1 237.780 9.31980   4
  -2   2   1 233.031 9.61493   2
  -2   2   1 233.323 8.92358   4
  -2   2   1 257.951 9.49981   3
   2   2  -1 226.775 9.29802   2
   2   2  -1 239.441 9.29556   4
   0  -2  -1 282.134 11.6118   3
   0  -2  -1 291.473 11.4970   2
   0  -2   1 300.104 11.4869   3
   0  -2   1 288.867 11.4931   2
   0  -2   1 294.369 11.3230   4
   0  -2  -1 285.055 11.1960   4
   0   2  -1 299.153 11.4426   3
   0   2   1 289.246 11.5622   2
   0   2  -1 297.468 11.2698   4
   0   2   1 297.600 11.6269   3
   0   2  -1 279.905 11.5158   2
   0   2   1 269.145 11.1570   4
  -2  -2  -1 681.321 27.0382   3
   2  -2   1 712.266 26.8185   3
   2  -2   1 716.090 26.7928   2
   2  -2   1 678.877 26.5033   4
  -2  -2  -1 710.513 26.4793   2
  -2   2  -1 689.302 26.7993   3
   2   2   1 711.578 26.5775   2
  -2   2  -1 679.092 26.8473   2
  -2   2  -1 719.102 26.5305   4
   2   2   1 664.147 27.0004   3
   4  -2   1 516.940 19.7318   4
  -4  -2  -1 489.466 20.3752   3
   4  -2   1 516.533 19.9111   2
   4  -2   1 550.877 20.2463   3
  -4  -2  -1 492.349 19.2658   2
   4   2   1 508.403 19.9053   4
  -4   2  -1 517.920 19.7862   4
   4   2   1 491.839 19.3819   2
  -4   2  -1 499.148 20.0704   2
   4   2   1 507.573 20.4279   3
   6  -2   1 393.446 16.1439   3
   6  -2   1 395.664 15.5671   4
  -6  -2  -1 393.938 16.4914   3
   6  -2   1 385.469 15.5707   2
  -6   2  -1 395.007 15.9060   2
   6   2   1 392.659 15.7800   4
  -6   2  -1 376.045 15.6311   4
  -8  -2  -1 831.789 34.4853   3
   8  -2   1 884.544 34.2200   3
   8  -2   1 844.823 33.2292   2
   8  -2   1 882.300 33.4352   4
   8   2   1 899.222 34.6411   3
   8   2   1 865.589 33.6592   4
  -8   2  -1 860.451 33.6249   4
  -8   2  -1 820.610 33.6228   2
  10  -2   1 133.378 6.85792   4
  10  -2   1 145.051 7.92538   3
  10  -2   1 137.016 6.51075   2
 -10   2  -1 146.087 7.16162   2
  10   2   1 140.333 7.19803   4
  12  -2   1 81.6871 4.71076   2
  12  -2   1 87.3225 5.53911   4
  12  -2   1 88.8131 7.13826   3
 -12   2  -1 84.2942 5.65939   2
  12   2   1 101.884 5.94389   4
  13  -3  -1 39.8896 4.30545   2
  13  -3  -1 43.9903 3.89105   4
  13  -3  -1 38.3088 5.18518   3
 -13   3   1 39.5891 4.92714   4
 -13   3   1 40.0629 5.38436   2
  13   3  -1 37.5866 4.42157   4
  11  -3  -1 222.306 11.4721   3
 -11  -3   1 238.275 11.9943   3
  11  -3  -1 250.838 10.8924   2
  11   3  -1 248.225 11.1103   4
 -11   3   1 242.165 10.7841   4
  11   3  -1 206.884 11.6752   3
 -11   3   1 251.686 11.5138   2
   9  -3  -1 221.387 10.8724   3
   9  -3  -1 242.749 10.6198   2
  -9  -3   1 216.886 11.1344   3
   9  -3  -1 245.437 10.0232   4
   9   3  -1 263.942 11.5110   3
   9   3  -1 236.318 10.7680   4
  -9   3   1 240.462 10.2150   4
   9   3  -1 230.762 10.5680   4
   9   3  -1 236.110 9.53875   2
  -9   3   1 236.699 11.0569   2
  -7  -3   1 738.488 31.0489   3
  -7  -3   1 791.520 29.8038   2
   7  -3  -1 836.072 30.8708   2
   7  -3  -1 765.143 30.0139   4
   7  -3  -1 705.378 30.7776   3
   7   3  -1 790.265 29.9796   2
  -7   3   1 782.773 30.1458   4
   7   3  -1 782.566 31.1836   3
  -7   3   1 795.674 31.0249   3
   7   3  -1 831.872 30.7972   4
  -7   3   1 787.668 31.1422   2
   5  -3  -1 110.915 4.58671   4
   5  -3  -1 101.770 5.26492   3
  -5  -3   1 116.562 5.56451   3
   5  -3  -1 110.686 5.38584   2
  -5  -3   1 100.479 4.64644   2
   5   3  -1 108.182 5.51545   3
  -5   3   1 100.475 5.51618   2
  -5   3   1 104.370 4.59255   4
  -5   3   1 103.917 5.31637   3
   5   3  -1 99.8865 5.06258   4
   5   3  -1 102.485 4.78685   2
   3  -3  -1 921.186 32.8069   4
  -3  -3   1 830.804 33.2061   4
  -3  -3   1 859.804 33.1296   2
   3  -3  -1 819.859 33.4435   3
   3  -3  -1 912.867 33.5910   2
  -3  -3   1 903.455 33.5956   3
  -3   3   1 842.606 32.7017   4
   3   3  -1 878.709 33.5179   3
  -3   3   1 893.557 33.4877   3
   3   3  -1 866.162 33.2219   2
   3   3  -1 826.163 33.1500   4
  -3   3   1 826.338 33.6614   2
  -1  -3   1 463.308 17.2667   4
   1  -3  -1 437.794 16.9679   4
  -1  -3   1 459.341 17.5537   3
   1  -3  -1 449.009 17.6341   3
  -1  -3   1 438.893 17.3930   2
   1  -3  -1 449.667 17.5312   2
   1   3  -1 446.765 17.4456   3
  -1   3   1 404.938 17.5674   2
   1   3  -1 405.360 17.0814   4
   1   3  -1 426.079 17.4591   2
  -1   3   1 449.959 16.8929   4
  -1   3   1 452.970 17.5536   3
  -1  -3  -1 60.5906 3.53301   3
  -1  -3  -1 57.6019 3.14203   2
   1  -3   1 55.9259 3.26535   2
   1  -3   1 60.7935 3.30409   3
   1  -3   1 61.4540 3.01844   4
  -1   3  -1 58.4361 3.22915   3
   1   3   1 63.8026 3.52451   3
   1   3   1 58.7784 2.96264   4
  -1   3  -1 65.0009 3.51189   2
   1   3   1 63.6246 3.34554   2
  -1   3  -1 67.0754 2.97557   4
   3  -3   1 678.092 26.5243   2
  -3  -3  -1 721.200 27.0230   3
  -3  -3  -1 664.122 26.0511   2
   3  -3   1 705.692 26.1503   4
   3  -3   1 656.330 26.5477   3
  -3   3  -1 666.551 26.7308   2
   3   3   1 679.891 26.2470   2
   3   3   1 695.157 26.9220   3
  -3   3  -1 654.762 26.5543   3
  -3   3  -1 695.705 26.1241   4
   3   3   1 656.455 26.3053   4
  -5  -3  -1 46.0648 2.28988   2
  -5  -3  -1 37.8996 3.29972   3
   5  -3   1 43.1775 2.65380   4
   5  -3   1 47.4787 3.20909   3
   5  -3   1 45.5797 3.03131   2
   5   3   1 47.8475 2.95912   4
   5   3   1 41.8880 3.94900   3
  -5   3  -1 54.7125 2.86070   4
  -5   3  -1 46.8908 3.38353   2
   5   3   1 48.1342 2.56427   2
   7  -3   1 53.4532 3.58781   2
   7  -3   1 54.4515 3.99394   3
  -7  -3  -1 45.9801 4.13893   3
   7  -3   1 56.2345 3.33313   4
  -7   3  -1 54.6981 3.45790   4
   7   3   1 59.8811 3.67276   4
  -7   3  -1 56.4980 4.10991   2
   7   3   1 55.6738 4.29889   3
   9  -3   1 109.260 6.39323   3
   9  -3   1 98.5032 5.46060   2
  -9  -3  -1 88.5975 6.61191   3
   9  -3   1 102.748 5.34757   4
  -9   3  -1 102.679 5.68201   4
  -9   3  -1 102.055 6.11507   2
   9   3   1 103.161 5.71536   4
  11  -3   1 35.4233 5.98909   3
  11  -3   1 45.8240 5.11017   3
  11  -3   1 34.6211 3.69134   2
 -11  -3  -1 37.0523 5.93262   3
  11  -3   1 42.1153 3.84221   4
 -11   3  -1 36.2020 4.47156   4
 -11   3  -1 48.5386 4.96369   2
  11   3   1 43.3686 4.33360   4
  13  -3   1 181.230 11.3043   3
  13  -3   1 184.636 9.61368   4
  13   3   1 194.196 10.1374   4
 -13   3  -1 199.470 10.5091   2
  14  -4  -1 19.3667 7.25727   3
  14  -4  -1 27.4264 4.13318   2
  14  -4  -1 22.2576 2.97142   4
  14   4  -1 34.3617 5.90102   4
 -14   4   1 25.8138 5.14496   2
  12  -4  -1 130.922 8.40574   3
  12  -4  -1 136.535 7.86423   2
 -12  -4   1 136.245 9.06576   3
  12  -4  -1 146.228 6.98667   4
  12   4  -1 128.940 7.70717   4
 -12   4   1 131.194 8.66220   2
 -12   4   1 129.179 7.47192   4
  10  -4  -1 109.910 7.08519   3
  10  -4  -1 114.877 5.90262   4
 -10  -4   1 112.973 7.58459   3
  10  -4  -1 119.933 6.83637   2
  10   4  -1 129.062 6.85907   4
  10   4  -1 121.132 5.54194   2
  10   4  -1 125.273 9.67589   4
 -10   4   1 121.216 6.21739   4
  10   4  -1 131.867 7.77041   3
 -10   4   1 131.809 10.7348   2
   8  -4  -1 191.007 8.07563   4
  -8  -4   1 188.172 7.78948   2
  -8  -4   1 197.441 9.54263   3
   8  -4  -1 173.385 9.60432   3
   8  -4  -1 200.064 9.13324   2
   8   4  -1 180.648 8.83218   4
  -8   4   1 180.743 9.16259   3
   8   4  -1 194.022 9.56971   3
  -8   4   1 192.972 9.63151   2
  -8   4   1 168.880 8.20261   4
   8   4  -1 186.131 8.11555   2
   6  -4  -1 103.462 4.65738   4
   6  -4  -1 87.7246 5.40274   3
   6  -4  -1 102.689 5.58657   2
  -6  -4   1 104.322 5.81227   3
  -6  -4   1 99.1654 4.71939   2
   6   4  -1 102.555 5.31851   4
  -6   4   1 100.586 5.58211   3
  -6   4   1 102.770 4.65531   4
   6   4  -1 97.2278 4.97176   2
  -6   4   1 98.1786 5.89865   2
   6   4  -1 99.6806 5.74589   3
   4  -4  -1 381.699 15.1102   4
  -4  -4   1 376.975 16.1182   3
   4  -4  -1 387.448 16.0499   3
  -4  -4   1 384.876 15.6953   4
  -4  -4   1 371.539 15.4529   2
   4   4  -1 401.118 16.1485   3
   4   4  -1 388.139 15.6796   2
  -4   4   1 380.807 16.3495   2
   4   4  -1 386.323 15.6197   4
  -4   4   1 389.981 15.0311   4
  -2  -4   1 31.1006 2.29427   4
  -2  -4   1 27.6805 2.28675   2
   2  -4  -1 27.6580 1.85240   4
   2  -4  -1 24.9322 2.44751   2
   2  -4  -1 24.6915 2.51607   3
  -2  -4   1 26.5792 2.47314   3
  -2   4   1 26.3671 1.65575   4
  -2   4   1 31.0518 2.47458   3
   2   4  -1 29.5846 2.42598   2
   2   4  -1 32.5617 2.13199   4
  -2   4   1 27.1567 2.64497   2
   2   4  -1 28.2036 2.41811   3
   0  -4   1 48.0952 3.08250   2
   0  -4  -1 49.3732 3.03927   2
   0  -4   1 49.0013 2.78379   4
   0  -4   1 50.1922 3.16816   3
   0  -4  -1 46.6961 3.30729   3
   0  -4  -1 47.8323 2.63030   4
   0   4  -1 43.6885 2.52546   4
   0   4   1 39.7817 2.40642   4
   0   4  -1 44.9745 2.96814   3
   0   4   1 43.3094 3.17327   2
   0   4   1 45.1918 3.15694   3
   0   4  -1 42.5207 3.10977   2
   2  -4   1 242.031 10.6037   3
   2  -4   1 235.795 10.5321   2
  -2  -4  -1 243.384 10.8937   3
  -2  -4  -1 243.551 10.2412   2
   2  -4   1 255.694 10.1393   4
   2   4   1 247.128 10.1371   4
  -2   4  -1 253.990 9.97441   4
   2   4   1 245.821 10.5284   2
   2   4   1 226.029 10.7391   3
  -2   4  -1 247.713 10.5399   3
  -2   4  -1 240.238 10.8251   2
   4  -4   1 128.864 6.43621   3
  -4  -4  -1 124.269 5.69806   2
  -4  -4  -1 119.420 6.64179   3
   4  -4   1 136.491 5.85294   4
   4  -4   1 120.111 6.26229   2
  -4   4  -1 115.102 6.53670   2
  -4   4  -1 127.253 6.52027   3
   4   4   1 121.252 6.02352   4
   4   4   1 144.065 6.91974   3
  -4   4  -1 127.721 5.74804   4
   4   4   1 126.088 6.02869   2
   6  -4   1 423.334 16.9385   4
  -6  -4  -1 375.165 17.9723   3
  -6  -4  -1 414.860 16.4277   2
   6  -4   1 444.431 17.8130   3
   6  -4   1 424.698 17.4860   2
   6   4   1 423.844 17.3048   4
   6   4   1 426.221 18.2086   3
   6   4   1 449.570 17.5359   4
  -6   4  -1 424.516 17.7796   3
  -6   4  -1 417.279 16.9763   4
   6   4   1 419.892 16.7569   2
  -6   4  -1 408.096 17.9139   2
   8  -4   1 310.516 13.8028   3
   8  -4   1 302.292 13.2514   2
  -8  -4  -1 285.600 14.1282   3
  -8   4  -1 303.429 12.9484   4
   8   4   1 301.427 13.1638   4
  -8   4  -1 308.384 13.9746   2
 -10  -4  -1 271.080 13.6288   3
  10  -4   1 251.654 11.8421   2
  10  -4   1 265.852 11.5910   4
  10  -4   1 256.337 12.7693   3
  10   4   1 252.701 12.4350   4
  10   4   1 270.018 12.0565   4
 -10   4  -1 252.715 11.8896   4
 -10   4  -1 254.696 12.6707   2
  12  -4   1 46.5963 4.74182   4
 -12  -4  -1 40.7823 6.01138   3
  12  -4   1 45.0195 5.18650   2
  12  -4   1 53.9812 6.52589   3
  12   4   1 42.2496 5.15296   4
 -12   4  -1 45.1751 7.00608   2
 -13  -5   1 14.1636 5.92323   3
  13  -5  -1 20.3662 5.57082   3
  13  -5  -1 14.9274 2.78090   4
 -13   5   1 11.6349 4.97072   2
  13   5  -1 9.47313 3.35796   4
  11  -5  -1 32.1379 3.47392   4
 -11  -5   1 35.6587 5.66625   3
  11  -5  -1 39.7655 5.36115   2
  11  -5  -1 35.7225 5.15554   3
  11   5  -1 31.5097 3.13427   2
 -11   5   1 32.6334 4.74651   2
  11   5  -1 41.0817 4.67313   4
   9  -5  -1 88.8968 4.64267   4
  -9  -5   1 65.4290 5.98816   3
  -9  -5   1 85.1034 4.24374   2
   9  -5  -1 86.6888 6.04283   3
   9  -5  -1 91.3921 5.91506   2
   9   5  -1 86.9785 5.75922   4
   9   5  -1 80.1676 6.44158   3
  -9   5   1 77.9535 6.58313   2
   9   5  -1 82.4887 4.89314   2
   9   5  -1 76.7614 5.43259   4
  -9   5   1 78.1216 4.72139   4
   7  -5  -1 80.7823 5.41419   2
   7  -5  -1 71.1234 5.19704   3
  -7  -5   1 75.4334 4.17432   2
  -7  -5   1 76.4655 5.53431   3
   7  -5  -1 74.0989 4.12815   4
   7   5  -1 81.9995 5.68575   3
  -7   5   1 75.1227 5.22730   3
  -7   5   1 75.1421 4.17995   4
   7   5  -1 79.2684 4.76961   2
   7   5  -1 81.9046 5.03859   4
  -7   5   1 76.5507 5.97918   2
   5  -5  -1 426.586 17.7308   3
   5  -5  -1 387.933 16.4464   4
   5  -5  -1 410.213 17.5449   2
  -5  -5   1 412.534 16.9708   2
  -5  -5   1 422.053 17.8612   3
   5   5  -1 409.395 17.1913   2
  -5   5   1 401.959 17.5292   3
   5   5  -1 437.749 17.8355   3
   5   5  -1 421.047 17.1097   4
  -5   5   1 419.597 18.1519   2
  -5   5   1 411.806 16.3676   4
  -3  -5   1 111.340 5.71715   2
   3  -5  -1 109.197 6.04075   2
   3  -5  -1 105.151 5.16861   4
  -3  -5   1 115.475 5.72989   4
   3  -5  -1 107.654 6.19824   3
  -3  -5   1 110.415 6.25001   3
  -3   5   1 108.430 4.92659   4
   3   5  -1 115.846 6.05803   2
  -3   5   1 111.746 6.01223   3
  -3   5   1 109.812 6.49493   2
   3   5  -1 117.504 6.14819   3
   3   5  -1 109.916 5.52191   4
   1  -5  -1 487.327 19.7126   4
  -1  -5   1 556.981 20.8358   3
  -1  -5   1 501.812 20.3328   2
   1  -5  -1 447.696 20.5640   3
   1  -5  -1 498.748 20.4043   2
  -1  -5   1 483.415 19.9950   4
  -1   5   1 490.472 20.4883   3
  -1   5   1 545.000 19.5557   4
   1   5  -1 519.896 19.8343   4
   1   5  -1 499.263 20.4389   3
  -1   5   1 473.531 20.7328   2
   1   5  -1 500.672 20.6436   2
   1  -5   1 142.143 7.05782   2
   1  -5   1 135.842 7.10923   3
  -1  -5  -1 140.155 7.39602   3
   1  -5   1 132.864 6.52543   4
  -1   5  -1 152.957 7.06488   3
   1   5   1 142.039 7.25462   2
   1   5   1 133.741 6.29454   4
  -1   5  -1 137.506 7.32357   2
  -1   5  -1 137.527 6.24344   4
   1   5   1 152.859 7.34919   3
   3  -5   1 40.4928 3.58835   3
   3  -5   1 45.6951 3.10788   4
  -3  -5  -1 44.2195 3.17995   2
  -3  -5  -1 38.6381 3.78886   3
   3  -5   1 43.5619 3.74580   2
  -3   5  -1 46.0408 2.81063   4
  -3   5  -1 41.6283 3.57152   3
   3   5   1 49.2543 3.98082   3
  -3   5  -1 42.8634 4.05482   2
   3   5   1 48.1898 3.70555   2
   5  -5   1 132.686 7.15640   2
   5  -5   1 139.548 6.50494   4
   5  -5   1 138.772 7.28440   3
  -5  -5  -1 137.532 6.28961   2
  -5  -5  -1 121.303 7.45201   3
  -5   5  -1 137.732 7.22691   3
  -5   5  -1 124.040 9.39126   2
   5   5   1 129.868 6.71912   4
   5   5   1 129.909 6.76300   2
  -5   5  -1 141.504 6.36415   4
  -7  -5  -1 4.64718 1.07856   2
   7  -5   1 2.98544 1.78056   3
   7  -5   1 5.65433 2.20831   2
   7  -5   1 3.89451 2.00014   4
  -7  -5  -1 1.72783 2.07572   3
   7   5   1 0.13414 1.58806   4
   7   5   1 4.35858 1.58159   4
  -7   5  -1 2.28106 1.38872   4
  -7   5  -1 6.57760 2.76524   2
   7   5   1 2.64130 1.53505   2
   9  -5   1 104.829 5.80749   4
   9  -5   1 89.9019 6.47155   2
   9  -5   1 92.3446 6.86443   3
  -9  -5  -1 105.888 7.63206   3
   9   5   1 101.975 6.28977   4
  -9   5  -1 97.5164 6.04937   4
   9   5   1 92.7877 6.74146   4
  -9   5  -1 93.8561 7.63877   2
  11  -5   1 214.848 11.7996   3
 -11  -5  -1 207.551 12.6846   3
  11  -5   1 197.226 10.9113   2
  11  -5   1 211.984 10.1957   4
  11   5   1 207.497 10.6882   4
 -11   5  -1 209.029 12.3216   2
  10  -6  -1 136.952 7.16565   4
  10  -6  -1 135.496 8.74910   3
 -10  -6   1 143.783 9.44800   3
  10   6  -1 136.823 7.44823   2
 -10   6   1 147.619 10.2643   2
  10   6  -1 133.351 8.21138   4
  -8  -6   1 92.5802 7.28266   3
   8  -6  -1 106.889 7.28284   3
  -8  -6   1 106.532 5.60769   2
   8  -6  -1 100.198 5.59003   4
   8  -6  -1 100.432 7.23958   2
  -8   6   1 103.466 7.21485   3
   8   6  -1 107.592 6.77123   4
  -8   6   1 106.948 5.65373   4
  -8   6   1 116.142 8.35803   2
   8   6  -1 103.003 7.57301   3
   8   6  -1 115.628 6.51239   2
  -6  -6   1 4.46390 1.65888   2
   6  -6  -1 2.31874 2.15722   3
  -6  -6   1 1.60921 2.01244   3
   6  -6  -1 3.88264 2.33305   2
   6  -6  -1 2.77469 1.40494   4
   6   6  -1 4.79254 2.35544   3
  -6   6   1 2.58053 1.19305   4
  -6   6   1 2.43285 2.08071   3
   6   6  -1 0.40738 1.90648   4
  -6   6   1 3.77077 2.86317   2
   6   6  -1 6.96474 2.20772   2
  -4  -6   1 108.318 5.72765   2
   4  -6  -1 100.236 5.14286   4
  -4  -6   1 109.990 6.59669   3
   4  -6  -1 97.1959 6.32989   3
  -4   6   1 92.6895 6.08888   3
  -4   6   1 98.1993 6.79085   2
   4   6  -1 98.9005 5.52234   4
  -4   6   1 90.8169 4.65811   4
   4   6  -1 95.6306 6.11603   2
   4   6  -1 84.2875 6.02501   3
   2  -6  -1 123.286 7.31438   3
  -2  -6   1 141.706 6.95659   2
  -2  -6   1 139.553 7.55993   3
   2  -6  -1 132.127 7.12012   2
   2  -6  -1 135.300 6.29731   4
  -2  -6   1 117.756 6.61623   4
  -2   6   1 119.806 5.75768   4
   2   6  -1 135.645 7.17051   3
  -2   6   1 118.208 8.64688   2
   2   6  -1 129.121 7.30071   2
  -2   6   1 121.227 6.96384   3
   2   6  -1 127.428 6.29419   4
   0  -6  -1 337.352 15.7067   3
   0  -6  -1 364.721 15.1010   2
   0  -6  -1 374.634 14.5396   4
   0  -6   1 346.931 14.6843   4
   0  -6   1 326.898 15.3483   3
   0  -6   1 353.969 15.1429   2
   0   6  -1 325.537 17.3029   2
   0   6  -1 303.405 14.1073   4
   0   6   1 372.004 15.7921   2
   0   6   1 371.944 15.5059   3
   0   6   1 343.760 14.1345   4
   0   6  -1 358.768 15.2126   3
  -2  -6  -1 265.532 11.7767   2
   2  -6   1 258.514 11.5129   4
  -2  -6  -1 269.294 12.7146   3
  -2   6  -1 276.455 11.1607   4
   2   6   1 269.653 11.3149   4
  -2   6  -1 250.315 12.0043   3
   2   6   1 264.617 12.4076   2
  -2   6  -1 255.263 12.6779   2
   4  -6   1 27.1319 3.83375   2
  -4  -6  -1 34.7813 4.43800   3
  -4  -6  -1 33.0651 3.22694   2
   4  -6   1 31.0800 3.18661   4
   4  -6   1 38.3991 4.08838   3
  -4   6  -1 29.6334 2.74631   4
   4   6   1 30.7669 3.44603   4
  -4   6  -1 29.3030 4.19045   2
   4   6   1 25.5635 3.92547   2
  -4   6  -1 24.7436 3.59580   3
  -6  -6  -1 391.136 15.8652   2
   6  -6   1 371.335 16.9431   2
   6  -6   1 355.003 17.0599   3
   6  -6   1 402.607 16.1911   4
  -6  -6  -1 380.713 17.7779   3
   6   6   1 402.658 16.5823   2
   6   6   1 381.045 17.6009   3
  -6   6  -1 362.370 17.0550   3
  -6   6  -1 401.198 18.0173   2
   6   6   1 389.107 16.4151   4
   8  -6   1 21.6628 3.85214   3
   8  -6   1 27.8595 3.73641   4
  -8  -6  -1 20.6866 3.89520   3
  -8  -6  -1 23.4454 2.60634   2
  -8   6  -1 31.8722 5.23350   2
   8   6   1 26.1465 3.69679   4
   8   6   1 23.6616 3.05679   2
   8   6   1 24.0995 3.16229   4
  -8   6  -1 25.4551 3.14393   4
  10  -6   1 18.4450 3.01184   4
  10  -6   1 28.4640 4.60421   3
 -10   6  -1 19.3948 5.00989   2
  10   6   1 27.2785 3.96069   4
   9  -7  -1 26.2482 3.30251   4
   9  -7  -1 39.1622 6.46877   3
  -9  -7   1 25.9564 3.23282   2
  -9  -7   1 29.9727 4.83271   3
  -9   7   1 40.1545 6.42588   2
   9   7  -1 35.8173 4.97564   2
  -7  -7   1 194.804 11.1976   3
   7  -7  -1 178.735 10.8020   3
   7  -7  -1 180.628 9.16363   4
  -7   7   1 202.992 12.1658   2
   7   7  -1 192.877 10.3008   2
   7   7  -1 201.678 10.7872   4
  -7   7   1 190.760 8.81350   4
   5  -7  -1 87.4663 5.42314   4
   5  -7  -1 87.7868 7.01149   3
  -5  -7   1 90.2402 6.99351   3
   5   7  -1 89.4695 6.85253   3
   5   7  -1 89.6201 6.81735   2
   5   7  -1 86.8285 5.88046   4
  -5   7   1 88.2301 4.81644   4
  -5   7   1 98.0651 7.93425   2
   3  -7  -1 78.3333 4.87109   4
   3  -7  -1 76.1784 6.31280   3
  -3  -7   1 75.5932 6.34783   3
  -3  -7   1 66.9802 5.24931   4
   3  -7  -1 82.3500 6.13775   2
  -3   7   1 73.2671 4.18976   4
  -3   7   1 83.6174 7.15508   2
   3   7  -1 76.3695 5.91230   3
   3   7  -1 64.0789 6.17296   2
  -3   7   1 66.8641 6.07650   3
   1  -7  -1 164.349 7.66700   4
  -1  -7   1 143.447 8.81581   3
   1  -7  -1 139.473 8.82731   3
  -1  -7   1 162.121 8.45404   2
  -1  -7   1 163.006 9.20780   4
   1  -7  -1 148.491 8.38773   2
  -1   7   1 149.128 9.41533   2
   1   7  -1 151.121 8.48541   3
   1   7  -1 155.358 9.14958   2
  -1   7   1 152.383 7.02398   4
  -1   7   1 134.970 8.36136   3
   1   7  -1 166.726 7.48066   4
   1  -7   1 12.0297 2.93222   2
   1  -7   1 10.2070 2.93055   3
  -1  -7  -1 11.7875 3.19499   3
   1   7   1 7.36666 2.63417   3
  -1   7  -1 11.9913 2.76208   3
  -1   7  -1 10.6939 1.90525   4
  -1   7  -1 11.6285 3.36170   2
   1   7   1 10.0667 1.82082   4
   1   7   1 12.5189 3.39959   2
   3  -7   1 74.7653 5.08232   4
  -3  -7  -1 67.4340 6.31933   3
   3  -7   1 61.8491 6.15213   2
   3  -7   1 65.7375 6.04931   3
   3   7   1 62.1340 6.07172   3
   3   7   1 68.8673 6.14638   2
  -3   7  -1 72.0631 6.86290   2
  -3   7  -1 56.1817 4.25427   4
   3   7   1 68.0596 4.84243   4
  -3   7  -1 66.3679 5.93584   3
  -5  -7  -1 30.8806 4.06480   2
   5  -7   1 29.6877 4.28538   3
   5  -7   1 33.2298 4.17289   4
   5   7   1 19.4066 6.73425   2
  -5   7  -1 28.6249 4.90002   2
   5   7   1 36.1666 4.69152   4
   7  -7   1 117.129 8.70819   3
  -7  -7  -1 119.648 6.69338   2
  -7  -7  -1 111.352 9.07133   3
   7  -7   1 119.265 7.33899   4
   7   7   1 128.628 7.59532   4
  -7   7  -1 134.660 10.1717   2
   7   7   1 130.550 7.98124   2
  -7   7  -1 104.852 6.88409   4
   6  -8  -1 102.126 6.60151   4
  -6  -8   1 104.577 8.67046   3
  -6  -8   1 107.686 10.5123   2
   6  -8  -1 94.1811 8.75378   3
  -6   8   1 83.5195 10.0060   2
   6   8  -1 93.1921 8.38359   2
  -4  -8   1 20.1269 4.38984   3
   4  -8  -1 18.2137 4.21133   3
  -4   8   1 17.8877 4.93719   2
  -4   8   1 18.9188 2.41196   4
   4   8  -1 21.2153 3.20587   4
   4   8  -1 17.5211 4.07715   2
   2  -8  -1 103.419 7.18906   4
  -2  -8   1 91.3031 8.20950   3
  -2  -8   1 105.296 7.04858   4
   2  -8  -1 90.0996 8.11618   3
  -2   8   1 102.168 5.59754   4
  -2   8   1 107.600 9.02281   2
   2   8  -1 98.0234 8.39642   2
   2   8  -1 98.3045 6.04820   4
   0  -8   1 31.5871 4.75686   3
   0  -8   1 34.3145 5.07624   4
   0  -8  -1 40.5605 6.31875   3
   0   8  -1 37.8049 5.82885   2
   0   8   1 46.5897 6.95543   2
   0   8   1 34.2151 3.74987   4
   0   8  -1 44.0545 4.09826   4
   2  -8   1 55.1221 5.62925   4
   2  -8   1 56.5783 6.78161   3
  -2  -8  -1 43.7944 5.87531   3
   2   8   1 60.6551 7.24289   2
  -2   8  -1 54.9873 7.66166   2
  -2   8  -1 46.3921 4.37536   4
   4  -8   1 124.933 7.89422   4
  -4  -8  -1 129.497 7.97533   2
   4  -8   1 121.471 9.16318   3
  -4  -8  -1 112.975 9.33873   3
   4   8   1 122.401 7.68339   4
   4   8   1 131.210 9.69630   2
  -4   8  -1 128.322 10.3287   2
  -4   8  -1 115.629 6.98828   4
  16   0  -2 4.11855 3.12322   3
  16   0  -2 7.30008 2.61219   4
  14   0  -2 400.464 18.1709   3
  14   0  -2 383.477 17.0263   3
  14   0  -2 343.042 14.7046   2
  14   0  -2 361.085 14.4863   2
  14   0  -2 360.746 15.8259   4
  12   0  -2 261.034 10.3421   2
  12   0  -2 255.109 11.4641   4
  12   0  -2 248.152 10.6938   2
  10   0  -2 230.006 9.89196   4
  10   0  -2 224.866 9.70586   2
  10   0  -2 233.604 10.7778   3
   8   0  -2 567.400 22.4161   4
   8   0  -2 567.778 22.4244   2
   8   0  -2 586.490 23.0907   3
   6   0  -2 36.4650 2.19964   2
   6   0  -2 33.1621 1.99691   4
   6   0  -2 36.1543 2.38325   3
   4   0  -2 603.771 22.6656   2
   4   0  -2 572.522 22.3859   4
   2   0  -2 2311.67 89.6050   1
  -2   0   2 2314.89 89.6720   1
   0   0  -2 34.3222 1.62466   4
   0   0  -2 32.9550 1.67953   3
   0   0   2 36.5686 1.62678   4
   0   0   2 36.9959 1.68693   3
   0   0  -2 35.1713 1.63546   2
   0   0   2 35.5875 1.62195   2
  -2   0  -2 250.536 10.2481   3
   2   0   2 251.647 9.97593   4
   2   0   2 248.294 9.69236   2
  -2   0  -2 244.347 9.73933   2
   2   0   2 274.882 10.2980   3
  -2   0  -2 248.086 10.0048   4
  -4   0  -2 577.815 22.1657   2
   4   0   2 580.532 22.0511   2
  -4   0  -2 581.947 22.7201   4
   4   0   2 607.696 23.1455   3
   4   0   2 574.423 22.6153   4
   6   0   2 950.093 37.6664   2
   6   0   2 1021.28 38.6231   4
  -6   0  -2 973.417 38.8984   4
   6   0   2 1090.71 39.4443   3
  -6   0  -2 989.796 37.8875   2
  -8   0  -2 274.449 11.7788   4
   8   0   2 251.177 12.1938   3
   8   0   2 269.810 11.3869   4
  10   0   2 80.6720 8.14018   3
  10   0   2 73.8621 4.72246   4
  12   0   2 165.541 8.66429   4
  15  -1  -2 48.6488 3.91283   2
  15  -1  -2 49.0874 4.45532   4
  15  -1  -2 51.6872 6.22228   3
  15   1  -2 50.8345 4.70530   4
  13  -1  -2 120.335 6.22557   4
  13  -1  -2 115.095 5.94311   2
  13  -1  -2 110.539 7.22260   3
  13   1  -2 120.086 6.51074   4
  13   1  -2 115.650 7.54465   3
  13   1  -2 117.379 5.24500   2
  13   1  -2 113.937 4.98349   2
  11  -1  -2 253.731 12.8602   3
  11  -1  -2 291.955 12.8450   3
  11  -1  -2 296.517 11.9950   4
  11  -1  -2 286.348 11.9988   2
  11   1  -2 291.167 12.2406   4
  11   1  -2 282.673 11.1746   2
  11   1  -2 281.097 13.0655   3
  11   1  -2 275.205 11.5204   2
   9  -1  -2 935.343 37.1133   3
   9  -1  -2 962.711 36.4452   4
   9  -1  -2 941.382 36.6890   2
  -9   1   2 913.826 36.7259   2
   9   1  -2 994.970 36.3876   2
   9   1  -2 915.003 35.9552   2
   9   1  -2 977.457 36.7644   4
   7  -1  -2 165.210 6.96134   4
   7  -1  -2 168.998 7.50604   3
  -7  -1   2 170.263 7.64357   3
   7  -1  -2 179.019 7.47120   2
  -7   1   2 164.883 7.42150   2
  -7   1   2 166.510 7.09753   4
   7   1  -2 166.318 7.59102   3
   7   1  -2 164.626 7.26524   4
   7   1  -2 160.150 6.76647   2
   5  -1  -2 233.958 10.1172   2
  -5  -1   2 253.234 10.1116   3
   5  -1  -2 248.073 9.63108   4
   5  -1  -2 250.154 10.0652   3
   5   1  -2 260.696 10.1245   3
  -5   1   2 247.236 9.69339   4
   5   1  -2 244.475 9.94827   4
  -5   1   2 227.846 10.1130   2
   5   1  -2 249.494 9.67992   2
  -3  -1   2 553.990 21.2137   4
   3  -1  -2 552.178 21.4745   2
  -3  -1   2 527.066 21.1093   3
  -3  -1   2 543.087 21.0994   2
   3  -1  -2 536.070 20.8042   4
   3  -1  -2 553.861 21.2264   3
   3   1  -2 579.819 21.2138   4
   3   1  -2 558.238 21.1292   2
   3   1  -2 560.518 21.1355   3
  -3   1   2 577.229 21.5162   2
  -3   1   2 553.201 21.2304   3
   1  -1  -2 9976.25 369.571   1
  -1  -1   2 9999.99 368.830   1
   1   1  -2 9245.85 368.571   1
  -1  -1  -2 1804.83 68.3366   3
  -1  -1  -2 1872.50 68.0137   2
  -1  -1  -2 1871.58 68.0360   4
   1   1   2 1695.95 68.2832   3
  -3  -1  -2 18.3845 1.80836   3
   3  -1   2 20.9458 1.37542   2
  -3  -1  -2 20.8599 1.05805   2
   3  -1   2 18.6897 1.40957   4
  -3  -1  -2 21.0198 1.56952   4
  -3   1  -2 22.6648 1.53873   4
   3   1   2 22.1417 1.88946   3
   3   1   2 22.9010 1.49861   4
  -3   1  -2 22.7429 1.49512   2
  -5  -1  -2 250.234 10.8175   3
   5  -1   2 244.844 10.6946   3
   5  -1   2 240.689 9.78379   2
   5  -1   2 240.318 10.1139   4
  -5  -1  -2 236.788 10.3050   4
  -5   1  -2 246.938 10.2369   4
  -5   1  -2 232.523 9.94190   2
   5   1   2 254.153 10.2092   4
   5   1   2 260.954 10.8748   3
   7  -1   2 83.6496 4.56185   4
  -7  -1  -2 89.7052 4.97099   4
   7  -1   2 86.0469 5.37131   3
   7  -1   2 90.3053 4.05314   2
  -7   1  -2 90.4855 4.84587   4
   7   1   2 99.7284 5.59616   3
   7   1   2 91.4229 4.72680   4
  -7   1  -2 84.5963 4.36259   2
   9  -1   2 3.52100 1.47324   4
   9  -1   2 5.37590 1.81294   3
   9  -1   2 3.50945 0.85593   2
   9  -1   2 5.64027 2.09858   3
  -9   1  -2 4.28265 1.31610   2
   9   1   2 2.46784 2.14055   3
   9   1   2 4.84408 1.65371   4
  11  -1   2 131.196 6.92103   4
  11  -1   2 124.722 5.07451   2
  11  -1   2 135.241 8.14848   3
  11  -1   2 112.751 8.23453   3
  11   1   2 125.762 6.96397   4
  11   1   2 120.208 9.87963   3
  13  -1   2 40.0334 4.88178   4
  13  -1   2 46.9419 6.70396   3
  13   1   2 48.3841 5.18593   4
  16  -2  -2 63.9227 5.42977   4
  14  -2  -2 61.4437 4.68698   4
  14  -2  -2 70.8048 4.94237   2
  14  -2  -2 74.7134 6.33852   3
  14   2  -2 68.2832 5.24857   4
  12  -2  -2 679.909 27.8444   4
  12  -2  -2 712.886 28.4814   3
  12  -2  -2 684.905 27.5019   2
  12   2  -2 668.735 26.3248   2
 -12   2   2 697.646 27.6634   4
  12   2  -2 667.529 26.5063   2
  12   2  -2 736.201 27.9107   4
 -12   2   2 700.080 27.8882   2
  12   2  -2 668.558 28.6662   3
  10  -2  -2 159.073 7.61665   2
 -10  -2   2 162.860 8.30114   3
  10  -2  -2 161.804 7.11987   4
  10  -2  -2 157.529 7.99138   3
 -10   2   2 158.287 7.36984   4
  10   2  -2 157.539 6.65950   2
  10   2  -2 164.417 7.81621   4
  10   2  -2 156.874 8.22242   3
  10   2  -2 155.602 6.92834   2
 -10   2   2 153.337 7.83260   2
  10   2  -2 167.669 7.68409   4
  -8  -2   2 5.58667 1.47671   3
   8  -2  -2 6.65534 1.44827   2
   8  -2  -2 5.87570 1.38327   3
   8  -2  -2 7.03737 1.00369   4
   8   2  -2 4.84303 0.86351   2
   8   2  -2 3.70168 1.25155   3
  -8   2   2 4.56775 0.94970   4
  -8   2   2 3.92563 1.31541   2
   6  -2  -2 2065.01 77.3462   4
  -6  -2   2 2000.13 77.3962   2
   6  -2  -2 2061.85 78.1606   2
  -6  -2   2 2163.33 78.1963   3
   6  -2  -2 2058.24 78.0646   3
   6   2  -2 2061.01 77.9230   4
   6   2  -2 2036.86 77.5030   2
  -6   2   2 2099.34 78.3058   2
  -6   2   2 2029.40 77.4293   4
  -6   2   2 2162.96 78.1856   3
   6   2  -2 1920.03 78.0474   3
  -4  -2   2 816.837 30.2781   2
   4  -2  -2 795.472 30.8021   2
   4  -2  -2 802.309 30.6054   3
  -4  -2   2 820.643 30.5281   4
  -4  -2   2 746.346 30.4928   3
   4  -2  -2 780.201 29.8848   4
   4   2  -2 771.914 30.3206   2
  -4   2   2 771.017 30.5706   3
  -4   2   2 811.612 30.8853   2
   4   2  -2 809.497 30.4789   4
   4   2  -2 812.083 30.5648   3
  -4   2   2 795.414 29.9249   4
   2  -2  -2 191.178 8.01935   4
  -2  -2   2 204.168 8.49237   3
  -2  -2   2 207.140 8.53051   4
   2  -2  -2 218.818 8.72765   3
  -2  -2   2 205.765 8.54289   2
   2  -2  -2 205.640 8.81027   2
   2   2  -2 220.233 8.51090   4
  -2   2   2 222.462 8.68782   3
   2   2  -2 213.221 8.48221   3
  -2   2   2 205.768 8.84953   2
   2   2  -2 213.720 8.62015   2
  -2   2   2 219.551 7.99804   4
   0  -2  -2 270.657 11.0313   3
   0  -2   2 278.075 10.7049   3
   0  -2   2 284.403 10.8719   2
   0  -2   2 254.192 10.6398   4
   0  -2  -2 272.757 10.8433   2
   0   2  -2 262.608 10.8626   2
   0   2   2 266.622 10.8799   2
   0   2   2 273.697 10.9973   3
   0   2   2 260.674 10.4375   4
   0   2  -2 271.319 10.6699   3
  -2  -2  -2 821.522 30.4302   2
   2  -2   2 741.688 30.6662   2
  -2  -2  -2 749.368 31.0263   3
   2  -2   2 824.731 30.7682   3
   2  -2   2 816.526 30.5663   4
  -2   2  -2 794.032 30.7572   3
   2   2   2 829.025 31.1536   3
  -2   2  -2 823.057 30.8381   2
   2   2   2 795.749 30.5319   4
   2   2   2 804.126 30.4796   2
  -2   2  -2 804.764 30.5694   4
   4  -2   2 781.523 30.3126   3
   4  -2   2 781.623 29.9340   4
   4  -2   2 778.919 29.9898   2
  -4  -2  -2 757.950 30.6333   3
  -4  -2  -2 780.999 29.2555   2
  -4   2  -2 784.404 30.0065   4
   4   2   2 786.271 30.0150   4
   4   2   2 789.055 30.7065   3
  -4   2  -2 763.408 30.1442   2
   6  -2   2 31.4906 2.36566   2
   6  -2   2 35.3519 2.98172   3
  -6  -2  -2 38.0790 3.44042   3
   6  -2   2 35.9976 2.51470   4
  -6   2  -2 38.3599 2.69779   4
   6   2   2 34.1847 3.28578   3
   6   2   2 37.2450 2.61706   4
  -6   2  -2 35.8828 2.75052   2
   8  -2   2 229.711 10.6285   3
   8  -2   2 214.974 10.2609   3
   8  -2   2 188.716 10.2523   4
   8  -2   2 213.570 9.17048   2
  -8   2  -2 212.567 9.80269   4
   8   2   2 230.225 10.8255   3
  -8   2  -2 221.330 9.74231   2
  10  -2   2 83.0721 4.48172   2
  10  -2   2 93.4661 6.29617   3
  10  -2   2 80.8907 6.55323   3
  10  -2   2 86.4616 5.22280   4
 -10   2  -2 76.9246 5.72625   4
  10   2   2 88.3652 6.97243   3
  10   2   2 84.4016 5.43367   4
 -10   2  -2 93.6332 5.32413   2
  12  -2   2 23.6226 4.22634   3
  12  -2   2 21.4481 3.04195   4
  12   2   2 26.5605 4.07738   4
 -12   2  -2 29.1325 4.11768   2
  15  -3  -2 14.1356 3.71666   3
  15  -3  -2 16.0199 2.60441   4
  15  -3  -2 20.8455 3.52865   2
 -15   3   2 24.6611 4.49453   2
  15   3  -2 12.9593 3.36151   4
  13  -3  -2 10.6200 2.98128   3
  13  -3  -2 9.99736 2.61831   2
  13  -3  -2 10.8624 1.93316   4
  13   3  -2 7.59184 2.33819   4
  13   3  -2 12.6900 3.60489   3
 -13   3   2 13.9365 3.10796   2
  11  -3  -2 429.267 17.0297   4
  11  -3  -2 407.977 17.7021   2
  11  -3  -2 404.923 18.1484   3
 -11  -3   2 432.338 18.6357   3
 -11   3   2 431.751 17.3918   4
  11   3  -2 440.926 17.8656   4
 -11   3   2 414.345 18.1998   2
  11   3  -2 398.404 16.4729   2
  11   3  -2 422.146 16.7626   2
  11   3  -2 432.999 18.6644   3
  -9  -3   2 160.647 8.09441   3
   9  -3  -2 151.882 6.76284   4
   9  -3  -2 154.639 7.79098   3
   9  -3  -2 152.968 7.70239   2
   9   3  -2 151.395 6.71158   2
  -9   3   2 154.760 8.02723   2
   9   3  -2 159.448 7.63244   4
  -9   3   2 154.441 6.97983   4
   9   3  -2 157.309 8.08511   3
  -7  -3   2 670.869 25.6522   2
  -7  -3   2 682.817 26.6943   3
   7  -3  -2 659.564 26.5621   2
   7  -3  -2 659.847 25.5431   4
   7  -3  -2 660.410 26.5418   3
  -7   3   2 687.388 26.8925   2
  -7   3   2 658.720 25.6593   4
   7   3  -2 734.517 26.8133   3
   7   3  -2 575.229 26.6400   4
  -7   3   2 666.701 27.3361   3
   7   3  -2 678.469 25.8395   2
  -5  -3   2 569.528 22.4883   4
  -5  -3   2 589.331 22.6983   3
   5  -3  -2 567.580 21.7188   4
  -5  -3   2 569.196 22.1171   2
   5  -3  -2 606.790 22.7557   3
   5  -3  -2 549.094 22.7415   2
  -5   3   2 558.442 22.9601   2
  -5   3   2 535.695 22.5883   3
   5   3  -2 586.423 22.7105   3
   5   3  -2 591.065 22.4644   4
  -5   3   2 559.151 21.7453   4
   5   3  -2 559.130 22.2327   2
   3  -3  -2 459.313 17.7144   3
   3  -3  -2 446.175 17.7658   2
  -3  -3   2 427.505 17.5007   3
   3  -3  -2 433.348 16.7666   4
  -3  -3   2 443.528 17.3637   2
  -3  -3   2 441.098 17.4032   4
   3   3  -2 442.388 17.4489   2
   3   3  -2 426.569 17.2934   4
   3   3  -2 443.942 17.4850   3
  -3   3   2 420.547 17.8515   2
  -3   3   2 464.857 17.6220   3
  -3   3   2 425.613 16.6875   4
  -1  -3   2 1053.61 38.9405   4
   1  -3  -2 967.425 39.2462   3
  -1  -3   2 1038.23 39.0977   2
  -1  -3   2 999.209 39.0103   3
   1  -3  -2 1035.78 39.2061   2
   1   3  -2 1062.91 38.8061   4
  -1   3   2 1008.24 39.2193   3
  -1   3   2 1052.74 39.3839   2
   1   3  -2 1029.61 38.9303   3
   1   3  -2 1000.94 39.1340   2
  -1   3   2 965.481 38.4304   4
   1  -3   2 252.386 10.5035   2
   1  -3   2 240.060 10.1833   4
  -1  -3  -2 241.832 10.2727   2
   1  -3   2 251.008 10.4100   3
  -1  -3  -2 226.526 10.6749   3
  -1   3  -2 254.642 10.3899   3
  -1   3  -2 268.940 10.6974   2
  -1   3  -2 252.262 10.1270   4
   1   3   2 279.107 10.8804   3
   1   3   2 239.309 10.0657   4
   1   3   2 253.365 10.4859   2
  -3  -3  -2 496.291 19.4381   3
  -3  -3  -2 467.914 18.3262   2
   3  -3   2 464.032 18.8525   2
   3  -3   2 457.641 18.5303   4
   3  -3   2 463.685 18.9059   3
   3   3   2 537.099 19.5582   3
  -3   3  -2 454.985 18.9017   3
  -3   3  -2 482.867 18.5745   4
  -3   3  -2 458.600 19.0229   2
   3   3   2 460.208 18.4995   2
   3   3   2 455.240 18.5618   4
   5  -3   2 268.996 12.1608   3
   5  -3   2 285.345 11.7312   4
   5  -3   2 286.620 11.9829   2
  -5  -3  -2 297.003 12.7998   3
  -5  -3  -2 271.072 10.9920   2
  -5   3  -2 288.015 11.8222   4
   5   3   2 305.405 12.8490   3
   5   3   2 286.652 11.8902   4
  -5   3  -2 268.386 12.2106   2
   5   3   2 285.244 11.1313   2
   7  -3   2 62.4122 4.43592   3
   7  -3   2 64.4753 3.83532   4
   7   3   2 61.5523 3.97596   4
   7   3   2 64.4305 5.03629   3
  -7   3  -2 62.0668 4.44700   2
  -7   3  -2 61.2080 3.96215   4
   9  -3   2 133.685 6.61126   2
  -9  -3  -2 126.900 8.29994   3
   9  -3   2 125.001 6.64829   4
   9  -3   2 133.825 7.64974   3
  -9   3  -2 135.883 7.10239   4
   9   3   2 118.472 8.01367   3
   9   3   2 140.125 7.02516   4
  -9   3  -2 131.670 7.29911   2
  11  -3   2 35.8266 4.11729   4
  11  -3   2 36.1314 5.52091   3
  11  -3   2 29.9966 3.74864   2
 -11  -3  -2 45.5257 5.92764   3
  11   3   2 41.9505 4.61380   4
 -11   3  -2 42.0609 5.15314   2
  14  -4  -2 243.649 10.8708   4
  14  -4  -2 224.833 12.6002   3
 -14  -4   2 228.214 13.3308   3
  14  -4  -2 250.423 12.0949   2
 -14   4   2 248.283 13.2755   2
 -14   4   2 218.121 11.8831   4
  14   4  -2 234.882 11.8708   4
  12  -4  -2 87.2578 6.68308   3
  12  -4  -2 83.5250 6.26875   2
  12  -4  -2 88.1444 4.88865   4
 -12  -4   2 88.9908 7.08894   3
  12   4  -2 93.0737 7.22454   3
  12   4  -2 87.6742 4.49686   2
  12   4  -2 88.4259 6.11950   4
 -12   4   2 92.2365 7.09634   2
 -12   4   2 83.5544 5.45012   4
 -10  -4   2 16.9120 3.06964   3
  10  -4  -2 14.5032 2.81779   3
  10  -4  -2 15.5955 2.00092   4
  10  -4  -2 12.3103 2.47433   2
 -10  -4   2 10.9976 1.68810   2
 -10   4   2 11.6667 1.76022   4
  10   4  -2 15.7729 2.53826   4
 -10   4   2 19.4795 4.68796   2
  10   4  -2 15.7742 2.17385   2
  10   4  -2 11.9591 2.50031   3
  -8  -4   2 397.328 18.2284   3
   8  -4  -2 429.186 16.9338   4
  -8  -4   2 426.474 17.0221   2
   8  -4  -2 448.206 18.2257   2
   8  -4  -2 402.746 18.0789   3
  -8   4   2 463.602 18.7785   2
  -8   4   2 443.480 17.1020   4
   8   4  -2 443.342 17.9286   4
   8   4  -2 398.989 18.2482   3
  -8   4   2 454.237 18.3994   3
   8   4  -2 427.640 17.3124   2
   6  -4  -2 32.8433 3.13676   2
   6  -4  -2 34.6292 2.08731   4
  -6  -4   2 33.7697 3.15426   3
  -6  -4   2 30.5112 2.34723   2
   6  -4  -2 28.4142 2.87898   3
  -6   4   2 31.5230 2.91877   3
  -6   4   2 39.3566 2.10422   4
   6   4  -2 32.9283 2.84724   4
  -6   4   2 39.4770 3.62027   2
   6   4  -2 39.4201 2.77166   2
   6   4  -2 35.0668 4.85861   3
   4  -4  -2 724.357 27.4041   3
  -4  -4   2 663.068 27.1843   3
   4  -4  -2 672.072 26.1731   4
  -4  -4   2 680.439 26.9366   4
  -4  -4   2 698.159 26.8202   2
   4   4  -2 746.330 26.9278   4
  -4   4   2 743.412 27.8001   2
   4   4  -2 686.847 26.9657   2
  -4   4   2 664.688 26.0602   4
  -4   4   2 599.646 28.6749   3
   4   4  -2 662.654 27.1013   3
  -2  -4   2 239.403 10.0912   4
  -2  -4   2 238.665 10.3355   3
   2  -4  -2 231.758 10.3668   2
  -2  -4   2 239.067 10.2162   2
   2  -4  -2 233.350 9.51554   4
   2  -4  -2 229.270 10.5018   3
   2   4  -2 243.116 9.93015   4
  -2   4   2 228.207 10.6300   2
  -2   4   2 248.846 10.4470   3
  -2   4   2 245.342 9.39176   4
   2   4  -2 239.582 10.3544   2
   2   4  -2 237.659 10.1910   3
   0  -4   2 3.23659 1.11772   3
   0  -4  -2 1.14280 1.11109   3
   0  -4   2 1.27277 1.00733   2
   0  -4   2 0.75965 0.71223   4
   0  -4  -2 2.86899 1.03238   2
   0   4   2 0.58819 0.87343   3
   0   4   2 1.71488 0.64935   4
   0   4   2 -0.2745 1.15979   2
   0   4  -2 1.53513 0.67817   4
   0   4  -2 0.65152 1.08792   2
   0   4  -2 1.82818 0.78139   3
   2  -4   2 564.241 24.0647   2
  -2  -4  -2 649.180 24.6772   3
   2  -4   2 607.528 23.6738   4
   2  -4   2 619.339 24.0825   3
  -2  -4  -2 598.919 23.6596   2
  -2   4  -2 576.049 23.4730   4
  -2   4  -2 596.249 23.9874   3
   2   4   2 604.964 23.9840   2
   2   4   2 628.839 24.5022   3
   2   4   2 596.013 23.5796   4
  -2   4  -2 602.101 24.3172   2
   4  -4   2 219.904 9.84347   2
   4  -4   2 227.050 9.96582   3
  -4  -4  -2 223.014 9.12586   2
  -4  -4  -2 219.986 10.4440   3
   4  -4   2 215.256 9.38609   4
   4   4   2 206.028 10.0740   4
  -4   4  -2 217.689 10.2041   2
   4   4   2 214.409 9.40942   2
   4   4   2 217.843 9.47161   4
  -4   4  -2 224.308 9.39692   4
   4   4   2 228.211 10.4647   3
  -4   4  -2 213.612 9.92488   3
   6  -4   2 240.854 10.3381   4
  -6  -4  -2 228.550 9.47412   2
   6  -4   2 240.955 10.7559   2
  -6  -4  -2 247.043 11.6639   3
   6  -4   2 233.267 11.0013   3
  -6   4  -2 248.084 10.4698   4
   6   4   2 225.970 9.70997   2
   6   4   2 234.822 10.7566   4
  -6   4  -2 246.804 11.3215   2
   6   4   2 244.683 10.5456   4
   8  -4   2 250.464 11.9430   3
   8  -4   2 256.559 11.3550   2
  -8  -4  -2 238.915 12.5799   3
   8  -4   2 255.802 11.0756   4
   8   4   2 257.737 11.3340   4
  -8   4  -2 236.725 12.0163   2
  10  -4   2 5.25331 2.35326   2
  10  -4   2 2.54713 1.81201   4
 -10  -4  -2 2.20724 2.86747   3
  10  -4   2 1.03700 2.89045   3
 -10   4  -2 3.04961 2.83804   2
  10   4   2 -0.2529 2.06929   4
  13  -5  -2 103.041 5.96705   4
  13  -5  -2 106.008 8.21656   3
 -13  -5   2 92.9272 8.60293   3
 -13   5   2 92.7388 6.64840   4
 -13   5   2 103.282 9.15489   2
  13   5  -2 100.897 7.24797   4
 -11  -5   2 6.92570 3.19283   3
  11  -5  -2 4.65879 2.76896   3
  11  -5  -2 7.14012 3.07900   2
  11  -5  -2 6.90794 1.62616   4
 -11   5   2 7.53584 3.49893   2
  11   5  -2 3.34215 1.86007   2
  11   5  -2 0.41342 2.87679   3
  11   5  -2 4.60738 2.26150   4
 -11   5   2 5.01541 1.83753   4
  -9  -5   2 620.207 26.4291   3
  -9  -5   2 635.872 24.8157   2
   9  -5  -2 633.511 26.0993   2
   9  -5  -2 652.832 24.6929   4
   9  -5  -2 629.304 26.2442   3
   9   5  -2 605.579 26.3166   3
   9   5  -2 633.568 25.1521   2
  -9   5   2 617.676 26.7519   2
  -9   5   2 641.287 24.8156   4
   7  -5  -2 260.558 10.1836   4
   7  -5  -2 246.274 11.5335   2
  -7  -5   2 222.382 11.4443   3
   7  -5  -2 252.380 11.6070   3
  -7  -5   2 244.736 10.6505   2
  -7   5   2 236.054 12.4889   2
   7   5  -2 244.449 11.5840   3
   7   5  -2 243.178 10.9014   2
   7   5  -2 259.715 11.1397   4
  -7   5   2 232.201 10.0449   4
   5  -5  -2 17.8409 1.82319   4
  -5  -5   2 17.6478 2.94057   3
   5  -5  -2 18.3220 2.67947   2
  -5  -5   2 17.2804 2.26014   2
  -5  -5   2 17.7571 2.43057   4
  -5   5   2 16.4910 2.82805   2
   5   5  -2 20.7189 2.93132   3
   5   5  -2 17.4043 2.72954   2
   5   5  -2 20.1013 2.54348   4
  -5   5   2 20.4754 2.88065   3
  -5   5   2 19.0393 1.55221   4
   3  -5  -2 537.521 21.2753   4
   3  -5  -2 544.136 22.5897   3
  -3  -5   2 573.641 22.0908   4
  -3  -5   2 512.592 22.3236   3
  -3  -5   2 531.417 22.0007   2
   3  -5  -2 562.221 22.4630   2
   3   5  -2 522.785 22.1730   3
   3   5  -2 582.676 22.4403   2
   3   5  -2 582.820 21.8462   4
  -3   5   2 522.682 22.2581   3
  -3   5   2 546.283 21.0600   4
  -3   5   2 554.974 22.9019   2
   1  -5  -2 43.5664 3.43085   2
  -1  -5   2 49.7992 3.48457   2
  -1  -5   2 46.6637 3.56773   3
  -1  -5   2 41.8880 3.11789   4
   1  -5  -2 43.5028 3.72365   3
   1  -5  -2 38.9974 2.65286   4
  -1   5   2 40.2455 3.46861   3
   1   5  -2 41.4090 3.54745   2
  -1   5   2 36.6456 3.78264   2
   1   5  -2 36.9219 3.20479   3
  -1   5   2 46.1780 2.49827   4
   1   5  -2 48.0843 2.90653   4
   1  -5   2 895.258 35.6619   3
  -1  -5  -2 923.576 37.3837   2
   1  -5   2 923.541 35.2151   4
   1  -5   2 917.570 35.6543   2
   1   5   2 964.121 36.0518   3
  -1   5  -2 881.961 34.8577   4
  -1   5  -2 902.071 35.4845   3
   1   5   2 863.933 34.7883   4
   1   5   2 892.883 35.7701   2
  -1   5  -2 889.518 35.9302   2
  -3  -5  -2 147.246 6.76547   2
   3  -5   2 144.248 7.30728   3
   3  -5   2 140.019 7.25844   2
  -3  -5  -2 123.935 7.97288   3
   3  -5   2 143.596 6.82276   4
   3   5   2 140.548 7.25651   2
  -3   5  -2 146.051 7.28756   3
  -3   5  -2 147.970 6.60375   4
  -3   5  -2 134.982 7.67571   2
  -5  -5  -2 211.638 10.8600   3
   5  -5   2 232.923 10.5322   4
  -5  -5  -2 211.675 9.07462   2
   5  -5   2 211.957 10.0820   2
   5   5   2 204.489 9.50582   2
  -5   5  -2 209.982 9.41606   4
   5   5   2 216.599 9.59762   4
  -5   5  -2 212.889 10.7341   2
   5   5   2 197.992 9.70818   4
  -5   5  -2 211.430 10.2455   3
  -7  -5  -2 40.9272 2.41557   2
   7  -5   2 41.3412 3.60466   4
   7  -5   2 37.8881 4.40813   3
  -7  -5  -2 31.1378 5.05020   3
   7  -5   2 33.6127 4.14187   2
   7   5   2 38.3704 3.01398   2
   7   5   2 40.1208 3.78277   4
  -7   5  -2 39.9067 5.25284   2
   9  -5   2 -0.9125 1.73334   4
  -9  -5  -2 6.73849 3.43928   3
   9  -5   2 0.82512 2.48761   3
   9  -5   2 2.11023 2.70323   2
   9   5   2 0.83482 2.12713   4
  -9   5  -2 3.32780 3.47034   2
  12  -6  -2 75.6302 5.28517   4
 -12  -6   2 74.0789 8.20041   3
  12  -6  -2 77.9022 8.02595   3
  12   6  -2 84.7994 6.91055   4
 -12   6   2 70.3898 8.99499   2
 -12   6   2 69.1301 5.75622   4
 -10  -6   2 117.719 6.08259   2
  10  -6  -2 109.392 7.96220   3
 -10  -6   2 115.659 8.48230   3
  10  -6  -2 123.457 6.18229   4
  10   6  -2 114.925 6.93860   2
 -10   6   2 115.229 9.26051   2
 -10   6   2 120.183 6.31509   4
  -8  -6   2 59.0034 3.99138   2
  -8  -6   2 47.5468 5.38656   3
   8  -6  -2 43.5024 5.51024   2
   8  -6  -2 53.0444 5.31365   3
   8  -6  -2 52.6876 3.61754   4
  -8   6   2 66.1395 6.40545   2
   8   6  -2 52.3388 4.99777   4
  -8   6   2 53.6123 3.50452   4
  -8   6   2 47.3308 5.13655   3
   8   6  -2 53.4752 4.60200   2
   8   6  -2 56.9624 5.44381   3
   6  -6  -2 112.766 5.69801   4
  -6  -6   2 121.547 6.36932   2
   6  -6  -2 114.125 7.28771   3
  -6  -6   2 119.882 7.27277   3
   6   6  -2 118.820 6.90410   2
  -6   6   2 119.518 5.48219   4
   6   6  -2 122.884 7.30232   3
  -6   6   2 121.459 8.16283   2
   4  -6  -2 174.134 9.20730   3
   4  -6  -2 180.106 7.69474   4
  -4  -6   2 175.169 8.80565   4
  -4  -6   2 169.931 8.39117   2
  -4  -6   2 164.020 9.91740   3
   4   6  -2 176.866 8.21239   4
  -4   6   2 162.181 9.55373   2
   4   6  -2 181.599 8.94376   3
  -4   6   2 167.976 7.27699   4
   4   6  -2 171.340 8.91109   2
   2  -6  -2 222.774 9.88946   4
   2  -6  -2 227.620 11.3309   3
  -2  -6   2 237.927 10.7986   2
  -2  -6   2 250.369 11.3116   3
   2  -6  -2 234.147 10.9997   2
  -2  -6   2 233.270 10.6528   4
   2   6  -2 228.264 10.8179   3
   2   6  -2 210.397 13.5254   2
   2   6  -2 243.130 10.2372   4
  -2   6   2 240.161 9.60941   4
   0  -6  -2 146.452 8.48578   3
   0  -6   2 164.140 7.82636   4
   0  -6   2 149.446 8.26094   3
   0  -6  -2 163.230 8.04999   2
   0   6   2 162.700 7.07719   4
   0   6  -2 160.915 8.05494   3
   0   6  -2 161.492 7.32429   4
   0   6   2 156.320 8.70371   2
   0   6  -2 158.141 8.62644   2
   2  -6   2 276.997 12.5790   4
  -2  -6  -2 291.609 13.8411   3
  -2  -6  -2 289.201 12.6864   2
   2   6   2 302.296 13.4961   2
  -2   6  -2 281.102 13.0240   3
   2   6   2 288.556 12.2485   4
  -2   6  -2 292.444 12.2303   4
  -2   6  -2 292.509 13.7448   2
   4  -6   2 47.8804 3.90724   4
   4  -6   2 48.1457 4.62418   2
  -4  -6  -2 39.8707 3.53291   2
  -4  -6  -2 40.3412 4.97155   3
   4  -6   2 43.0988 4.56942   3
   4   6   2 44.7739 3.66301   4
   4   6   2 50.5946 4.15883   4
  -4   6  -2 40.1555 5.15937   2
   4   6   2 48.7208 4.65990   2
  -4   6  -2 37.1998 4.25478   3
   6  -6   2 140.293 8.13986   2
  -6  -6  -2 155.353 9.30021   3
   6  -6   2 142.364 7.49245   4
  -6  -6  -2 145.750 6.85824   2
   6  -6   2 142.848 8.45172   3
  -6   6  -2 127.480 8.36234   3
  -6   6  -2 136.814 9.15302   2
   6   6   2 126.354 7.39560   2
   6   6   2 147.502 7.52399   4
  -6   6  -2 133.198 7.23027   4
   8  -6   2 73.1540 5.48077   4
   8  -6   2 63.8547 6.60027   3
  -8  -6  -2 78.2144 7.47680   3
  -8   6  -2 70.7621 8.21140   2
   8   6   2 78.1012 5.83131   4
  -9  -7   2 18.3408 4.25777   3
   9  -7  -2 14.3861 3.90182   3
   9  -7  -2 25.8689 3.70507   4
  -9   7   2 23.4050 5.68232   2
  -9   7   2 17.9576 2.57351   4
   9   7  -2 17.4070 3.77136   2
  -7  -7   2 119.529 8.20531   3
   7  -7  -2 103.976 5.92973   4
   7  -7  -2 105.176 7.95330   3
  -7   7   2 108.599 5.58225   4
   7   7  -2 122.061 8.46398   4
   7   7  -2 107.830 7.49643   2
  -7   7   2 104.696 8.87307   2
  -5  -7   2 81.2032 7.62886   2
  -5  -7   2 92.0371 6.88550   3
   5  -7  -2 70.6008 4.76910   4
   5  -7  -2 84.2886 6.87652   3
  -5   7   2 81.5518 8.14037   3
   5   7  -2 85.2159 6.59375   2
  -5   7   2 87.5279 7.87054   2
   5   7  -2 88.5990 5.68806   4
  -5   7   2 66.6844 5.26233   4
   5   7  -2 82.7419 6.44603   3
  -3  -7   2 21.5594 3.86627   3
   3  -7  -2 25.0461 3.04216   4
  -3  -7   2 19.7495 2.90162   4
   3  -7  -2 20.4174 3.72760   2
  -3  -7   2 27.0594 3.91611   2
   3  -7  -2 29.9867 4.76669   3
  -3   7   2 24.1217 2.81584   4
  -3   7   2 27.5316 4.44117   3
   3   7  -2 23.4172 3.33723   3
   3   7  -2 22.1330 3.68293   2
  -3   7   2 21.2013 4.30560   2
  -1  -7   2 297.792 13.9341   2
  -1  -7   2 333.609 13.8087   4
  -1  -7   2 294.457 14.2632   3
   1  -7  -2 296.131 14.6889   3
   1  -7  -2 307.908 14.0817   2
   1   7  -2 281.209 13.7186   3
  -1   7   2 335.907 12.5639   4
   1   7  -2 304.256 14.7104   2
  -1   7   2 308.574 14.9524   2
  -1   7   2 261.898 13.9522   3
  -1  -7  -2 56.5547 5.87621   3
   1  -7   2 41.7119 5.15199   3
   1  -7   2 44.2825 4.37761   4
   1  -7   2 41.8998 4.70785   2
  -1   7  -2 46.1718 5.86926   2
   1   7   2 45.2764 5.20991   3
  -1   7  -2 44.6327 4.92394   3
   1   7   2 53.6770 3.74673   4
   1   7   2 47.9336 5.91865   2
   3  -7   2 179.714 9.20084   4
  -3  -7  -2 183.388 10.6605   3
   3  -7   2 173.664 10.0303   3
  -3   7  -2 184.216 9.94311   3
   3   7   2 182.188 8.81823   4
   3   7   2 182.375 10.1058   2
  -3   7  -2 177.681 8.80134   4
  -3   7  -2 177.268 10.7947   2
  -5  -7  -2 86.2457 7.62472   3
   5  -7   2 91.0731 7.37728   3
   5  -7   2 86.8288 6.28954   4
  -5  -7  -2 94.5990 5.92111   2
   5   7   2 83.9140 6.44849   4
  -5   7  -2 98.7427 8.65244   2
   5   7   2 96.1258 6.13696   4
   5   7   2 98.6809 7.18540   2
  -5   7  -2 87.9953 5.86830   4
   7  -7   2 1.57410 3.42363   3
  -7  -7  -2 3.72753 4.61447   3
   7  -7   2 4.16912 2.68434   4
  -7   7  -2 1.14533 5.04082   2
   7   7   2 4.67680 2.82051   4
   6  -8  -2 116.177 9.56920   3
   6  -8  -2 136.326 7.00791   4
  -6  -8   2 115.534 9.13768   3
  -6   8   2 114.464 10.6081   2
   6   8  -2 129.655 9.31187   2
   4  -8  -2 40.5509 4.36178   4
  -4  -8   2 48.9978 6.78215   3
  -4  -8   2 46.1183 5.74400   4
   4  -8  -2 39.5874 6.38545   3
  -4   8   2 37.6757 3.44427   4
   4   8  -2 39.9326 5.51424   2
  -4   8   2 43.7508 6.07195   2
  -2  -8   2 154.317 8.95928   4
  -2  -8   2 149.094 9.91639   3
   2  -8  -2 160.776 10.1702   3
  -2   8   2 148.688 10.8047   2
   2   8  -2 146.254 7.95839   4
   2   8  -2 159.397 10.3576   2
  -2   8   2 152.095 7.20631   4
   0  -8   2 20.7023 3.61417   4
   0  -8   2 14.0007 3.97828   3
   0   8  -2 20.2249 4.53156   2
   0   8   2 19.1314 4.90289   2
   0   8  -2 12.2306 2.72019   4
   0   8   2 21.6793 3.18103   4
   2  -8   2 31.2109 4.17102   4
   2  -8   2 27.7482 4.76101   3
  -2  -8  -2 34.0198 5.96882   2
  -2  -8  -2 27.3184 4.73471   3
  -2   8  -2 28.8365 3.81282   4
  -2   8  -2 34.1535 5.85529   2
   2   8   2 36.3356 5.42130   2
  -4  -8  -2 118.750 8.18936   2
   4  -8   2 136.027 8.46055   4
   4  -8   2 145.841 9.69618   3
  -4  -8  -2 137.522 14.8752   3
   4   8   2 107.370 7.85981   4
   4   8   2 129.869 10.0302   2
   4   8   2 124.315 7.90068   4
  16   0  -3 3.99330 2.32246   4
  16   0  -3 4.56702 2.99414   3
  16   0  -3 -0.1698 1.35838   2
  14   0  -3 122.122 7.66574   3
  14   0  -3 127.058 5.80573   2
  14   0  -3 126.106 6.71834   4
  14   0  -3 118.013 8.05777   3
  14   0  -3 123.406 6.34692   2
  12   0  -3 56.4615 4.72278   3
  12   0  -3 54.3463 3.17061   2
  12   0  -3 57.2059 3.70765   4
  12   0  -3 53.9089 3.76230   2
  10   0  -3 4.35316 1.34652   3
  10   0  -3 6.30288 1.42865   2
  10   0  -3 7.00250 1.28002   4
   8   0  -3 53.4479 3.35903   2
   8   0  -3 56.6583 3.08857   4
   8   0  -3 63.0720 3.65185   3
   6   0  -3 0.50847 0.46749   4
   6   0  -3 0.77662 0.67195   2
  -4   0   3 4291.04 164.038   1
   4   0  -3 4321.12 163.998   1
   2   0  -3 1119.07 41.6689   2
  -2   0   3 1084.32 41.4972   4
   2   0  -3 1107.58 41.4655   4
   0   0  -3 4.62803 0.72861   3
   0   0  -3 6.13457 0.66042   2
   0   0   3 4.71331 0.62012   2
   0   0  -3 5.32410 0.64453   4
   0   0   3 5.87419 0.73695   3
   0   0   3 6.32493 0.63049   4
   2   0   3 973.500 36.4711   4
  -2   0  -3 966.412 36.5215   4
  -2   0  -3 964.349 36.2299   2
   2   0   3 941.423 36.1577   2
   2   0   3 948.225 36.7426   3
   4   0   3 608.310 23.1581   4
   4   0   3 557.367 22.4946   2
  -4   0  -3 571.521 22.6170   2
  -4   0  -3 602.094 23.2734   4
   4   0   3 632.821 23.7238   3
  -6   0  -3 3.17523 0.74057   2
   6   0   3 0.93429 1.19128   3
   6   0   3 3.58145 1.12130   4
  -6   0  -3 3.41190 1.27996   4
   8   0   3 477.421 20.2661   3
   8   0   3 466.557 19.2305   4
  10   0   3 10.7989 3.32211   3
  12   0   3 153.933 8.56440   4
  15  -1  -3 29.7526 3.51011   4
  15  -1  -3 28.4326 3.93876   2
  15  -1  -3 22.8303 3.79481   3
  15   1  -3 37.3059 4.10713   4
  15   1  -3 29.4397 2.40382   2
  15   1  -3 29.9248 3.00966   2
  13  -1  -3 44.6085 4.54930   3
  13  -1  -3 50.0636 3.77373   4
  13  -1  -3 42.2662 3.97819   2
  13   1  -3 42.6663 3.78259   4
  13   1  -3 48.5733 4.98612   3
  13   1  -3 46.2921 3.47036   2
  13   1  -3 44.2391 2.75493   2
  11  -1  -3 239.942 11.3770   3
  11  -1  -3 231.578 10.1607   4
  11  -1  -3 235.491 10.9734   3
  11  -1  -3 228.270 10.5857   2
  11   1  -3 245.928 9.80753   2
  11   1  -3 242.461 10.3291   2
  11   1  -3 241.401 11.2528   3
  11   1  -3 248.340 10.5794   4
   9  -1  -3 723.125 28.4680   2
   9  -1  -3 712.103 27.8492   4
   9  -1  -3 744.634 28.5582   3
   9   1  -3 730.438 28.2947   4
   9   1  -3 735.804 28.2548   4
   9   1  -3 768.905 28.2520   2
   9   1  -3 732.063 27.7014   2
   9   1  -3 626.713 28.4532   3
   7  -1  -3 120.524 5.71612   3
   7  -1  -3 121.315 5.25125   4
   7  -1  -3 116.121 5.88930   2
   7   1  -3 138.821 5.92046   3
  -7   1   3 125.121 5.93847   2
   7   1  -3 120.594 5.60043   4
   7   1  -3 123.558 5.31016   2
  -5  -1   3 80.8866 3.79458   4
   5  -1  -3 79.6503 4.12359   2
  -5  -1   3 81.4995 3.66054   2
  -5  -1   3 83.4197 3.77661   3
   5  -1  -3 82.4905 3.41147   4
   5  -1  -3 82.1644 3.80184   3
   5   1  -3 79.3269 3.65101   2
   5   1  -3 82.5167 3.78251   4
  -5   1   3 75.9462 4.06940   2
   5   1  -3 86.1711 3.78512   3
  -5   1   3 79.5669 3.81371   3
   3  -1  -3 1098.41 39.8318   3
  -3  -1   3 1061.42 39.8509   4
   3  -1  -3 1074.08 40.2547   2
  -3  -1   3 1003.53 39.8078   2
   3   1  -3 1059.81 39.7984   4
   3   1  -3 1075.25 39.5376   3
  -3   1   3 1035.06 40.1958   2
   3   1  -3 1037.17 39.8592   2
  -3   1   3 1026.81 39.7858   3
   1  -1  -3 2191.23 77.8994   2
  -1  -1   3 2032.06 77.6241   2
  -1   1   3 2097.62 77.6696   3
   1   1  -3 1942.98 77.6491   2
   1  -1   3 767.046 29.3525   3
   1  -1   3 775.762 29.3156   2
   1  -1   3 725.330 29.3123   4
  -1  -1  -3 758.157 29.3022   4
  -1  -1  -3 745.619 29.3244   2
  -1  -1  -3 757.658 29.6493   3
  -1   1  -3 738.867 29.3705   2
   1   1   3 877.412 29.7850   3
   1   1   3 789.326 29.2603   4
  -1   1  -3 760.145 29.3643   4
   3  -1   3 552.778 21.4865   3
   3  -1   3 555.909 21.1239   4
  -3  -1  -3 549.519 20.7091   2
   3  -1   3 543.359 20.8872   2
  -3  -1  -3 541.530 21.6315   3
  -3  -1  -3 533.092 20.5229   2
  -3  -1  -3 557.542 21.2351   4
   3   1   3 525.319 21.5700   3
  -3   1  -3 514.885 20.9689   2
   3   1   3 541.506 21.0875   4
  -3   1  -3 554.056 21.2067   4
  -5  -1  -3 80.1220 4.32836   4
   5  -1   3 76.0164 3.58394   2
  -5  -1  -3 70.1870 4.61701   3
   5  -1   3 76.5508 4.00453   4
   5  -1   3 81.5930 4.67766   3
  -5   1  -3 78.0770 3.82995   2
   5   1   3 77.0658 5.12921   3
   5   1   3 79.5593 4.06363   4
  -5   1  -3 81.3820 4.22842   4
  -7  -1  -3 726.846 29.5764   4
   7  -1   3 709.415 30.0294   3
   7  -1   3 734.337 28.4087   2
  -7   1  -3 721.453 28.7970   2
   7   1   3 753.500 29.3035   4
   7   1   3 826.395 30.4784   3
   9  -1   3 192.812 8.83500   4
   9  -1   3 192.758 9.66403   3
   9  -1   3 181.747 7.39924   2
  -9  -1  -3 169.361 9.24189   4
   9   1   3 187.436 8.79803   4
   9   1   3 182.419 11.0249   3
  -9   1  -3 181.764 7.93015   2
  11  -1   3 74.4701 6.76154   3
  11  -1   3 79.8369 5.47357   4
  11   1   3 67.5330 5.35438   4
  16  -2  -3 259.034 13.5542   3
  16  -2  -3 252.024 11.7014   4
  16   2  -3 244.225 12.2397   4
  14  -2  -3 11.4007 3.06624   3
  14  -2  -3 9.30330 2.92114   3
  14  -2  -3 12.8540 2.66226   2
  14  -2  -3 7.67301 1.73196   4
  14   2  -3 9.55501 2.11657   4
  14   2  -3 17.4141 3.86651   3
  14   2  -3 12.9781 2.77302   4
  14   2  -3 6.38477 1.78764   2
  14   2  -3 13.6112 1.93514   2
  12  -2  -3 123.843 6.77018   2
  12  -2  -3 125.523 7.21303   3
  12  -2  -3 125.263 6.10451   4
  12   2  -3 124.921 5.68196   2
  12   2  -3 118.362 6.12611   2
 -12   2   3 131.556 7.13398   2
  12   2  -3 128.729 6.92220   4
  12   2  -3 126.346 6.74423   4
  12   2  -3 134.499 7.67597   3
  10  -2  -3 213.639 8.98482   4
  10  -2  -3 218.338 9.95996   3
 -10  -2   3 209.446 10.0806   3
  10  -2  -3 221.138 9.88656   2
  10   2  -3 212.604 10.0917   3
  10   2  -3 209.966 9.62270   4
  10   2  -3 224.076 9.76197   4
  10   2  -3 207.674 8.87113   2
 -10   2   3 207.274 9.93933   2
   8  -2  -3 205.509 8.13461   4
   8  -2  -3 201.820 8.94744   3
  -8  -2   3 212.028 9.08944   3
   8  -2  -3 194.367 9.06400   2
  -8   2   3 186.491 9.09548   2
   8   2  -3 203.799 8.81042   4
   8   2  -3 186.400 8.90752   3
  -8   2   3 194.056 8.26894   4
   8   2  -3 205.854 8.32555   2
   6  -2  -3 557.698 21.1062   4
  -6  -2   3 570.897 21.8774   3
   6  -2  -3 522.010 22.1333   2
  -6  -2   3 564.666 21.4858   2
  -6  -2   3 601.255 21.9374   4
   6  -2  -3 536.569 21.8739   3
  -6   2   3 542.187 22.2455   2
   6   2  -3 549.873 21.5655   2
   6   2  -3 557.868 21.8606   3
  -6   2   3 542.832 21.1958   4
  -6   2   3 569.327 21.9696   3
   6   2  -3 551.561 21.7886   4
   4  -2  -3 667.911 25.3582   3
  -4  -2   3 643.540 25.1217   2
  -4  -2   3 651.949 25.2676   4
   4  -2  -3 647.841 25.6728   2
  -4  -2   3 681.187 25.1412   3
   4   2  -3 660.737 25.2147   4
   4   2  -3 688.022 25.1468   3
   4   2  -3 612.236 25.1658   2
  -4   2   3 603.388 25.6017   2
  -4   2   3 674.984 25.3443   3
  -2  -2   3 2112.97 78.3720   2
   2  -2  -3 2148.18 78.7111   2
  -2  -2   3 2091.38 78.3312   4
   2  -2  -3 2064.50 78.4849   3
   2   2  -3 2053.08 78.2098   4
   2   2  -3 2081.21 78.0318   3
  -2   2   3 2045.00 78.6684   2
   2   2  -3 2071.49 78.4292   2
  -2   2   3 2045.77 78.4177   3
   0  -2   3 500.784 21.4837   4
   0  -2   3 531.420 21.4280   3
   0  -2   3 551.454 21.6802   2
   0  -2  -3 564.559 21.9445   3
   0  -2  -3 560.924 21.7476   2
   0   2  -3 574.562 21.4785   3
   0   2   3 560.534 21.2533   4
   0   2  -3 566.839 21.7781   2
   0   2   3 556.204 21.7262   2
   0   2  -3 555.264 21.5098   4
   0   2   3 614.916 21.9871   3
   2  -2   3 156.005 6.57429   2
   2  -2   3 148.997 6.44109   4
  -2  -2  -3 157.492 6.33449   2
   2  -2   3 154.534 6.59083   3
  -2  -2  -3 126.418 6.82209   3
   2   2   3 130.389 6.83744   3
  -2   2  -3 154.357 6.49558   4
  -2   2  -3 159.218 6.69244   2
   2   2   3 160.516 6.38704   4
   4  -2   3 1023.06 39.2117   3
   4  -2   3 1017.19 38.8126   2
  -4  -2  -3 1008.31 38.0637   2
   4  -2   3 997.907 38.8634   4
  -4  -2  -3 1017.74 39.6582   3
  -4   2  -3 1046.19 39.0179   4
  -4   2  -3 1026.27 39.0307   2
   4   2   3 1009.73 38.8571   4
   4   2   3 973.973 39.5955   3
   6  -2   3 9.76323 1.41193   2
   6  -2   3 7.33297 1.51837   4
   6  -2   3 3.87479 1.52892   3
   6  -2   3 6.99240 1.68613   3
  -6  -2  -3 4.96599 1.89219   3
  -6   2  -3 4.98404 1.29584   4
   6   2   3 7.19019 1.36148   4
  -6   2  -3 8.82004 1.61989   2
   6   2   3 6.50799 2.01772   3
   8  -2   3 3.35142 1.96263   3
  -8  -2  -3 6.10888 2.57821   3
   8  -2   3 7.01868 1.63096   4
   8  -2   3 7.27923 1.36965   2
   8  -2   3 8.70473 2.12582   3
   8   2   3 4.09375 1.59044   4
  -8   2  -3 7.42849 1.81260   2
  10  -2   3 387.552 16.4613   4
  10  -2   3 393.517 18.0096   3
  10  -2   3 373.859 15.3344   2
  10  -2   3 377.982 17.4598   3
  10   2   3 388.557 16.5727   4
 -10   2  -3 388.915 16.1594   2
  12  -2   3 69.9513 7.82959   3
  15  -3  -3 60.4340 5.97971   2
  15  -3  -3 63.3336 4.64810   4
  15  -3  -3 60.6568 6.52000   3
  15   3  -3 53.7033 5.43653   4
 -15   3   3 55.3419 6.92271   2
  13  -3  -3 80.7929 5.55716   2
  13  -3  -3 74.4545 5.91621   3
  13   3  -3 78.7788 5.39405   4
  13   3  -3 68.8124 6.21724   3
  13   3  -3 70.9286 4.36641   2
  13   3  -3 65.8389 5.84366   4
  13   3  -3 72.0068 3.93944   2
 -13   3   3 62.9587 8.59085   2
  11  -3  -3 13.9305 1.92913   4
  11  -3  -3 14.8396 2.68156   3
  11  -3  -3 21.3356 2.99434   2
  11   3  -3 16.8502 3.04298   3
 -11   3   3 19.0515 3.05449   2
 -11   3   3 17.4929 2.39342   4
  11   3  -3 17.6484 2.06885   2
  11   3  -3 16.8958 2.47613   4
  -9  -3   3 332.606 14.1452   3
   9  -3  -3 314.130 12.8019   4
   9  -3  -3 302.621 13.9586   2
  -9  -3   3 311.185 12.9245   2
   9  -3  -3 319.854 13.9816   3
   9   3  -3 318.616 14.0739   3
  -9   3   3 320.298 14.2777   2
  -9   3   3 324.912 13.0430   4
   9   3  -3 355.009 13.8976   4
   9   3  -3 324.480 13.1504   2
   7  -3  -3 115.760 6.18313   2
  -7  -3   3 112.586 5.23744   2
  -7  -3   3 117.285 5.90068   3
   7  -3  -3 117.800 4.86855   4
   7  -3  -3 124.873 5.99842   3
  -7   3   3 114.803 6.28436   2
  -7   3   3 109.310 6.43532   3
   7   3  -3 121.024 5.97273   3
   7   3  -3 110.569 5.41186   2
  -7   3   3 117.428 4.99230   4
  -5  -3   3 899.755 33.0145   3
   5  -3  -3 832.776 31.9984   4
   5  -3  -3 817.246 33.0813   3
  -5  -3   3 860.410 32.9840   4
   5  -3  -3 859.155 33.3999   2
  -5  -3   3 852.056 32.6926   2
   5   3  -3 816.604 32.8909   3
  -5   3   3 852.199 33.5455   2
  -5   3   3 815.198 32.0161   4
   5   3  -3 863.946 32.8905   4
  -5   3   3 902.596 33.1572   3
   5   3  -3 835.791 32.8358   2
  -3  -3   3 380.286 15.7875   4
  -3  -3   3 401.533 15.7839   3
   3  -3  -3 383.041 16.0371   3
   3  -3  -3 374.795 16.1386   2
  -3  -3   3 396.289 15.8138   2
   3   3  -3 382.176 15.6616   4
  -3   3   3 418.065 16.0355   3
  -3   3   3 413.098 16.3971   2
   3   3  -3 397.679 15.9219   2
   3   3  -3 404.215 15.6867   3
  -3   3   3 396.779 14.9069   4
  -1  -3   3 529.677 20.4686   2
  -1  -3   3 507.420 20.2285   3
  -1  -3   3 510.840 20.2883   4
   1  -3  -3 519.788 20.5771   2
   1  -3  -3 491.469 20.6322   3
   1   3  -3 529.768 20.5771   2
   1   3  -3 513.770 20.1497   3
  -1   3   3 568.771 20.7271   3
  -1   3   3 491.633 19.7057   4
  -1   3   3 527.337 20.7014   2
  -1   3   3 484.047 19.7359   4
   1   3  -3 535.416 20.1628   4
   1  -3   3 38.6699 2.40322   3
   1  -3   3 34.8037 2.26594   4
   1  -3   3 34.7112 2.48505   2
  -1  -3  -3 32.7489 2.80662   3
  -1  -3  -3 33.8578 2.32583   2
   1   3   3 32.0928 2.47497   2
  -1   3  -3 36.8904 2.65108   2
   1   3   3 36.1775 2.05914   4
   1   3   3 35.6724 2.76211   3
  -1   3  -3 35.1911 2.35760   3
  -1   3  -3 34.8077 2.22172   4
  -3  -3  -3 60.5415 4.09897   3
   3  -3   3 62.1073 3.59512   2
  -3  -3  -3 60.1393 3.00108   2
   3  -3   3 60.2114 3.59492   3
   3  -3   3 55.5789 3.26561   4
   3   3   3 63.1564 3.26818   4
   3   3   3 57.8689 4.63966   3
  -3   3  -3 60.4887 3.35566   4
  -3   3  -3 54.9204 3.65682   2
   3   3   3 54.9459 3.12146   2
   5  -3   3 398.468 16.6969   4
   5  -3   3 428.339 17.2404   3
  -5  -3  -3 420.041 15.7255   2
   5  -3   3 428.391 18.4456   2
  -5  -3  -3 374.805 17.5880   3
   5   3   3 433.711 17.8741   3
  -5   3  -3 427.065 16.9017   4
  -5   3  -3 413.581 17.2029   2
   5   3   3 397.668 16.7004   4
  -7  -3  -3 169.267 9.63255   3
   7  -3   3 182.697 8.36056   2
   7  -3   3 192.951 8.54344   4
  -7   3  -3 183.472 8.91877   2
   7   3   3 181.336 8.49878   4
   9  -3   3 281.141 12.4595   4
   9  -3   3 260.065 13.2201   3
  -9  -3  -3 287.914 14.2406   3
   9  -3   3 265.714 11.9121   2
   9  -3   3 290.143 13.9180   3
   9   3   3 264.270 14.4739   3
  -9   3  -3 305.358 14.8214   4
  -9   3  -3 273.376 12.8371   2
   9   3   3 280.352 12.5319   4
  11  -3   3 14.5127 3.73165   3
  11  -3   3 15.2635 2.90216   4
 -11   3  -3 19.1051 3.49696   2
  11   3   3 10.0769 2.77797   4
  14  -4  -3 95.6024 7.86725   2
 -14  -4   3 115.653 8.83141   3
  14  -4  -3 108.120 7.97391   3
  14  -4  -3 115.237 6.15921   4
  14   4  -3 105.515 7.24037   4
  14   4  -3 109.127 5.48685   2
 -14   4   3 118.483 8.97810   2
  12  -4  -3 170.155 9.15793   3
  12  -4  -3 167.324 7.34481   4
 -12  -4   3 155.833 9.32102   3
  12  -4  -3 160.730 8.91431   2
 -12   4   3 167.435 7.84366   4
  12   4  -3 147.572 9.13192   3
  12   4  -3 127.238 9.74819   4
  12   4  -3 157.310 7.38686   2
 -12   4   3 174.843 9.72827   2
  12   4  -3 159.133 8.51746   4
  10  -4  -3 136.330 7.65303   2
  10  -4  -3 137.123 6.09118   4
 -10  -4   3 137.305 6.20602   2
  10  -4  -3 132.729 7.50898   3
  10   4  -3 144.207 7.84374   3
 -10   4   3 134.212 6.31684   4
  10   4  -3 126.974 6.46222   2
  -8  -4   3 194.362 9.80586   3
   8  -4  -3 217.485 10.0106   3
  -8  -4   3 214.447 9.01294   2
   8  -4  -3 208.217 10.0515   2
   8  -4  -3 224.941 8.58987   4
  -8   4   3 203.014 8.65017   4
  -8   4   3 212.902 10.4665   2
   8   4  -3 207.844 9.62549   4
   8   4  -3 204.397 9.92114   3
  -8   4   3 209.590 9.94195   3
   8   4  -3 211.237 9.30443   2
  -6  -4   3 626.823 23.6525   4
   6  -4  -3 600.048 23.8647   3
  -6  -4   3 584.417 23.6641   3
   6  -4  -3 599.379 22.4620   4
   6  -4  -3 568.879 23.9162   2
  -6  -4   3 573.084 23.1318   2
  -6   4   3 587.973 24.2737   2
   6   4  -3 577.717 23.3680   2
  -6   4   3 587.353 22.4525   4
   6   4  -3 583.694 23.4270   4
  -6   4   3 568.105 23.7090   3
   6   4  -3 599.677 23.6916   3
  -4  -4   3 534.375 21.2485   2
  -4  -4   3 586.374 21.5547   3
   4  -4  -3 562.120 21.7858   3
   4  -4  -3 473.139 20.3011   4
  -4  -4   3 538.450 21.3490   4
   4   4  -3 498.691 21.2344   3
   4   4  -3 530.608 21.3885   2
  -4   4   3 548.239 22.0646   2
  -4   4   3 537.859 20.2492   4
  -2  -4   3 87.4698 4.61301   4
   2  -4  -3 89.6477 5.03293   3
   2  -4  -3 85.7361 4.90998   2
  -2  -4   3 83.7060 5.14708   2
  -2  -4   3 81.9421 4.61088   3
   2   4  -3 84.8923 4.79693   2
  -2   4   3 93.0791 3.80527   4
  -2   4   3 90.1615 5.20213   2
   2   4  -3 103.359 4.52296   4
   2   4  -3 87.4746 4.50049   3
  -2   4   3 89.1749 4.95724   3
   0  -4  -3 130.056 6.26731   2
   0  -4   3 129.710 6.34418   2
   0  -4   3 135.185 6.26407   3
   0  -4   3 136.288 6.15956   4
   0  -4  -3 120.068 6.63968   3
   0   4   3 127.123 5.62919   4
   0   4  -3 129.008 6.50116   2
   0   4   3 126.747 5.57790   4
   0   4  -3 137.351 6.14919   3
   0   4   3 117.170 6.92680   3
   0   4   3 134.016 6.59892   2
   2  -4   3 455.829 19.3279   4
  -2  -4  -3 517.686 20.4342   3
   2  -4   3 491.256 19.7522   2
  -2  -4  -3 491.450 19.3163   2
   2  -4   3 494.808 19.6720   3
  -2   4  -3 455.466 19.8727   2
   2   4   3 468.292 19.5464   2
  -2   4  -3 488.331 19.2704   4
   2   4   3 471.588 19.2322   4
  -2   4  -3 470.745 19.5929   3
   2   4   3 531.487 20.3546   3
   2   4   3 492.386 19.1540   4
   4  -4   3 79.3215 4.68902   2
  -4  -4  -3 82.9396 3.87518   2
  -4  -4  -3 74.4442 5.36387   3
   4  -4   3 76.1885 4.33087   4
   4  -4   3 78.4261 4.70945   3
  -4   4  -3 73.0475 4.28755   4
   4   4   3 71.6302 4.46224   4
  -4   4  -3 80.7978 5.11402   2
   4   4   3 79.2313 4.26193   4
   4   4   3 77.3959 4.19265   2
   4   4   3 76.2833 5.31561   3
   6  -4   3 10.9603 1.96033   4
   6  -4   3 13.5129 2.29119   2
  -6  -4  -3 10.8185 1.08748   2
  -6  -4  -3 11.3476 2.94964   3
  -6   4  -3 15.5662 2.70981   2
   6   4   3 14.7997 3.45336   4
   8  -4   3 179.277 9.47681   3
   8  -4   3 171.920 8.55299   4
   8  -4   3 173.224 8.69203   2
  -8  -4  -3 176.517 10.4032   3
   8   4   3 181.161 8.80768   4
   8   4   3 175.476 14.5104   3
  -8   4  -3 167.789 8.83002   4
  -8   4  -3 181.049 9.64825   2
  10  -4   3 75.0733 7.31498   3
  10  -4   3 92.1954 6.30681   2
  10  -4   3 89.1914 6.05202   4
 -10  -4  -3 103.529 8.64056   3
  10   4   3 98.8854 6.45346   4
 -10   4  -3 82.9633 7.55305   2
  13  -5  -3 133.108 9.15191   3
  13  -5  -3 145.978 7.07932   4
 -13  -5   3 137.583 9.78550   3
  13   5  -3 144.621 7.24552   2
 -13   5   3 158.483 10.4577   2
  13   5  -3 133.349 8.44477   4
  11  -5  -3 11.1225 2.92422   2
 -11  -5   3 4.93236 1.51426   2
  11  -5  -3 1.73302 1.23351   4
  11  -5  -3 4.85521 2.42628   3
 -11  -5   3 3.91944 2.53711   3
  11   5  -3 7.61035 3.05439   3
 -11   5   3 6.48929 3.28726   2
 -11   5   3 2.77867 1.55986   4
  11   5  -3 5.49263 3.06765   4
  11   5  -3 4.49951 1.92208   2
   9  -5  -3 175.383 9.51133   2
  -9  -5   3 189.202 8.27287   2
  -9  -5   3 165.905 9.39221   3
   9  -5  -3 194.890 9.67344   3
   9  -5  -3 199.217 7.86377   4
   9   5  -3 169.969 9.47886   3
  -9   5   3 190.550 7.93383   4
   9   5  -3 176.578 8.64600   2
  -9   5   3 172.817 10.2168   2
  -7  -5   3 93.2587 4.87166   2
   7  -5  -3 94.1017 4.19425   4
  -7  -5   3 90.8100 5.61746   3
   7  -5  -3 83.0918 5.71004   3
  -7   5   3 81.0524 4.02326   4
   7   5  -3 85.5100 5.21387   2
  -7   5   3 87.0235 6.43790   2
   7   5  -3 86.1737 5.21841   4
   7   5  -3 89.4778 5.65577   3
   5  -5  -3 50.1898 4.11094   2
  -5  -5   3 55.2045 3.83859   4
   5  -5  -3 51.5661 2.75968   4
   5  -5  -3 46.5613 4.08450   3
  -5  -5   3 58.6475 4.13288   3
  -5  -5   3 49.3308 3.59337   2
  -5   5   3 55.0914 4.13249   3
   5   5  -3 47.7793 3.83244   2
  -5   5   3 54.5905 2.55001   4
  -5   5   3 48.2953 4.53684   2
   5   5  -3 49.5728 3.92316   3
   5   5  -3 50.0708 3.62302   4
  -3  -5   3 460.567 18.8150   4
  -3  -5   3 498.001 19.1796   3
  -3  -5   3 468.568 18.8674   2
   3  -5  -3 460.231 19.3809   3
   3  -5  -3 441.076 19.1020   2
   3   5  -3 435.666 19.0103   2
  -3   5   3 437.470 19.0369   3
   3   5  -3 439.087 18.4593   4
  -3   5   3 459.070 19.6176   2
  -3   5   3 489.510 17.6620   4
   1  -5  -3 288.228 12.2159   2
  -1  -5   3 274.292 11.9185   4
   1  -5  -3 263.594 12.5075   3
  -1  -5   3 266.644 12.0975   3
  -1  -5   3 290.331 12.2123   2
   1   5  -3 273.274 11.5460   4
  -1   5   3 290.929 11.1074   4
  -1   5   3 268.907 12.5220   2
  -1   5   3 276.402 12.3965   3
   1   5  -3 267.722 12.3649   2
   1  -5   3 689.433 28.3704   4
   1  -5   3 703.997 28.7395   2
   1  -5   3 718.287 28.7221   3
  -1  -5  -3 786.972 29.5495   3
   1   5   3 687.374 28.8236   2
   1   5   3 744.846 27.9947   4
  -1   5  -3 754.943 28.1857   4
   1   5   3 704.254 27.9071   4
  -1   5  -3 710.902 28.5732   3
   1   5   3 719.536 29.1918   3
  -1   5  -3 695.501 29.0677   2
  -3  -5  -3 79.8634 5.58117   3
   3  -5   3 75.8348 4.79893   3
  -3  -5  -3 79.1187 4.27406   2
   3  -5   3 61.2542 4.92986   4
   3  -5   3 70.7604 4.86977   2
  -3   5  -3 67.5644 4.71503   3
   3   5   3 76.1686 4.46706   4
  -3   5  -3 70.1671 4.17801   4
   3   5   3 67.9492 5.43269   3
   3   5   3 75.8345 4.16959   4
  -3   5  -3 63.7212 5.40771   2
   3   5   3 79.1800 4.93313   2
   5  -5   3 14.3050 2.60018   2
  -5  -5  -3 10.6564 2.75731   3
   5  -5   3 14.4980 2.47779   3
   5  -5   3 19.6729 2.51745   4
  -5  -5  -3 18.4352 2.12203   2
   5   5   3 17.9759 2.80709   2
   5   5   3 18.6565 3.39820   3
   5   5   3 12.8143 2.25267   4
   5   5   3 18.4575 2.25879   4
  -5   5  -3 19.1844 3.41219   2
   7  -5   3 456.660 18.0381   4
   7  -5   3 403.633 18.2107   2
   7  -5   3 399.337 18.6095   3
  -7  -5  -3 426.500 19.6635   3
  -7  -5  -3 411.459 16.2755   2
  -7   5  -3 420.148 18.0608   4
   7   5   3 428.118 18.4998   4
   7   5   3 443.611 18.0078   4
  -7   5  -3 448.255 19.3737   2
  -9  -5  -3 70.9587 7.68751   3
   9  -5   3 60.8347 6.56427   3
   9  -5   3 59.1796 6.07850   2
   9  -5   3 54.2012 5.24458   4
   9   5   3 70.8077 5.75703   4
  -9   5  -3 65.7300 7.85779   2
 -12  -6   3 101.956 8.58864   3
 -12  -6   3 102.864 7.51974   2
  12  -6  -3 97.7514 8.05650   3
  12   6  -3 101.800 6.72959   2
 -12   6   3 106.204 9.79404   2
  12   6  -3 102.531 7.45365   4
 -12   6   3 105.034 6.21054   4
 -10  -6   3 12.0304 2.19072   2
 -10  -6   3 10.9839 3.34141   3
  10  -6  -3 11.7898 1.87252   4
  10  -6  -3 8.76793 3.13065   3
 -10   6   3 7.57427 1.66907   4
 -10   6   3 12.7545 4.35740   2
  10   6  -3 10.0144 2.59125   2
   8  -6  -3 110.488 5.40882   4
   8  -6  -3 108.909 7.46010   2
   8  -6  -3 116.629 7.59510   3
  -8  -6   3 111.586 7.27465   3
  -8  -6   3 113.307 6.13870   2
  -8   6   3 113.864 8.46567   2
   8   6  -3 114.996 7.33200   2
   8   6  -3 111.548 7.30999   3
   8   6  -3 115.389 6.80350   4
  -8   6   3 110.659 5.29894   4
  -6  -6   3 73.6377 5.07386   4
  -6  -6   3 58.5142 5.23078   3
   6  -6  -3 57.0352 5.35906   3
  -6  -6   3 67.4076 4.50616   2
   6  -6  -3 68.0147 3.63959   4
  -6   6   3 66.5626 3.31834   4
  -6   6   3 69.0503 6.33538   2
   6   6  -3 67.9544 5.25122   3
  -4  -6   3 70.4868 4.68260   2
   4  -6  -3 65.2372 5.28411   3
  -4  -6   3 65.9545 4.79073   4
  -4  -6   3 70.0475 5.14686   3
   4  -6  -3 65.6821 3.56525   4
   4   6  -3 62.0420 4.99872   2
   4   6  -3 60.0848 4.62163   3
   4   6  -3 69.3616 4.36559   4
  -4   6   3 65.4417 3.20159   4
  -4   6   3 62.5017 5.85954   2
   2  -6  -3 326.666 15.6742   3
  -2  -6   3 366.136 15.4217   3
   2  -6  -3 343.908 15.2509   2
   2   6  -3 360.811 15.0547   3
  -2   6   3 342.383 13.7074   4
   2   6  -3 344.340 15.5140   2
   2   6  -3 346.942 14.4881   4
   0  -6  -3 112.748 6.49299   2
   0  -6   3 110.300 6.77852   4
   0  -6  -3 114.201 7.36542   3
   0  -6   3 113.056 6.66371   3
   0   6  -3 122.848 6.61541   3
   0   6   3 112.351 5.46931   4
   0   6  -3 116.051 7.17360   2
   0   6  -3 119.852 5.91869   4
   0   6   3 126.286 7.48402   2
  -2  -6  -3 67.0322 4.62250   2
   2  -6   3 60.0624 4.61062   4
   2  -6   3 59.8231 4.96650   2
  -2  -6  -3 54.3119 5.65191   3
  -2   6  -3 71.5040 5.05577   3
   2   6   3 78.3447 4.35862   4
   2   6   3 66.6163 4.07605   4
   2   6   3 77.6738 5.71849   2
  -2   6  -3 66.0166 5.80182   2
   4  -6   3 39.5228 4.89653   2
  -4  -6  -3 44.1124 3.71998   2
   4  -6   3 46.4665 4.61648   3
  -4  -6  -3 36.3892 5.07774   3
   4  -6   3 45.7092 4.15436   4
   4   6   3 40.7261 4.04955   4
  -4   6  -3 41.7843 3.72631   4
   4   6   3 47.5314 5.25321   3
   4   6   3 42.6539 3.62035   4
  -4   6  -3 37.0643 4.53858   3
  -4   6  -3 40.3961 5.55118   2
   4   6   3 42.1340 4.54821   2
   6  -6   3 93.3743 6.05021   4
   6  -6   3 82.0408 6.67007   3
  -6  -6  -3 89.2772 4.87165   2
  -6  -6  -3 93.5767 7.79615   3
  -6   6  -3 91.8998 7.89271   2
   6   6   3 84.1640 5.55626   2
   6   6   3 92.9662 5.73668   4
   6   6   3 79.4048 6.32183   4
   8  -6   3 70.8143 7.09652   3
   8  -6   3 79.0128 6.14130   4
   8   6   3 77.4538 6.13845   4
  -8   6  -3 68.7002 8.84900   2
   9  -7  -3 17.7779 2.33593   4
   9  -7  -3 17.1812 3.96067   3
  -9  -7   3 12.7944 3.86875   3
  -9  -7   3 16.8777 2.89230   2
  -9   7   3 21.6396 5.11120   2
  -9   7   3 19.4967 2.89929   4
   9   7  -3 10.8228 3.49387   2
   7  -7  -3 182.764 8.64173   4
   7  -7  -3 195.382 11.1249   3
  -7  -7   3 191.260 10.8212   3
  -7  -7   3 192.177 9.69039   2
   7   7  -3 197.075 10.8722   3
   7   7  -3 209.992 10.6968   2
  -7   7   3 196.828 8.38364   4
  -7   7   3 198.397 11.9628   2
  -5  -7   3 30.8400 5.01045   3
   5  -7  -3 37.9142 3.11312   4
  -5  -7   3 38.1106 4.42966   2
   5  -7  -3 38.4379 5.44910   3
  -5  -7   3 39.4221 4.79546   4
   5   7  -3 33.1757 5.08504   2
   5   7  -3 37.5040 4.40315   4
  -5   7   3 36.1098 5.26057   2
  -5   7   3 31.7256 2.49131   4
   3  -7  -3 57.2734 5.59298   2
  -3  -7   3 50.7711 5.11145   2
  -3  -7   3 47.5659 5.33139   3
   3  -7  -3 48.6705 5.76627   3
  -3  -7   3 52.4027 5.14253   4
  -3   7   3 64.6813 6.65645   2
   3   7  -3 66.1812 4.58772   4
   3   7  -3 58.2827 5.94040   2
  -3   7   3 54.7455 5.27885   3
   3   7  -3 51.8038 4.86199   3
  -3   7   3 60.5416 3.24626   4
  -1  -7   3 184.158 9.84990   3
   1  -7  -3 171.469 9.55677   2
  -1  -7   3 178.731 9.52501   2
   1  -7  -3 182.313 10.2993   3
  -1  -7   3 179.635 9.39888   4
  -1   7   3 176.834 9.85866   3
   1   7  -3 162.402 9.25254   3
  -1   7   3 170.205 7.81041   4
  -1   7   3 203.035 10.7928   2
   1   7  -3 200.970 10.6238   2
   1   7  -3 183.653 8.70136   4
   1  -7   3 20.6990 3.50849   3
  -1  -7  -3 23.9604 4.29224   3
   1  -7   3 22.1231 3.18176   4
   1   7   3 22.2969 3.04433   4
   1   7   3 22.1257 3.94819   2
  -1   7  -3 23.7399 4.32900   2
  -1   7  -3 18.4197 3.13117   3
  -1   7  -3 18.3320 2.47515   4
  -3  -7  -3 42.6577 6.12982   3
   3  -7   3 42.7597 5.58909   3
  -3  -7  -3 39.8208 4.66519   2
   3  -7   3 44.3616 5.06384   4
   3   7   3 43.1762 4.44248   4
  -3   7  -3 35.2383 5.38957   3
  -3   7  -3 49.8807 6.66007   2
  -3   7  -3 39.2168 4.17418   4
   3   7   3 46.2473 5.90009   2
   5  -7   3 253.593 11.8535   4
  -5  -7  -3 232.989 10.9252   2
   5  -7   3 237.482 12.5770   3
   5   7   3 230.466 11.8407   2
  -5   7  -3 232.167 13.6352   2
   5   7   3 235.230 11.5535   4
   5   7   3 231.308 11.1850   4
   6  -8  -3 247.690 13.8626   3
  -6  -8   3 237.168 13.5032   3
   6   8  -3 268.676 13.7980   2
  -6   8   3 244.374 14.8670   2
  -4  -8   3 40.5812 4.91448   4
  -4  -8   3 30.0720 4.85332   3
   4  -8  -3 40.8006 6.59587   3
  -4   8   3 26.4057 5.14105   2
   4   8  -3 45.2027 6.79021   2
  -2  -8   3 97.6558 8.01041   3
  -2  -8   3 98.1914 7.48515   4
   2  -8  -3 81.1238 8.02852   3
   2   8  -3 113.313 8.62452   2
  -2   8   3 94.7716 5.07270   4
  -2   8   3 98.0869 9.22856   2
   0  -8   3 87.6844 7.13391   4
   0  -8   3 79.0005 7.53639   3
   0  -8  -3 76.5194 7.92504   3
   0   8   3 107.720 9.08660   2
   0   8   3 70.7664 4.85855   4
   0   8  -3 89.8695 8.64688   2
   2  -8   3 44.0190 6.34117   4
   2  -8   3 36.7695 5.22446   3
  -2  -8  -3 45.0319 7.36667   3
  -2  -8  -3 60.1088 6.85243   2
  -2   8  -3 47.1358 6.74054   2
   2   8   3 41.7953 5.90924   2
   2   8   3 47.8741 4.74704   4
  16   0  -4 8.87727 2.67574   2
  16   0  -4 8.80972 2.37773   4
  16   0  -4 9.27949 3.39089   3
  16   0  -4 13.4272 1.96217   2
  14   0  -4 -0.7127 1.10242   2
  14   0  -4 0.03352 1.30550   4
  14   0  -4 -1.6171 2.01529   3
  14   0  -4 -0.5196 1.78338   3
  12   0  -4 644.238 26.3821   2
  12   0  -4 650.530 26.6919   3
  12   0  -4 640.206 25.7001   2
  12   0  -4 658.933 26.1068   4
  12   0  -4 702.234 27.2346   3
  10   0  -4 127.818 6.49714   3
  10   0  -4 130.780 6.35797   2
  10   0  -4 121.773 6.16706   3
  10   0  -4 118.592 5.87915   4
  10   0  -4 118.075 5.78961   4
   8   0  -4 361.471 14.8594   4
   8   0  -4 374.575 15.4231   2
   8   0  -4 383.250 15.2939   3
   8   0  -4 374.914 15.0706   3
   6   0  -4 34.2580 1.95083   3
   6   0  -4 32.1643 1.90294   4
   4   0  -4 97.1878 4.22399   2
   4   0  -4 90.8202 3.92986   4
   4   0  -4 96.7534 3.84626   3
  -4   0   4 89.5235 3.99155   4
   2   0  -4 2242.01 84.2627   2
   0   0   4 96.1016 4.38940   4
   0   0  -4 97.7453 4.49589   3
   0   0  -4 106.005 4.45187   2
   0   0   4 104.335 4.51746   3
   0   0  -4 106.842 4.47896   4
   2   0   4 95.6619 4.50851   4
   2   0   4 102.647 4.87890   3
  -2   0  -4 98.7310 4.62205   4
  -2   0  -4 98.5626 4.33008   2
   4   0   4 4.53348 1.29499   3
  -4   0  -4 4.60065 1.09424   4
  -4   0  -4 2.83328 0.73301   2
   4   0   4 2.01050 0.85005   4
   6   0   4 290.768 12.3314   3
  -6   0  -4 248.333 10.4613   2
  -6   0  -4 257.521 11.6544   4
   6   0   4 268.343 11.7163   4
   8   0   4 36.5429 3.43826   4
  -8   0  -4 29.0823 3.83665   4
  10   0   4 3.11949 2.33332   4
  17  -1  -4 64.6015 5.33999   4
  17  -1  -4 65.6295 7.39585   3
  17  -1  -4 65.6054 4.60755   2
  17   1  -4 62.3712 7.32696   3
  17   1  -4 64.7147 5.86393   4
  15  -1  -4 74.4821 4.88028   4
  15  -1  -4 76.4522 6.15661   3
  15  -1  -4 63.5347 7.56868   3
  15  -1  -4 63.6915 5.32850   2
  15   1  -4 68.6793 5.79330   4
  15   1  -4 59.9899 4.83114   2
  15   1  -4 64.7342 3.94408   2
  15   1  -4 72.0937 6.58675   3
  15   1  -4 70.1866 5.12559   4
  13  -1  -4 514.663 22.5536   3
  13  -1  -4 528.820 21.6630   4
  13  -1  -4 518.469 22.9716   3
  13  -1  -4 538.363 22.3106   2
  13   1  -4 568.541 22.1805   4
  13   1  -4 538.512 21.2889   2
  13   1  -4 574.222 22.3897   4
  13   1  -4 531.721 22.9551   3
  13   1  -4 557.455 22.0573   2
  11  -1  -4 163.061 8.00374   2
  11  -1  -4 156.882 7.14305   4
  11  -1  -4 158.466 7.88079   3
  11   1  -4 156.514 7.53859   4
  11   1  -4 159.959 7.61044   4
  11   1  -4 175.661 8.25094   3
  11   1  -4 158.266 7.02484   2
  11   1  -4 151.275 7.62018   2
   9  -1  -4 23.8218 2.67926   2
   9  -1  -4 29.3763 2.41938   3
   9  -1  -4 26.9706 1.90398   4
   9   1  -4 23.2364 2.30394   4
   9   1  -4 26.3609 1.93228   2
   9   1  -4 25.3070 2.44174   3
   7  -1  -4 1034.19 39.7256   3
   7  -1  -4 1015.20 40.1779   2
   7  -1  -4 1023.95 39.2514   4
   7  -1  -4 1032.81 39.2851   4
   7   1  -4 1009.16 39.5012   2
   7   1  -4 1054.74 39.7166   3
   7   1  -4 1087.49 39.6993   4
  -5  -1   4 75.0001 3.55710   2
   5  -1  -4 69.6786 3.09260   4
   5  -1  -4 82.4916 3.55520   3
  -5  -1   4 73.5002 3.57602   4
   5  -1  -4 79.0464 4.14670   2
   5   1  -4 74.7844 3.56735   2
  -5   1   4 73.4876 3.51397   3
   5   1  -4 68.4520 3.47050   4
   5   1  -4 74.9011 3.33102   3
   3  -1  -4 830.267 30.9064   2
   3  -1  -4 747.824 30.2750   3
  -3  -1   4 816.627 30.3979   4
  -3  -1   4 819.271 30.4517   2
   3  -1  -4 797.039 29.9219   4
  -3   1   4 794.970 30.2620   3
   3   1  -4 791.089 30.4643   2
  -3   1   4 782.141 29.9589   4
   3   1  -4 786.210 30.2729   4
  -1  -1   4 120.664 4.88297   3
   1  -1  -4 112.662 5.29506   3
  -1  -1   4 121.372 4.93290   3
  -1  -1   4 125.761 5.22184   4
   1  -1  -4 120.968 5.53092   2
  -1  -1   4 119.191 5.23653   2
   1  -1  -4 117.582 4.98318   4
   1   1  -4 131.352 5.22444   4
   1   1  -4 120.941 5.32043   2
  -1   1   4 120.685 5.28445   3
  -1   1   4 124.629 4.96183   4
   1  -1   4 16.5085 1.50326   4
   1  -1   4 22.1528 1.52503   2
   1  -1   4 22.2435 1.69491   3
  -1  -1  -4 20.0168 1.66756   2
  -1  -1  -4 21.0620 1.32031   2
   1  -1   4 19.3785 1.51244   3
  -1  -1  -4 23.3013 1.60666   4
  -1  -1  -4 19.9944 1.84988   3
   1   1   4 23.6975 1.52829   4
  -1   1  -4 23.0731 1.67441   2
  -1   1  -4 19.2828 1.55375   4
   1   1   4 21.9948 1.92199   3
  -3  -1  -4 512.780 20.0447   2
   3  -1   4 531.004 21.0243   3
   3  -1   4 519.229 20.6328   4
  -3  -1  -4 514.539 21.1837   3
   3  -1   4 518.065 20.3345   2
  -3  -1  -4 542.079 20.3226   2
  -3  -1  -4 524.256 20.7598   4
  -3   1  -4 517.936 20.5103   2
   3   1   4 559.658 20.6517   4
   3   1   4 516.896 21.1620   3
  -5  -1  -4 476.563 18.8735   4
   5  -1   4 452.361 18.5434   4
  -5  -1  -4 449.725 19.3548   3
   5  -1   4 461.590 17.9865   2
   5  -1   4 480.157 19.4201   3
   5   1   4 489.472 18.6359   4
  -5   1  -4 465.253 18.2779   2
  -5   1  -4 482.855 18.8318   4
   5   1   4 406.771 19.1099   3
   7  -1   4 478.072 19.8437   3
   7  -1   4 474.018 18.9208   4
   7  -1   4 454.625 19.6882   3
  -7  -1  -4 447.323 19.2602   4
   7  -1   4 453.137 17.8697   2
   7   1   4 467.790 18.9123   4
   7   1   4 478.702 19.9712   3
  -7   1  -4 442.906 18.2995   2
   9  -1   4 14.0741 3.12097   3
   9  -1   4 13.0127 2.36445   4
   9  -1   4 6.73268 3.01796   3
   9   1   4 11.8035 2.46451   4
   9   1   4 7.62891 3.03423   3
  -9   1  -4 10.7824 1.59211   2
  11  -1   4 12.5091 3.66761   4
  11  -1   4 11.8387 3.92929   3
  11   1   4 12.4626 2.89517   4
  16  -2  -4 34.2695 5.61359   3
  16  -2  -4 31.9301 3.83817   4
  16  -2  -4 44.9032 5.63615   2
  16   2  -4 33.3552 3.06527   2
  14  -2  -4 89.2840 6.34851   3
  14  -2  -4 81.3189 4.94764   4
  14  -2  -4 83.1291 5.99244   2
  14  -2  -4 71.3653 6.90743   3
  14   2  -4 75.7079 6.04287   4
  14   2  -4 94.3551 5.34140   2
  14   2  -4 84.1504 4.54385   2
  14   2  -4 83.4809 6.68774   3
  14   2  -4 88.3826 5.73285   4
  12  -2  -4 15.8797 2.76360   3
  12  -2  -4 14.2878 2.00560   4
  12  -2  -4 18.4521 2.92711   2
  12   2  -4 18.8561 2.60629   2
 -12   2   4 20.2075 3.06491   2
  12   2  -4 17.7713 2.94175   3
  12   2  -4 13.6386 1.97394   2
  12   2  -4 18.9934 2.55932   4
  12   2  -4 18.6787 2.69995   4
  10  -2  -4 871.482 35.3912   3
  10  -2  -4 896.697 35.6863   2
  10  -2  -4 905.008 34.4817   4
  10   2  -4 909.654 34.7017   2
  10   2  -4 924.701 35.2968   4
 -10   2   4 899.018 35.7229   2
   8  -2  -4 243.845 9.76109   4
   8  -2  -4 244.212 10.6352   3
  -8  -2   4 256.838 10.6585   3
   8  -2  -4 238.815 11.0228   2
   8   2  -4 249.274 10.6055   3
   8   2  -4 252.674 10.2569   2
  -8   2   4 242.007 11.0582   2
   8   2  -4 249.602 10.5525   4
  -8   2   4 244.137 10.6925   3
  -6  -2   4 707.115 28.4824   2
   6  -2  -4 723.695 27.8448   4
   6  -2  -4 750.355 27.9153   4
   6  -2  -4 779.196 28.8354   3
   6  -2  -4 733.233 29.2561   2
  -6  -2   4 772.499 28.8176   4
  -6  -2   4 717.028 28.5478   3
  -6   2   4 753.379 28.8118   3
   6   2  -4 763.535 28.7150   4
   6   2  -4 695.175 28.5606   2
   6   2  -4 765.551 28.5892   3
  -6   2   4 725.681 29.2413   2
  -4  -2   4 4.11452 0.84894   4
   4  -2  -4 6.04448 1.35376   2
   4  -2  -4 5.96934 1.03283   3
  -4  -2   4 5.77013 1.01774   2
  -4   2   4 2.60458 1.03200   2
   4   2  -4 3.03257 0.76407   2
   4   2  -4 2.62766 0.71271   4
   4   2  -4 4.69179 0.70647   3
  -4   2   4 3.21337 0.78256   3
  -2  -2   4 612.609 24.5390   4
  -2  -2   4 648.623 24.6248   2
   2  -2  -4 634.084 24.9572   2
  -2  -2   4 633.636 24.1523   3
   2  -2  -4 611.633 24.6946   3
   2   2  -4 663.604 24.4690   4
  -2   2   4 664.976 24.9788   2
   2   2  -4 630.210 24.7102   2
  -2   2   4 607.178 23.8971   4
   2   2  -4 618.885 24.0977   3
  -2   2   4 657.004 24.6890   3
   0  -2   4 1110.65 40.8013   2
   0  -2  -4 1080.25 40.8986   2
   0  -2   4 1045.28 40.4729   3
   0  -2   4 1067.05 40.6913   4
   0  -2  -4 1027.50 40.4232   4
   0  -2  -4 1091.32 41.1104   3
   0   2   4 1030.79 40.9800   3
   0   2   4 1049.19 40.3222   4
   0   2  -4 1100.81 40.6715   4
   0   2  -4 1065.60 40.8979   2
   2  -2   4 111.019 5.10836   2
   2  -2   4 106.552 5.08246   4
   2  -2   4 108.673 5.14327   3
  -2  -2  -4 112.947 4.99344   2
  -2  -2  -4 104.927 5.61405   3
  -2  -2  -4 111.405 5.13033   4
   2   2   4 116.054 5.74011   3
  -2   2  -4 105.196 5.77918   4
  -2   2  -4 105.718 5.22605   2
   2   2   4 109.053 4.93051   4
   4  -2   4 186.752 8.20991   4
   4  -2   4 180.324 8.42969   3
  -4  -2  -4 187.735 7.25448   2
   4  -2   4 192.712 8.72796   3
   4  -2   4 183.283 8.00749   2
  -4  -2  -4 199.110 7.40459   2
  -4  -2  -4 189.021 8.44249   4
  -4  -2  -4 170.653 8.87518   3
  -4   2  -4 187.141 8.30347   2
   4   2   4 184.160 8.11120   4
   4   2   4 185.652 8.97912   3
  -4   2  -4 183.853 8.32275   4
   6  -2   4 69.7132 5.04975   3
  -6  -2  -4 71.6062 6.32754   3
   6  -2   4 77.1955 4.35504   4
   6  -2   4 76.5937 4.78321   3
   6  -2   4 70.1690 3.81617   2
   6   2   4 66.1762 5.22534   3
  -6   2  -4 71.5489 4.29028   2
   6   2   4 57.4981 4.74449   4
   8  -2   4 28.5038 4.08138   3
   8  -2   4 29.1705 3.39346   4
   8  -2   4 24.8732 2.43693   2
  -8   2  -4 30.2658 3.82148   4
   8   2   4 27.6855 4.66518   3
  -8   2  -4 30.6352 3.43294   2
   8   2   4 25.9624 3.33498   4
  10  -2   4 98.5878 6.50704   4
  10  -2   4 106.645 7.91800   3
 -10   2  -4 110.660 6.30834   2
  10   2   4 104.929 6.60595   4
  15  -3  -4 229.901 10.0327   4
  15  -3  -4 208.405 11.6228   3
  15  -3  -4 219.197 11.4881   2
  15   3  -4 212.109 10.0212   2
  15   3  -4 214.371 9.51907   2
  15   3  -4 228.213 11.1788   4
  13  -3  -4 83.2970 6.30873   3
  13  -3  -4 81.7197 6.18059   2
  13  -3  -4 83.0489 4.71119   4
  13   3  -4 89.8882 4.85608   2
  13   3  -4 96.4519 6.03184   4
 -13   3   4 96.5039 6.68455   2
  13   3  -4 92.2070 6.16249   4
  13   3  -4 86.1802 6.48362   3
  13   3  -4 95.6756 5.55803   2
 -11  -3   4 17.9948 2.72042   3
  11  -3  -4 21.7704 3.14696   2
  11  -3  -4 22.9313 3.75125   3
  11  -3  -4 23.4497 2.02695   4
  11   3  -4 24.5676 3.53943   3
  11   3  -4 27.0378 2.52133   2
 -11   3   4 22.0669 3.24092   2
   9  -3  -4 124.496 6.81919   3
   9  -3  -4 135.938 7.28433   2
  -9  -3   4 128.829 6.12202   2
  -9  -3   4 118.776 6.76844   3
   9  -3  -4 137.676 5.70695   4
   9   3  -4 138.043 6.39967   2
   9   3  -4 135.704 7.22495   3
  -9   3   4 140.624 7.47612   2
  -9   3   4 148.363 7.11775   3
   9   3  -4 150.649 6.92121   4
   7  -3  -4 277.255 10.2457   4
  -7  -3   4 263.228 10.9937   2
   7  -3  -4 264.562 11.5120   3
  -7  -3   4 272.303 11.4447   4
   7  -3  -4 254.608 12.1899   2
  -7  -3   4 278.290 11.3790   3
   7   3  -4 266.557 11.3814   4
  -7   3   4 259.771 12.0169   2
   7   3  -4 262.793 11.1726   2
   7   3  -4 264.776 11.3436   3
  -7   3   4 258.446 11.4853   3
  -5  -3   4 707.121 26.4871   4
  -5  -3   4 694.675 26.2672   2
   5  -3  -4 642.165 26.5116   3
   5  -3  -4 696.687 27.0107   2
  -5  -3   4 627.164 26.1194   3
   5   3  -4 681.496 26.3017   4
  -5   3   4 660.825 27.0063   2
   5   3  -4 655.766 26.3686   2
  -5   3   4 694.946 26.5361   3
   5   3  -4 675.757 26.1547   3
  -3  -3   4 21.4100 1.92004   4
   3  -3  -4 18.9959 2.07232   3
  -3  -3   4 17.1982 1.72926   2
  -3  -3   4 19.5318 1.62918   3
   3  -3  -4 16.1593 2.17697   2
  -3   3   4 17.2669 2.31170   2
   3   3  -4 21.9779 1.80502   4
   3   3  -4 17.9769 1.90406   2
   3   3  -4 19.7730 1.53829   3
  -3   3   4 21.8285 1.98536   3
  -1  -3   4 360.020 14.2861   3
  -1  -3   4 353.455 14.6046   2
  -1  -3   4 351.485 14.4899   4
   1  -3  -4 364.482 14.8295   2
   1  -3  -4 380.063 15.0167   3
   1   3  -4 373.170 14.8119   2
  -1   3   4 358.647 14.8364   2
  -1   3   4 372.644 14.8733   3
  -1   3   4 345.250 13.8043   4
  -1   3   4 337.258 13.9198   4
   1   3  -4 354.812 14.3138   4
   1   3  -4 353.196 14.2131   3
  -1  -3  -4 455.580 17.7335   2
   1  -3   4 447.559 17.6419   3
   1  -3   4 449.995 17.8691   2
  -1  -3  -4 428.417 18.2776   3
   1  -3   4 418.279 17.6212   4
   1   3   4 436.468 17.7378   2
   1   3   4 440.318 17.2858   4
  -1   3  -4 450.999 18.0228   2
  -1   3  -4 455.932 17.6413   4
   1   3   4 445.392 18.2584   3
  -3  -3  -4 16.5327 2.70858   3
  -3  -3  -4 18.6217 1.67491   2
   3  -3   4 19.6170 2.17309   3
   3  -3   4 17.4932 1.97408   4
   3   3   4 18.1191 2.71251   3
  -3   3  -4 17.4303 2.01976   4
  -3   3  -4 17.2082 2.46743   2
   3   3   4 15.8393 1.80397   4
   5  -3   4 80.4926 4.85999   3
   5  -3   4 77.8206 4.44761   4
  -5  -3  -4 70.7042 7.00954   3
   5  -3   4 78.3114 4.50148   2
  -5   3  -4 82.9584 4.95136   2
   5   3   4 80.5197 5.66224   3
   5   3   4 76.5839 4.39642   4
   7  -3   4 22.4761 3.52271   3
   7  -3   4 19.7543 2.82646   2
   7  -3   4 22.1077 3.07130   4
  -7  -3  -4 26.0344 3.93677   3
   7   3   4 19.1487 3.36899   3
  -7   3  -4 22.3118 3.04978   4
   7   3   4 19.1489 2.93819   4
  -7   3  -4 22.7679 3.05997   2
  -9  -3  -4 165.601 10.7057   3
   9  -3   4 155.089 7.82334   2
   9  -3   4 168.872 9.60226   3
   9  -3   4 167.234 8.62442   4
   9  -3   4 166.562 13.0976   3
   9   3   4 171.764 8.63972   4
  -9   3  -4 163.117 9.09479   2
  14  -4  -4 87.2289 7.27516   3
 -14  -4   4 96.7874 7.81261   3
  14  -4  -4 91.4446 7.66632   2
  14   4  -4 92.5926 5.26013   2
  14   4  -4 69.1441 8.52091   2
  14   4  -4 91.2517 6.70398   4
  12  -4  -4 133.941 8.00575   2
  12  -4  -4 126.352 6.03086   4
  12  -4  -4 131.909 7.87420   3
 -12  -4   4 143.326 8.13282   3
  12   4  -4 135.030 6.64166   2
  12   4  -4 124.956 7.94711   3
 -12   4   4 122.552 8.48763   2
  10  -4  -4 650.073 26.9661   3
  10  -4  -4 654.670 27.1934   2
 -10  -4   4 663.405 25.8687   2
  10  -4  -4 631.676 25.3061   4
 -10  -4   4 705.711 27.1514   3
 -10   4   4 597.643 26.8694   3
 -10   4   4 643.925 25.5760   4
 -10   4   4 643.591 27.6797   2
  10   4  -4 676.180 26.2049   2
  10   4  -4 726.881 27.2411   3
  -8  -4   4 669.899 26.0642   2
   8  -4  -4 679.095 26.8931   3
  -8  -4   4 624.151 26.5871   3
   8  -4  -4 686.331 27.2355   2
   8  -4  -4 642.503 25.2160   4
   8   4  -4 688.133 26.5675   4
  -8   4   4 668.135 26.8558   3
  -8   4   4 646.049 27.3702   2
   8   4  -4 693.317 26.9065   3
   8   4  -4 661.958 26.3384   2
  -8   4   4 641.295 25.3449   4
  -6  -4   4 55.1429 3.68435   4
   6  -4  -4 56.6608 4.02739   2
  -6  -4   4 56.0727 3.57807   3
   6  -4  -4 56.8766 3.92329   3
  -6  -4   4 51.9608 3.28464   2
  -6   4   4 47.7495 3.64300   3
   6   4  -4 49.5122 3.45706   4
  -6   4   4 50.0900 4.19277   2
   6   4  -4 46.0775 3.44141   2
   6   4  -4 54.0394 3.55696   3
  -6   4   4 48.4687 2.22223   4
  -4  -4   4 135.549 6.39560   4
  -4  -4   4 122.766 6.18125   2
  -4  -4   4 135.166 6.27236   3
   4  -4  -4 120.931 6.59529   3
   4  -4  -4 120.313 6.67586   2
   4   4  -4 136.612 6.13840   3
  -4   4   4 130.631 7.03275   2
  -4   4   4 135.569 6.60493   3
   4   4  -4 130.421 6.14673   4
   4   4  -4 133.926 6.48688   2
  -2  -4   4 5.88893 1.26844   4
  -2  -4   4 9.58756 1.48498   3
   2  -4  -4 5.29352 1.57060   3
  -2  -4   4 9.09091 1.57491   2
   2   4  -4 13.1877 1.95401   2
   2   4  -4 9.74148 1.35585   4
  -2   4   4 9.33564 1.71081   3
   2   4  -4 11.5340 1.59406   3
  -2   4   4 9.51935 1.88826   2
  -2   4   4 10.3355 0.97470   4
  -2   4   4 10.5457 0.91633   4
   0  -4  -4 230.954 9.90059   2
   0  -4   4 224.461 9.72753   4
   0  -4   4 248.370 10.0745   2
   0  -4   4 236.121 9.75279   3
   0  -4  -4 241.161 10.5004   3
   0   4  -4 221.798 9.50275   4
   0   4   4 209.435 10.1545   3
   0   4  -4 209.090 9.52441   3
   0   4   4 215.276 9.01046   4
   0   4   4 205.161 9.12201   4
   0   4  -4 218.102 10.0849   2
   0   4   4 213.464 10.0224   2
  -2  -4  -4 196.442 8.30181   2
   2  -4   4 186.029 8.69681   2
   2  -4   4 193.933 8.47664   4
  -2  -4  -4 186.538 9.27864   3
   2  -4   4 182.223 8.49599   3
   2   4   4 184.132 8.27950   4
   2   4   4 192.816 9.30684   3
  -2   4  -4 185.403 8.97814   2
   2   4   4 182.469 8.00951   4
   2   4   4 183.292 8.47967   2
  -2   4  -4 186.921 8.33898   4
  -2   4  -4 183.589 8.57045   3
   4  -4   4 352.223 14.4749   3
  -4  -4  -4 333.049 13.3704   2
   4  -4   4 328.026 14.0953   4
   4  -4   4 338.526 14.3467   2
  -4  -4  -4 326.501 15.2199   3
  -4   4  -4 335.786 14.7671   2
   4   4   4 326.588 13.8552   4
   4   4   4 340.458 15.1816   3
  -6  -4  -4 68.8522 6.07373   3
   6  -4   4 72.4070 4.88392   2
   6  -4   4 69.6668 4.70789   4
   6  -4   4 78.6236 5.37320   3
   6   4   4 73.0407 6.23117   3
   6   4   4 74.8054 4.59929   4
  -6   4  -4 66.8428 4.95820   4
  -6   4  -4 53.1205 7.35492   2
   8  -4   4 48.2259 4.45851   4
   8  -4   4 46.2700 5.34112   3
   8  -4   4 51.1961 6.57709   3
   8  -4   4 42.2573 4.51213   2
  -8  -4  -4 43.1965 6.46543   3
   8   4   4 37.1981 4.40274   4
  -8   4  -4 51.6967 5.69023   2
  13  -5  -4 226.872 9.88616   4
 -13  -5   4 232.889 12.6493   3
  13  -5  -4 235.102 12.2450   3
  13   5  -4 227.514 10.6075   2
 -13   5   4 221.632 13.2460   2
 -11  -5   4 7.33033 2.45791   3
  11  -5  -4 8.02899 2.69872   3
  11  -5  -4 9.34797 3.52436   2
 -11  -5   4 7.18520 1.86222   2
  11  -5  -4 8.48789 1.34988   4
 -11   5   4 3.97848 3.34508   2
  11   5  -4 9.84601 2.70214   4
 -11   5   4 8.86296 1.61927   4
 -11   5   4 8.04809 2.60020   3
  11   5  -4 9.43743 2.26436   2
  11   5  -4 5.23710 2.57919   3
   9  -5  -4 43.8080 2.51283   4
   9  -5  -4 44.0005 4.46338   3
  -9  -5   4 39.2811 4.14643   3
   9  -5  -4 43.8333 4.80511   2
  -9  -5   4 39.4738 3.24879   2
  -9   5   4 36.5614 5.16681   2
   9   5  -4 40.4741 4.36484   3
  -9   5   4 37.4836 2.48224   4
   9   5  -4 37.9465 3.75086   2
  -7  -5   4 184.442 9.03862   4
  -7  -5   4 178.513 8.49541   2
   7  -5  -4 179.875 7.45025   4
  -7  -5   4 170.001 8.98334   3
   7  -5  -4 176.885 9.41368   3
   7   5  -4 200.526 8.94076   4
   7   5  -4 183.992 8.91514   2
  -7   5   4 187.739 7.44051   4
  -7   5   4 186.971 9.96888   2
   7   5  -4 195.695 9.11373   3
  -7   5   4 200.593 9.42443   3
   5  -5  -4 4.23230 1.82070   3
  -5  -5   4 2.56194 1.51118   4
   5  -5  -4 3.63568 1.74664   2
  -5  -5   4 4.81842 1.58735   3
  -5  -5   4 2.66398 1.18819   2
  -5   5   4 3.86846 1.59909   3
  -5   5   4 4.51742 2.41305   2
   5   5  -4 2.86424 1.16591   4
   5   5  -4 5.37985 1.72503   2
   3  -5  -4 622.681 24.8598   2
  -3  -5   4 552.353 24.2720   4
   3  -5  -4 636.324 25.0947   3
  -3  -5   4 635.905 24.5350   2
  -3  -5   4 590.079 24.3756   3
  -3   5   4 600.407 25.2014   2
   3   5  -4 621.354 24.1868   3
   3   5  -4 645.964 24.1281   4
  -3   5   4 584.870 22.9979   4
  -3   5   4 595.018 24.6837   3
   3   5  -4 588.072 24.6526   2
  -1  -5   4 116.600 6.18257   4
   1  -5  -4 110.751 6.27264   2
   1  -5  -4 106.708 6.81291   3
  -1  -5   4 121.376 6.22375   3
   1   5  -4 113.255 6.56927   2
  -1   5   4 119.891 5.21797   4
   1   5  -4 119.767 6.15964   3
  -1   5   4 114.407 5.13697   4
  -1   5   4 126.280 6.75987   3
  -1   5   4 115.448 6.83000   2
   1   5  -4 125.721 5.82380   4
  -1  -5  -4 97.9029 6.70277   3
   1  -5   4 109.914 5.83885   3
   1  -5   4 101.010 5.93078   2
  -1   5  -4 105.681 5.72168   3
   1   5   4 93.3358 5.05787   4
  -1   5  -4 113.942 5.46236   4
   1   5   4 102.562 6.39748   3
  -1   5  -4 107.712 6.44941   2
   1   5   4 100.603 6.17411   2
   1   5   4 101.277 4.94964   4
  -3  -5  -4 242.105 10.2993   2
   3  -5   4 238.052 10.9708   3
   3  -5   4 244.027 11.1168   2
   3  -5   4 216.038 10.6057   4
  -3  -5  -4 251.349 11.9487   3
  -3   5  -4 236.016 10.9745   3
   3   5   4 235.783 10.6916   2
  -3   5  -4 239.098 11.5875   2
   3   5   4 233.754 10.5083   4
   3   5   4 239.640 10.2401   4
   5  -5   4 -0.7568 1.58283   4
   5  -5   4 0.59778 1.79465   3
   5  -5   4 1.92130 2.28743   2
  -5  -5  -4 2.34626 1.22945   2
  -5  -5  -4 -0.5166 2.33867   3
   5   5   4 4.05048 2.24345   4
   5   5   4 2.06850 1.55964   4
  -5   5  -4 0.70663 2.71556   2
   5   5   4 0.27271 2.71203   3
  -5   5  -4 0.95382 1.96053   4
   7  -5   4 259.376 12.6850   2
  -7  -5  -4 275.322 14.1588   3
   7  -5   4 257.078 12.3043   4
   7  -5   4 251.517 12.9876   3
  -7   5  -4 276.096 13.7971   2
   7   5   4 265.851 12.9183   4
   7   5   4 280.208 12.2799   4
  12  -6  -4 179.706 8.29957   4
 -12  -6   4 193.261 11.2577   3
  12  -6  -4 168.977 10.9099   3
  12   6  -4 186.023 9.71343   2
 -12   6   4 204.922 11.1791   4
  10  -6  -4 99.8846 7.37864   3
 -10  -6   4 106.597 7.48896   3
  10  -6  -4 101.375 5.07135   4
 -10   6   4 116.151 8.94451   2
  10   6  -4 105.309 7.48663   3
 -10   6   4 104.150 5.17209   4
  10   6  -4 101.475 6.62151   2
   8  -6  -4 116.544 8.07644   3
  -8  -6   4 153.244 8.19047   3
   8  -6  -4 115.761 5.82458   4
   8  -6  -4 144.221 8.58534   2
   8   6  -4 138.812 7.73701   2
  -8   6   4 133.426 5.81220   4
   8   6  -4 144.487 8.05233   3
  -8   6   4 137.452 8.21201   3
   8   6  -4 147.143 7.77930   4
  -8   6   4 132.695 9.17114   2
  -6  -6   4 13.0333 2.66000   4
   6  -6  -4 7.78052 2.49571   3
  -6  -6   4 11.3711 2.42721   3
   6   6  -4 9.96635 2.55344   2
  -6   6   4 9.98521 2.65603   3
   6   6  -4 9.72791 2.35383   3
  -6   6   4 9.71886 1.18954   4
  -6   6   4 4.29834 2.98557   2
  -4  -6   4 148.148 7.61202   4
  -4  -6   4 140.461 7.61524   3
   4  -6  -4 134.957 8.15884   3
  -4   6   4 135.946 8.57460   2
   4   6  -4 142.444 7.33219   3
  -4   6   4 137.926 5.70743   4
   4   6  -4 138.735 7.91327   2
  -2  -6   4 165.934 8.33022   3
  -2  -6   4 165.683 8.21346   4
   2  -6  -4 154.015 8.81441   3
   2  -6  -4 163.609 8.42571   2
   2   6  -4 146.488 7.80514   3
   2   6  -4 157.600 8.69975   2
  -2   6   4 157.041 9.24810   2
  -2   6   4 153.510 6.57925   4
   0  -6  -4 103.813 6.16242   2
   0  -6   4 108.197 6.34186   3
   0  -6  -4 99.1737 7.09377   3
   0  -6   4 109.668 6.22812   4
   0   6  -4 106.871 6.93258   2
   0   6  -4 100.223 6.04345   3
   0   6   4 101.720 6.97811   2
   0   6   4 97.5002 6.88900   3
   0   6   4 98.0434 4.91854   4
   0   6   4 96.7746 5.00267   4
   2  -6   4 230.652 11.3735   2
   2  -6   4 224.353 11.1759   3
  -2  -6  -4 236.979 12.1479   3
  -2  -6  -4 233.736 10.6834   2
   2  -6   4 250.088 11.0913   4
   2   6   4 231.186 11.4315   2
   2   6   4 237.353 10.1237   4
  -2   6  -4 243.971 12.1164   2
  -2   6  -4 239.116 11.0938   3
   2   6   4 202.875 11.7048   3
  -2   6  -4 219.719 10.4388   4
   2   6   4 239.414 10.3756   4
   4  -6   4 21.2544 3.31665   3
   4  -6   4 27.2799 3.92861   4
  -4  -6  -4 23.9430 3.37156   2
  -4  -6  -4 21.9077 3.79571   3
   4   6   4 28.6680 3.50508   2
  -4   6  -4 18.7848 4.36198   2
   4   6   4 22.0178 3.00587   4
   4   6   4 25.3887 3.12890   4
   6  -6   4 33.2073 5.43261   3
   6  -6   4 30.4222 3.87864   4
  -6   6  -4 35.4324 5.52599   2
   6   6   4 38.4127 4.48905   4
   6   6   4 27.5627 3.98672   4
 -11  -7   4 114.053 7.40619   2
 -11  -7   4 143.001 9.80872   3
  11   7  -4 121.502 8.56749   2
   9  -7  -4 9.06192 3.80964   3
  -9  -7   4 10.4618 3.41221   3
   9  -7  -4 8.19550 2.08170   4
  -9  -7   4 6.32778 2.73602   2
  -9   7   4 13.3485 4.89881   2
   9   7  -4 8.85193 3.20462   2
  -7  -7   4 48.3554 5.05832   2
   7  -7  -4 54.1380 6.25106   3
   7  -7  -4 51.0313 3.21018   4
  -7  -7   4 61.6655 5.86251   3
  -7  -7   4 54.0266 5.64932   4
  -7   7   4 48.9778 7.46837   2
  -7   7   4 52.0678 2.94555   4
   7   7  -4 45.8719 5.59307   3
   7   7  -4 58.4374 5.93925   2
   5  -7  -4 104.498 7.86199   3
  -5  -7   4 118.297 7.71424   3
  -5  -7   4 113.879 7.34526   4
   5   7  -4 122.308 7.96669   2
  -5   7   4 120.635 9.07686   2
   5   7  -4 113.832 6.69756   4
  -5   7   4 113.133 4.93566   4
   5   7  -4 106.876 6.99061   3
   3  -7  -4 33.7734 4.79432   3
  -3  -7   4 41.9801 4.94304   4
  -3  -7   4 40.9423 4.86290   3
   3  -7  -4 29.5909 4.37512   2
  -3  -7   4 39.1531 6.39749   2
   3   7  -4 31.0637 4.29764   3
   3   7  -4 28.5338 3.89645   4
  -3   7   4 41.1899 6.25167   2
   3   7  -4 37.7903 5.59057   2
  -3   7   4 31.5815 2.31045   4
  -1  -7   4 1.09636 2.37550   3
   1  -7  -4 -1.9479 2.66146   3
   1  -7  -4 -1.1615 2.46629   2
  -1  -7   4 2.98387 2.28418   4
   1   7  -4 -0.6738 1.92702   4
  -1   7   4 0.56247 1.21238   4
   1   7  -4 3.20249 2.35212   3
  -1   7   4 0.26082 3.40267   2
   1   7  -4 -1.7195 3.09594   2
  -1   7   4 0.43699 1.23625   4
   1  -7   4 59.0999 5.55708   4
  -1  -7  -4 52.7887 6.52888   3
   1  -7   4 59.3660 5.77159   3
  -1   7  -4 49.0433 5.52624   3
   1   7   4 60.9144 3.95395   4
  -1   7  -4 46.1039 6.64248   2
   1   7   4 54.0542 4.25480   4
   1   7   4 59.0163 6.64193   2
   3  -7   4 79.7423 7.07689   3
   3  -7   4 80.6110 6.46338   4
  -3  -7  -4 87.7807 6.01551   2
  -3  -7  -4 72.5232 7.37093   3
   3   7   4 71.7259 5.69402   4
   3   7   4 82.5383 7.29632   2
  -3   7  -4 71.7495 8.05302   2
  -3   7  -4 68.0820 6.76498   3
   3   7   4 79.7682 5.15216   4
   5  -7   4 208.766 11.8275   3
  -6  -8   4 109.200 8.02046   4
  -6  -8   4 101.184 8.43269   3
   6  -8  -4 91.2381 8.95412   3
  -6   8   4 91.7850 10.1895   2
   6   8  -4 108.669 9.10574   2
  -4  -8   4 26.5713 4.18166   4
  -4  -8   4 21.8811 4.22276   3
   4  -8  -4 18.8458 4.44953   3
  -4   8   4 23.8050 4.97807   2
   4   8  -4 19.0630 4.55836   2
  -2  -8   4 6.23184 3.55833   3
  -2  -8   4 11.5557 3.59788   4
   2  -8  -4 6.77209 3.97179   3
  -2   8   4 8.47999 5.11870   2
  -2   8   4 7.26789 2.09481   4
   2   8  -4 10.9384 4.52768   2
   0  -8   4 153.662 10.1634   3
   0  -8  -4 152.532 11.1684   3
   0  -8   4 151.256 9.70848   4
   0   8   4 165.841 7.79569   4
   0   8   4 163.911 11.3326   2
   0   8  -4 153.082 11.1816   2
  16   0  -5 6.31276 3.00829   3
  16   0  -5 4.91964 1.91534   4
  16   0  -5 5.13932 1.87012   2
  16   0  -5 7.99615 2.71809   2
  16   0  -5 10.6199 3.02199   4
  14   0  -5 86.9362 5.93395   3
  14   0  -5 86.1333 5.47741   4
  14   0  -5 79.1077 5.69648   2
  14   0  -5 80.6631 6.23119   3
  14   0  -5 85.4869 5.06826   4
  14   0  -5 84.3931 4.73534   2
  12   0  -5 284.672 12.8077   3
  12   0  -5 293.776 12.4484   4
  12   0  -5 293.654 12.3284   4
  12   0  -5 289.799 13.1422   3
  12   0  -5 293.137 12.1748   2
  12   0  -5 286.240 13.1170   2
  10   0  -5 338.142 13.5213   2
  10   0  -5 319.418 13.9722   3
  10   0  -5 328.450 13.5277   4
  10   0  -5 328.168 13.7639   3
  10   0  -5 333.041 13.5263   4
  10   0  -5 332.647 14.2709   2
   8   0  -5 881.419 34.8629   4
   8   0  -5 893.664 35.1720   3
   8   0  -5 917.384 35.0019   3
   8   0  -5 942.035 35.7716   2
   8   0  -5 924.159 35.0790   2
  -6   0   5 181.164 7.62857   4
   6   0  -5 187.663 7.87325   2
   6   0  -5 189.181 7.56754   4
   6   0  -5 182.383 7.48173   3
   4   0  -5 23.3738 1.65554   2
  -4   0   5 22.9865 1.45639   4
  -4   0   5 22.2036 1.13416   3
   4   0  -5 21.2919 1.34370   4
   2   0  -5 1309.66 47.9916   2
  -2   0   5 1272.99 47.7686   4
  -2   0   5 1235.42 47.5476   3
   2   0  -5 1214.98 47.5624   3
   2   0  -5 1288.86 47.7632   4
   0   0   5 372.414 15.3676   3
   0   0   5 392.368 15.3136   4
   0   0  -5 402.592 15.3394   2
   0   0  -5 390.560 15.3648   4
  -2   0  -5 461.882 18.2966   2
  -2   0  -5 476.643 18.7362   4
   2   0   5 477.517 18.5250   4
   2   0   5 460.132 18.8348   3
  -4   0  -5 95.7149 4.35754   2
   4   0   5 94.7908 4.84191   4
  -4   0  -5 92.1355 5.07252   4
  -6   0  -5 0.59889 0.87414   2
   6   0   5 -1.6809 1.75586   3
   6   0   5 -0.4200 1.23580   4
  -6   0  -5 2.21306 1.73991   4
   8   0   5 180.126 8.87540   4
   8   0   5 178.262 10.2471   3
  10   0   5 1.92770 2.79259   4
  17  -1  -5 121.588 6.81524   2
  17  -1  -5 127.870 7.18513   4
  17  -1  -5 115.792 8.14667   2
  17  -1  -5 117.669 8.77486   3
  17   1  -5 126.035 7.51090   4
  17   1  -5 117.897 8.66979   3
  17   1  -5 117.038 6.26023   2
  15  -1  -5 142.081 8.94953   3
  15  -1  -5 137.403 8.04360   2
  15  -1  -5 135.524 8.37801   3
  15  -1  -5 143.773 7.11811   4
  15   1  -5 139.534 6.74932   2
  15   1  -5 135.816 7.70376   2
  15   1  -5 137.373 7.57176   4
  15   1  -5 136.313 8.67760   3
  15   1  -5 138.700 7.91213   4
  13  -1  -5 264.042 11.3561   4
  13  -1  -5 262.416 12.1235   2
  13  -1  -5 252.013 12.3076   3
  13  -1  -5 270.203 11.1187   4
  13   1  -5 249.803 11.7729   2
  13   1  -5 262.785 10.9772   2
  13   1  -5 260.673 11.6533   4
  13   1  -5 235.491 12.0189   3
  11  -1  -5 166.615 7.62803   4
  11  -1  -5 171.013 7.53959   4
  11  -1  -5 164.584 8.51996   2
  11  -1  -5 167.113 8.14778   3
  11   1  -5 177.154 8.03874   4
  11   1  -5 181.041 8.48641   2
  11   1  -5 174.956 7.64600   2
   9  -1  -5 15.7893 1.48454   4
   9  -1  -5 15.1723 1.56857   4
   9  -1  -5 14.2560 1.87352   3
   9  -1  -5 18.7705 2.58432   2
   9   1  -5 14.3847 1.90359   4
   9   1  -5 17.6054 1.67746   2
   7  -1  -5 260.123 10.4213   3
  -7  -1   5 255.453 10.4876   4
   7  -1  -5 259.962 11.2093   2
   7  -1  -5 230.362 9.92482   4
   7   1  -5 250.181 10.3906   4
   7   1  -5 257.218 10.2698   3
   7   1  -5 255.893 10.4535   2
   5  -1  -5 1466.47 50.5766   2
  -5  -1   5 1299.18 49.7174   4
   5  -1  -5 1198.23 49.1146   4
   5  -1  -5 1261.27 49.5358   3
   5   1  -5 1308.09 49.8075   2
  -5   1   5 1361.80 49.5851   3
   5   1  -5 1277.88 49.1141   3
   5   1  -5 1329.26 49.6144   4
  -5   1   5 1288.25 49.2515   4
   3  -1  -5 289.577 11.5954   2
   3  -1  -5 275.458 10.5323   4
   3  -1  -5 279.649 10.8929   3
  -3  -1   5 271.927 10.9434   4
  -3  -1   5 257.322 10.9864   2
   3   1  -5 273.707 11.0831   2
   3   1  -5 273.195 10.8311   4
  -3   1   5 249.782 10.5100   4
  -3   1   5 275.745 10.7865   3
   1  -1  -5 337.550 13.5607   2
  -1  -1   5 333.997 13.1693   2
   1  -1  -5 316.412 12.8991   4
   1  -1  -5 318.674 13.0226   2
  -1  -1   5 329.291 12.7351   3
  -1  -1   5 339.652 12.8153   3
   1  -1  -5 298.641 13.1449   3
  -1  -1   5 322.320 13.0976   4
   1   1  -5 350.579 13.3240   2
   1   1  -5 325.692 13.0816   4
  -1   1   5 332.864 12.8668   4
  -1   1   5 345.646 13.2229   3
   1  -1   5 362.062 14.3138   2
  -1  -1  -5 359.269 14.5570   2
  -1  -1  -5 355.517 14.3968   4
   1  -1   5 370.302 14.4633   4
   1  -1   5 373.396 14.5168   3
   1  -1   5 363.329 14.3727   3
  -1  -1  -5 351.894 14.7709   3
  -1  -1  -5 368.498 14.1452   2
   1   1   5 356.502 14.2760   4
  -1   1  -5 369.006 14.4981   2
  -1   1  -5 362.247 14.5010   4
   1   1   5 332.930 14.6547   3
  -3  -1  -5 850.281 33.3207   3
  -3  -1  -5 818.164 32.0865   2
  -3  -1  -5 830.845 32.4049   2
   3  -1   5 848.020 33.0655   3
   3  -1   5 819.372 32.3247   2
   3  -1   5 837.860 32.7161   4
  -3  -1  -5 838.995 32.8430   4
   3   1   5 871.788 32.6792   4
   3   1   5 844.873 33.2922   3
  -3   1  -5 864.389 32.5958   2
  -3   1  -5 865.115 32.8956   4
   5  -1   5 40.7005 2.53872   2
   5  -1   5 40.2475 3.15366   4
  -5  -1  -5 43.9287 2.25921   2
   5  -1   5 46.3110 3.99506   3
  -5  -1  -5 43.6415 3.63290   4
  -5   1  -5 44.9080 2.93461   2
   5   1   5 42.2197 4.00860   3
  -5   1  -5 44.2395 3.59483   4
   5   1   5 39.8746 4.19483   4
   7  -1   5 36.1085 4.05124   3
  -7  -1  -5 29.4146 4.01638   4
   7  -1   5 32.1753 3.47761   4
  -7   1  -5 26.5947 3.40121   4
  -7   1  -5 31.2178 2.85733   2
   7   1   5 28.8586 3.38367   4
   9  -1   5 215.356 11.2304   3
   9  -1   5 195.955 10.0371   4
   9   1   5 203.090 10.1047   4
  16  -2  -5 111.716 6.20185   4
  16  -2  -5 104.810 7.95085   3
  16  -2  -5 107.768 7.88786   2
  16   2  -5 102.255 6.91836   2
  16   2  -5 109.347 5.91085   2
  16   2  -5 124.989 7.30174   4
  14  -2  -5 35.0447 2.98668   4
  14  -2  -5 37.0543 4.28715   3
  14  -2  -5 37.5489 4.65823   2
  14   2  -5 32.2109 4.15711   4
  14   2  -5 32.2316 3.82635   4
  14   2  -5 32.3594 4.66486   3
  14   2  -5 34.0147 3.01076   2
  14   2  -5 33.8453 4.15245   2
  12  -2  -5 83.4045 4.43343   4
  12  -2  -5 92.5405 5.54827   3
  12  -2  -5 89.6987 5.92020   2
  12   2  -5 90.2798 5.42830   4
  12   2  -5 89.8922 4.78315   2
  12   2  -5 89.0927 5.73137   3
  10  -2  -5 783.472 32.0556   4
  10  -2  -5 891.311 33.0587   3
  10  -2  -5 811.671 33.4412   2
  10  -2  -5 821.016 31.9432   4
  10   2  -5 851.151 32.9395   3
  10   2  -5 886.092 32.8972   4
  10   2  -5 815.712 32.4478   2
   8  -2  -5 9.83611 1.07274   4
   8  -2  -5 11.1521 0.98710   4
  -8  -2   5 11.2239 1.66525   4
  -8  -2   5 10.2625 1.67707   3
   8  -2  -5 13.0741 1.81860   3
  -8   2   5 12.8318 2.19676   2
   8   2  -5 10.3152 1.51187   4
   8   2  -5 10.4843 1.48115   3
  -8   2   5 8.93242 1.46578   3
   8   2  -5 11.0564 1.60032   2
  -6  -2   5 226.340 9.73108   2
  -6  -2   5 230.153 9.87702   4
  -6  -2   5 221.370 9.41807   3
   6  -2  -5 228.086 9.82360   3
   6  -2  -5 238.620 10.5754   2
   6   2  -5 234.435 9.85992   2
   6   2  -5 238.477 9.78892   4
   6   2  -5 228.674 9.42681   3
  -6   2   5 249.143 9.90868   3
  -6   2   5 237.455 10.5184   2
   4  -2  -5 1716.87 70.2800   3
  -4  -2   5 1895.68 70.3483   2
   4  -2  -5 1880.76 70.9689   2
  -4  -2   5 1869.30 69.6544   3
  -4  -2   5 1871.76 70.3697   4
   4   2  -5 1846.40 70.1639   4
  -4   2   5 1932.41 70.3108   3
   4   2  -5 1847.33 70.4573   2
   2  -2  -5 879.771 35.3598   2
   2  -2  -5 873.077 34.3611   4
  -2  -2   5 927.043 35.0037   2
  -2  -2   5 924.618 34.9746   4
   2  -2  -5 910.472 35.1220   3
  -2  -2   5 887.541 34.3441   3
   2   2  -5 920.662 34.8159   4
  -2   2   5 947.666 35.0706   3
  -2   2   5 898.419 34.2882   4
   2   2  -5 925.103 35.1514   2
   0  -2   5 429.239 16.6272   3
   0  -2   5 421.663 16.9383   2
   0  -2  -5 427.890 17.1751   2
   0  -2   5 434.491 16.9444   4
   0  -2  -5 425.470 16.6772   4
   0  -2  -5 400.206 17.2278   3
   0   2   5 455.845 17.3355   3
   0   2  -5 427.951 16.9829   4
   0   2  -5 402.454 17.0698   2
   0   2   5 424.885 16.5343   4
  -2  -2  -5 20.0974 2.67915   3
   2  -2   5 22.6072 2.04725   4
  -2  -2  -5 21.0477 1.50979   2
   2  -2   5 22.7308 2.02149   3
  -2  -2  -5 21.0903 2.09651   2
  -2  -2  -5 22.4223 2.14398   4
   2  -2   5 24.1206 2.06862   2
   2  -2   5 25.3644 2.33308   3
   2   2   5 21.2271 2.68958   3
   2   2   5 22.7310 1.88666   4
  -2   2  -5 19.9724 2.19719   2
  -2   2  -5 20.4032 2.08594   4
   4  -2   5 19.2695 2.46135   4
  -4  -2  -5 19.9554 3.04254   3
  -4  -2  -5 23.8221 1.39545   2
   4  -2   5 21.8663 2.63157   3
   4  -2   5 22.5004 2.17831   2
  -4  -2  -5 22.6333 2.74978   4
  -4  -2  -5 22.1343 1.64707   2
  -4   2  -5 23.6715 2.48933   2
   4   2   5 19.2581 2.20291   4
   4   2   5 24.3996 3.24168   3
   6  -2   5 431.142 18.4397   3
   6  -2   5 447.360 18.0815   4
  -6  -2  -5 412.864 18.3116   4
   6  -2   5 445.639 17.3813   2
   6  -2   5 420.182 18.7518   3
  -6  -2  -5 452.294 19.2928   3
   6   2   5 445.245 17.9466   4
  -6   2  -5 423.112 17.8575   2
   8  -2   5 31.3247 4.38044   3
   8  -2   5 40.4667 3.03788   2
   8  -2   5 46.8444 4.40041   4
   8  -2   5 36.6803 5.15984   3
   8   2   5 41.8494 4.27890   4
  -8   2  -5 38.3737 4.24855   2
  15  -3  -5 241.171 12.6238   2
  15  -3  -5 267.207 12.7022   3
  15  -3  -5 221.493 10.7406   4
  15   3  -5 220.223 12.8168   3
  15   3  -5 264.284 12.1165   4
  15   3  -5 244.357 11.6185   2
  15   3  -5 253.849 10.8700   2
  13  -3  -5 51.6920 3.20999   4
  13  -3  -5 51.6966 4.79855   3
  13  -3  -5 49.1105 5.19954   2
  13   3  -5 54.2751 4.66262   4
  13   3  -5 42.9333 3.61940   2
 -13   3   5 45.7450 5.46148   2
  13   3  -5 56.4945 5.29281   3
  11  -3  -5 394.804 17.9226   2
  11  -3  -5 415.154 16.1436   4
 -11  -3   5 442.063 17.7199   3
  11  -3  -5 398.459 17.5942   3
  11   3  -5 401.255 16.8645   2
  11   3  -5 426.217 17.6461   3
 -11   3   5 406.338 18.1264   2
  11   3  -5 410.831 17.3513   4
   9  -3  -5 223.802 8.72676   4
  -9  -3   5 216.415 9.64272   2
   9  -3  -5 216.970 10.1203   3
   9  -3  -5 217.085 10.5920   2
  -9  -3   5 234.232 10.0411   3
   9   3  -5 218.071 9.77245   2
   9   3  -5 218.838 9.92897   3
  -9   3   5 230.129 10.2568   3
  -9   3   5 214.587 10.7217   2
   9   3  -5 231.634 10.0319   4
   7  -3  -5 193.761 8.75401   3
  -7  -3   5 194.201 8.68336   4
   7  -3  -5 189.871 9.27189   2
  -7  -3   5 201.312 8.38966   3
  -7   3   5 193.601 9.33112   2
   7   3  -5 185.300 8.53483   2
   7   3  -5 181.871 8.46294   4
  -7   3   5 187.162 8.66840   3
   7   3  -5 189.702 8.32328   3
   5  -3  -5 631.987 28.1753   2
  -5  -3   5 714.072 26.9497   3
   5  -3  -5 690.193 27.5419   3
  -5  -3   5 706.574 27.4540   4
   5   3  -5 674.580 26.8207   3
  -5   3   5 723.990 28.1186   2
   5   3  -5 709.618 27.5196   2
  -5   3   5 733.355 27.4999   3
  -3  -3   5 463.082 17.5726   3
   3  -3  -5 473.143 18.6541   2
  -3  -3   5 458.582 18.1005   4
   3  -3  -5 463.246 18.3443   3
  -3   3   5 441.469 18.1301   3
   3   3  -5 449.455 17.4347   3
   3   3  -5 466.150 18.3034   2
  -3   3   5 400.857 16.9565   4
  -3   3   5 432.302 18.4876   2
  -1  -3   5 318.390 12.8791   3
   1  -3  -5 303.906 13.6359   3
   1  -3  -5 318.856 13.5775   2
  -1  -3   5 324.077 13.4689   2
  -1  -3   5 319.128 13.2757   4
   1   3  -5 317.140 12.8418   3
   1   3  -5 331.328 13.1525   4
  -1   3   5 315.462 13.5693   2
  -1   3   5 322.709 12.5228   4
  -1   3   5 332.667 13.6399   3
   1   3  -5 333.558 13.6036   2
  -1  -3  -5 486.355 19.5224   3
  -1  -3  -5 454.439 18.7959   2
   1  -3   5 449.185 18.5796   3
   1  -3   5 484.489 18.9214   2
   1  -3   5 486.578 18.8641   4
  -1   3  -5 459.394 18.7328   4
   1   3   5 484.324 18.3602   4
   1   3   5 441.542 19.2901   3
  -1   3  -5 468.888 19.1023   2
  -3  -3  -5 108.347 5.01214   2
   3  -3   5 106.292 5.47610   2
   3  -3   5 112.071 5.61460   3
   3  -3   5 95.1824 5.78254   4
  -3  -3  -5 97.7252 6.26265   3
  -3   3  -5 105.287 5.82603   2
   3   3   5 116.525 6.43839   3
   3   3   5 107.671 5.20298   4
  -5  -3  -5 13.0967 2.82414   3
   5  -3   5 14.2152 2.38791   3
   5  -3   5 19.7935 2.60453   2
   5  -3   5 16.9405 2.37009   4
   5  -3   5 20.4106 3.07923   3
  -5   3  -5 17.9540 2.57713   2
   5   3   5 17.3724 2.31784   4
   7  -3   5 41.6714 4.13070   4
   7  -3   5 45.5150 3.68505   2
   7  -3   5 49.7263 4.95554   3
  -7  -3  -5 48.8324 5.91932   3
   7   3   5 42.1146 6.04939   3
   7   3   5 47.5763 4.23632   4
  -7   3  -5 44.2316 4.75056   2
   9  -3   5 22.0072 4.07832   3
   9  -3   5 26.5469 4.96407   4
   9   3   5 30.4471 4.58559   4
  -9   3  -5 32.2123 4.31535   2
  16  -4  -5 23.3428 2.79027   4
  16  -4  -5 9.73962 6.17611   3
  14  -4  -5 235.459 12.3515   3
  14  -4  -5 245.734 10.3354   4
  14  -4  -5 247.251 12.6719   2
  14   4  -5 245.147 11.0182   2
  14   4  -5 236.001 12.7266   3
 -14   4   5 244.971 13.1921   2
  14   4  -5 237.478 11.9756   4
  12  -4  -5 11.8773 3.07847   2
 -12  -4   5 12.4040 2.72498   3
  12  -4  -5 11.4024 1.75678   4
  12  -4  -5 8.38913 2.58408   3
 -12   4   5 12.0438 3.42335   2
  12   4  -5 10.4642 2.11329   2
  12   4  -5 15.6247 3.03216   3
  12   4  -5 9.54850 2.52692   4
  10  -4  -5 44.2421 4.38021   2
 -10  -4   5 38.8124 3.03408   2
  10  -4  -5 34.1197 3.87408   3
  10  -4  -5 39.9881 2.10304   4
 -10  -4   5 38.2952 3.78907   3
  10   4  -5 37.8765 3.87500   3
  10   4  -5 36.9368 3.37676   2
 -10   4   5 41.1720 4.00073   3
 -10   4   5 38.6490 4.74697   2
   8  -4  -5 351.259 14.8121   3
  -8  -4   5 328.599 14.5144   4
  -8  -4   5 321.839 13.9944   2
   8  -4  -5 336.276 15.1784   2
  -8  -4   5 355.754 14.4392   3
   8   4  -5 306.379 14.2272   4
  -8   4   5 341.721 15.4508   2
   8   4  -5 338.993 14.3410   3
   8   4  -5 346.972 14.6900   2
  -8   4   5 353.495 14.7431   3
  -6  -4   5 101.848 5.24892   2
  -6  -4   5 100.858 5.46828   4
   6  -4  -5 94.2255 5.90480   2
   6  -4  -5 109.096 5.86880   3
  -6  -4   5 101.055 5.16156   3
   6   4  -5 94.3764 5.42156   2
   6   4  -5 100.808 5.11784   3
   6   4  -5 97.7778 5.21518   4
  -6   4   5 98.8723 5.48960   3
  -6   4   5 97.0331 6.22198   2
  -4  -4   5 192.543 8.42230   2
   4  -4  -5 179.981 8.92642   2
  -4  -4   5 188.537 8.49629   4
  -4  -4   5 187.556 8.10177   3
   4  -4  -5 170.475 8.69058   3
  -4   4   5 185.271 9.16457   2
   4   4  -5 177.985 8.55292   2
   4   4  -5 181.915 8.12283   4
   4   4  -5 182.576 7.88347   3
  -4   4   5 178.132 8.51688   3
  -2  -4   5 703.933 26.4802   2
  -2  -4   5 696.436 26.0435   3
  -2  -4   5 638.725 26.2888   4
   2  -4  -5 708.449 26.9570   3
   2   4  -5 625.318 25.9406   4
  -2   4   5 627.388 25.2343   4
   2   4  -5 676.757 25.8713   3
  -2   4   5 627.983 25.1272   4
  -2   4   5 658.746 26.8220   2
  -2   4   5 686.335 26.6764   3
   2   4  -5 654.117 26.6115   2
   0  -4   5 430.711 17.5626   3
   0  -4   5 423.854 17.8856   2
   0  -4  -5 434.523 17.9032   2
   0  -4  -5 441.251 18.5260   3
   0  -4   5 424.295 17.7534   4
   0   4   5 438.390 16.9679   4
   0   4   5 454.184 18.3937   3
   0   4  -5 420.794 17.5212   4
   0   4  -5 429.766 18.1342   2
   0   4   5 438.372 17.1991   4
   0   4  -5 431.391 17.5026   3
   0   4   5 443.731 18.0660   2
   2  -4   5 161.583 7.45542   3
   2  -4   5 154.378 7.46772   4
  -2  -4  -5 155.802 8.56135   3
  -2  -4  -5 148.614 7.15670   2
   2  -4   5 161.629 7.68844   2
  -2   4  -5 148.884 7.95767   2
   2   4   5 149.947 8.20235   3
   2   4   5 158.715 6.94873   4
   4  -4   5 125.298 6.57384   4
  -4  -4  -5 119.863 7.78474   3
  -4  -4  -5 120.431 5.53013   2
   4  -4   5 124.585 6.64183   2
   4  -4   5 117.594 6.60482   3
   4   4   5 131.629 6.26395   4
  -4   4  -5 126.188 6.60973   4
  -4   4  -5 125.898 7.46190   2
   6  -4   5 177.721 8.94956   4
   6  -4   5 184.642 8.89039   2
   6  -4   5 182.377 9.45054   3
  -6  -4  -5 171.353 10.4609   3
   6   4   5 189.239 8.79755   4
  -6   4  -5 175.130 9.63273   2
   6   4   5 179.777 13.9000   3
   8  -4   5 171.183 9.15153   2
   8  -4   5 193.709 10.5317   3
  -8  -4  -5 184.171 11.8381   3
   8  -4   5 160.100 9.27001   4
  -8   4  -5 188.187 10.7955   2
   8   4   5 196.725 9.57863   4
  13  -5  -5 284.607 11.1532   4
 -13  -5   5 264.967 13.7481   3
  13  -5  -5 276.173 13.6428   3
 -13   5   5 270.107 14.7001   2
  13   5  -5 247.203 13.5894   3
  11  -5  -5 61.1470 6.20626   2
 -11  -5   5 75.1403 5.57636   3
  11  -5  -5 60.9599 3.21105   4
 -11  -5   5 58.8642 4.26728   2
  11  -5  -5 56.9847 5.71564   3
  11   5  -5 60.8760 5.38211   4
  11   5  -5 55.3893 5.39154   3
 -11   5   5 62.0077 6.79179   2
 -11   5   5 63.9043 5.89955   3
  -9  -5   5 23.8232 2.85069   2
   9  -5  -5 28.9564 3.96673   3
  -9  -5   5 27.3570 3.69113   4
  -9  -5   5 25.6895 3.50394   3
   9   5  -5 24.4727 3.53619   3
   9   5  -5 16.9784 3.40473   2
  -9   5   5 20.7068 3.79679   2
   7  -5  -5 414.725 19.7633   3
  -7  -5   5 481.513 19.6676   4
  -7  -5   5 455.837 19.1234   2
  -7  -5   5 455.838 19.3672   3
  -7   5   5 468.421 19.7294   3
  -7   5   5 477.797 20.6532   2
   7   5  -5 490.013 19.3553   3
   7   5  -5 494.031 22.1657   2
  -5  -5   5 4.16261 1.53970   2
  -5  -5   5 4.11149 1.81972   4
   5  -5  -5 2.50843 1.78600   3
   5  -5  -5 2.39151 1.88685   2
  -5  -5   5 2.55201 1.41426   3
   5   5  -5 1.52162 1.25543   3
  -5   5   5 2.08768 1.58969   3
  -5   5   5 2.02794 2.94169   2
   3  -5  -5 234.307 11.1045   2
   3  -5  -5 228.011 11.2061   3
  -3  -5   5 193.199 11.5257   4
  -3  -5   5 232.097 10.4583   3
  -3   5   5 234.465 9.06911   4
   3   5  -5 245.342 10.2883   3
  -3   5   5 254.816 11.0801   3
  -3   5   5 238.279 11.4725   2
  -3   5   5 224.771 9.05136   4
   3   5  -5 249.096 10.3612   4
   3   5  -5 248.528 11.1905   2
  -1  -5   5 273.854 12.2034   4
  -1  -5   5 274.197 12.0398   3
   1  -5  -5 289.324 12.4881   2
  -1   5   5 278.501 10.9730   4
   1   5  -5 285.788 12.7657   2
  -1   5   5 261.678 11.0798   4
   1   5  -5 277.117 11.8774   3
  -1   5   5 276.510 12.7121   3
  -1   5   5 270.767 12.7799   2
   1   5  -5 269.867 11.7821   4
   1  -5   5 80.0933 5.22628   2
  -1  -5  -5 81.1444 4.91442   2
   1  -5   5 79.3802 4.90272   3
  -1  -5  -5 81.5340 5.95213   3
   1  -5   5 72.1484 4.98276   4
   1   5   5 78.3824 4.07552   4
   1   5   5 76.8861 5.35698   2
   1   5   5 83.0124 4.44733   4
  -1   5  -5 78.4785 5.69142   2
  -1   5  -5 77.6140 4.89028   3
  -3  -5  -5 201.833 11.4764   3
   3  -5   5 219.992 10.5125   3
   3  -5   5 216.305 10.6206   2
   3  -5   5 233.033 10.5510   4
  -3  -5  -5 233.979 9.84077   2
  -3   5  -5 212.601 10.2575   4
   3   5   5 234.451 9.81063   4
   3   5   5 227.372 10.2607   4
  -3   5  -5 225.205 11.3419   2
   3   5   5 222.273 11.4516   3
   5  -5   5 41.5711 4.79053   2
  -5  -5  -5 29.5790 2.48075   2
   5  -5   5 30.1921 4.47299   3
   5  -5   5 33.0559 4.00881   4
  -5  -5  -5 28.2449 4.55363   3
  -5   5  -5 24.3337 4.14604   2
   5   5   5 27.3016 3.68732   4
   7  -5   5 32.6224 4.83997   4
  -7  -5  -5 27.2782 5.06809   3
   7  -5   5 24.2383 3.97270   3
   7   5   5 21.3647 3.19975   4
  -7   5  -5 37.8777 5.49538   2
 -12  -6   5 120.406 8.82611   3
 -12  -6   5 123.821 7.17244   2
  12  -6  -5 126.327 8.84671   3
  12   6  -5 139.291 8.15553   2
 -12   6   5 132.235 10.4304   2
  10  -6  -5 93.6074 7.51435   3
 -10  -6   5 106.746 6.94124   2
 -10  -6   5 113.336 7.38835   3
  10   6  -5 105.506 6.91627   2
  10   6  -5 91.9085 7.23294   3
 -10   6   5 99.6117 8.63293   2
  -8  -6   5 96.2848 7.62765   3
   8  -6  -5 103.789 7.17147   3
  -8  -6   5 90.5558 6.37198   4
   8  -6  -5 80.5438 6.99350   2
  -8   6   5 88.3780 6.81064   3
   8   6  -5 94.1094 6.44985   2
   8   6  -5 97.5605 6.30204   3
  -8   6   5 99.8052 8.08514   2
   8   6  -5 88.9662 6.05487   4
  -6  -6   5 141.060 7.68633   2
   6  -6  -5 134.945 8.21635   2
  -6  -6   5 143.714 7.57774   3
  -6  -6   5 139.651 7.86181   4
   6  -6  -5 142.467 8.35666   3
  -6   6   5 121.750 7.73028   3
  -6   6   5 136.292 9.00856   2
   6   6  -5 127.327 7.13288   4
   6   6  -5 138.279 7.90412   2
   6   6  -5 129.022 7.18834   3
  -4  -6   5 139.905 7.58502   2
  -4  -6   5 146.856 7.73891   3
   4  -6  -5 154.565 8.68545   3
  -4  -6   5 143.790 7.90464   4
  -4   6   5 141.987 8.89745   2
   4   6  -5 134.523 8.10090   2
   4   6  -5 144.342 7.37174   4
  -4   6   5 151.915 8.60928   3
   4   6  -5 139.242 7.30447   3
  -2  -6   5 203.759 10.0629   3
   2  -6  -5 193.610 10.3665   2
   2  -6  -5 205.298 11.0172   3
  -2  -6   5 212.648 10.2801   4
  -2   6   5 218.229 11.1492   2
  -2   6   5 203.827 8.44910   4
   2   6  -5 219.891 9.87867   3
  -2   6   5 208.472 10.6432   3
  -2   6   5 216.298 8.49628   4
   2   6  -5 214.265 10.8209   2
   2   6  -5 210.249 9.62304   4
   0  -6   5 103.904 6.32098   3
   0  -6   5 109.434 6.78595   2
   0  -6  -5 91.6460 7.29294   3
   0  -6  -5 115.306 6.55299   2
   0  -6   5 111.204 6.58189   4
   0   6  -5 103.810 7.12924   2
   0   6  -5 98.4998 5.82647   4
   0   6   5 103.849 4.90951   4
   0   6  -5 103.395 6.17386   3
   0   6   5 99.2602 7.09423   2
   0   6   5 89.2369 7.02062   3
   0   6   5 92.2343 5.08318   4
  -2  -6  -5 85.7857 5.58532   2
  -2  -6  -5 94.8350 7.26415   3
   2  -6   5 89.2382 6.08657   3
   2  -6   5 77.7702 5.86404   4
   2   6   5 79.3633 5.22589   4
  -2   6  -5 82.8215 5.99938   3
  -2   6  -5 97.6394 7.42244   2
   2   6   5 87.7951 4.88318   4
   2   6   5 79.3523 6.18088   2
  -4  -6  -5 25.8763 4.59289   3
   4  -6   5 29.3208 3.91931   4
   4  -6   5 32.5002 4.90702   3
   4   6   5 33.3321 3.81072   4
  -4   6  -5 23.6865 4.57366   2
 -11  -7   5 236.134 13.0100   3
  11   7  -5 216.765 12.0922   2
  -9  -7   5 41.4733 6.06155   3
   9  -7  -5 44.2255 6.50932   3
  -9   7   5 47.8103 6.85399   2
   9   7  -5 41.6237 5.14172   2
   9   7  -5 45.3535 6.27612   3
  -7  -7   5 45.6227 5.71969   4
   7  -7  -5 45.2206 6.36586   3
  -7  -7   5 46.7847 5.70167   3
   7   7  -5 49.5275 5.47493   3
   7   7  -5 61.8309 6.37082   2
  -7   7   5 58.2756 7.57351   2
  -5  -7   5 147.220 8.57381   4
   5  -7  -5 133.896 9.14242   3
  -5  -7   5 139.459 8.43535   3
   5   7  -5 133.926 7.87530   3
   5   7  -5 140.538 8.89349   2
  -5   7   5 129.205 9.81031   2
  -3  -7   5 12.5422 3.09486   3
   3  -7  -5 9.15921 3.43868   2
   3  -7  -5 2.87524 3.00411   3
  -3  -7   5 13.3334 3.34849   4
  -3   7   5 7.44711 3.73246   2
   3   7  -5 12.9262 3.44289   2
  -3   7   5 8.62011 1.05260   4
  -3   7   5 10.4441 1.51372   4
   3   7  -5 10.2524 2.60788   3
   1  -7  -5 25.4853 3.68339   2
  -1  -7   5 23.2135 3.82531   4
  -1  -7   5 14.9596 3.21204   3
   1  -7  -5 11.6198 3.45177   3
  -1   7   5 20.4097 2.34460   4
  -1   7   5 20.3017 2.39921   4
   1   7  -5 17.9298 4.31808   2
  -1   7   5 13.1375 4.00327   2
   1  -7   5 160.435 9.47993   3
  -1  -7  -5 161.340 10.5231   3
   1  -7   5 179.726 9.51680   4
  -1   7  -5 154.662 9.16934   3
   1   7   5 170.674 10.4373   2
   1   7   5 163.975 7.94373   4
  -1   7  -5 160.121 10.5389   2
   1   7   5 164.091 7.65137   4
   3  -7   5 10.2398 3.71737   3
  -3  -7  -5 11.7531 4.14978   3
   3  -7   5 6.23109 3.56064   4
  -3   7  -5 5.86090 4.44973   2
   3   7   5 5.06798 6.40881   2
   3   7   5 10.0308 2.39301   4
  -6  -8   5 20.4038 4.37116   3
  -6  -8   5 18.2052 4.31122   4
  -6   8   5 21.4465 5.96795   2
   6   8  -5 22.4460 4.84142   2
   4  -8  -5 210.071 12.9717   3
  -4  -8   5 208.100 12.0417   3
  -4  -8   5 227.162 12.2555   4
  -4   8   5 221.980 13.8089   2
   4   8  -5 213.419 13.5502   3
   4   8  -5 198.144 12.5997   2
  -2  -8   5 42.8987 6.67572   4
  -2  -8   5 41.5001 6.80346   3
   2  -8  -5 60.6658 9.92841   3
   2   8  -5 22.2046 8.87086   2
  -2   8   5 59.9754 9.01596   2
  18   0  -6 48.5513 7.13213   3
  18   0  -6 59.3032 5.43034   4
  18   0  -6 56.4475 5.01283   2
  16   0  -6 56.7380 6.34382   3
  16   0  -6 41.9626 5.08114   4
  16   0  -6 46.4601 4.25470   4
  16   0  -6 38.3519 5.28220   3
  16   0  -6 42.2580 5.61699   2
  14   0  -6 2.12577 1.48626   4
  14   0  -6 0.88988 1.43518   2
  14   0  -6 0.92006 2.14741   3
  14   0  -6 1.06171 2.03518   3
  14   0  -6 -0.5858 2.24974   2
  14   0  -6 1.48163 1.68428   4
  12   0  -6 301.857 13.6259   2
  12   0  -6 291.329 12.9502   3
  12   0  -6 297.940 12.6403   4
  12   0  -6 310.493 13.3679   3
  12   0  -6 307.674 12.6755   2
  12   0  -6 287.649 12.6342   4
  10   0  -6 9.05948 1.49056   3
  10   0  -6 7.04222 1.46790   3
  10   0  -6 8.57619 1.38862   4
  10   0  -6 5.81776 1.21612   2
  10   0  -6 6.19135 1.74561   2
   8   0  -6 34.2936 2.14099   4
   8   0  -6 28.1720 2.21204   3
   8   0  -6 31.3031 2.31763   2
   8   0  -6 31.7555 2.98283   2
   8   0  -6 34.0635 2.11795   3
  -6   0   6 323.920 12.8678   4
   6   0  -6 313.823 12.6797   4
   6   0  -6 326.309 12.5296   3
   6   0  -6 329.171 13.1850   2
   4   0  -6 306.822 12.7543   2
   4   0  -6 328.977 12.4105   4
  -4   0   6 304.197 12.4816   4
  -4   0   6 320.195 11.9926   3
   2   0  -6 424.208 16.4507   2
   2   0  -6 404.889 15.9925   3
  -2   0   6 412.620 15.9783   3
  -2   0   6 417.016 16.2184   4
   2   0  -6 410.161 16.2092   4
   0   0  -6 70.1423 3.50966   2
   0   0   6 64.6080 3.51778   3
   0   0   6 64.5141 3.43016   4
   0   0  -6 65.6446 3.53329   4
   2   0   6 34.5124 2.88702   3
  -2   0  -6 28.2067 2.54508   4
   2   0   6 28.1331 2.36900   4
  -2   0  -6 29.0612 2.20583   2
  -4   0  -6 554.720 22.8453   4
   4   0   6 579.467 23.2323   3
   4   0   6 558.068 22.5495   4
  -4   0  -6 566.113 22.0021   2
  -6   0  -6 43.8145 4.88228   4
  -6   0  -6 47.8172 2.82700   2
   6   0   6 50.4538 4.04018   4
   8   0   6 253.296 11.8806   4
  17  -1  -6 38.1909 5.73034   3
  17  -1  -6 28.5873 4.54808   2
  17  -1  -6 21.2071 3.96074   4
  17  -1  -6 24.0752 3.14528   4
  17  -1  -6 25.7167 3.97566   2
  17   1  -6 18.4504 3.05490   4
  17   1  -6 23.3527 3.89764   3
  17   1  -6 23.2405 3.02326   2
  17   1  -6 28.9142 4.31816   2
  15  -1  -6 29.9374 3.73122   4
  15  -1  -6 39.8073 5.16305   3
  15  -1  -6 28.7317 4.07706   2
  15  -1  -6 35.8693 4.57281   3
  15  -1  -6 35.7142 4.20123   4
  15   1  -6 40.7649 4.94939   2
  15   1  -6 44.3499 5.15269   3
  15   1  -6 36.3387 4.43517   4
  15   1  -6 47.5787 3.55798   2
  15   1  -6 33.4944 4.60515   3
  15   1  -6 42.1084 4.12330   4
  13  -1  -6 125.424 7.33100   3
  13  -1  -6 128.947 6.14837   4
  13  -1  -6 121.486 7.43762   2
  13  -1  -6 121.547 6.86291   3
  13  -1  -6 126.790 6.37438   4
  13   1  -6 121.071 6.57656   4
  13   1  -6 123.165 7.12575   3
  13   1  -6 126.959 6.30674   2
  13   1  -6 125.295 7.30211   2
  13   1  -6 133.178 6.68965   4
  11  -1  -6 340.805 15.2735   4
  11  -1  -6 378.314 15.3072   4
  11  -1  -6 390.507 15.9559   3
  11  -1  -6 406.188 16.8120   2
  11   1  -6 369.441 15.5974   2
  11   1  -6 401.636 16.5924   2
  11   1  -6 388.166 15.7858   4
  11   1  -6 386.188 16.0184   3
   9  -1  -6 86.9902 3.95682   4
   9  -1  -6 83.7915 4.36686   3
   9  -1  -6 78.4440 3.89731   4
   9  -1  -6 79.3533 5.12822   2
   9   1  -6 85.6472 4.40010   2
   9   1  -6 84.9194 4.37047   4
   9   1  -6 81.3218 4.25667   3
   7  -1  -6 542.506 20.7099   4
  -7  -1   6 536.686 21.3329   4
   7  -1  -6 535.269 22.1617   2
   7  -1  -6 549.956 21.1440   3
   7   1  -6 517.912 20.8003   3
   7   1  -6 547.993 21.4232   2
   7   1  -6 565.561 21.2248   4
   7   1  -6 529.556 20.7385   3
  -7   1   6 553.297 21.1705   3
   5  -1  -6 599.770 23.9405   3
  -5  -1   6 621.440 24.2072   4
   5  -1  -6 622.753 23.6115   4
   5  -1  -6 643.098 25.0584   2
   5   1  -6 618.092 24.3520   2
  -5   1   6 616.555 23.7377   4
  -5   1   6 625.817 23.9040   3
   5   1  -6 631.333 24.0255   4
   3  -1  -6 99.6270 4.38316   4
   3  -1  -6 100.267 4.68109   3
  -3  -1   6 114.582 4.87485   4
  -3  -1   6 103.310 4.91054   2
   3  -1  -6 102.569 5.43817   2
   3  -1  -6 104.227 4.84951   2
  -3   1   6 100.714 4.57267   3
   3   1  -6 102.334 4.94626   2
   3   1  -6 97.7985 4.64833   4
   1  -1  -6 130.165 5.85287   3
   1  -1  -6 127.328 5.53550   4
  -1  -1   6 126.298 5.35449   3
  -1  -1   6 123.134 5.68849   4
  -1  -1   6 125.248 5.73982   2
   1  -1  -6 132.519 5.65677   2
  -1  -1   6 126.297 5.26889   3
   1  -1  -6 122.153 6.17658   2
  -1   1   6 116.064 5.69842   3
   1   1  -6 123.324 5.85112   2
  -1   1   6 128.474 5.45976   4
   1   1  -6 127.778 5.73085   4
   1  -1   6 128.025 6.15452   3
  -1  -1  -6 129.558 6.13662   4
   1  -1   6 135.799 6.04219   3
  -1  -1  -6 134.035 5.83787   2
  -1  -1  -6 130.724 6.52563   3
  -1  -1  -6 126.178 6.33184   2
   1  -1   6 127.999 5.97143   2
   1  -1   6 128.852 6.09379   4
   1   1   6 140.602 6.01694   4
  -1   1  -6 140.877 6.24761   2
  -1   1  -6 132.560 6.22508   4
   1   1   6 138.682 6.53140   3
  -3  -1  -6 185.603 8.46316   4
  -3  -1  -6 179.726 8.00511   2
   3  -1   6 177.154 8.55276   3
   3  -1   6 177.080 7.78774   2
  -3  -1  -6 176.233 8.87887   3
   3  -1   6 185.960 8.35703   3
  -3  -1  -6 187.675 7.59925   2
  -3   1  -6 183.085 8.06935   2
   3   1   6 167.497 8.72159   3
  -3   1  -6 181.614 8.45068   4
   3   1   6 192.989 8.14732   4
  -5  -1  -6 232.610 11.1453   4
   5  -1   6 225.310 11.4208   3
   5  -1   6 244.550 11.1955   3
  -5  -1  -6 237.608 9.53962   2
   5  -1   6 239.198 10.8115   4
  -5  -1  -6 244.181 9.77282   2
  -5   1  -6 247.881 10.4071   2
  -5   1  -6 243.208 11.1966   4
   5   1   6 252.116 10.8305   4
   5   1   6 260.518 11.8982   3
   7  -1   6 6.81830 2.12928   4
   7  -1   6 0.37400 2.92292   3
   7  -1   6 7.10564 2.53290   3
   7   1   6 5.20989 3.31539   3
  -7   1  -6 11.6775 2.00329   2
   7   1   6 8.49363 2.11177   4
  16  -2  -6 31.0757 4.68614   4
  16  -2  -6 41.7586 3.61568   4
  16  -2  -6 49.8861 5.51582   3
  16  -2  -6 28.8340 4.61587   2
  16   2  -6 39.1761 3.82863   2
  16   2  -6 41.9873 4.76837   4
  16   2  -6 46.7267 5.51447   3
  16   2  -6 32.6727 4.36335   2
  14  -2  -6 287.808 13.4099   3
  14  -2  -6 291.203 13.9487   2
  14  -2  -6 287.644 12.4608   4
  14  -2  -6 290.199 12.1358   4
  14   2  -6 279.076 13.4094   2
  14   2  -6 282.313 12.4791   2
  14   2  -6 298.159 13.2096   4
  14   2  -6 300.842 13.1987   4
  14   2  -6 290.399 13.6467   3
  12  -2  -6 49.2928 4.15244   3
  12  -2  -6 54.9342 3.04948   4
  12  -2  -6 56.6975 4.89861   2
  12  -2  -6 48.3729 3.24986   4
  12   2  -6 48.1931 4.03139   4
  12   2  -6 50.7813 4.09367   3
  12   2  -6 55.0311 3.64217   2
  10  -2  -6 16.7888 1.41936   4
  10  -2  -6 16.7446 1.56393   4
  10  -2  -6 15.4166 2.45209   3
  10  -2  -6 19.7160 3.04691   2
  10   2  -6 14.0821 2.22255   3
  10   2  -6 16.9629 2.19398   4
  10   2  -6 17.9995 2.18955   2
   8  -2  -6 242.937 10.1066   3
  -8  -2   6 220.765 10.0706   4
   8  -2  -6 233.851 10.9276   2
   8  -2  -6 228.526 9.01537   4
   8  -2  -6 234.318 9.01339   4
   8   2  -6 240.796 9.68133   3
  -8   2   6 239.683 10.0938   3
   8   2  -6 219.286 9.98270   2
  -6  -2   6 134.938 6.38084   4
   6  -2  -6 141.193 6.34621   3
   6  -2  -6 120.512 8.67009   2
  -6   2   6 141.041 6.23391   3
   6   2  -6 139.511 5.53395   3
   6   2  -6 135.189 6.21964   4
   6   2  -6 136.182 6.43869   2
   4  -2  -6 198.266 7.47956   4
  -4  -2   6 202.032 8.41827   4
  -4  -2   6 188.671 8.83421   2
   4  -2  -6 201.042 9.10954   2
   4  -2  -6 182.660 8.30570   3
  -4   2   6 186.877 8.17589   3
   4   2  -6 189.713 8.13955   4
   4   2  -6 195.018 8.53200   2
  -4   2   6 183.154 7.48771   4
   2  -2  -6 438.932 17.1391   4
  -2  -2   6 440.352 16.9153   3
  -2  -2   6 464.690 16.9815   3
  -2  -2   6 437.769 17.6945   4
  -2  -2   6 459.641 18.1345   2
   2  -2  -6 406.207 17.7498   3
   2  -2  -6 448.841 18.2306   2
  -2   2   6 428.194 17.0169   4
  -2   2   6 450.955 17.7559   3
   2   2  -6 448.123 17.9217   2
   0  -2  -6 301.540 14.1509   3
   0  -2   6 325.482 13.4517   3
   0  -2   6 329.489 13.6090   3
   0  -2  -6 353.862 13.5990   2
   0  -2  -6 336.542 13.6501   4
   0  -2  -6 344.085 14.2214   2
   0  -2   6 333.732 13.8838   4
   0   2  -6 358.636 14.1964   2
   0   2  -6 359.347 13.9566   4
   0   2   6 350.690 13.5015   4
   0   2   6 336.467 14.2018   3
  -2  -2  -6 85.7902 4.01903   2
  -2  -2  -6 84.9677 4.62495   2
  -2  -2  -6 85.5264 4.70548   4
   2  -2   6 86.3517 4.95377   4
   2  -2   6 77.7634 4.90237   2
   2  -2   6 86.3762 4.53736   3
  -2  -2  -6 89.0918 5.45004   3
   2  -2   6 85.4005 4.79121   3
   2   2   6 85.7368 5.29228   3
  -2   2  -6 87.9361 4.83302   2
  -2   2  -6 85.1472 4.73730   4
   2   2   6 88.9536 4.42497   4
   4  -2   6 117.692 6.32410   3
   4  -2   6 121.658 6.70074   3
  -4  -2  -6 111.595 7.17361   3
   4  -2   6 114.767 6.20193   4
  -4  -2  -6 121.144 5.04480   2
   4  -2   6 118.183 5.80041   2
  -4  -2  -6 119.964 6.54590   4
  -4  -2  -6 123.571 5.33179   2
   4   2   6 124.498 7.20851   3
  -4   2  -6 118.486 6.19314   2
  -6  -2  -6 345.836 15.7475   4
   6  -2   6 356.419 14.4097   2
   6  -2   6 364.596 15.6750   3
   6  -2   6 361.548 15.2687   4
   6   2   6 367.963 15.1573   4
  -6   2  -6 355.927 15.0261   2
   6   2   6 308.211 16.1358   3
   8  -2   6 62.2201 6.46879   3
   8  -2   6 55.1495 5.37195   4
   8   2   6 61.9847 5.35060   4
  17  -3  -6 35.0551 4.01192   4
  17  -3  -6 35.1856 5.11618   3
  17   3  -6 37.9792 5.88804   4
  17   3  -6 44.0375 5.23880   2
  15  -3  -6 31.2563 3.98536   4
  15  -3  -6 33.6132 4.74195   2
  15  -3  -6 34.1248 3.03187   4
  15  -3  -6 39.5804 5.33222   3
  15   3  -6 36.3739 5.23203   2
  15   3  -6 31.1245 4.43184   3
  15   3  -6 36.7936 4.59282   4
  15   3  -6 36.7881 3.80784   2
  13  -3  -6 12.9687 1.80506   4
  13  -3  -6 15.8517 3.42762   2
  13  -3  -6 6.51736 2.23253   3
  13  -3  -6 8.75136 1.34980   4
  13   3  -6 11.8552 2.60180   4
  13   3  -6 9.09174 2.06174   2
  13   3  -6 8.37298 2.44213   3
  11  -3  -6 14.1141 2.41843   3
  11  -3  -6 5.95324 2.32011   2
  11  -3  -6 11.1752 1.24817   4
  11  -3  -6 10.7146 1.64266   4
 -11   3   6 14.3268 3.18539   2
  11   3  -6 9.32599 2.01370   4
  11   3  -6 10.8265 2.10198   3
  11   3  -6 7.83166 1.78396   2
  -9  -3   6 881.646 33.6410   3
  -9  -3   6 878.749 34.0212   4
   9  -3  -6 845.201 33.9665   3
  -9  -3   6 843.648 33.5735   2
   9  -3  -6 834.494 34.7166   2
  -9   3   6 881.923 34.0504   3
   9   3  -6 885.837 33.6293   3
   9   3  -6 869.685 33.8176   4
   9   3  -6 858.174 33.8087   2
  -9   3   6 841.556 34.7475   2
  -7  -3   6 208.126 8.89760   3
   7  -3  -6 195.200 10.1347   2
  -7  -3   6 212.336 9.53736   4
   7  -3  -6 219.703 9.63736   3
  -7  -3   6 203.675 9.22872   2
   7   3  -6 214.848 8.86574   3
   7   3  -6 212.975 9.30628   4
  -7   3   6 221.482 9.53676   3
   7   3  -6 216.193 9.55548   2
  -7   3   6 209.587 10.2257   2
   5  -3  -6 140.490 6.86949   3
   5  -3  -6 136.917 7.37013   2
  -5  -3   6 143.712 5.97762   3
  -5  -3   6 145.024 6.75893   4
  -5  -3   6 129.677 6.52519   2
   5   3  -6 135.984 6.80212   2
   5   3  -6 140.755 5.83885   3
   5   3  -6 142.150 6.47921   4
  -5   3   6 137.898 7.35748   2
  -5   3   6 150.471 6.72229   3
  -3  -3   6 41.5788 3.07157   4
  -3  -3   6 46.8367 3.14004   2
  -3  -3   6 46.3003 2.46749   3
   3  -3  -6 48.2054 3.76843   2
   3  -3  -6 40.8059 3.36188   3
  -3   3   6 45.9463 3.22303   3
  -3   3   6 45.8671 2.02574   4
   3   3  -6 43.5939 3.36167   2
   3   3  -6 46.1482 2.91276   4
   3   3  -6 45.0303 2.33587   3
  -1  -3   6 76.4833 4.42701   4
   1  -3  -6 81.6379 4.94108   2
  -1  -3   6 83.5565 4.55240   2
  -1  -3   6 78.8609 3.92698   3
   1  -3  -6 85.5573 5.04925   3
   1   3  -6 81.2843 4.79270   2
   1   3  -6 86.8957 4.39124   4
  -1   3   6 82.7899 3.71897   4
  -1   3   6 73.6626 5.13113   3
  -1  -3  -6 320.449 13.4349   3
   1  -3   6 257.774 13.4608   4
   1  -3   6 294.480 12.2396   3
  -1  -3  -6 296.075 12.6008   2
   1  -3   6 305.392 12.6120   2
  -1   3  -6 298.769 12.8937   2
   1   3   6 301.309 12.0366   4
   1   3   6 289.228 13.0800   3
   3  -3   6 11.3848 1.90051   3
  -3  -3  -6 13.1957 2.03160   2
   3  -3   6 11.3607 2.19620   3
   3  -3   6 11.1234 2.01327   4
  -3  -3  -6 10.4765 1.43869   2
   3  -3   6 10.4156 1.85839   2
   3   3   6 10.4569 1.63777   4
   3   3   6 9.22251 2.26325   3
  -3   3  -6 9.83606 2.18920   2
  -5  -3  -6 75.8348 6.77508   3
   5  -3   6 78.8942 6.25649   3
   5  -3   6 87.8598 5.42001   4
   5  -3   6 78.1354 4.90441   2
   5   3   6 99.1970 7.09897   3
   5   3   6 85.7235 5.17382   4
  -5   3  -6 82.3824 5.65527   2
   7  -3   6 77.3250 5.25014   2
   7  -3   6 81.8189 5.97349   4
  -7  -3  -6 79.6563 8.19567   3
   7  -3   6 86.2689 6.75983   3
   7  -3   6 82.8830 7.76320   3
   7   3   6 90.9869 5.97847   4
  16  -4  -6 93.7289 8.24147   3
  16  -4  -6 111.956 6.85054   4
  16   4  -6 99.2568 6.58896   2
  16   4  -6 91.6814 8.11911   4
  14  -4  -6 51.6949 3.25139   4
  14  -4  -6 54.9297 5.86519   3
  14   4  -6 53.9965 6.08778   3
 -14   4   6 52.2354 7.33993   2
  14   4  -6 49.4046 5.22630   2
  12  -4  -6 95.3413 6.48524   3
  12  -4  -6 90.1852 4.48278   4
 -12  -4   6 99.3504 6.37789   3
  12  -4  -6 93.3190 7.04031   2
  12  -4  -6 100.737 4.23792   4
  12   4  -6 88.0559 6.40959   2
  12   4  -6 87.2397 6.17606   3
 -12   4   6 95.8678 7.47683   2
  12   4  -6 97.0800 6.33160   4
 -10  -4   6 10.2807 2.15585   3
  10  -4  -6 14.3462 2.85561   3
  10  -4  -6 6.25904 2.38875   2
 -10  -4   6 15.8217 2.39901   2
 -10  -4   6 14.0309 2.63915   4
  10   4  -6 14.7204 2.34113   3
  10   4  -6 9.63313 2.14549   2
 -10   4   6 8.43415 1.99741   3
 -10   4   6 13.4411 3.40912   2
  -8  -4   6 47.1501 3.38956   2
  -8  -4   6 38.9228 5.83332   4
  -8  -4   6 51.3862 3.47381   3
   8  -4  -6 38.6134 3.92868   3
   8   4  -6 51.9138 3.46766   3
  -8   4   6 40.6269 5.35254   2
   8   4  -6 44.6000 3.72580   2
  -8   4   6 48.6815 3.84201   3
   6  -4  -6 112.895 6.72912   2
  -6  -4   6 105.095 5.31662   3
   6  -4  -6 108.751 6.25143   3
  -6  -4   6 113.320 6.02279   4
  -6  -4   6 106.886 5.64663   2
  -6   4   6 106.598 6.69018   2
   6   4  -6 104.905 5.14986   3
  -6   4   6 108.288 5.90658   3
   6   4  -6 111.046 5.66508   4
   6   4  -6 110.873 6.02363   2
   4  -4  -6 214.988 10.0991   3
  -4  -4   6 210.539 9.73571   4
  -4  -4   6 213.483 9.08352   3
  -4  -4   6 214.060 9.65944   2
   4  -4  -6 212.213 10.3425   2
  -4   4   6 211.288 10.3643   2
   4   4  -6 211.713 8.91776   3
   4   4  -6 212.218 9.35101   4
   4   4  -6 209.679 9.90806   2
  -4   4   6 223.592 9.86650   3
  -2  -4   6 554.345 22.5648   2
   2  -4  -6 568.872 23.0332   2
  -2  -4   6 528.359 23.1346   4
   2  -4  -6 558.458 23.0968   3
  -2  -4   6 559.517 22.0113   3
   2   4  -6 548.446 21.8906   3
  -2   4   6 557.959 21.4752   4
  -2   4   6 558.818 21.2974   4
  -2   4   6 567.612 22.8764   3
   2   4  -6 585.194 23.0057   2
  -2   4   6 560.293 23.0667   2
   0  -4   6 87.1192 4.71732   3
   0  -4  -6 91.5868 5.89702   3
   0  -4   6 87.9871 5.15007   4
   0  -4  -6 91.7376 5.34839   2
   0  -4   6 88.4193 5.22213   2
   0   4   6 88.4538 4.18076   4
   0   4   6 86.0052 5.56527   3
   2  -4   6 174.934 8.16673   3
  -2  -4  -6 177.434 8.02876   2
   2  -4   6 166.853 8.32910   4
   2  -4   6 167.745 8.35765   2
  -2  -4  -6 167.574 9.34288   3
   2   4   6 174.856 7.67242   4
  -2   4  -6 175.411 8.93127   2
   4  -4   6 39.6097 3.97860   2
   4  -4   6 37.4663 4.02023   4
  -4  -4  -6 40.6492 2.73157   2
  -4  -4  -6 42.1775 2.40952   2
   4  -4   6 38.7247 4.95790   3
  -4  -4  -6 30.7405 5.21834   3
   4  -4   6 41.8946 4.04307   3
   4   4   6 50.3014 5.73284   3
  -4   4  -6 31.4974 4.63172   2
   4   4   6 44.9837 3.51670   4
  -6  -4  -6 108.041 8.73311   3
   6  -4   6 100.437 7.22390   3
   6  -4   6 89.9470 6.43015   2
   6  -4   6 112.702 8.18494   3
   6  -4   6 112.338 6.87052   4
   6   4   6 104.045 6.52361   4
  -6   4  -6 120.285 7.84802   2
  15  -5  -6 33.3753 5.61448   3
 -15   5   6 38.7590 6.60041   2
  15   5  -6 30.0037 4.01695   2
  13  -5  -6 17.6982 3.88922   3
  13  -5  -6 12.8577 1.92375   4
 -13  -5   6 18.9480 3.77315   3
  13   5  -6 18.9789 3.25314   2
  13   5  -6 10.7083 3.31320   3
 -13   5   6 17.4599 4.88767   2
  11  -5  -6 408.776 17.5361   3
  11  -5  -6 356.507 17.8492   2
 -11   5   6 368.122 17.3269   3
  11   5  -6 414.645 17.0070   3
  11   5  -6 377.470 16.6757   2
 -11   5   6 369.184 18.1841   2
  -9  -5   6 27.7180 4.02177   4
  -9  -5   6 44.3694 3.83226   3
   9  -5  -6 35.0523 4.44700   3
   9   5  -6 34.0821 3.75113   3
   9   5  -6 33.9779 3.90290   2
  -9   5   6 39.9467 5.37363   2
   7  -5  -6 204.682 10.6713   3
  -7  -5   6 228.187 9.95609   3
  -7  -5   6 220.466 10.4920   4
  -7   5   6 204.487 10.3389   3
  -7   5   6 223.953 11.5336   2
   7   5  -6 213.897 9.72072   3
   7   5  -6 213.706 10.3924   2
  -5  -5   6 88.8439 5.04335   3
  -5  -5   6 89.0784 5.59662   4
   5  -5  -6 98.2860 6.29611   2
   5   5  -6 93.1425 5.85734   2
  -5   5   6 85.9468 6.50152   2
   5   5  -6 86.4567 4.77192   3
  -5   5   6 84.7175 5.53823   3
   3  -5  -6 107.696 7.29952   3
  -3  -5   6 108.181 6.37717   4
  -3  -5   6 108.569 5.82185   3
   3  -5  -6 116.599 6.86739   2
   3   5  -6 124.500 6.80660   2
   3   5  -6 113.542 5.70579   3
  -3   5   6 110.844 7.03153   2
  -3   5   6 111.039 6.57410   3
  -1  -5   6 92.1687 5.23348   3
   1  -5  -6 95.0965 5.90074   2
  -1  -5   6 95.0754 5.57294   2
   1  -5  -6 91.4064 6.42382   3
  -1  -5   6 92.6152 5.69851   4
   1   5  -6 84.5168 6.01835   2
  -1   5   6 86.0346 6.11287   2
   1   5  -6 92.0283 5.10967   3
  -1   5   6 86.7837 4.07989   4
  -1   5   6 85.4532 4.33805   4
   1  -5   6 9.72973 1.98513   3
  -1  -5  -6 12.0644 3.05976   3
  -1  -5  -6 12.4186 2.35072   2
   1  -5   6 8.49852 2.03669   4
   1  -5   6 4.99322 1.99696   2
  -1   5  -6 12.9688 2.29101   4
  -1   5  -6 11.7480 2.88232   2
   1   5   6 8.58632 1.41757   4
   1   5   6 16.2540 3.21028   3
  -3  -5  -6 204.861 8.95907   2
   3  -5   6 189.550 9.92257   2
  -3  -5  -6 206.001 11.2663   3
   3  -5   6 198.016 9.82573   4
  -3   5  -6 195.403 10.7314   2
   3   5   6 198.154 9.61041   4
   3   5   6 190.060 11.6661   3
   3   5   6 190.541 8.97460   4
   5  -5   6 36.1887 5.17426   3
   5  -5   6 36.9665 4.72778   4
  -5  -5  -6 31.6957 5.00071   3
   5   5   6 31.9463 4.29470   4
  -5   5  -6 36.6672 5.27629   2
   5   5   6 42.1046 4.41199   4
  12  -6  -6 98.6684 7.83655   3
 -12  -6   6 102.553 7.80076   3
 -12  -6   6 79.9748 6.08522   2
  12   6  -6 95.8970 8.01475   3
 -12   6   6 84.2744 9.19850   2
  12   6  -6 90.2127 6.99920   2
 -10  -6   6 8.97936 2.72456   2
  10  -6  -6 10.9136 3.38876   3
 -10  -6   6 14.6658 3.00841   3
  10   6  -6 10.2798 2.89664   3
 -10   6   6 9.59351 4.31146   2
  10   6  -6 8.27028 3.03553   2
  -8  -6   6 11.8256 2.35106   2
  -8  -6   6 12.0736 2.93218   4
  -8  -6   6 16.8406 2.83643   3
   8  -6  -6 9.13291 3.04617   3
   8   6  -6 15.9707 2.74675   3
  -8   6   6 16.5481 3.35782   3
   8   6  -6 16.5229 3.29533   2
  -8   6   6 16.6896 4.42378   2
   6  -6  -6 181.404 10.0187   2
  -6  -6   6 185.410 9.49196   4
  -6  -6   6 167.924 8.94254   2
  -6  -6   6 168.597 8.84844   3
   6  -6  -6 187.094 10.1030   3
  -6   6   6 173.648 9.44888   3
   6   6  -6 175.156 8.75230   4
  -6   6   6 172.155 10.6694   2
   6   6  -6 185.860 9.64510   2
   6   6  -6 165.013 8.45209   3
   4  -6  -6 114.138 8.28474   2
  -4  -6   6 109.205 6.45088   3
   4  -6  -6 118.565 7.64769   3
  -4  -6   6 98.7612 6.57819   2
  -4  -6   6 99.9921 6.86231   4
   4   6  -6 104.016 6.24051   4
  -4   6   6 106.287 6.98304   3
  -4   6   6 119.094 8.17730   2
   4   6  -6 119.874 7.48957   2
   4   6  -6 110.779 6.08695   3
  -2  -6   6 49.1728 4.97891   2
   2  -6  -6 67.2450 6.22739   3
  -2  -6   6 50.9354 4.52103   3
  -2  -6   6 58.9896 4.97929   4
  -2   6   6 58.5341 5.81505   2
   2   6  -6 50.2673 5.48004   2
   2   6  -6 50.0038 4.16361   3
  -2   6   6 48.2306 5.38799   3
  -2   6   6 52.3936 2.73436   4
  -2   6   6 49.7106 2.55208   4
   2   6  -6 44.3546 4.09197   4
   0  -6  -6 3.46762 2.54680   3
   0  -6   6 7.62874 2.33750   4
   0  -6   6 10.3189 2.50945   3
   0  -6  -6 13.5510 2.77282   2
   0   6   6 4.64280 3.84218   3
   0   6   6 9.42098 1.81629   4
   0   6  -6 6.70112 3.35933   2
   0   6   6 8.12441 1.35843   4
   0   6  -6 6.91155 2.22780   3
  -2  -6  -6 5.34826 3.08101   3
   2  -6   6 0.52657 2.20092   4
   2  -6   6 3.04297 2.33455   3
  -2  -6  -6 2.12552 2.28425   2
   2   6   6 0.83920 2.00512   4
   2   6   6 -0.2363 1.50581   4
  -2   6  -6 -0.6462 3.18747   2
   4  -6   6 151.608 9.56102   4
  -4  -6  -6 127.964 9.98566   3
   4  -6   6 138.415 8.78321   3
  -4   6  -6 141.606 10.0129   2
   4   6   6 143.477 7.45842   4
   4   6   6 123.450 8.28169   4
   9  -7  -6 170.790 11.3773   3
  -9  -7   6 196.596 10.8557   4
  -9  -7   6 210.526 10.9743   3
  -9   7   6 183.615 12.7383   2
   9   7  -6 193.185 10.9919   2
   9   7  -6 176.161 10.4108   3
  -7  -7   6 18.5636 3.63380   4
  -7  -7   6 12.9696 3.30671   3
   7  -7  -6 18.3870 4.28244   3
   7   7  -6 13.5003 2.92394   3
   7   7  -6 12.6828 3.54742   2
  -7   7   6 17.8036 5.15381   2
   5  -7  -6 67.5751 7.10040   3
  -5  -7   6 75.7837 6.48854   4
  -5  -7   6 67.1081 5.98542   3
   5   7  -6 59.8190 6.75883   2
   5   7  -6 70.3081 5.63360   3
  -5   7   6 64.4556 7.87725   2
  -3  -7   6 11.5916 3.31107   4
  -3  -7   6 11.5427 2.97710   3
   3  -7  -6 11.0798 4.05371   3
   3   7  -6 11.3367 2.74325   3
  -3   7   6 12.7713 4.62523   2
   3   7  -6 4.69926 3.80917   2
   1  -7  -6 14.3665 4.32148   3
   1  -7  -6 15.4251 3.80674   2
  -1  -7   6 15.4158 3.34786   3
  -1  -7   6 16.2479 3.33409   4
   1   7  -6 17.2844 3.13204   3
  -1   7   6 16.6860 2.21441   4
   1   7  -6 21.9790 4.58441   2
  -1   7   6 16.7506 4.44043   2
  -1  -7  -6 153.011 10.7174   3
  -1  -7  -6 158.093 9.20166   2
   1  -7   6 158.143 9.70588   3
   1  -7   6 139.766 9.65540   4
   1   7   6 186.421 9.42893   4
   1   7   6 157.144 10.1123   2
  -1   7  -6 157.378 11.0346   2
  18   0  -7 7.33284 4.34707   2
  18   0  -7 11.7659 2.78557   2
  18   0  -7 7.24173 2.57678   4
  18   0  -7 7.12531 3.70561   3
  16   0  -7 375.296 16.9425   3
  16   0  -7 367.381 17.4562   3
  16   0  -7 385.861 16.1326   2
  16   0  -7 388.288 16.5114   4
  16   0  -7 360.245 17.3810   2
  16   0  -7 386.795 16.2472   4
  14   0  -7 102.444 6.34759   3
  14   0  -7 90.2862 5.44913   4
  14   0  -7 89.9619 5.33600   4
  14   0  -7 87.3055 6.71996   2
  14   0  -7 90.1397 5.78903   3
  12   0  -7 91.7632 5.51041   4
  12   0  -7 100.256 5.38138   3
  12   0  -7 99.3782 6.45897   2
  12   0  -7 95.3306 5.25468   2
  10   0  -7 91.0836 5.96585   2
  10   0  -7 101.048 4.80862   4
  10   0  -7 96.7701 5.09341   2
  10   0  -7 103.213 4.86659   3
  10   0  -7 91.7184 4.96439   3
  -8   0   7 16.5294 1.75138   4
   8   0  -7 18.7059 1.93317   2
   8   0  -7 15.7302 1.49328   3
   8   0  -7 15.6509 1.56580   4
   8   0  -7 15.0315 1.53728   3
   6   0  -7 1191.32 44.8083   4
   6   0  -7 1201.20 45.4026   2
  -6   0   7 1155.25 45.0002   4
   4   0  -7 3.48679 0.77454   4
   4   0  -7 2.93390 1.00370   2
  -4   0   7 4.57000 0.93366   4
  -2   0   7 2.02251 0.71139   3
  -2   0   7 1.56441 0.79628   4
   2   0  -7 2.48050 1.00252   2
   2   0  -7 2.90437 0.82811   4
   0   0   7 438.253 17.7923   3
   0   0  -7 438.908 17.8443   4
   0   0   7 443.425 17.7240   4
   0   0  -7 458.845 17.8324   2
   2   0   7 200.477 9.14415   3
   2   0   7 189.529 8.92147   4
  -2   0  -7 193.671 8.91933   4
  -2   0  -7 196.596 8.51517   2
  -4   0  -7 275.533 12.6686   4
   4   0   7 288.935 12.3460   4
  -4   0  -7 274.166 11.6490   2
   4   0   7 292.478 13.0780   3
   6   0   7 7.76164 3.26595   3
   6   0   7 11.5923 2.56950   4
  -6   0  -7 10.6491 2.65367   2
  -6   0  -7 11.2719 1.58215   2
  17  -1  -7 77.7037 5.58575   2
  17  -1  -7 71.3939 5.11390   4
  17  -1  -7 66.7034 6.51884   3
  17  -1  -7 76.7690 6.16444   4
  17   1  -7 67.3807 5.65281   4
  17   1  -7 66.9812 6.59733   3
  17   1  -7 66.7007 5.21157   2
  17   1  -7 66.8559 7.47189   2
  15  -1  -7 121.504 8.19443   3
  15  -1  -7 143.674 7.91894   3
  15  -1  -7 145.688 7.25724   4
  15  -1  -7 133.910 8.60507   2
  15  -1  -7 136.956 6.79755   4
  15   1  -7 151.413 7.62275   4
  15   1  -7 122.091 7.42894   4
  15   1  -7 138.048 7.12800   2
  15   1  -7 136.645 7.75554   3
  15   1  -7 130.288 8.09634   3
  15   1  -7 138.885 8.49885   2
  13  -1  -7 211.006 11.1596   2
  13  -1  -7 203.240 10.6082   3
  13  -1  -7 220.647 10.2557   3
  13  -1  -7 218.861 9.55505   4
  13   1  -7 244.249 10.2437   4
  13   1  -7 213.590 9.93518   2
  13   1  -7 243.901 10.5968   3
  13   1  -7 213.899 10.0996   3
  13   1  -7 210.592 10.9537   2
  11  -1  -7 699.780 27.1920   2
  11  -1  -7 639.882 25.8417   3
  11  -1  -7 642.358 25.3444   4
  11  -1  -7 618.847 25.2848   4
  11   1  -7 663.668 25.6877   3
  11   1  -7 637.799 25.7573   4
  11   1  -7 658.815 25.9079   2
  11   1  -7 660.104 25.8575   3
   9  -1  -7 414.402 17.6181   2
   9  -1  -7 402.544 16.2994   3
   9  -1  -7 397.268 15.8287   4
  -9  -1   7 403.763 16.5097   4
   9   1  -7 426.598 16.4008   4
   9   1  -7 402.746 16.5982   2
   9   1  -7 402.341 15.9558   3
   9   1  -7 400.454 16.0704   3
   7  -1  -7 1.18441 0.49598   4
  -7  -1   7 0.86558 0.80799   4
   7  -1  -7 3.66926 1.60540   2
   7  -1  -7 2.85643 0.89657   3
   7   1  -7 0.94145 0.93079   2
  -7   1   7 1.17261 0.62543   4
  -7   1   7 1.03569 0.69361   3
   7   1  -7 0.40139 0.82097   4
   5  -1  -7 444.948 16.9164   3
   5  -1  -7 442.606 17.3665   2
  -5  -1   7 455.427 17.2722   4
   5  -1  -7 422.453 16.6104   4
  -5   1   7 431.163 16.7784   3
   5   1  -7 433.289 17.4324   2
   5   1  -7 440.135 17.0008   4
  -5   1   7 380.215 16.6783   4
   3  -1  -7 230.313 9.82090   2
   3  -1  -7 226.829 9.39731   4
  -3  -1   7 233.437 9.81505   4
   3  -1  -7 234.743 10.6053   2
   3  -1  -7 226.033 9.58227   3
  -3   1   7 229.274 9.39073   4
   3   1  -7 233.153 9.67457   4
  -3   1   7 242.653 9.54449   3
   3   1  -7 234.186 10.0111   2
   1  -1  -7 210.154 9.88977   2
  -1  -1   7 218.729 8.92154   3
   1  -1  -7 228.311 9.28487   2
   1  -1  -7 212.257 9.15209   4
   1  -1  -7 220.010 9.44055   3
  -1  -1   7 208.601 9.28843   4
  -1  -1   7 209.911 8.78610   3
   1   1  -7 231.933 9.41451   4
  -1   1   7 217.707 9.35563   3
   1   1  -7 220.986 9.54985   2
  -1   1   7 219.918 9.06250   4
  -1  -1  -7 65.4115 4.32082   3
   1  -1   7 67.5171 3.91834   4
  -1  -1  -7 69.1229 4.32008   2
  -1  -1  -7 63.8961 3.96130   4
   1  -1   7 69.0561 3.92246   3
   1  -1   7 63.8120 3.66909   3
  -1  -1  -7 65.6094 3.59966   2
  -1   1  -7 68.2961 4.02673   2
  -1   1  -7 63.0479 3.99767   4
   1   1   7 63.7099 4.30745   3
   1   1   7 63.2977 3.67596   4
   3  -1   7 114.198 6.29068   3
   3  -1   7 110.069 5.79579   4
   3  -1   7 108.474 5.81008   3
  -3  -1  -7 102.250 5.63729   2
  -3  -1  -7 109.375 6.04515   4
  -3  -1  -7 107.679 5.03242   2
  -3   1  -7 107.877 6.04982   4
   3   1   7 93.7412 6.26191   3
   3   1   7 112.130 5.64718   4
  -3   1  -7 107.063 5.56439   2
  -5  -1  -7 67.0601 3.33501   2
   5  -1   7 71.1554 5.92744   3
  -5  -1  -7 70.7290 5.77493   4
  -5  -1  -7 71.1607 3.79552   2
   5  -1   7 76.1692 5.13750   4
   5  -1   7 77.2800 6.08255   3
   5   1   7 66.2702 4.85408   4
  -5   1  -7 64.9137 4.38967   2
   7  -1   7 40.7755 5.02011   4
   7  -1   7 47.5958 6.81919   3
   7  -1   7 36.1443 5.93123   3
   7   1   7 39.2676 4.69439   4
  16  -2  -7 58.7223 4.40921   4
  16  -2  -7 57.0779 5.01396   4
  16  -2  -7 50.5583 7.09545   2
  16  -2  -7 62.0036 5.95403   3
  16   2  -7 52.8937 6.40955   2
  16   2  -7 52.4340 6.40997   3
  16   2  -7 61.1725 5.39457   4
  16   2  -7 47.2669 4.55064   2
  14  -2  -7 283.712 14.4690   2
  14  -2  -7 310.326 13.7340   3
  14  -2  -7 303.969 12.3792   4
  14   2  -7 298.878 13.6982   3
  14   2  -7 286.560 13.4019   4
  14   2  -7 310.171 14.2459   2
  12  -2  -7 177.364 8.55287   3
  12  -2  -7 174.310 7.50260   4
  12  -2  -7 165.605 9.42238   2
  12  -2  -7 173.648 7.32361   4
  12   2  -7 171.097 8.21485   2
  12   2  -7 171.102 8.34523   4
  12   2  -7 175.481 8.85227   3
  10  -2  -7 212.200 8.64661   4
  10  -2  -7 217.056 10.8603   2
  10  -2  -7 214.721 9.77258   3
 -10  -2   7 214.571 9.84226   4
  10  -2  -7 217.595 8.67536   4
  10   2  -7 216.100 9.73259   2
  10   2  -7 217.535 9.40074   3
  10   2  -7 228.551 9.74289   4
   8  -2  -7 165.172 6.50857   4
   8  -2  -7 166.554 8.61203   2
   8  -2  -7 169.943 7.65221   3
   8  -2  -7 163.370 6.41552   4
  -8  -2   7 171.534 7.79280   4
   8   2  -7 163.818 7.50242   4
   8   2  -7 167.232 7.79880   2
  -8   2   7 165.578 7.51731   3
   8   2  -7 161.342 6.85547   3
   6  -2  -7 181.082 7.44859   4
  -6  -2   7 197.763 8.66383   2
  -6  -2   7 184.717 8.59332   4
   6  -2  -7 199.542 9.54649   2
   6  -2  -7 198.429 8.53470   3
  -6   2   7 202.790 7.60328   4
   6   2  -7 193.683 8.38315   4
   6   2  -7 180.554 8.66032   2
  -6   2   7 204.842 8.41024   3
  -4  -2   7 130.184 6.20591   2
   4  -2  -7 133.412 7.67217   2
   4  -2  -7 130.726 6.17136   3
  -4  -2   7 128.631 6.17695   4
   4  -2  -7 126.632 5.31573   4
   4   2  -7 127.850 6.35513   2
  -4   2   7 121.482 5.31762   4
  -4   2   7 136.048 5.98862   3
   4   2  -7 127.439 5.92863   4
   2  -2  -7 210.780 8.85210   4
  -2  -2   7 217.519 8.43736   3
  -2  -2   7 219.472 9.42010   2
   2  -2  -7 222.751 10.0794   2
   2  -2  -7 204.592 9.48115   3
  -2  -2   7 209.921 9.38105   4
  -2  -2   7 208.658 8.46009   3
   2   2  -7 218.139 9.26748   4
  -2   2   7 219.748 9.43307   3
  -2   2   7 218.838 8.72954   4
   2   2  -7 214.122 9.63893   2
   0  -2  -7 47.2231 3.77805   2
   0  -2  -7 45.2533 3.07367   4
   0  -2  -7 48.2404 2.89985   2
   0  -2   7 45.7320 3.16661   2
   0  -2   7 43.5866 3.18921   4
   0  -2   7 47.3495 2.93244   3
   0  -2  -7 42.8664 3.69136   3
   0  -2   7 44.4418 2.67473   3
   0   2  -7 48.5948 3.28339   4
   0   2   7 47.5660 2.79733   4
   0   2   7 45.4017 3.65230   3
   0   2  -7 41.6775 3.42907   2
  -2  -2  -7 451.497 18.4889   3
  -2  -2  -7 421.706 17.6885   4
   2  -2   7 447.163 17.7676   4
   2  -2   7 426.200 17.4774   3
  -2  -2  -7 447.120 16.9978   2
   2  -2   7 434.352 17.7181   3
  -2  -2  -7 428.726 17.5729   2
   2  -2   7 420.984 17.4169   2
   2   2   7 415.096 18.2223   3
   2   2   7 437.363 17.3698   4
  -2   2  -7 421.925 17.7886   2
  -2   2  -7 406.364 17.7568   4
   4  -2   7 11.4213 2.59608   3
  -4  -2  -7 17.0874 3.16223   3
  -4  -2  -7 14.5582 2.26181   2
  -4  -2  -7 10.1239 2.32881   4
   4  -2   7 11.6521 1.95221   2
   4  -2   7 12.9123 2.42609   4
  -4  -2  -7 13.4580 1.61484   2
   4  -2   7 15.9080 2.31986   3
  -4   2  -7 8.21369 2.59411   4
   4   2   7 10.7461 2.02511   4
  -4   2  -7 15.9868 2.48632   2
   6  -2   7 3.67272 2.32364   4
   6  -2   7 2.44343 2.45972   3
   6  -2   7 0.70794 3.31521   3
   6   2   7 0.86208 2.08294   4
   6   2   7 -1.1080 3.98371   3
  -6   2  -7 -1.9070 2.44393   2
  17  -3  -7 79.2900 5.07231   4
  17  -3  -7 92.4924 7.81539   3
  17   3  -7 75.6986 6.96917   4
  17   3  -7 85.2840 6.13138   2
  15  -3  -7 22.0334 2.68012   4
  15  -3  -7 18.3357 3.15602   3
  15  -3  -7 23.7855 2.49374   4
  15  -3  -7 13.0796 4.53223   2
  15   3  -7 17.8931 3.78830   2
  15   3  -7 20.9160 2.97815   2
  15   3  -7 19.8836 3.55653   3
  13  -3  -7 113.792 7.86070   2
  13  -3  -7 117.234 7.08426   3
  13  -3  -7 110.652 5.40018   4
  13  -3  -7 113.424 5.15386   4
  13   3  -7 121.040 6.56572   2
  13   3  -7 124.282 7.03718   4
  13   3  -7 117.320 6.87522   3
  11  -3  -7 194.982 7.17553   4
  11  -3  -7 194.585 9.07253   3
  11  -3  -7 156.680 9.56492   2
  11  -3  -7 179.722 7.06732   4
  11   3  -7 161.936 8.40056   3
 -11   3   7 187.544 8.96979   3
  11   3  -7 185.127 8.75274   4
  11   3  -7 174.997 8.92482   2
   9  -3  -7 365.202 15.7103   3
  -9  -3   7 362.697 15.4214   2
  -9  -3   7 377.959 15.7746   4
  -9   3   7 382.981 15.6997   3
   9   3  -7 366.635 15.6705   2
   9   3  -7 361.269 14.9394   3
   9   3  -7 376.152 15.4920   4
  -7  -3   7 107.353 5.62490   2
   7  -3  -7 112.409 5.99373   3
  -7  -3   7 105.637 4.79331   3
  -7  -3   7 106.475 5.78638   4
   7  -3  -7 110.341 6.70688   2
   7   3  -7 109.637 4.69685   3
   7   3  -7 113.459 5.58612   4
   7   3  -7 108.387 5.85823   2
  -7   3   7 106.137 5.61314   3
   5  -3  -7 180.168 8.90327   2
  -5  -3   7 171.204 7.07823   3
  -5  -3   7 164.639 8.01557   4
  -5  -3   7 172.889 7.98726   2
   5  -3  -7 171.126 8.16376   3
   5   3  -7 174.070 7.74327   4
  -5   3   7 172.057 7.92052   3
   5   3  -7 168.166 8.17913   2
  -3  -3   7 1023.31 41.2140   4
   3  -3  -7 1115.82 41.9583   2
  -3  -3   7 1012.54 40.1188   3
   3  -3  -7 1046.07 41.4446   3
  -3  -3   7 1132.21 41.3314   2
  -3   3   7 982.736 40.0351   4
   3   3  -7 1071.79 41.5353   2
   3   3  -7 1104.24 41.0215   4
  -3   3   7 1078.05 41.2726   3
   1  -3  -7 289.609 12.2485   3
  -1  -3   7 262.894 10.9659   3
  -1  -3   7 278.790 11.6777   2
  -1  -3   7 261.889 10.8548   3
  -1  -3   7 266.393 11.7321   4
   1  -3  -7 272.261 12.2863   2
  -1   3   7 266.163 11.9265   3
  -1   3   7 256.479 10.7408   4
   1   3  -7 260.273 11.4568   4
   1   3  -7 265.656 11.9551   2
   1  -3   7 214.391 10.1376   4
  -1  -3  -7 212.974 10.8392   3
  -1  -3  -7 230.763 10.2626   2
   1  -3   7 218.657 9.65379   3
  -1  -3  -7 229.738 9.47601   2
   1  -3   7 221.429 10.0648   2
   1  -3   7 220.651 9.93119   3
   1   3   7 235.130 10.8729   3
  -1   3  -7 227.622 10.5235   2
   1   3   7 235.139 9.57771   4
   3  -3   7 8.08025 1.83242   3
   3  -3   7 5.66650 2.26368   3
  -3  -3  -7 4.82308 2.48150   3
   3  -3   7 6.92959 1.86806   2
  -3  -3  -7 8.25786 1.21949   2
  -3  -3  -7 7.44861 1.64933   2
   3  -3   7 5.31827 1.85546   4
  -3   3  -7 8.73362 2.65648   2
   3   3   7 5.61706 1.59953   4
  -3   3  -7 5.76644 2.29612   4
   5  -3   7 4.07463 2.03443   2
   5  -3   7 2.72196 1.94751   4
  -5  -3  -7 4.24444 3.07268   3
   5  -3   7 4.87079 2.33767   3
   5  -3   7 -0.7041 2.78630   3
  -5   3  -7 8.06572 2.76227   2
   5   3   7 0.76503 2.03219   4
   5   3   7 1.49125 3.45145   3
  16  -4  -7 181.781 11.0458   3
  16   4  -7 182.463 9.67160   2
  14  -4  -7 156.741 6.93090   4
  14  -4  -7 155.809 9.23271   3
  14  -4  -7 150.632 6.58598   4
  14   4  -7 165.044 9.27544   3
  14   4  -7 156.452 8.41427   2
  12  -4  -7 368.970 18.5103   2
  12  -4  -7 394.983 17.8097   3
 -12  -4   7 421.270 17.4563   3
  12   4  -7 403.413 17.2934   3
  12   4  -7 388.586 17.2596   2
  12   4  -7 388.269 17.4317   4
 -12   4   7 453.647 21.4506   3
 -12   4   7 413.677 18.9391   2
 -10  -4   7 122.073 6.87161   4
 -10  -4   7 119.151 6.19420   3
  10  -4  -7 100.801 7.62390   3
 -10   4   7 116.918 6.76717   3
  10   4  -7 121.588 6.69252   2
  10   4  -7 113.344 6.13629   3
 -10   4   7 114.710 7.87330   2
  10   4  -7 116.494 6.43006   4
  -8  -4   7 118.936 6.84907   4
   8  -4  -7 116.231 6.99914   3
  -8  -4   7 114.141 6.37803   2
  -8  -4   7 133.083 6.08919   3
  -8   4   7 133.951 6.88600   3
   8   4  -7 122.488 6.47021   4
   8   4  -7 123.422 6.82420   2
  -8   4   7 127.658 7.83407   2
   8   4  -7 129.020 5.93310   3
  -6  -4   7 117.536 5.33470   3
  -6  -4   7 107.822 6.33762   4
   6  -4  -7 110.111 6.60769   3
   6  -4  -7 118.809 7.17914   2
   6   4  -7 113.906 5.16463   3
   6   4  -7 113.087 6.43028   2
  -6   4   7 119.528 6.29996   3
   6   4  -7 112.719 5.91073   4
   4  -4  -7 57.5664 4.92386   2
  -4  -4   7 59.7569 3.25182   3
   4  -4  -7 56.7486 4.78052   3
  -4  -4   7 54.2006 4.24737   4
   4   4  -7 60.2825 3.11352   3
  -4   4   7 59.1222 4.24978   3
   4   4  -7 60.4501 4.48009   2
   2  -4  -7 67.9527 5.37224   2
  -2  -4   7 68.1500 4.68005   4
  -2  -4   7 72.3075 3.91684   3
   2  -4  -7 79.7298 5.46359   3
  -2  -4   7 74.3074 4.73577   2
   2   4  -7 76.5733 5.22805   2
  -2   4   7 71.0443 3.30545   4
  -2   4   7 75.0041 5.10169   3
  -2   4   7 69.2414 3.60390   4
   0  -4  -7 238.742 12.8080   3
   0  -4   7 244.857 11.2194   2
   0  -4  -7 259.491 11.4503   2
   0  -4   7 234.410 11.2160   4
   0  -4   7 244.005 10.6085   3
   0   4  -7 242.213 11.6153   2
   0   4   7 257.925 11.9348   3
   0   4   7 256.861 10.2340   4
  -2  -4  -7 90.6754 6.97024   3
   2  -4   7 88.7618 5.33967   3
  -2  -4  -7 91.2182 5.40114   2
   2  -4   7 93.4204 5.88792   4
   2  -4   7 89.3124 5.72211   2
   2  -4   7 97.8103 5.88588   3
  -2  -4  -7 95.1332 4.69380   2
   2   4   7 98.3251 7.94510   3
  -2   4  -7 87.7953 6.46081   2
   2   4   7 91.2870 4.94409   4
   4  -4   7 35.1652 5.52125   3
   4  -4   7 37.0485 4.46211   3
   4  -4   7 29.4542 4.21272   2
  -4  -4  -7 38.0858 2.63219   2
   4  -4   7 30.8153 4.37570   4
  -4  -4  -7 36.5660 4.99029   3
  -4   4  -7 37.8909 4.73737   2
   4   4   7 43.6908 4.02830   4
  15  -5  -7 108.964 8.91662   3
 -15   5   7 99.1372 10.8575   2
  15   5  -7 111.335 7.62761   2
 -13  -5   7 25.6933 3.99097   3
  13  -5  -7 30.9816 4.60090   3
  13   5  -7 28.9927 4.00471   3
  13   5  -7 31.3871 4.85010   2
 -13   5   7 41.6542 6.03627   2
  11  -5  -7 165.058 9.40232   3
 -11  -5   7 145.196 8.05731   2
 -11  -5   7 162.417 8.56749   3
  11   5  -7 163.862 8.50616   3
 -11   5   7 154.776 9.27402   3
 -11   5   7 161.462 10.4593   2
  11   5  -7 167.233 8.88791   2
  -9  -5   7 7.64552 2.34303   4
   9  -5  -7 12.9703 3.15160   3
  -9  -5   7 10.3937 2.22281   2
   9  -5  -7 9.64804 4.11182   2
  -9  -5   7 12.4691 2.21224   3
  -9   5   7 8.27075 3.56877   2
   9   5  -7 11.7577 2.72533   2
   9   5  -7 7.80379 2.15044   4
  -7  -5   7 118.614 7.21359   4
  -7  -5   7 114.015 6.67137   2
  -7  -5   7 134.353 6.35880   3
   7  -5  -7 127.652 7.66764   3
   7  -5  -7 130.384 8.17426   2
   7   5  -7 120.399 6.04223   3
  -7   5   7 126.450 8.26052   2
   7   5  -7 121.124 7.31765   2
  -5  -5   7 226.611 11.4808   4
   5  -5  -7 254.412 12.1194   3
  -5  -5   7 263.125 10.7950   3
  -5   5   7 247.555 11.6613   3
   5   5  -7 245.702 10.4742   3
  -5   5   7 250.983 12.5393   2
   5   5  -7 244.408 11.8946   2
  -3  -5   7 22.2788 3.23834   2
   3  -5  -7 22.3358 3.29622   3
  -3  -5   7 19.5382 2.76450   3
   3  -5  -7 16.5354 3.03868   2
  -3  -5   7 16.2349 2.60534   4
   3   5  -7 25.9832 2.54898   3
  -3   5   7 17.2422 3.49598   2
   3   5  -7 19.0378 3.11926   2
  -1  -5   7 171.009 8.18119   3
   1  -5  -7 183.109 9.81569   3
  -1  -5   7 170.110 8.92889   4
   1  -5  -7 194.949 9.33090   2
  -1  -5   7 175.704 8.94082   2
   1   5  -7 168.081 8.42003   4
   1   5  -7 168.606 9.38323   2
  -1   5   7 169.819 7.21120   4
  -1   5   7 158.880 7.49244   4
   1  -5   7 2.20955 2.26291   2
  -1  -5  -7 3.54679 2.92828   3
   1  -5   7 4.81696 1.93069   3
   1  -5   7 3.64851 2.16563   4
  -1  -5  -7 6.15148 2.30023   2
  -1   5  -7 3.89546 2.96370   2
   1   5   7 1.93680 1.83287   4
   1   5   7 2.21414 1.27710   4
   1   5   7 -0.1543 3.09864   3
  -3  -5  -7 17.5641 2.06832   2
  -3  -5  -7 18.8651 4.18876   3
   3  -5   7 12.5465 2.65745   3
   3  -5   7 7.92961 2.52073   4
  -3   5  -7 15.2348 4.07016   2
   3   5   7 15.3064 2.39070   4
 -12  -6   7 100.170 7.93123   3
  12  -6  -7 89.6224 8.22311   3
 -12   6   7 93.1431 9.64448   2
  12   6  -7 107.985 7.71123   2
  12   6  -7 108.380 7.86406   3
 -10  -6   7 26.6120 3.87067   4
  10  -6  -7 35.2399 5.86258   3
 -10   6   7 34.9552 5.84119   2
  10   6  -7 38.7813 5.48982   2
  10   6  -7 28.6737 4.63660   3
  -8  -6   7 115.237 7.83709   4
  -8  -6   7 123.008 7.07602   3
   8  -6  -7 116.494 8.29578   3
   8   6  -7 121.348 7.92657   2
  -8   6   7 124.912 9.20300   2
  -8   6   7 124.446 8.08797   3
   8   6  -7 118.980 6.63928   3
   6  -6  -7 184.429 10.3661   2
  -6  -6   7 192.359 8.93799   3
   6  -6  -7 174.512 10.3561   3
  -6  -6   7 182.875 9.84357   4
  -6   6   7 169.802 9.84970   3
   6   6  -7 172.460 9.80544   2
   6   6  -7 179.635 8.53554   3
  -6   6   7 177.393 10.9111   2
   4  -6  -7 93.4969 7.44658   3
   4  -6  -7 96.5004 7.16984   2
  -4  -6   7 91.5327 5.69361   3
  -4  -6   7 88.8354 6.48042   4
   4   6  -7 84.2589 5.31146   3
   4   6  -7 91.3174 6.91553   2
  -4   6   7 87.8163 6.87465   3
  -4   6   7 90.3951 7.53609   2
  -2  -6   7 23.9942 3.50955   4
   2  -6  -7 22.2676 3.98229   3
  -2  -6   7 25.5003 3.91432   3
  -2   6   7 16.1017 3.72553   3
   2   6  -7 22.1140 3.52205   3
   2   6  -7 19.4728 3.91864   2
  -2   6   7 20.6901 1.91556   4
  -2   6   7 18.3631 1.56815   4
  -2   6   7 25.5104 4.34853   2
   0  -6   7 99.5507 7.03879   4
   0  -6   7 103.078 6.75724   3
   0  -6  -7 89.3641 8.01620   3
   0   6   7 109.366 5.15941   4
   0   6   7 108.108 5.84138   4
   0   6  -7 118.826 8.40182   2
   2  -6   7 60.7318 6.10097   3
  -2  -6  -7 73.1724 7.85084   3
   2  -6   7 79.5998 7.18317   4
  -2   6  -7 55.5073 7.55514   2
  -9  -7   7 142.072 9.90618   4
   9  -7  -7 135.299 10.2772   3
  -9  -7   7 153.454 9.12323   3
  -9   7   7 151.214 11.5966   2
   9   7  -7 138.894 10.0449   3
   9   7  -7 140.102 9.80133   2
  -7  -7   7 7.20808 2.89842   3
  -7  -7   7 -1.7723 3.39451   4
   7  -7  -7 5.71102 3.63263   3
   7   7  -7 3.05864 3.41459   2
  -7   7   7 12.1643 4.93374   2
   7   7  -7 1.35787 2.55236   3
   5  -7  -7 34.5860 5.35765   3
  -5  -7   7 35.2323 4.80331   4
   5   7  -7 28.8508 4.79324   2
   5   7  -7 39.2731 4.83232   3
  -5   7   7 22.2916 5.39330   2
  -3  -7   7 123.442 8.32837   4
   3  -7  -7 118.888 9.56463   3
  -3  -7   7 119.651 8.83421   3
  -3   7   7 120.135 9.48995   2
   3   7  -7 126.899 9.13801   2
   3   7  -7 103.008 8.94787   3
  -1  -7   7 79.1016 9.73394   4
   1  -7  -7 73.9556 8.19179   3
   1  -7  -7 65.7593 7.10745   2
  -1  -7   7 77.1706 6.76842   3
  -1   7   7 64.4896 8.10633   2
  18   0  -8 5.14243 2.61689   4
  18   0  -8 6.39887 2.80028   2
  18   0  -8 2.30497 3.11895   3
  16   0  -8 68.4152 5.18799   2
  16   0  -8 69.2869 6.39264   3
  16   0  -8 74.3931 5.71371   3
  16   0  -8 53.9382 6.91029   2
  16   0  -8 70.8742 5.56722   4
  16   0  -8 67.6557 5.01713   4
  14   0  -8 26.0009 3.13847   4
  14   0  -8 23.8317 3.92002   3
  14   0  -8 28.9342 3.32467   4
  14   0  -8 19.2802 3.29910   3
  14   0  -8 27.6443 3.32821   2
  14   0  -8 18.3628 3.63941   2
  12   0  -8 4.61866 1.73715   4
  12   0  -8 8.01116 1.91478   2
  12   0  -8 6.51943 1.75557   3
  12   0  -8 7.45834 1.55338   3
  12   0  -8 10.0580 2.93905   2
  10   0  -8 246.413 11.7817   2
  10   0  -8 247.657 10.7676   2
  10   0  -8 240.638 10.1500   4
  10   0  -8 244.137 10.1006   3
  10   0  -8 241.295 10.2745   3
   8   0  -8 125.072 5.46023   3
  -8   0   8 132.919 6.04944   4
   8   0  -8 140.002 6.45936   2
   8   0  -8 125.286 5.71473   4
   8   0  -8 128.930 5.43275   3
   6   0  -8 1658.82 60.2261   2
  -6   0   8 1487.88 59.7039   4
   6   0  -8 1575.59 59.5170   4
   4   0  -8 9.26917 1.61510   2
   4   0  -8 11.0448 1.51272   4
  -4   0   8 7.02512 1.19751   4
  -2   0   8 9.26430 1.43417   4
   2   0  -8 11.7917 1.79532   2
  -2   0   8 8.33711 1.16496   3
   2   0  -8 9.24815 1.48382   4
   0   0  -8 235.591 10.4950   4
   0   0   8 243.155 10.4143   3
   0   0   8 239.895 10.3432   4
   0   0  -8 244.459 10.4601   2
  -2   0  -8 25.9075 3.07141   4
   2   0   8 26.6469 3.52667   3
  -2   0  -8 25.5875 2.73637   2
   2   0   8 19.7668 2.82872   4
   4   0   8 151.453 7.70950   4
  -4   0  -8 141.462 7.47103   2
   4   0   8 142.579 8.52429   3
  -4   0  -8 135.314 6.78275   2
   6   0   8 22.9208 4.36334   3
   6   0   8 32.7750 4.77019   4
  17  -1  -8 24.4581 3.56454   4
  17  -1  -8 39.0401 3.96263   4
  17  -1  -8 30.8807 5.26304   3
  17  -1  -8 33.0807 4.53426   2
  17   1  -8 36.4498 4.73499   4
  17   1  -8 32.8935 4.55384   2
  17   1  -8 35.2326 5.42528   3
  17   1  -8 28.6966 4.75558   3
  17   1  -8 43.8068 7.68708   2
  15  -1  -8 72.3337 5.26266   3
  15  -1  -8 62.2754 4.24353   4
  15  -1  -8 62.9883 6.68527   2
  15  -1  -8 67.1094 4.95829   2
  15  -1  -8 62.0795 5.88747   3
  15  -1  -8 66.8971 4.69043   4
  15   1  -8 69.0933 5.23596   3
  15   1  -8 61.6489 4.82800   2
  15   1  -8 65.4957 5.67487   3
  15   1  -8 65.3782 5.18692   4
  15   1  -8 64.4717 6.58273   2
  15   1  -8 64.0435 4.97990   4
  13  -1  -8 168.858 9.27268   3
  13  -1  -8 182.532 8.35484   4
  13  -1  -8 180.768 8.94212   3
  13  -1  -8 181.874 8.30358   4
  13  -1  -8 183.835 10.3045   2
  13   1  -8 205.771 9.00188   4
  13   1  -8 202.014 9.09466   2
  13   1  -8 199.248 10.3202   2
  13   1  -8 191.966 8.77379   3
  11  -1  -8 47.1934 3.37748   3
  11  -1  -8 44.9517 2.82181   4
  11  -1  -8 50.7064 4.90143   2
  11   1  -8 44.8206 4.48595   2
  11   1  -8 46.4897 2.99232   3
  11   1  -8 47.3749 3.41254   4
  11   1  -8 44.9921 3.15517   3
  -9  -1   8 16.0469 2.10110   4
   9  -1  -8 16.6180 3.09206   2
   9  -1  -8 14.1144 1.40798   4
   9  -1  -8 13.4458 1.94039   3
   9   1  -8 14.1533 1.38334   3
   9   1  -8 15.8480 1.30866   3
   9   1  -8 14.6841 2.23144   2
   7  -1  -8 88.1386 5.76545   2
   7  -1  -8 86.2307 4.13799   3
   7  -1  -8 85.5105 3.80374   4
   7  -1  -8 84.9757 4.72731   2
  -7  -1   8 83.9984 4.56325   4
  -7   1   8 83.5555 4.03784   4
   7   1  -8 83.0777 4.70370   2
  -7   1   8 87.0506 4.04106   3
   7   1  -8 86.2768 4.28330   4
   5  -1  -8 82.3131 3.84497   3
  -5  -1   8 75.5994 4.24118   4
   5  -1  -8 77.9328 5.22501   2
   5  -1  -8 78.1389 3.65542   4
   5  -1  -8 81.4966 4.35365   2
  -5   1   8 78.2719 3.81998   4
   5   1  -8 72.3990 4.40057   2
  -5   1   8 76.4446 3.64267   3
   3  -1  -8 82.5535 4.27920   3
  -3  -1   8 79.3452 4.46469   4
   3  -1  -8 86.6105 4.17632   4
   3  -1  -8 87.9543 5.50197   2
   3  -1  -8 91.7200 4.60283   2
   3   1  -8 91.4582 4.47736   4
  -3   1   8 77.8738 4.09255   4
  -3   1   8 85.9628 4.19065   3
   3   1  -8 85.1782 4.78912   2
   1  -1  -8 459.923 19.0950   3
  -1  -1   8 465.315 18.4296   3
   1  -1  -8 500.511 19.0856   2
  -1  -1   8 460.855 19.0843   4
   1  -1  -8 465.071 18.9428   4
  -1  -1   8 475.334 18.5739   3
   1  -1  -8 467.572 20.0242   2
   1   1  -8 488.604 19.1907   4
  -1   1   8 485.187 19.1030   3
   1   1  -8 481.328 19.3601   2
  -1   1   8 472.997 18.8081   4
  -1  -1  -8 18.7886 2.78956   2
   1  -1   8 19.8162 2.36617   3
   1  -1   8 24.1810 2.75656   4
  -1  -1  -8 21.9745 2.95801   4
   1  -1   8 21.2027 2.78564   3
  -1  -1  -8 20.7765 2.33987   2
  -1   1  -8 22.6421 2.91289   2
   1   1   8 23.1770 2.52835   4
  -1   1  -8 21.2578 2.95872   4
   1   1   8 17.9565 3.76712   3
  -3  -1  -8 214.021 10.4529   4
  -3  -1  -8 215.926 10.0627   2
   3  -1   8 227.365 10.1756   3
  -3  -1  -8 220.320 9.35508   2
   3  -1   8 224.070 10.5626   3
   3  -1   8 219.048 10.1218   4
  -3   1  -8 222.227 9.93331   2
  -3   1  -8 216.066 10.4430   4
   3   1   8 216.679 9.92504   4
   3   1   8 196.533 10.7229   3
   5  -1   8 121.355 7.27195   4
   5  -1   8 132.724 7.86114   3
   5   1   8 130.786 7.31169   4
   5   1   8 120.165 8.73435   3
  -5   1  -8 129.921 6.83607   2
  16  -2  -8 3.10172 2.08010   4
  16  -2  -8 7.28773 1.72122   4
  16  -2  -8 10.2061 3.86833   3
  16  -2  -8 5.92158 2.73015   3
  16   2  -8 9.59931 3.26134   3
  16   2  -8 5.73904 2.71997   3
  16   2  -8 9.62780 3.96338   2
  16   2  -8 10.3414 3.01499   4
  16   2  -8 10.0161 2.67092   2
  14  -2  -8 98.6408 4.97677   4
  14  -2  -8 86.8762 7.36516   2
  14  -2  -8 92.1841 4.65340   4
  14  -2  -8 95.6444 6.08319   3
  14   2  -8 86.0846 6.08141   4
  14   2  -8 95.8392 5.80548   3
  14   2  -8 90.3353 5.75265   2
  14   2  -8 89.7891 7.06262   2
  14   2  -8 94.5872 6.05870   3
  12  -2  -8 2.04927 0.88853   4
  12  -2  -8 0.29502 2.42424   2
  12  -2  -8 1.28975 1.62337   3
  12  -2  -8 2.67062 1.01344   4
  12   2  -8 2.60010 1.74932   4
  12   2  -8 1.43228 1.63419   2
  12   2  -8 1.15732 1.41104   3
  12   2  -8 1.89635 1.23171   3
 -10  -2   8 168.017 8.22980   4
  10  -2  -8 170.181 6.82022   4
  10  -2  -8 174.118 8.14646   3
  10  -2  -8 169.167 6.92632   4
  10   2  -8 180.157 8.08275   4
  10   2  -8 170.909 7.27284   3
  10   2  -8 173.127 7.42264   3
   8  -2  -8 549.277 21.5648   4
   8  -2  -8 571.803 22.7182   3
   8  -2  -8 558.583 24.0387   2
  -8  -2   8 574.902 22.9892   4
   8   2  -8 591.944 22.6687   4
   8   2  -8 571.690 23.1062   2
  -8   2   8 582.747 22.6384   3
   6  -2  -8 26.1401 3.78399   2
   6  -2  -8 29.7974 2.76166   3
   6  -2  -8 29.3407 1.65331   4
  -6  -2   8 29.4434 2.80165   2
  -6  -2   8 33.3637 2.89973   4
   6   2  -8 30.9499 2.94935   2
   6   2  -8 33.4702 2.56650   4
  -6   2   8 35.2844 1.89675   4
  -6   2   8 33.1182 2.43733   3
  -4  -2   8 56.0045 3.89420   4
   4  -2  -8 64.4589 3.95490   3
  -4  -2   8 60.6455 3.97557   2
   4  -2  -8 64.2677 3.15941   4
   4  -2  -8 64.7391 4.90689   2
   4   2  -8 67.3522 4.23447   2
  -4   2   8 65.0891 3.68845   3
   4   2  -8 64.3864 3.75593   4
  -4   2   8 67.6482 3.18222   4
   2  -2  -8 21.3564 3.12242   2
  -2  -2   8 21.0117 2.50036   2
   2  -2  -8 21.6895 2.26079   2
  -2  -2   8 16.9873 2.56210   4
   2  -2  -8 18.0289 2.69451   3
   2  -2  -8 18.5825 2.06769   4
   2   2  -8 23.4756 2.46268   4
   2   2  -8 16.3143 2.61734   2
  -2   2   8 17.1775 1.77599   4
  -2   2   8 23.9396 2.63213   3
   0  -2   8 17.3397 1.90867   3
   0  -2   8 18.8491 2.24769   3
   0  -2  -8 17.9681 2.57328   4
   0  -2  -8 17.8249 3.25313   2
   0  -2   8 19.0947 2.68002   4
   0  -2  -8 20.0944 2.25548   2
   0  -2   8 19.3554 2.59727   2
   0  -2  -8 16.7020 2.56424   3
   0   2   8 16.3772 2.43723   3
   0   2  -8 19.8337 2.72145   2
   0   2   8 17.3653 2.10138   4
   2  -2   8 148.254 7.25131   3
  -2  -2  -8 153.729 8.39411   3
  -2  -2  -8 148.414 7.80589   4
   2  -2   8 154.346 7.71253   4
   2  -2   8 148.648 7.30318   2
   2  -2   8 160.678 7.74820   3
  -2  -2  -8 146.245 7.64707   2
  -2  -2  -8 162.260 6.87614   2
  -2   2  -8 139.921 7.85258   4
   2   2   8 147.806 7.20186   4
   2   2   8 148.696 8.32046   3
  -2   2  -8 148.040 7.77201   2
  -4  -2  -8 12.0644 1.52097   2
  -4  -2  -8 11.5671 2.98336   4
   4  -2   8 12.8025 2.65806   4
   4  -2   8 9.67516 2.42124   3
   4  -2   8 11.3464 3.02329   3
  -4   2  -8 8.08275 2.60216   2
   4   2   8 12.2323 2.33032   4
   4   2   8 12.9044 3.45245   3
  17  -3  -8 75.6177 7.25373   3
  17   3  -8 77.9067 8.79778   2
  17   3  -8 71.0467 6.20941   2
  17   3  -8 81.8358 6.97192   4
  15  -3  -8 2.02086 2.54151   3
  15  -3  -8 4.69432 1.59702   4
  15  -3  -8 -0.0136 1.14075   4
  15   3  -8 0.94788 2.61866   3
  15   3  -8 4.29360 2.23774   2
  13  -3  -8 167.049 6.70868   4
  13  -3  -8 157.418 10.1231   2
  13  -3  -8 175.871 8.92533   3
  13  -3  -8 167.164 6.82041   4
  13   3  -8 165.247 8.55107   2
  13   3  -8 163.000 8.29762   3
  13   3  -8 158.540 8.59161   4
  11  -3  -8 18.1423 2.72471   3
 -11  -3   8 19.6278 2.72542   4
  11   3  -8 14.5090 2.36694   4
 -11   3   8 12.7067 2.24768   3
  11   3  -8 15.5267 2.03084   3
  11   3  -8 18.0940 2.77387   2
   9  -3  -8 13.2909 2.29950   3
  -9  -3   8 14.3007 2.63758   4
   9   3  -8 9.34265 2.06352   2
   9   3  -8 15.4283 1.62152   3
   9   3  -8 14.6328 2.10458   4
  -9   3   8 15.5538 2.19630   3
  -7  -3   8 206.541 9.51987   4
   7  -3  -8 204.501 9.17879   3
   7  -3  -8 189.113 10.0321   2
   7   3  -8 190.055 8.68330   4
   7   3  -8 180.293 9.11091   2
  -7   3   8 183.812 9.34662   3
  -5  -3   8 172.499 8.37562   2
   5  -3  -8 165.304 8.49778   3
   5  -3  -8 197.106 9.55728   2
   5   3  -8 183.154 8.12635   4
   5   3  -8 165.001 8.59913   2
  -5   3   8 185.187 8.31074   3
  -3  -3   8 1052.83 40.6418   4
   3  -3  -8 1027.29 40.7255   3
   3  -3  -8 1020.86 41.2327   2
  -3  -3   8 976.284 40.4485   2
   3   3  -8 1083.72 40.3589   4
  -3   3   8 1056.94 40.5631   3
   3   3  -8 1098.09 41.0270   2
  -3   3   8 1002.25 39.3623   4
  -1  -3   8 202.668 8.32601   3
   1  -3  -8 208.115 8.76528   2
   1  -3  -8 188.805 9.71442   2
   1  -3  -8 178.971 9.59832   3
  -1  -3   8 197.029 8.17793   3
  -1  -3   8 198.503 9.30789   4
  -1  -3   8 183.179 9.05102   2
  -1   3   8 196.482 9.52915   3
   1   3  -8 207.427 9.68537   2
  -1   3   8 198.274 8.29062   4
   1   3  -8 192.126 9.07005   4
   1  -3   8 22.2507 3.35612   4
  -1  -3  -8 23.6174 2.53973   2
   1  -3   8 25.0530 3.19551   3
  -1  -3  -8 25.0373 3.19753   2
   1  -3   8 20.3022 2.59027   3
  -1  -3  -8 17.9531 3.64996   3
   1  -3   8 26.3647 3.27983   2
   1   3   8 19.4217 3.20096   3
  -1   3  -8 28.3098 3.84984   2
  -1   3  -8 23.0714 3.43625   4
   1   3   8 22.0801 2.53697   4
   3  -3   8 75.0406 5.76258   3
  -3  -3  -8 61.8540 6.63460   3
   3  -3   8 70.2890 5.07820   2
  -3  -3  -8 67.4793 4.56066   2
  -3  -3  -8 72.5741 3.93373   2
   3  -3   8 76.4975 5.24905   3
   3  -3   8 68.6862 5.44200   4
   3   3   8 80.0873 5.01734   4
  -3   3  -8 80.9378 6.06172   2
   3   3   8 74.0356 6.63395   3
  16  -4  -8 47.9385 6.75629   3
  16   4  -8 50.8653 7.43691   3
  16   4  -8 46.3418 5.74920   2
  14  -4  -8 15.2832 3.55159   3
  14   4  -8 24.5712 3.61651   3
  14   4  -8 20.6358 3.38220   2
  12  -4  -8 142.154 8.31505   3
  12   4  -8 140.487 7.87796   2
  12   4  -8 133.038 7.27077   3
  12   4  -8 140.666 7.83786   4
  10  -4  -8 143.611 8.44247   3
 -10  -4   8 152.522 8.05651   4
 -10  -4   8 147.281 7.55602   2
  10   4  -8 146.695 6.84635   3
 -10   4   8 140.806 7.81627   3
  10   4  -8 133.878 7.42731   4
  10   4  -8 148.176 7.99776   2
  -8  -4   8 42.9765 2.76134   3
   8  -4  -8 42.4396 4.46450   3
  -8  -4   8 47.6675 5.44518   2
  -8  -4   8 46.2235 4.25575   4
  -8   4   8 44.0438 3.98488   3
   8   4  -8 50.0939 4.41188   2
   8   4  -8 41.5253 3.70660   4
   8   4  -8 41.5629 2.61666   3
  -6  -4   8 117.253 5.10513   3
   6  -4  -8 129.011 7.09257   3
  -6  -4   8 126.927 6.83012   4
  -6   4   8 118.173 6.50734   3
   6   4  -8 116.328 4.97837   3
   6   4  -8 120.856 7.02359   2
   6   4  -8 111.454 6.11250   4
   4  -4  -8 102.475 6.80717   2
   4  -4  -8 101.331 6.28578   3
  -4  -4   8 84.0347 5.41856   2
  -4  -4   8 93.6268 4.25160   3
  -4  -4   8 91.2737 5.79684   4
   4   4  -8 94.6469 6.07678   2
   4   4  -8 93.6640 5.30197   4
  -4   4   8 96.0346 5.73196   3
  -2  -4   8 2.38400 1.10857   3
   2  -4  -8 1.32561 2.57983   2
  -2  -4   8 0.77273 1.59999   4
   2  -4  -8 2.11093 2.29027   3
  -2  -4   8 -1.4768 1.59275   2
   2   4  -8 0.71049 1.68374   4
  -2   4   8 0.19443 0.73114   4
  -2   4   8 2.26015 2.01180   3
   2   4  -8 -2.5258 2.03125   2
   0  -4   8 156.774 7.10519   3
   0  -4   8 149.290 8.03847   4
   0  -4  -8 125.937 8.49099   3
   0  -4  -8 155.655 8.24349   2
   0  -4   8 147.085 7.88253   2
   0  -4   8 148.087 7.30710   3
   0   4   8 159.422 6.78538   4
   0   4  -8 146.526 8.45264   2
   2  -4   8 96.6546 6.27523   3
  -2  -4  -8 91.6060 4.80664   2
   2  -4   8 87.0326 6.11962   2
  -2  -4  -8 84.2786 5.62749   2
   2  -4   8 87.8427 5.57012   3
  -2  -4  -8 78.0671 7.25064   3
   2  -4   8 88.9668 6.13431   4
   2   4   8 96.4489 7.78695   3
  -2   4  -8 92.5171 7.03209   2
   2   4   8 90.1119 5.20746   4
  13  -5  -8 26.1673 4.38064   3
  13   5  -8 17.7850 3.57260   2
  13   5  -8 24.6187 3.57329   3
 -11  -5   8 73.7967 5.13865   3
  11  -5  -8 63.3958 6.42552   3
 -11  -5   8 65.3396 5.97842   4
  11   5  -8 65.2897 4.96378   3
  11   5  -8 65.1270 5.66298   2
 -11   5   8 66.0509 6.15923   3
 -11   5   8 62.2466 7.54257   2
  -9  -5   8 6.06675 2.57209   4
  -9  -5   8 8.54469 2.35822   2
   9  -5  -8 3.72270 2.74867   3
  -9  -5   8 11.6145 2.01065   3
   9  -5  -8 1.35039 5.33411   2
   9   5  -8 6.55911 1.69029   3
  -9   5   8 7.44361 3.80425   2
  -9   5   8 6.55161 2.60285   3
   9   5  -8 7.03048 2.65947   2
   7  -5  -8 110.060 7.30152   3
  -7  -5   8 106.106 6.88757   4
  -7  -5   8 98.1226 6.18681   2
  -7  -5   8 116.260 5.49143   3
   7  -5  -8 107.237 7.90151   2
   7   5  -8 106.394 6.17717   4
   7   5  -8 100.640 5.16387   3
  -7   5   8 111.305 8.23243   2
   7   5  -8 103.003 6.91301   2
  -5  -5   8 205.977 10.1859   4
   5  -5  -8 212.165 11.6087   2
  -5  -5   8 186.182 9.73315   2
  -5  -5   8 196.975 8.63584   3
   5  -5  -8 205.523 10.5880   3
   5   5  -8 194.960 9.39515   4
   5   5  -8 198.628 10.4101   2
   5   5  -8 193.944 8.44262   3
  -3  -5   8 17.2396 2.71548   3
  -3  -5   8 24.4054 3.53630   4
   3  -5  -8 13.1426 3.27204   3
   3   5  -8 22.1732 3.83047   2
   1  -5  -8 75.4051 6.04887   2
  -1  -5   8 63.2451 5.52998   4
   1  -5  -8 63.2195 6.30616   3
  -1  -5   8 61.6262 4.47612   3
  -1   5   8 57.7481 3.99482   4
   1   5  -8 70.6476 6.47365   2
  -1   5   8 65.9755 3.47657   4
  -1   5   8 58.8270 6.33126   3
   1  -5   8 31.5437 4.16514   3
  -1  -5  -8 35.1641 4.72677   2
   1  -5   8 35.6461 4.64686   3
  -1  -5  -8 32.8074 4.77006   3
   1  -5   8 25.0306 3.41881   4
   1   5   8 31.0418 4.37274   4
  -1   5  -8 36.0337 4.95599   2
   1   5   8 25.8978 3.17209   4
 -12  -6   8 75.6754 6.59316   3
  12  -6  -8 63.8031 7.74790   3
 -12   6   8 73.8325 11.2384   2
  12   6  -8 51.4769 6.80546   2
 -10  -6   8 187.177 9.69366   3
  10  -6  -8 199.301 11.4225   3
 -10  -6   8 185.605 10.6440   4
  10   6  -8 189.522 10.7601   2
  10   6  -8 181.284 9.37415   3
   8  -6  -8 139.630 9.39495   3
  -8  -6   8 149.334 7.54766   3
  -8  -6   8 138.529 8.75217   4
   8   6  -8 122.174 7.04819   3
  -8   6   8 142.228 10.0883   2
   8   6  -8 136.971 8.88664   2
   6  -6  -8 144.742 9.38369   3
  -6  -6   8 135.847 8.67770   4
  -6  -6   8 143.628 7.26190   3
  -6   6   8 129.366 10.0586   3
   6   6  -8 155.221 9.07140   2
   6   6  -8 131.280 6.95580   3
  -6   6   8 127.765 9.64958   2
  -4  -6   8 82.9952 6.53417   4
   4  -6  -8 78.8843 7.53414   3
  -4  -6   8 83.1924 5.30605   3
   4  -6  -8 82.5715 7.32562   2
   4   6  -8 78.7095 7.05687   2
   4   6  -8 69.8496 4.89552   3
  -2  -6   8 0.91433 2.18295   3
   2  -6  -8 2.46712 3.35102   2
   2  -6  -8 -1.6029 3.01544   3
  -2  -6   8 1.38376 3.03900   4
   2   6  -8 -1.4535 3.24417   2
   0  -6  -8 63.7142 7.84368   3
   0  -6   8 74.0372 6.34076   3
   0   6  -8 79.0006 8.04878   2
  -7  -7   8 87.9676 6.93294   3
   7  -7  -8 85.3355 8.95521   3
  -7   7   8 69.7364 9.51500   2
  -5   7   8 13.7985 4.74050   2
  18   0  -9 4.39896 2.53644   4
  18   0  -9 7.81287 3.65320   4
  18   0  -9 6.83831 3.28155   3
  18   0  -9 6.27506 2.88332   2
  16   0  -9 53.6651 5.00622   3
  16   0  -9 70.6014 5.34987   4
  16   0  -9 43.9386 5.83685   3
  16   0  -9 57.1747 4.66668   4
  16   0  -9 60.3215 7.99262   2
  16   0  -9 57.7509 5.03966   2
  14   0  -9 321.333 17.0599   2
  14   0  -9 400.288 15.4965   4
  14   0  -9 373.188 15.9556   2
  14   0  -9 381.073 15.9692   3
  14   0  -9 360.575 15.5057   3
  12   0  -9 336.073 13.4398   3
  12   0  -9 319.341 15.3886   2
  12   0  -9 319.283 14.0758   2
  12   0  -9 337.052 13.4889   4
  12   0  -9 311.750 13.5992   3
  10   0  -9 486.899 19.0889   3
 -10   0   9 514.087 19.7090   4
  10   0  -9 490.943 20.1634   2
  10   0  -9 506.914 19.3643   4
  10   0  -9 457.656 19.1442   3
   8   0  -9 3.55416 0.99940   4
   8   0  -9 4.91387 2.67837   2
  -8   0   9 2.11278 1.10264   4
  -6   0   9 23.0249 2.34974   4
   6   0  -9 30.9731 2.88911   2
   6   0  -9 26.5622 2.13715   4
   4   0  -9 243.185 10.4044   2
  -4   0   9 224.849 9.93818   4
   4   0  -9 230.949 9.85649   4
   2   0  -9 0.86459 1.17338   4
  -2   0   9 1.41056 0.90535   3
   2   0  -9 3.68896 1.52131   2
  -2   0   9 0.04949 1.00483   4
   0   0   9 67.0776 4.37339   4
   0   0  -9 71.4385 4.48302   2
   0   0  -9 66.6884 4.58700   4
   0   0   9 67.6908 4.34433   3
  -2   0  -9 11.2485 2.24341   2
  -2   0  -9 11.9146 2.46593   4
   2   0   9 13.7858 2.26767   4
   2   0   9 9.01290 2.62052   3
   4   0   9 6.51947 2.48052   4
  17  -1  -9 78.5321 6.06444   2
  17  -1  -9 81.3707 6.62587   3
  17  -1  -9 63.0883 5.01499   4
  17  -1  -9 62.0851 5.71056   4
  17  -1  -9 83.2999 8.00330   3
  17   1  -9 81.5266 7.43047   3
  17   1  -9 78.9980 7.08016   4
  17   1  -9 70.3531 6.31413   3
  17   1  -9 74.6572 6.01163   4
  17   1  -9 77.9603 6.05945   2
  15  -1  -9 141.283 8.27636   3
  15  -1  -9 133.935 7.63294   2
  15  -1  -9 136.108 6.91833   4
  15  -1  -9 118.776 9.50289   2
  15  -1  -9 143.619 6.88754   4
  15   1  -9 138.120 9.46328   2
  15   1  -9 140.980 7.87430   3
  15   1  -9 140.554 7.36420   3
  15   1  -9 137.267 7.64573   2
  15   1  -9 144.650 7.70578   4
  13  -1  -9 12.4241 2.44751   3
  13  -1  -9 10.7529 2.37383   2
  13  -1  -9 11.9678 1.80371   4
  13  -1  -9 15.0601 1.85962   4
  13  -1  -9 14.0318 2.18416   3
  13  -1  -9 10.9948 3.49881   2
  13   1  -9 10.1807 2.35165   2
  13   1  -9 16.7698 3.21715   2
  13   1  -9 11.3553 2.13260   3
  13   1  -9 16.0931 2.52880   3
  13   1  -9 13.7663 2.32761   4
  11  -1  -9 192.519 8.37969   3
 -11  -1   9 184.742 8.64486   4
  11  -1  -9 177.235 7.69961   4
  11  -1  -9 189.317 8.87549   2
  11   1  -9 187.036 8.90917   2
  11   1  -9 174.582 7.79037   3
  11   1  -9 183.630 7.70851   3
  11   1  -9 185.663 8.35591   4
   9  -1  -9 68.7345 4.26183   2
   9  -1  -9 63.6319 3.17108   4
   9  -1  -9 66.1834 3.63452   3
  -9  -1   9 68.7519 4.19824   4
  -9   1   9 64.5248 3.46957   4
   9   1  -9 64.1558 4.29135   2
   9   1  -9 58.4121 3.69582   4
   7  -1  -9 278.700 12.7221   2
   7  -1  -9 260.693 10.4424   4
  -7  -1   9 280.328 11.3191   4
  -7   1   9 265.767 10.4616   3
   7   1  -9 255.526 10.8440   4
   7   1  -9 238.575 12.1428   2
  -7   1   9 244.950 10.6475   4
   5  -1  -9 46.6324 2.84517   3
   5  -1  -9 48.5910 3.52254   2
  -5  -1   9 52.5701 3.57244   4
   5  -1  -9 54.1339 4.82857   2
   5  -1  -9 51.7077 2.90156   4
  -5   1   9 48.4986 2.68999   3
  -5   1   9 53.1892 3.08412   4
   5   1  -9 49.9715 4.74637   2
   5   1  -9 54.9578 3.30135   4
  -3  -1   9 5.89574 1.48071   4
   3  -1  -9 3.40677 2.26000   2
   3  -1  -9 4.25785 1.40729   2
   3  -1  -9 3.99213 1.40587   4
   3  -1  -9 3.66154 1.18677   3
  -3   1   9 4.65695 1.18729   3
  -3   1   9 5.61369 1.26034   4
   3   1  -9 3.91292 1.21181   4
   3   1  -9 5.16308 1.73061   2
  -1  -1   9 38.8353 3.44719   4
  -1  -1   9 44.8550 2.84028   3
  -1  -1   9 44.5809 2.59860   3
   1  -1  -9 46.4547 3.47556   2
   1  -1  -9 42.8008 3.45509   4
   1  -1  -9 47.6391 4.81689   2
   1   1  -9 45.2324 3.75882   2
  -1   1   9 39.7335 3.51790   3
   1   1  -9 42.8064 3.61390   4
  -1   1   9 45.5558 3.21458   4
  -1  -1  -9 177.720 9.11608   4
   1  -1   9 178.452 8.43783   3
  -1  -1  -9 190.909 9.73597   2
   1  -1   9 187.473 8.83054   3
  -1  -1  -9 198.407 8.65411   2
   1  -1   9 183.738 9.00210   4
  -1   1  -9 184.396 9.33058   4
  -1   1  -9 184.169 9.03026   2
   1   1   9 184.561 9.30757   3
   1   1   9 197.161 8.77674   4
   3  -1   9 118.223 6.97923   3
   3  -1   9 118.366 7.02373   4
   3  -1   9 115.828 7.64902   3
  -3  -1  -9 117.728 6.13537   2
  -3   1  -9 133.954 6.96115   2
   3   1   9 119.773 6.89464   4
  16  -2  -9 74.2891 6.35165   3
  16  -2  -9 69.0823 7.57700   3
  16  -2  -9 78.1892 5.36576   4
  16  -2  -9 77.2240 4.37374   4
  16   2  -9 47.9800 8.15705   2
  16   2  -9 62.1032 6.33201   3
  16   2  -9 74.4406 5.84700   3
  16   2  -9 75.2394 5.98934   2
  14  -2  -9 16.3228 3.93036   2
  14  -2  -9 16.2181 2.09907   4
  14  -2  -9 15.4243 2.27694   4
  14   2  -9 15.3185 2.52577   3
  14   2  -9 15.9287 2.95018   2
  14   2  -9 16.9138 2.76451   4
  14   2  -9 14.3756 2.31626   3
  12  -2  -9 253.166 13.4999   2
  12  -2  -9 263.694 10.6174   4
  12  -2  -9 271.481 11.9640   3
  12  -2  -9 260.458 10.5137   4
  12   2  -9 261.622 11.1975   3
  12   2  -9 289.164 11.9450   4
  12   2  -9 272.340 11.0898   3
  12   2  -9 262.065 12.1322   2
  10  -2  -9 64.3835 3.12142   4
  10  -2  -9 67.4861 2.97383   4
  10  -2  -9 69.6418 4.50401   3
 -10  -2   9 75.9091 4.81339   4
  10   2  -9 69.9920 4.35314   4
  10   2  -9 75.4965 4.94940   2
   8  -2  -9 70.4775 4.27214   3
   8  -2  -9 65.9053 3.01815   4
  -8  -2   9 74.2696 4.58192   4
   8  -2  -9 70.3870 5.94093   2
  -8   2   9 69.1878 3.97302   3
   8   2  -9 66.5399 4.60920   2
   8   2  -9 77.1915 4.24196   4
   6  -2  -9 45.5841 4.86090   2
   6  -2  -9 50.2441 2.54679   4
  -6  -2   9 43.3245 3.61699   4
   6  -2  -9 54.9826 3.55275   3
  -6   2   9 47.5602 2.72352   4
   6   2  -9 49.0508 3.91139   2
   6   2  -9 51.9846 3.40672   4
  -6   2   9 50.6148 3.16854   3
   4  -2  -9 224.720 10.2075   3
  -4  -2   9 233.272 10.9613   4
   4  -2  -9 241.603 10.3644   2
   4  -2  -9 234.615 11.5731   2
   4  -2  -9 230.476 9.61270   4
  -4   2   9 227.797 9.95952   3
   4   2  -9 244.339 10.8668   2
   4   2  -9 234.000 10.2031   4
  -4   2   9 228.225 9.59104   4
   2  -2  -9 190.245 10.0179   2
  -2  -2   9 188.862 9.11040   2
   2  -2  -9 190.830 9.00051   4
   2  -2  -9 204.202 8.86762   2
  -2  -2   9 190.203 9.12193   4
   2  -2  -9 195.128 9.12864   3
  -2   2   9 194.793 9.00225   3
  -2   2   9 197.752 8.38916   4
   2   2  -9 190.033 8.96087   4
   2   2  -9 198.970 9.46504   2
   0  -2   9 54.3706 3.52048   3
   0  -2  -9 50.9085 5.30761   2
   0  -2   9 46.5844 3.10616   3
   0  -2  -9 50.0718 3.64525   2
   0  -2  -9 49.9960 4.12680   4
   0  -2  -9 45.2781 4.69878   3
   0  -2   9 47.4581 4.09603   4
   0   2  -9 44.1846 4.22577   4
   0   2   9 42.8614 4.61764   3
   0   2  -9 50.9537 4.59772   2
   0   2   9 49.4654 3.50263   4
   2  -2   9 135.982 7.15736   3
   2  -2   9 142.308 7.90236   4
  -2  -2  -9 139.864 8.03344   2
  -2  -2  -9 150.416 6.92287   2
   2  -2   9 162.866 8.37933   3
  -2  -2  -9 130.227 8.12238   4
  -2   2  -9 142.446 7.94910   2
   2   2   9 140.583 7.36302   4
  15  -3  -9 75.0276 3.83603   4
  15  -3  -9 85.6753 6.73790   3
  15   3  -9 74.1020 6.08983   3
  15   3  -9 78.0295 6.08419   2
  13  -3  -9 237.175 11.3750   3
  13   3  -9 225.666 11.1123   4
  13   3  -9 233.762 10.5456   3
  13   3  -9 238.455 11.3890   2
 -11  -3   9 209.149 9.89843   4
  11  -3  -9 182.293 9.54014   3
  11   3  -9 197.111 8.22686   3
  11   3  -9 202.079 9.80899   2
  11   3  -9 183.144 8.22497   3
  11   3  -9 195.677 9.33209   4
 -11   3   9 206.129 9.56953   3
   9  -3  -9 2.51416 2.96601   2
  -9  -3   9 7.67896 1.98485   4
   9  -3  -9 8.96972 2.12117   3
  -9   3   9 12.3132 2.12887   3
   9   3  -9 6.29210 2.41341   2
   9   3  -9 10.0753 1.89372   4
  -7  -3   9 103.839 6.09875   4
   7  -3  -9 108.114 6.14132   3
   7   3  -9 103.100 6.34892   2
   7   3  -9 110.344 5.71286   4
   5  -3  -9 33.6743 4.81275   2
  -5  -3   9 25.4798 3.12526   2
  -5  -3   9 24.4363 3.35897   4
   5  -3  -9 21.3190 3.33984   3
  -5   3   9 23.4045 1.71120   4
  -5   3   9 25.2718 3.07528   3
   5   3  -9 26.8984 2.96359   4
   5   3  -9 23.1333 3.56072   2
   3  -3  -9 16.6857 3.43763   2
  -3  -3   9 15.0799 2.56917   4
  -3  -3   9 19.4826 2.98987   2
   3  -3  -9 12.8589 2.44270   3
   3  -3  -9 12.6311 2.22546   2
  -3   3   9 16.5356 1.79851   4
   3   3  -9 11.3861 2.73219   2
   3   3  -9 9.77054 2.00129   4
  -3   3   9 14.8567 2.33466   3
   1  -3  -9 149.467 8.64504   3
   1  -3  -9 169.556 7.79922   2
  -1  -3   9 156.984 6.96654   3
  -1  -3   9 160.725 7.08524   3
  -1  -3   9 159.089 8.45031   4
  -1  -3   9 159.015 8.29778   2
   1  -3  -9 164.463 9.29108   2
   1   3  -9 173.580 8.97983   2
  -1   3   9 185.330 8.91185   3
   1   3  -9 177.669 8.70821   4
  -1   3   9 166.709 7.37651   4
  -1  -3  -9 2.80078 1.78243   2
   1  -3   9 3.67289 1.63301   3
   1  -3   9 0.32514 2.13971   2
  -1  -3  -9 8.60086 2.99924   2
   1  -3   9 3.16644 1.90155   4
  -1  -3  -9 3.90960 2.70282   3
   1  -3   9 5.15124 2.03940   3
  -1   3  -9 5.63985 2.73165   2
   1   3   9 4.43827 1.66132   4
   3  -3   9 102.951 7.05562   2
  -3  -3  -9 109.191 8.62726   3
  -3   3  -9 113.562 8.12491   2
   3   3   9 102.353 6.51652   4
  14  -4  -9 72.9511 6.78171   3
  14   4  -9 82.8049 5.87001   3
  14   4  -9 69.9830 6.16681   2
  12  -4  -9 103.416 7.26004   3
 -12  -4   9 103.940 7.19597   4
  12   4  -9 101.523 5.70447   3
  12   4  -9 113.178 7.03030   2
  10  -4  -9 143.158 7.93316   3
 -10  -4   9 134.819 7.83537   4
  10  -4  -9 136.788 9.62812   2
 -10  -4   9 131.610 7.33903   2
 -10   4   9 129.877 7.49284   3
  10   4  -9 136.713 7.28546   4
  10   4  -9 127.859 7.77558   2
  10   4  -9 120.637 5.73034   3
   8  -4  -9 101.498 6.48100   3
  -8  -4   9 101.638 6.39525   4
  -8  -4   9 88.1899 6.10700   2
   8  -4  -9 92.1130 7.52985   2
  -8   4   9 92.0573 5.92477   3
   8   4  -9 93.2471 5.72419   4
   8   4  -9 101.698 6.54068   2
  -6  -4   9 1.88261 2.12394   2
   6  -4  -9 0.58912 2.06565   3
   6  -4  -9 5.13695 5.87704   2
  -6  -4   9 0.76285 1.84607   4
   6   4  -9 -0.5796 1.77800   4
  -6   4   9 -0.4505 1.79783   3
   6   4  -9 -1.1891 2.11519   2
  -4  -4   9 252.395 11.8033   2
  -4  -4   9 259.263 12.0736   4
   4  -4  -9 258.167 12.2734   3
   4   4  -9 232.096 11.3638   4
   4   4  -9 272.763 12.5017   2
  -4   4   9 256.976 11.8282   3
  -2  -4   9 61.3770 3.32072   3
  -2  -4   9 58.8507 5.17056   4
  -2  -4   9 64.6069 3.30536   3
   2  -4  -9 76.8747 6.55920   2
   2  -4  -9 55.5412 5.59619   3
  -2  -4   9 47.1684 4.97281   2
  -2   4   9 59.2647 3.33361   4
   2   4  -9 63.5178 5.85994   2
   0  -4  -9 81.4373 4.88993   2
   0  -4   9 75.5431 5.71833   4
   0  -4  -9 83.1956 6.52176   2
   0  -4   9 67.9295 4.47578   3
   0  -4  -9 79.8969 6.91026   3
   0   4  -9 74.7225 6.63924   2
   0   4   9 62.9677 6.57360   3
   0   4   9 67.5804 4.34323   4
  13  -5  -9 39.8999 6.72767   3
  13   5  -9 45.8556 5.90989   2
 -11  -5   9 48.6400 5.68142   4
  11  -5  -9 44.1970 6.34727   3
  11   5  -9 41.5175 5.35963   3
  11   5  -9 47.0834 5.59868   2
 -11   5   9 52.8191 5.78710   3
  -9  -5   9 149.310 8.88225   4
   9  -5  -9 141.582 9.13049   3
  -9  -5   9 149.741 6.90427   3
  -9   5   9 154.964 8.74105   3
   9   5  -9 155.616 8.89642   2
   9   5  -9 145.552 6.60488   3
  -7  -5   9 53.3238 5.41568   4
   7  -5  -9 42.7923 8.09111   2
   7  -5  -9 52.2194 5.96650   3
  -7  -5   9 48.8969 2.97962   3
   7   5  -9 52.3388 5.62308   2
  -7   5   9 58.9035 8.34304   3
  -5  -5   9 113.045 7.24729   4
   5  -5  -9 112.932 7.75415   3
   5  -5  -9 82.9928 8.27786   2
   5   5  -9 100.990 7.48647   2
  -5   5   9 106.925 7.50311   3
   3  -5  -9 12.5718 4.00393   2
   3  -5  -9 11.5591 3.33432   3
  -3  -5   9 16.6155 2.46141   3
  -3  -5   9 15.1656 3.32212   4
  -3   5   9 11.6272 3.21479   3
   3   5  -9 10.9093 3.69913   2
   1  -5  -9 3.89040 3.48339   3
  -1  -5   9 8.35125 3.21494   4
  -1   5   9 5.95527 1.66658   4
   1   5  -9 10.2364 3.71190   2
  10  -6  -9 83.7525 8.39656   3
 -10  -6   9 82.9910 7.58954   4
  10   6  -9 88.4969 7.88397   2
  -8  -6   9 56.3983 6.72568   4
   8  -6  -9 60.9984 7.38157   3
   8   6  -9 52.5147 6.84637   2
   6  -6  -9 35.6752 5.12444   3
  -6  -6   9 27.9087 4.39282   4
   6   6  -9 22.9440 4.25987   2
  -4  -6   9 84.1413 7.05746   4
   4  -6  -9 75.5241 7.81910   3
   4   6  -9 75.0133 7.71152   2
  16   0 -10 5.67673 2.84791   2
  16   0 -10 4.44154 2.36646   4
  16   0 -10 -0.1597 1.99149   4
  16   0 -10 4.36664 2.47096   3
  16   0 -10 5.92713 2.78561   3
  14   0 -10 117.861 6.05888   3
  14   0 -10 114.217 10.7201   2
  14   0 -10 108.206 5.99866   4
  14   0 -10 110.827 6.78875   2
  12   0 -10 10.9317 1.62191   3
  12   0 -10 13.2472 1.83111   4
  12   0 -10 9.98974 3.71188   2
  12   0 -10 15.6694 2.87984   2
  12   0 -10 10.6710 1.69881   3
  10   0 -10 77.2982 5.03127   2
 -10   0  10 71.1691 4.38866   4
  -8   0  10 235.460 10.0393   4
   8   0 -10 223.648 10.5046   2
  -6   0  10 12.2449 1.84698   4
   6   0 -10 9.84490 2.14254   2
   6   0 -10 11.6763 1.59457   4
   4   0 -10 152.530 7.26359   4
   4   0 -10 164.306 7.85192   2
  -4   0  10 152.926 7.37208   4
   2   0 -10 61.8844 4.43459   2
   2   0 -10 57.2509 4.18971   4
  -2   0  10 54.6492 3.24514   3
  -2   0  10 52.6487 3.94008   4
   0   0  10 58.4127 4.44133   3
   0   0  10 54.2958 4.60446   4
   0   0 -10 54.2885 5.54359   2
   0   0 -10 56.3914 5.08825   4
   2   0  10 151.463 8.34224   3
   2   0  10 162.566 8.59672   4
  -2   0 -10 167.326 8.44495   2
  17  -1 -10 78.0573 6.53421   3
  17  -1 -10 78.0128 6.41262   2
  17  -1 -10 72.2483 5.20170   4
  17  -1 -10 69.4258 7.62505   3
  17   1 -10 71.2884 6.34080   2
  17   1 -10 79.3974 7.14867   4
  17   1 -10 68.2178 6.08597   4
  17   1 -10 75.7701 5.97433   3
  15  -1 -10 173.517 8.73672   3
  15  -1 -10 169.165 7.95834   4
  15  -1 -10 168.649 9.20506   3
  15  -1 -10 175.006 9.14636   2
  15  -1 -10 166.578 7.88322   4
  15   1 -10 170.516 8.74502   4
  15   1 -10 152.419 8.54784   3
  15   1 -10 167.260 8.19379   3
  15   1 -10 184.738 9.21128   2
  13  -1 -10 9.52903 1.57370   4
  13  -1 -10 9.16415 3.60431   2
  13  -1 -10 10.9951 1.79543   4
  13  -1 -10 14.2532 2.62668   2
  13  -1 -10 11.2536 2.19533   3
  13   1 -10 8.88413 1.72033   3
  13   1 -10 10.9710 2.56541   2
  13   1 -10 10.5203 1.66620   3
  13   1 -10 5.88067 3.55494   2
  13   1 -10 10.4283 2.01598   4
  11  -1 -10 2.57670 1.85450   2
  11  -1 -10 2.41561 1.00636   4
 -11  -1  10 4.56143 1.81578   4
  11  -1 -10 2.76383 1.41994   3
  11   1 -10 2.87295 1.46592   4
  11   1 -10 5.81526 2.15232   2
   9  -1 -10 254.752 11.6850   2
  -9  -1  10 274.234 11.5446   4
   9  -1 -10 247.070 10.4409   4
   9  -1 -10 244.977 10.5496   3
   9  -1 -10 292.473 17.0758   2
   9   1 -10 259.126 11.8311   2
  -9   1  10 260.476 10.8255   4
   9   1 -10 263.251 11.0381   4
   7  -1 -10 427.579 17.7068   2
   7  -1 -10 418.891 16.6555   4
   7  -1 -10 409.129 16.3738   3
  -7  -1  10 396.220 17.3843   4
   7   1 -10 438.685 17.1244   4
  -7   1  10 418.939 16.9007   4
   7   1 -10 452.858 17.9488   2
   5  -1 -10 128.473 6.45986   2
   5  -1 -10 92.5698 7.33909   2
   5  -1 -10 116.960 5.29363   3
  -5  -1  10 116.304 6.50677   4
   5   1 -10 122.459 5.97251   4
   5   1 -10 131.871 6.75239   2
  -5   1  10 115.038 5.72239   4
  -5   1  10 119.317 5.17233   3
  -3  -1  10 14.2600 2.34313   4
   3  -1 -10 13.7883 2.35092   2
   3  -1 -10 12.9124 1.96555   4
   3  -1 -10 13.6384 3.34079   2
   3   1 -10 18.2059 2.82835   2
  -3   1  10 14.2240 1.91806   4
   3   1 -10 9.09160 1.84078   4
  -3   1  10 13.8096 1.73856   3
  -1  -1  10 31.9172 3.64850   4
  -1  -1  10 30.1967 2.60080   3
   1  -1 -10 30.8775 3.31037   4
  -1  -1  10 27.7479 2.26339   3
   1  -1 -10 34.3669 4.43742   2
   1   1 -10 29.5345 4.06170   2
  -1   1  10 35.3863 3.45909   4
   1   1 -10 30.3675 4.05620   4
  -1   1  10 26.8808 3.58327   3
   1  -1  10 102.375 5.66344   3
  -1  -1 -10 112.133 6.16530   2
  -1  -1 -10 95.5261 6.86700   4
  -1  -1 -10 103.560 7.75635   2
   1  -1  10 102.300 6.45758   4
  -1   1 -10 100.285 6.64238   2
   1   1  10 95.0643 6.09021   4
   1   1  10 93.0331 6.84861   3
  16  -2 -10 30.7784 4.72886   2
  16  -2 -10 24.2144 3.60001   4
  16  -2 -10 32.8125 5.43826   3
  16  -2 -10 25.1128 4.51962   3
  16   2 -10 34.3836 5.20386   2
  16   2 -10 28.8297 4.21896   3
  14  -2 -10 28.8745 2.29835   4
  14  -2 -10 25.6316 2.18459   4
  14  -2 -10 23.4472 3.39920   3
  14   2 -10 20.4216 3.24956   2
  14   2 -10 21.9633 3.09279   4
  14   2 -10 22.7229 3.07232   3
  14   2 -10 21.2352 3.35627   3
  12  -2 -10 301.916 12.0527   4
 -12  -2  10 320.870 13.8776   4
  12  -2 -10 287.849 11.8944   4
  12  -2 -10 282.773 15.4508   2
  12  -2 -10 311.309 13.4381   3
  12   2 -10 319.830 14.0670   2
  12   2 -10 313.125 13.4024   4
  12   2 -10 322.438 12.0227   3
  10  -2 -10 19.8673 1.36133   4
 -10  -2  10 23.9181 3.43746   4
  10  -2 -10 21.9853 3.11041   3
  10  -2 -10 20.7769 3.97447   2
  10  -2 -10 20.1309 3.17925   2
  10   2 -10 19.4870 2.91512   2
  10   2 -10 19.0426 2.87127   4
   8  -2 -10 16.6663 2.74086   3
   8  -2 -10 17.1392 1.45741   4
   8  -2 -10 22.4069 4.19881   2
   8  -2 -10 19.5623 3.00331   2
  -8  -2  10 12.1945 2.41925   4
   8   2 -10 15.5118 2.11046   4
  -8   2  10 18.4099 2.32540   3
   8   2 -10 17.8937 2.75553   2
  -8   2  10 18.5239 1.75091   4
  -6  -2  10 135.762 7.38131   4
   6  -2 -10 139.873 6.21247   4
   6  -2 -10 150.617 6.94781   3
   6  -2 -10 161.361 7.51739   2
  -6   2  10 145.667 6.38013   4
   6   2 -10 146.215 7.09428   4
   6   2 -10 140.074 7.74125   2
  -6   2  10 138.608 6.62774   3
   4  -2 -10 280.566 12.0472   2
   4  -2 -10 257.990 11.2454   4
   4  -2 -10 270.970 11.7914   3
  -4  -2  10 273.464 12.2371   4
  -4   2  10 272.932 11.5568   3
   4   2 -10 273.479 11.9079   4
  -4   2  10 256.975 11.2254   4
   4   2 -10 289.102 12.6821   2
   2  -2 -10 555.877 23.3778   3
   2  -2 -10 588.056 23.4417   2
   2  -2 -10 600.656 24.6800   2
  -2  -2  10 560.350 23.5983   4
   2  -2 -10 549.262 22.9664   4
  -2   2  10 585.446 23.5572   3
   2   2 -10 584.178 23.9789   2
   2   2 -10 552.905 23.4167   4
  -2   2  10 607.150 22.8483   4
   0  -2 -10 3.19789 2.44604   4
   0  -2 -10 1.79126 2.01882   2
   0  -2 -10 2.91690 2.43446   3
   0  -2  10 3.60038 1.38147   3
   0  -2 -10 8.16821 3.70789   2
   0  -2  10 0.98872 2.11790   4
   0   2  10 0.21218 1.67784   4
   0   2  10 6.37018 2.72369   3
   0   2 -10 0.38849 2.70669   2
  15  -3 -10 42.4436 5.95269   3
  15   3 -10 40.0223 4.18194   3
  15   3 -10 37.6871 5.28121   2
  13  -3 -10 70.7183 5.82730   3
  13   3 -10 59.0182 5.72299   2
  13   3 -10 75.4858 5.99640   4
  13   3 -10 71.8213 3.97598   3
  13   3 -10 69.7630 4.06901   3
  11  -3 -10 90.7397 6.11662   3
 -11  -3  10 91.2816 6.37360   4
  11   3 -10 88.8777 5.72839   4
 -11   3  10 91.8063 5.86751   3
  11   3 -10 96.0853 6.48240   2
   9  -3 -10 52.3977 4.61608   3
   9  -3 -10 51.7905 6.46402   2
  -9  -3  10 56.2297 4.90940   4
   9   3 -10 50.0187 4.12712   4
  -9   3  10 53.3701 4.21750   3
   9   3 -10 59.8484 5.06651   2
   7  -3 -10 111.376 8.25651   2
  -7  -3  10 103.776 6.61560   4
   7  -3 -10 119.684 6.55923   3
  -7   3  10 112.823 6.08338   3
   7   3 -10 104.531 6.00261   4
   7   3 -10 113.251 6.93578   2
   5  -3 -10 38.3495 3.83222   2
   5  -3 -10 39.0853 4.08095   3
  -5  -3  10 40.6375 4.35703   4
  -5  -3  10 33.6027 4.10723   2
  -5   3  10 37.1368 3.64100   3
   5   3 -10 36.4010 4.59560   2
   5   3 -10 39.5177 3.89212   4
  -5   3  10 40.1396 2.53385   4
  -3  -3  10 1.55726 2.22243   4
   3  -3 -10 -0.5361 3.87021   2
   3  -3 -10 6.05988 1.94966   2
  -3  -3  10 5.79401 2.25234   2
   3  -3 -10 5.69521 2.29232   3
   3   3 -10 7.00649 2.81574   2
  -3   3  10 2.02349 2.22192   3
  -3   3  10 5.54375 1.33989   4
   1  -3 -10 73.2711 7.36371   2
   1  -3 -10 78.6956 6.31901   3
   1  -3 -10 82.0469 5.32343   2
  -1  -3  10 73.0916 5.86487   4
  -1   3  10 68.2053 4.53201   4
  -1   3  10 81.3857 6.34670   3
   1   3 -10 87.0333 6.72511   2
  14  -4 -10 128.201 8.67669   3
  14   4 -10 116.364 8.22414   2
  12  -4 -10 46.7035 5.93601   3
 -12  -4  10 38.0318 5.62802   4
  12   4 -10 38.1080 5.24078   2
  12   4 -10 33.6438 3.38040   3
  10  -4 -10 45.0678 5.36717   3
 -10  -4  10 39.8687 5.45030   4
 -10   4  10 41.5812 4.81868   3
  10   4 -10 48.5425 5.33257   2
  -8  -4  10 1.25079 2.49353   4
   8  -4 -10 2.72007 2.81741   3
   8   4 -10 1.44161 2.52881   2
  -8   4  10 1.80022 2.18280   3
   6  -4 -10 94.5415 8.63279   2
  -6  -4  10 98.2775 6.63866   4
   6  -4 -10 80.7984 7.33693   3
   6   4 -10 96.6653 6.90326   2
  -6   4  10 89.2789 6.09246   3
   4  -4 -10 320.414 15.4006   2
  -4  -4  10 309.605 14.2485   4
   4  -4 -10 328.435 14.2970   3
  -4   4  10 280.060 11.9049   4
  -4   4  10 281.904 13.7786   3
   4   4 -10 310.075 14.6775   2
   2  -4 -10 63.2791 4.96708   2
   2  -4 -10 56.4464 6.33230   3
  -2  -4  10 57.1276 5.70334   4
  -2   4  10 59.6224 9.64728   3
  -2   4  10 55.6745 3.67511   4
   2   4 -10 60.9426 6.72186   2
  13   5 -10 81.9141 7.61766   2
  11  -5 -10 16.7449 3.99692   3
 -11  -5  10 11.7252 3.63381   4
 -11   5  10 8.43303 3.25146   3
  11   5 -10 12.1053 3.55668   2
   9  -5 -10 214.477 11.5725   3
  -9  -5  10 206.180 11.1820   4
   9   5 -10 198.436 11.2472   2
  -9   5  10 199.400 10.8544   3
  -7  -5  10 6.50740 3.05883   4
   7  -5 -10 1.53925 3.35613   3
   7   5 -10 5.84196 3.15475   2
  -7   5  10 1.53698 2.48014   3
   5  -5 -10 173.791 10.4041   3
  -5  -5  10 172.988 10.1258   4
  -5   5  10 174.984 9.91624   3
   5   5 -10 180.689 10.7405   2
  -3  -5  10 -2.3872 4.22803   4
   3  -5 -10 -1.3503 4.23428   2
   3  -5 -10 1.73685 3.24940   3
  -3   5  10 -3.4332 3.62002   3
   3   5 -10 7.67943 3.84794   2
  16   0 -11 1.39681 2.41553   4
  16   0 -11 5.40666 2.25720   3
  16   0 -11 7.81068 2.84856   2
  16   0 -11 4.73023 2.30720   4
  14   0 -11 25.1366 3.21950   3
  14   0 -11 22.9854 3.33678   3
  14   0 -11 23.4446 3.32714   4
  14   0 -11 20.3237 3.40757   2
  12   0 -11 27.4728 3.65451   2
  12   0 -11 29.6511 2.87789   4
  10   0 -11 71.9648 4.16796   4
 -10   0  11 79.4681 4.82818   4
  10   0 -11 69.0656 6.95259   2
  10   0 -11 80.3255 5.44405   2
   8   0 -11 308.692 13.7824   2
  -8   0  11 322.138 13.2082   4
   8   0 -11 297.763 12.6791   4
   8   0 -11 302.099 15.3374   2
   6   0 -11 0.90723 1.97379   2
   6   0 -11 1.04054 1.38002   4
  -6   0  11 0.23319 1.49498   4
  -4   0  11 41.9534 3.94506   4
   4   0 -11 42.1438 3.82235   4
   4   0 -11 47.4843 4.48183   2
   2   0 -11 2.65108 3.60526   2
  -2   0  11 -0.5582 1.82838   4
  -2   0  11 -1.1438 1.24547   3
   2   0 -11 0.18159 2.19364   2
   2   0 -11 -1.2749 2.16296   4
   0   0 -11 -3.9934 2.66154   2
   0   0  11 -0.3908 2.21222   4
  15  -1 -11 36.4534 5.02967   3
  15  -1 -11 32.3703 3.47247   4
  15  -1 -11 27.0396 3.72960   2
  15  -1 -11 30.6732 4.57651   3
  15   1 -11 37.8309 4.68943   4
  15   1 -11 39.0900 3.58576   3
  15   1 -11 31.9767 4.20410   2
  13  -1 -11 154.843 8.62008   2
  13  -1 -11 170.097 7.89503   3
  13  -1 -11 155.068 7.05735   4
  13  -1 -11 152.006 7.71201   3
  13   1 -11 173.844 8.00266   4
  13   1 -11 163.548 8.81577   2
 -11  -1  11 146.723 10.1887   4
  11  -1 -11 127.140 6.20552   3
  11  -1 -11 136.106 6.27334   3
  11  -1 -11 137.932 6.08850   4
  11  -1 -11 139.674 7.70682   2
  11   1 -11 142.155 7.82202   2
  11   1 -11 144.275 6.82590   4
   9  -1 -11 86.9732 4.28278   4
  -9  -1  11 75.0695 6.22369   4
   9  -1 -11 96.9523 7.86783   2
   9  -1 -11 93.0784 5.85051   2
  -9   1  11 81.6096 4.66982   4
   9   1 -11 86.5671 5.73298   2
   9   1 -11 87.5435 4.89726   4
  -7  -1  11 28.0313 3.60383   4
   7  -1 -11 28.6379 3.61401   2
   7  -1 -11 23.1310 4.27937   2
   7   1 -11 30.5739 4.00049   2
  -7   1  11 30.7183 3.01182   4
   7   1 -11 28.0945 3.04185   4
   5  -1 -11 41.9674 3.48543   4
   5  -1 -11 51.7948 6.59009   2
   5  -1 -11 47.2906 4.37041   2
  -5  -1  11 47.6110 4.35051   4
  -5   1  11 49.6296 3.77794   4
   5   1 -11 47.9507 3.95348   4
   5   1 -11 52.5749 4.72910   2
   3  -1 -11 148.999 7.55140   4
   3  -1 -11 176.001 11.5053   2
   3  -1 -11 157.063 8.03943   2
  -3  -1  11 151.718 7.97369   4
  -3   1  11 137.555 7.31448   4
   3   1 -11 147.179 7.94594   4
  -3   1  11 144.870 6.75945   3
   3   1 -11 147.013 8.42466   2
   1  -1 -11 27.8404 4.32417   2
  -1  -1  11 21.6506 3.16495   4
   1  -1 -11 27.1721 3.57692   4
  -1   1  11 23.1235 2.97481   4
   1   1 -11 18.2234 3.70742   2
  16  -2 -11 82.5851 6.98288   3
  16  -2 -11 86.1200 6.91114   2
  16   2 -11 78.4473 6.99203   2
  14  -2 -11 57.0348 5.31335   3
  14  -2 -11 50.9208 5.26859   2
  14   2 -11 63.9030 5.78897   2
  14   2 -11 58.7257 5.46458   4
  12  -2 -11 103.736 6.01130   3
  12  -2 -11 94.5275 4.30073   4
  12  -2 -11 98.9570 6.46021   2
 -12  -2  11 101.495 6.69583   4
  12  -2 -11 99.0142 4.15180   4
  12   2 -11 93.2335 6.04447   4
  12   2 -11 110.837 6.88837   2
  10  -2 -11 45.8113 2.36494   4
  10  -2 -11 55.0192 4.74351   2
  10  -2 -11 44.7216 3.93348   3
 -10  -2  11 49.9119 4.74288   4
  10   2 -11 49.1405 4.09489   4
  10   2 -11 49.9567 4.88178   2
   8  -2 -11 1.67701 2.01606   2
   8  -2 -11 1.81161 0.91479   4
  -8  -2  11 0.75744 1.85511   4
   8  -2 -11 -0.2569 3.79519   2
   8  -2 -11 2.07289 1.50960   3
   8   2 -11 3.07920 2.28075   2
  -8   2  11 3.67318 1.36249   3
  -8   2  11 4.12617 1.21422   4
   8   2 -11 0.61432 1.60286   4
   6  -2 -11 117.918 9.62124   2
   6  -2 -11 145.997 6.87421   3
   6  -2 -11 154.538 7.84606   2
   6  -2 -11 130.933 6.34323   4
  -6  -2  11 139.908 7.80585   4
   6   2 -11 152.357 8.33191   2
  -6   2  11 144.478 6.60292   4
   6   2 -11 143.412 7.28776   4
  -6   2  11 144.840 6.63210   3
   4  -2 -11 6.75755 2.41662   2
   4  -2 -11 14.3526 4.43519   2
   4  -2 -11 9.27127 2.19687   3
  -4  -2  11 6.63337 2.35098   4
   4  -2 -11 3.17819 1.73724   4
   4   2 -11 3.15176 2.50186   2
  -4   2  11 9.82525 1.91492   3
  -4   2  11 11.9966 1.97290   4
   4   2 -11 8.22063 2.26763   4
   2  -2 -11 24.3776 3.23861   3
   2  -2 -11 27.9580 4.31076   4
   2  -2 -11 37.1632 4.31102   2
  -2  -2  11 28.3908 4.37217   4
  -2   2  11 28.3082 3.58176   4
   2   2 -11 32.3860 4.38240   2
  15  -3 -11 93.2547 7.40947   3
  15   3 -11 81.0057 7.22762   2
 -13  -3  11 5.34517 3.09185   4
  13   3 -11 3.38900 2.56422   2
 -11  -3  11 89.2800 6.56960   4
  11  -3 -11 87.5262 6.17695   3
 -11   3  11 85.7186 5.71944   3
  11   3 -11 75.7869 6.46411   2
   9  -3 -11 8.33685 2.41720   3
  -9  -3  11 6.59816 2.44240   4
  -9   3  11 6.41586 2.11035   3
   9   3 -11 5.82216 2.16090   4
   9   3 -11 3.00666 2.70838   2
   7  -3 -11 65.7416 5.02051   2
   7  -3 -11 51.8958 4.69673   3
  -7  -3  11 54.2289 5.38753   4
   7  -3 -11 65.1626 9.75517   2
  -7   3  11 55.6595 4.38728   3
   7   3 -11 50.8597 5.49820   2
  -5  -3  11 133.279 7.86599   4
   5  -3 -11 129.168 10.0085   2
   5  -3 -11 122.723 7.29246   3
   5  -3 -11 128.962 7.29997   2
   5   3 -11 120.387 8.07744   2
  -5   3  11 120.503 6.81350   3
  -5   3  11 125.403 5.86207   4
   3  -3 -11 18.9567 4.57030   2
  -3  -3  11 15.3660 3.24597   4
   3  -3 -11 15.5371 2.99541   2
   3  -3 -11 16.6408 3.11802   3
   3   3 -11 14.3256 3.48541   2
  -3   3  11 15.4033 3.35521   3
  -3   3  11 10.8647 1.98206   4
  12  -4 -11 2.51565 3.19235   3
 -12  -4  11 -0.1358 2.98966   4
  12   4 -11 -3.9007 3.02836   2
  10  -4 -11 107.235 7.56724   3
 -10  -4  11 108.098 7.72612   4
  10   4 -11 93.8297 7.47254   2
  -8  -4  11 5.93267 2.75838   4
   8  -4 -11 13.4768 3.62803   3
  -8   4  11 5.76708 2.59024   3
   8   4 -11 3.58649 3.14663   2
   6  -4 -11 58.3329 5.88326   3
  -6  -4  11 61.2528 6.15968   4
  -6   4  11 62.8428 5.60396   3
   6   4 -11 63.3247 6.57225   2
  -4  -4  11 27.4170 4.07765   4
   4  -4 -11 38.1788 4.99309   2
   4  -4 -11 24.1028 6.50002   2
   4  -4 -11 38.8136 5.89697   3
   4   4 -11 43.4820 5.58441   2
   9  -5 -11 159.693 10.1183   3
  -9   5  11 142.676 9.58635   3
  14   0 -12 70.3718 6.26741   2
  14   0 -12 83.6364 5.06305   4
 -12   0  12 0.97842 2.01173   4
  12   0 -12 -0.5010 2.30125   2
  12   0 -12 0.00483 1.55401   4
  10   0 -12 8.43933 2.69992   2
  10   0 -12 10.4288 1.84243   4
 -10   0  12 13.6974 2.45425   4
   8   0 -12 261.073 11.5168   4
   8   0 -12 281.734 12.8052   2
  -8   0  12 267.271 12.2295   4
  -6   0  12 3.75126 2.04243   4
   6   0 -12 1.98834 1.95384   4
   6   0 -12 4.97363 2.57713   2
   4   0 -12 32.8219 4.94510   2
  -4   0  12 24.6097 3.31752   4
   4   0 -12 31.5441 4.42797   4
  15  -1 -12 18.5536 3.47507   2
  15   1 -12 8.01440 2.82644   4
  15   1 -12 10.0918 3.08428   2
  13  -1 -12 211.221 10.7305   2
  13   1 -12 210.639 9.67811   4
  13   1 -12 197.229 10.6841   2
  11  -1 -12 65.2983 3.91151   4
 -11  -1  12 82.8356 5.69959   4
  11  -1 -12 79.4732 5.90315   2
  11   1 -12 71.6366 4.78752   4
  11   1 -12 66.4265 5.76239   2
   9  -1 -12 38.2197 4.53785   2
  -9  -1  12 36.9753 4.47851   4
   9   1 -12 33.5403 4.79135   2
   9   1 -12 31.9141 3.63551   4
  -9   1  12 41.0597 3.61066   4
   7  -1 -12 70.8658 5.51696   2
   7  -1 -12 67.0298 4.28266   4
  -7  -1  12 72.5444 5.63793   4
   7   1 -12 63.1331 4.95216   4
   7   1 -12 72.9961 5.92289   2
  -7   1  12 66.1864 4.81245   4
   5  -1 -12 75.0118 5.67275   2
   5  -1 -12 70.7207 4.83816   4
  -5  -1  12 74.3044 5.71587   4
   5   1 -12 63.2831 5.99855   2
  -5   1  12 57.6760 4.84867   4
   5   1 -12 60.3558 5.18784   4
  -3  -1  12 200.276 10.6788   4
   3  -1 -12 221.911 10.9336   2
   3  -1 -12 207.334 14.4736   2
   3  -1 -12 215.870 13.2350   4
  -3   1  12 208.611 10.2787   4
   3   1 -12 215.120 11.2978   2
  14  -2 -12 16.2136 3.53830   2
  14   2 -12 22.8316 4.01969   2
  12  -2 -12 4.07680 2.50386   2
 -12  -2  12 1.66182 2.63392   4
  12  -2 -12 -0.6436 2.28578   3
  12   2 -12 2.93462 3.00281   2
  12   2 -12 2.53750 2.44447   4
  10  -2 -12 96.5301 5.62821   3
 -10  -2  12 103.814 7.14174   4
  10  -2 -12 107.968 6.89641   2
  10   2 -12 105.027 6.33576   4
  10   2 -12 104.870 7.19813   2
  -8  -2  12 10.4054 2.81706   4
   8  -2 -12 12.4445 2.95568   2
  -8   2  12 6.85526 1.72066   4
   8   2 -12 19.4175 3.49308   2
   8   2 -12 9.51825 2.26126   4
   6  -2 -12 106.029 6.76942   2
  -6  -2  12 104.767 7.00586   4
   6   2 -12 96.3852 7.31534   2
  -6   2  12 97.5831 5.59143   4
   4  -2 -12 53.3864 5.45986   2
  -4  -2  12 47.2393 5.74260   4
   4   2 -12 34.6113 4.80100   2
 -13  -3  12 29.9190 4.55154   4
  13  -3 -12 38.3692 5.41257   3
  11  -3 -12 114.548 7.22465   3
 -11  -3  12 112.104 8.01574   4
  11  -3 -12 115.583 7.53127   2
  11   3 -12 114.813 8.16049   2
   9  -3 -12 6.99199 2.78735   2
  -9  -3  12 6.19334 2.89144   4
   9  -3 -12 4.53389 2.44816   3
   9   3 -12 7.31416 3.61551   2
   7  -3 -12 6.63869 2.82871   2
  -7  -3  12 5.87558 3.03456   4
   7   3 -12 -1.6337 3.24561   2
  -5  -3  12 122.493 8.57952   4
   5  -3 -12 138.501 7.98270   2
   5   3 -12 130.769 9.22367   2
  12   0 -13 101.029 7.66837   2
  10   0 -13 5.04637 2.71127   2
 -10   0  13 4.19253 2.43813   4
  -8   0  13 94.6080 6.46911   4
   8   0 -13 85.6155 6.76036   2
 -11  -1  13 47.6103 5.60146   4
  11  -1 -13 49.9791 5.56715   2
  11   1 -13 30.4106 4.56617   2
  11   1 -13 43.9033 4.49682   4
  -9  -1  13 64.1812 6.25448   4
   9  -1 -13 73.6685 6.22243   2
  -9   1  13 67.7575 5.30276   4
   9   1 -13 70.4214 6.59395   2
   9   1 -13 72.0628 5.49886   4
  -7  -1  13 105.449 7.58229   4
   7  -1 -13 110.694 7.44407   2
  -7   1  13 87.5444 6.90984   4
   7   1 -13 106.028 7.72406   2
 -10  -2  13 68.6135 6.69806   4
  10  -2 -13 79.2462 6.63920   2
   0   0   0    0.00    0.00   0

 _exptl_absorpt_process_details 'SADABS 2014/5'
 _exptl_absorpt_correction_type   multi-scan
 _exptl_absorpt_correction_T_max  0.7456
 _exptl_absorpt_correction_T_min  0.6861
 _exptl_special_details
)
 The following wavelength and cell were deduced by SADABS from the
 direction cosines etc. They are given here for emergency use only:
 CELL 0.71101   14.096    6.801   10.305   90.006  124.117   89.986
)
;
_shelx_hkl_checksum              8552
_olex2_submission_special_instructions 'No special instructions were received'
loop_
_space_group_symop_operation_xyz
'x, y, z'
'-x, y, -z'
'x+1/2, y+1/2, z'
'-x+1/2, y+1/2, -z'
loop_
_atom_site_label
_atom_site_type_symbol
_atom_site_fract_x
_atom_site_fract_y
_atom_site_fract_z
_atom_site_U_iso_or_equiv
_atom_site_adp_type
_atom_site_occupancy
_atom_site_site_symmetry_order
_atom_site_calc_flag
_atom_site_refinement_flags_posn
_atom_site_refinement_flags_adp
_atom_site_refinement_flags_occupancy
S1 S 0.500000 0.45696(9) 0.500000 0.01463(15) Uani 1 2 d S T P
S2 S 0.19665(5) 0.15688(8) 0.38106(6) 0.02542(15) Uani 1 1 d . . .
O1 O 0.32636(12) 0.6801(2) 0.22741(18) 0.0237(3) Uani 1 1 d . . .
O2 O 0.13811(13) 0.7439(3) 0.0818(2) 0.0323(4) Uani 1 1 d . . .
C4 C 0.19762(16) 0.4730(3) 0.2469(2) 0.0156(4) Uani 1 1 d . . .
C5 C 0.08341(16) 0.4492(4) 0.2072(2) 0.0213(4) Uani 1 1 d . . .
H5 H 0.022837 0.538835 0.143056 0.026 Uiso 1 1 calc R . .
C2 C 0.39289(18) 0.2801(3) 0.4169(2) 0.0171(4) Uani 1 1 d . . .
C7 C 0.23025(15) 0.6397(3) 0.1884(2) 0.0152(4) Uani 1 1 d . . .
C6 C 0.07081(19) 0.2850(4) 0.2710(3) 0.0260(5) Uani 1 1 d . . .
H6 H 0.000687 0.245870 0.256447 0.031 Uiso 1 1 calc R . .
C1 C 0.4393(2) 0.0949(3) 0.4537(3) 0.0273(5) Uani 1 1 d . . .
H1 H 0.394471 -0.021855 0.420452 0.033 Uiso 1 1 calc R . .
C3 C 0.27071(16) 0.3226(3) 0.3421(2) 0.0161(4) Uani 1 1 d . . .
C8 C 0.1587(2) 0.9071(4) 0.0108(3) 0.0372(6) Uani 1 1 d . . .
H8A H 0.196240 0.859180 -0.039345 0.056 Uiso 1 1 calc GR . .
H8B H 0.208279 1.003778 0.091704 0.056 Uiso 1 1 calc GR . .
H8C H 0.085506 0.969143 -0.068066 0.056 Uiso 1 1 calc GR . .
loop_
_atom_site_aniso_label
_atom_site_aniso_U_11
_atom_site_aniso_U_22
_atom_site_aniso_U_33
_atom_site_aniso_U_23
_atom_site_aniso_U_13
_atom_site_aniso_U_12
S1 0.0114(3) 0.0110(3) 0.0188(3) 0.000 0.0068(3) 0.000
S2 0.0242(3) 0.0274(3) 0.0224(3) 0.0025(2) 0.0117(2) -0.0117(2)
O1 0.0135(7) 0.0208(7) 0.0349(8) 0.0068(7) 0.0126(6) -0.0006(6)
O2 0.0136(8) 0.0359(10) 0.0367(9) 0.0199(8) 0.0076(7) 0.0007(7)
C4 0.0130(8) 0.0205(9) 0.0122(8) -0.0029(8) 0.0064(7) -0.0054(8)
C5 0.0128(9) 0.0333(11) 0.0162(8) -0.0023(10) 0.0072(8) -0.0061(9)
C2 0.0174(11) 0.0167(10) 0.0147(9) -0.0013(8) 0.0075(9) -0.0043(8)
C7 0.0145(9) 0.0169(9) 0.0142(8) -0.0024(8) 0.0080(7) -0.0021(8)
C6 0.0177(11) 0.0394(13) 0.0197(10) -0.0032(10) 0.0097(9) -0.0134(9)
C1 0.0256(13) 0.0141(10) 0.0309(12) -0.0014(9) 0.0089(10) -0.0037(8)
C3 0.0155(10) 0.0175(10) 0.0147(9) -0.0028(7) 0.0081(8) -0.0070(8)
C8 0.0254(13) 0.0349(15) 0.0407(13) 0.0234(11) 0.0121(11) 0.0029(10)
loop_
_atom_type_symbol
_atom_type_description
_atom_type_scat_dispersion_real
_atom_type_scat_dispersion_imag
_atom_type_scat_source
C C 0.0033 0.0016 'International Tables Vol C Tables 4.2.6.8 and 6.1.1.4'
H H 0.0000 0.0000 'International Tables Vol C Tables 4.2.6.8 and 6.1.1.4'
O O 0.0106 0.0060 'International Tables Vol C Tables 4.2.6.8 and 6.1.1.4'
S S 0.1246 0.1234 'International Tables Vol C Tables 4.2.6.8 and 6.1.1.4'
loop_
_geom_angle_atom_site_label_1
_geom_angle_atom_site_label_2
_geom_angle_atom_site_label_3
_geom_angle
_geom_angle_site_symmetry_1
_geom_angle_site_symmetry_3
C2 S1 C2 92.20(15) 2_656 .
C6 S2 C3 92.91(10) . .
C7 O2 C8 116.33(16) . .
C5 C4 C7 121.99(18) . .
C3 C4 C5 112.82(18) . .
C3 C4 C7 125.19(17) . .
C4 C5 H5 123.6 . .
C6 C5 C4 112.8(2) . .
C6 C5 H5 123.6 . .
C1 C2 S1 110.62(16) . .
C1 C2 C3 124.3(2) . .
C3 C2 S1 124.23(16) . .
O1 C7 O2 122.85(19) . .
O1 C7 C4 125.99(18) . .
O2 C7 C4 111.15(16) . .
S2 C6 H6 124.1 . .
C5 C6 S2 111.76(16) . .
C5 C6 H6 124.1 . .
C2 C1 C1 113.27(13) . 2_656
C2 C1 H1 123.4 . .
C1 C1 H1 123.4 2_656 .
C4 C3 S2 109.75(14) . .
C4 C3 C2 134.56(18) . .
C2 C3 S2 115.66(15) . .
O2 C8 H8A 109.5 . .
O2 C8 H8B 109.5 . .
O2 C8 H8C 109.5 . .
H8A C8 H8B 109.5 . .
H8A C8 H8C 109.5 . .
H8B C8 H8C 109.5 . .
loop_
_geom_bond_atom_site_label_1
_geom_bond_atom_site_label_2
_geom_bond_distance
_geom_bond_site_symmetry_2
S1 C2 1.733(2) 2_656
S1 C2 1.733(2) .
S2 C6 1.712(3) .
S2 C3 1.729(2) .
O1 C7 1.208(2) .
O2 C7 1.338(2) .
O2 C8 1.445(3) .
C4 C5 1.429(3) .
C4 C7 1.473(3) .
C4 C3 1.390(3) .
C5 H5 0.9500 .
C5 C6 1.356(3) .
C2 C1 1.369(3) .
C2 C3 1.467(3) .
C6 H6 0.9500 .
C1 C1 1.416(5) 2_656
C1 H1 0.9500 .
C8 H8A 0.9800 .
C8 H8B 0.9800 .
C8 H8C 0.9800 .
