#------------------------------------------------------------------------------
#$Date: 2019-10-28 02:41:28 +0200 (Mon, 28 Oct 2019) $
#$Revision: 219593 $
#$URL: file:///home/coder/svn-repositories/cod/cif/1/55/24/1552489.cif $
#------------------------------------------------------------------------------
#
# This file is available in the Crystallography Open Database (COD),
# http://www.crystallography.net/
#
# All data on this site have been placed in the public domain by the
# contributors.
#
data_1552489
loop_
_publ_author_name
'Policarpo, Rocco L.'
'Decultot, Ludovic'
'May, Elizabeth'
'Kuzmi\<c, Petr'
'Carlson, Samuel'
'Huang, Danny'
'Chu, Vincent'
'Wright, Brandon A.'
'Dhakshinamoorthy, Saravanakumar'
'Kannt, Aimo'
'Rani, Shilpa'
'Dittakavi, Sreekanth'
'Panarese, Joseph D.'
'Gaudet, Rachelle'
'Shair, Matthew D.'
_publ_section_title
;
 High-Affinity Alkynyl Bisubstrate Inhibitors of Nicotinamide
 <i>N</i>-Methyltransferase (NNMT).
;
_journal_name_full               'Journal of medicinal chemistry'
_journal_paper_doi               10.1021/acs.jmedchem.9b01238
_journal_year                    2019
_chemical_absolute_configuration ad
_chemical_formula_sum            'C26 H30 F3 N7 O9'
_chemical_formula_weight         641.57
_space_group_crystal_system      triclinic
_space_group_IT_number           1
_space_group_name_Hall           'P 1'
_space_group_name_H-M_alt        'P 1'
_symmetry_space_group_name_Hall  'P 1'
_symmetry_space_group_name_H-M   'P 1'
_atom_sites_solution_hydrogens   mixed
_audit_creation_method           SHELXL-2014/7
_cell_angle_alpha                103.0375(11)
_cell_angle_beta                 90.8460(9)
_cell_angle_gamma                90.3108(10)
_cell_formula_units_Z            1
_cell_length_a                   5.05910(10)
_cell_length_b                   10.9615(2)
_cell_length_c                   13.2000(3)
_cell_measurement_reflns_used    9932
_cell_measurement_temperature    100(2)
_cell_measurement_theta_max      65.7
_cell_measurement_theta_min      3.44
_cell_volume                     713.03(3)
_computing_cell_refinement       'SAINT 8.37A (Bruker-AXS, 2015)'
_computing_data_reduction        'SAINT 8.37A (Bruker-AXS, 2015)'
_computing_molecular_graphics    'Bruker SHELXTL (Sheldrick, 2015)'
_computing_publication_material  'Bruker SHELXTL (Sheldrick, 2015)'
_computing_structure_refinement  'SHELXL-2014 (Sheldrick, 2015)'
_computing_structure_solution    'SHELXT-2014 (Sheldrick, 2015)'
_diffrn_ambient_temperature      100(2)
_diffrn_measured_fraction_theta_full 0.959
_diffrn_measured_fraction_theta_max 0.959
_diffrn_measurement_device_type
;
Bruker D8 goniometer with CCD area detector  
;
_diffrn_measurement_method       'omega and phi scans'
_diffrn_radiation_monochromator  graphite
_diffrn_radiation_source         'I\mS microfocus tube'
_diffrn_radiation_type           CuK\a
_diffrn_radiation_wavelength     1.54178
_diffrn_reflns_av_R_equivalents  0.0268
_diffrn_reflns_av_unetI/netI     0.0215
_diffrn_reflns_Laue_measured_fraction_full 0.959
_diffrn_reflns_Laue_measured_fraction_max 0.959
_diffrn_reflns_limit_h_max       6
_diffrn_reflns_limit_h_min       -6
_diffrn_reflns_limit_k_max       13
_diffrn_reflns_limit_k_min       -13
_diffrn_reflns_limit_l_max       15
_diffrn_reflns_limit_l_min       -15
_diffrn_reflns_number            17748
_diffrn_reflns_point_group_measured_fraction_full 0.865
_diffrn_reflns_point_group_measured_fraction_max 0.865
_diffrn_reflns_theta_full        66.704
_diffrn_reflns_theta_max         66.704
_diffrn_reflns_theta_min         3.437
_exptl_absorpt_coefficient_mu    1.094
_exptl_absorpt_correction_T_max  0.8058
_exptl_absorpt_correction_T_min  0.7384
_exptl_absorpt_correction_type   multi-scan
_exptl_absorpt_process_details   sadabs
_exptl_crystal_colour            colorless
_exptl_crystal_density_diffrn    1.494
_exptl_crystal_description       needle
_exptl_crystal_F_000             334
_exptl_crystal_size_max          0.180
_exptl_crystal_size_mid          0.080
_exptl_crystal_size_min          0.060
_refine_diff_density_max         0.530
_refine_diff_density_min         -0.169
_refine_diff_density_rms         0.036
_refine_ls_abs_structure_details
;
 Flack x determined using 1881 quotients [(I+)-(I-)]/[(I+)+(I-)]
 (Parsons, Flack and Wagner, Acta Cryst. B69 (2013) 249-259).
;
_refine_ls_abs_structure_Flack   -0.06(8)
_refine_ls_extinction_method     none
_refine_ls_goodness_of_fit_ref   1.025
_refine_ls_hydrogen_treatment    mixed
_refine_ls_matrix_type           full
_refine_ls_number_parameters     464
_refine_ls_number_reflns         4335
_refine_ls_number_restraints     9
_refine_ls_restrained_S_all      1.032
_refine_ls_R_factor_all          0.0276
_refine_ls_R_factor_gt           0.0273
_refine_ls_shift/su_max          0.000
_refine_ls_shift/su_mean         0.000
_refine_ls_structure_factor_coef Fsqd
_refine_ls_weighting_details
'w=1/[\s^2^(Fo^2^)+(0.0551P)^2^+0.0932P] where P=(Fo^2^+2Fc^2^)/3'
_refine_ls_weighting_scheme      calc
_refine_ls_wR_factor_gt          0.0731
_refine_ls_wR_factor_ref         0.0734
_reflns_Friedel_coverage         0.803
_reflns_Friedel_fraction_full    0.770
_reflns_Friedel_fraction_max     0.770
_reflns_number_gt                4280
_reflns_number_total             4335
_reflns_threshold_expression     'I > 2\s(I)'
_cod_data_source_file            jm9b01238_si_006.cif
_cod_data_source_block           NS1TFA-10
_cod_database_code               1552489
_shelx_shelxl_version_number     2014/7
_shelx_space_group_comment
;
The symmetry employed for this shelxl refinement is uniquely defined
by the following loop, which should always be used as a source of
symmetry information in preference to the above space-group names.
They are only intended as comments.
;
_shelx_estimated_absorpt_t_min   0.827
_shelx_estimated_absorpt_t_max   0.937
_refine_ls_abs_structure_hooft   -0.00(6)
_shelx_res_file
;

    zsl.res created by SHELXL-2014/7

TITL zsl in P1
CELL 1.54178 5.0591 10.9615 13.2 103.0375 90.846 90.3108
ZERR 1 0.0001 0.0002 0.0003 0.0011 0.0009 0.001
LATT -1
SFAC C H F N O
UNIT 26 30 3 7 9
EQIV $1 -1+X,+Y,+Z
EQIV $2 1+X,1+Y,1+Z
EQIV $3 +X,1+Y,+Z
EQIV $4 +X,-1+Y,-1+Z
EQIV $5 -1+X,1+Y,+Z
EQIV $6 -1+X,+Y,1+Z
EQIV $7 1+X,+Y,-1+Z
EQIV $8 -1+X,-1+Y,-1+Z
EQIV $9 +X,-1+Y,+Z
EQIV $10 +X,1+Y,1+Z
EADP F1 F1A
EADP F2 F2A
EADP F3 F3A
EADP C32 C32A
EXYZ C32 C32A

L.S. 10
PLAN  -1
SIZE 0.06 0.08 0.18
TEMP -173.16
HTAB O2 N2_$1
HTAB O3 O11_$5
HTAB O3 O2
HTAB O5 N3_$6
HTAB N4 O4_$7
HTAB N4 O6_$8
HTAB N6 O12_$1
HTAB N6 O12
HTAB N6 O3_$9
HTAB N6 O1W_$9
HTAB N7 O11_$10
HTAB N7 N5_$2
HTAB O1W O6_$1
HTAB N4 O6_$4
HTAB O1W O4_$3
BOND $H
CONF
LIST 4
fmap 2
acta
REM <olex2.extras>
REM <HklSrc "%.\\zsl.hkl">
REM </olex2.extras>

WGHT    0.055100    0.093200
FVAR       0.32377   0.66394
O1    5    0.689771    0.499664    0.368530    11.00000    0.01922    0.02250 =
         0.01487    0.00170    0.00181    0.00466
O2    5    0.236962    0.631966    0.212412    11.00000    0.02415    0.01746 =
         0.02057    0.00421   -0.00416   -0.00100
O3    5    0.476537    0.761955    0.394988    11.00000    0.02970    0.01458 =
         0.02286    0.00171   -0.00351   -0.00109
O4    5    0.160742    0.044250    0.723730    11.00000    0.01996    0.02597 =
         0.02328    0.00301    0.00272   -0.00195
O5    5    0.390414    0.214103    0.805941    11.00000    0.02730    0.02512 =
         0.02267   -0.00210    0.00714   -0.00210
O6    5    1.371880    0.905281    0.909067    11.00000    0.02583    0.02148 =
         0.02008    0.00266    0.00147   -0.00491
N1    4    0.603438    0.393041    0.195534    11.00000    0.01866    0.01654 =
         0.01710    0.00214    0.00249   -0.00021
N2    4    0.964806    0.434055    0.087787    11.00000    0.01948    0.01775 =
         0.01801    0.00204    0.00098   -0.00079
N3    4    1.045605    0.258734   -0.052655    11.00000    0.02211    0.02184 =
         0.01813    0.00209    0.00327    0.00031
N4    4    0.821704    0.069228   -0.081824    11.00000    0.02244    0.01853 =
         0.02031   -0.00062    0.00465    0.00119
N5    4    0.500136    0.195248    0.112381    11.00000    0.02218    0.01794 =
         0.01967    0.00338    0.00245    0.00018
N6    4    0.506751   -0.013958    0.567195    11.00000    0.02403    0.01921 =
         0.01716    0.00204    0.00190    0.00249
N7    4    1.305600    0.932461    1.080438    11.00000    0.02988    0.02026 =
         0.01899    0.00014    0.00203   -0.00537
C1    1    0.770794    0.362478    0.113141    11.00000    0.01780    0.01908 =
         0.01494    0.00328   -0.00082    0.00371
C2    1    1.089855    0.374807    0.004225    11.00000    0.02038    0.02133 =
         0.01936    0.00304    0.00243   -0.00318
AFIX  43
H2A   2    1.228916    0.420238   -0.018477    11.00000   -1.20000
AFIX   0
C3    1    0.853560    0.184988   -0.026243    11.00000    0.01807    0.01918 =
         0.01816    0.00463   -0.00191    0.00226
C4    1    0.704160    0.240681    0.061881    11.00000    0.01833    0.01637 =
         0.01661    0.00297   -0.00034    0.00094
C5    1    0.447227    0.288062    0.190082    11.00000    0.02073    0.01989 =
         0.01837    0.00256    0.00412    0.00101
AFIX  43
H5A   2    0.312857    0.283822    0.238721    11.00000   -1.20000
AFIX   0
C6    1    0.593547    0.513544    0.270450    11.00000    0.01959    0.01632 =
         0.01606    0.00147    0.00172   -0.00038
AFIX  13
H6    2    0.707714    0.575380    0.245777    11.00000   -1.20000
AFIX   0
C7    1    0.313990    0.566128    0.288002    11.00000    0.01846    0.01607 =
         0.01655    0.00306    0.00019    0.00015
AFIX  13
H7    2    0.185350    0.496551    0.288038    11.00000   -1.20000
AFIX   0
C8    1    0.341644    0.648398    0.396627    11.00000    0.02155    0.01703 =
         0.01893    0.00232    0.00290    0.00078
AFIX  13
H8    2    0.166804    0.664120    0.431335    11.00000   -1.20000
AFIX   0
C9    1    0.520938    0.569951    0.450432    11.00000    0.02042    0.01837 =
         0.01560    0.00067    0.00143    0.00142
AFIX  13
H9    2    0.633581    0.626888    0.504041    11.00000   -1.20000
AFIX   0
C10   1    0.379547    0.476274    0.500500    11.00000    0.01912    0.02164 =
         0.01739    0.00216    0.00193   -0.00057
AFIX  23
H10A  2    0.274443    0.417335    0.446869    11.00000   -1.20000
H10B  2    0.256397    0.521299    0.553403    11.00000   -1.20000
AFIX   0
C11   1    0.577590    0.402443    0.552150    11.00000    0.01898    0.01922 =
         0.01462    0.00190    0.00151   -0.00223
AFIX  13
H11   2    0.725086    0.375528    0.502688    11.00000   -1.20000
AFIX   0
C12   1    0.454858    0.283653    0.578229    11.00000    0.02001    0.01787 =
         0.01993    0.00148    0.00094   -0.00129
AFIX  23
H12A  2    0.313631    0.308018    0.629829    11.00000   -1.20000
H12B  2    0.374764    0.230068    0.514564    11.00000   -1.20000
AFIX   0
C13   1    0.666742    0.210706    0.622020    11.00000    0.01849    0.01766 =
         0.01847    0.00149    0.00313   -0.00118
AFIX  23
H13A  2    0.751494    0.267797    0.682831    11.00000   -1.20000
H13B  2    0.804051    0.186443    0.568731    11.00000   -1.20000
AFIX   0
C14   1    0.576493    0.092844    0.655662    11.00000    0.01901    0.01904 =
         0.01722    0.00224    0.00056    0.00091
AFIX  13
H14   2    0.730241    0.065093    0.693046    11.00000   -1.20000
AFIX   0
C15   1    0.350779    0.115008    0.731728    11.00000    0.01825    0.02012 =
         0.01829    0.00449    0.00021    0.00259
C16   1    0.690657    0.483019    0.647799    11.00000    0.02172    0.01674 =
         0.02095    0.00420    0.00019   -0.00251
C17   1    0.761211    0.543748    0.730840    11.00000    0.02093    0.01801 =
         0.02387    0.00587   -0.00168   -0.00114
C18   1    0.813365    0.613907    0.835600    11.00000    0.02125    0.01678 =
         0.01917    0.00347   -0.00379    0.00062
C19   1    0.649832    0.592816    0.914765    11.00000    0.02150    0.02057 =
         0.02519    0.00707   -0.00346   -0.00389
AFIX  43
H19   2    0.513374    0.531279    0.898814    11.00000   -1.20000
AFIX   0
C20   1    0.685167    0.660662    1.015784    11.00000    0.02319    0.02632 =
         0.02357    0.01106    0.00224   -0.00102
AFIX  43
H20   2    0.572785    0.645801    1.068841    11.00000   -1.20000
AFIX   0
C21   1    0.885190    0.750829    1.040069    11.00000    0.02604    0.01971 =
         0.01593    0.00363    0.00068    0.00295
AFIX  43
H21   2    0.910156    0.797018    1.109676    11.00000   -1.20000
AFIX   0
C22   1    1.049577    0.773229    0.961494    11.00000    0.01834    0.01724 =
         0.02191    0.00457   -0.00116    0.00264
C23   1    1.012991    0.704425    0.860156    11.00000    0.02078    0.01890 =
         0.02013    0.00524    0.00162    0.00139
AFIX  43
H23   2    1.125164    0.719188    0.807002    11.00000   -1.20000
AFIX   0
C24   1    1.255089    0.875223    0.982900    11.00000    0.01958    0.01664 =
         0.02011    0.00333    0.00227    0.00324

O11   5    1.175735   -0.083476    0.298551    11.00000    0.03092    0.02605 =
         0.02313    0.00484    0.00622    0.00847
O12   5    1.017482   -0.002364    0.458371    11.00000    0.02735    0.03538 =
         0.01975    0.00272   -0.00012    0.00780
C31   1    1.035479   -0.014349    0.362074    11.00000    0.02021    0.02169 =
         0.01997    0.00193    0.00044   -0.00043
SAME 0.02 0.04 C32A > F3A
PART 1
C32   1    0.860616    0.075738    0.316963    21.00000    0.03036    0.03476 =
         0.01950    0.00324    0.00392    0.00958
F1    3    0.633858    0.100483    0.367633    21.00000    0.02309    0.04765 =
         0.03515    0.00828   -0.00092    0.01097
F2    3    0.972610    0.188391    0.324859    21.00000    0.03796    0.04389 =
         0.10141    0.04812    0.00541    0.00522
F3    3    0.789804    0.024310    0.215374    21.00000    0.06470    0.06534 =
         0.02089   -0.00990   -0.01739    0.03864
PART 0
PART 2
C32A  1    0.860616    0.075738    0.316963   -21.00000    0.03036    0.03476 =
         0.01950    0.00324    0.00392    0.00958
F1A   3    0.617319    0.093083    0.349563   -21.00000    0.02309    0.04765 =
         0.03515    0.00828   -0.00092    0.01097
F2A   3    0.993189    0.188513    0.347433   -21.00000    0.03796    0.04389 =
         0.10141    0.04812    0.00541    0.00522
F3A   3    0.878324    0.067008    0.218699   -21.00000    0.06470    0.06534 =
         0.02089   -0.00990   -0.01739    0.03864

PART 0
O1W   5    0.502023    0.810596    0.694965    11.00000    0.05274    0.02869 =
         0.02958    0.01108    0.01352    0.01542
H1WA  2    0.595554    0.746041    0.690888    11.00000    0.07429
H1WB  2    0.460794    0.841343    0.752144    11.00000    0.06177

H2    2    0.130008    0.581741    0.171983    11.00000    0.02594
H3    2    0.375447    0.795780    0.354377    11.00000    0.05054
H4A   2    0.925210    0.040460   -0.138820    11.00000    0.03410
H4B   2    0.689056    0.019885   -0.073135    11.00000    0.02404
H5    2    0.227149    0.227002    0.866094    11.00000    0.08211
H6A   2    0.645315   -0.027980    0.520528    11.00000    0.02595
H6B   2    0.349561   -0.003813    0.534310    11.00000    0.04079
H6C   2    0.491547   -0.089900    0.593178    11.00000    0.02645
H7A   2    1.394476    1.005917    1.091301    11.00000    0.02507
H7B   2    1.229324    0.914993    1.135021    11.00000    0.03225
HKLF 4

REM  zsl in P1
REM R1 =  0.0273 for    4280 Fo > 4sig(Fo)  and  0.0276 for all    4335 data
REM    464 parameters refined using      9 restraints

END

WGHT      0.0551      0.0932

REM Highest difference peak  0.530,  deepest hole -0.169,  1-sigma level  0.036
Q1    1   0.9658  0.7896  0.5931  11.00000  0.05    0.53
;
_shelx_res_checksum              82553
_shelx_hkl_file
;
  -1   0   0  142.32    4.46
  -1   0   0  136.65    4.46
  -1   0   0  139.41    4.53
  -1   0   0  140.88    4.46
  -1   0   0  139.46    4.54
   1   0   0  136.86    4.61
   1   0   0  137.77    4.52
   1   0   0  147.89    4.60
   1   0   0  142.01    4.53
   1   0   0  145.33    4.63
  -2   0   0    6.70    0.50
  -2   0   0    6.81    0.38
  -2   0   0    6.36    0.36
  -2   0   0    5.76    0.30
  -2   0   0    6.45    0.48
  -2   0   0    6.84    0.38
  -2   0   0    6.32    0.39
  -2   0   0    6.55    0.31
   2   0   0    6.37    0.50
   2   0   0    5.84    0.49
   2   0   0    6.33    0.36
   2   0   0    6.24    0.33
   2   0   0    6.62    0.39
   2   0   0    5.64    0.32
   2   0   0    6.31    0.28
  -3   0   0   15.60    0.81
  -3   0   0   16.15    0.62
  -3   0   0   16.42    0.76
   3   0   0   14.92    0.61
   3   0   0   15.12    1.00
   3   0   0   15.18    0.69
  -4   0   0    0.68    0.23
  -4   0   0    0.63    0.15
   4   0   0    1.37    0.24
   4   0   0    1.14    0.26
  -5   0   0    3.45    0.28
  -5   0   0    2.88    0.13
   5   0   0    3.11    0.21
   5   0   0    3.26    0.20
   5   0   0    3.10    0.33
   6   0   0    6.90    0.26
   6  -1   0    2.89    0.14
  -6   1   0    3.19    0.14
   5  -1   0    1.66    0.28
   5  -1   0    0.84    0.15
   5  -1   0    1.11    0.16
  -5   1   0    1.00    0.19
  -5   1   0    1.09    0.16
   4  -1   0   13.86    0.66
   4  -1   0   13.83    0.76
  -4   1   0   13.78    0.60
  -4   1   0   13.44    0.78
   3  -1   0    6.73    0.41
   3  -1   0    6.97    0.67
   3  -1   0    6.58    0.36
  -3   1   0    6.72    0.45
  -3   1   0    6.62    0.49
  -3   1   0    7.30    0.34
   2  -1   0   61.42    2.12
   2  -1   0   66.82    2.41
   2  -1   0   67.14    2.43
   2  -1   0   64.86    2.20
   2  -1   0   63.45    2.12
   2  -1   0   59.23    2.15
  -2   1   0   62.69    2.16
  -2   1   0   65.65    2.41
  -2   1   0   62.91    2.14
  -2   1   0   68.45    2.22
  -2   1   0   67.22    2.27
  -2   1   0   67.11    2.26
   1  -1   0   68.32    2.29
   1  -1   0   64.56    2.28
   1  -1   0   65.38    2.13
   1  -1   0   67.34    2.19
   1  -1   0   67.35    2.23
  -1   1   0   66.93    2.33
  -1   1   0   67.35    2.19
  -1   1   0   69.69    2.25
  -1   1   0   70.53    2.33
  -1   1   0   68.14    2.25
   0  -1   0   51.51    1.59
   0  -1   0   48.37    1.58
   0  -1   0   49.74    1.59
   0  -1   0   46.13    1.55
   0  -1   0   49.80    1.59
   0   1   0   48.56    1.60
   0   1   0   51.57    1.61
   0   1   0   48.88    1.59
   0   1   0   51.47    1.60
   0   1   0   47.96    1.56
  -1  -1   0  253.29    8.38
  -1  -1   0  262.44    8.34
  -1  -1   0  273.56    8.44
  -1  -1   0  272.58    8.33
  -1  -1   0  258.42    8.42
   1   1   0  263.45    8.57
   1   1   0  279.71    8.59
   1   1   0  263.68    8.60
   1   1   0  270.45    8.54
  -2  -1   0   16.77    0.75
  -2  -1   0   16.61    0.67
  -2  -1   0   15.06    0.66
  -2  -1   0   17.51    0.70
  -2  -1   0   16.13    0.64
  -2  -1   0   16.09    0.62
  -2  -1   0   16.69    0.71
  -2  -1   0   17.44    0.86
   2   1   0   17.45    0.74
   2   1   0   17.05    0.74
   2   1   0   16.06    0.61
   2   1   0   17.68    0.86
   2   1   0   16.02    0.85
   2   1   0   15.77    0.62
   2   1   0   16.59    0.65
   2   1   0   16.53    0.67
  -3  -1   0   35.27    1.25
  -3  -1   0   36.99    1.47
  -3  -1   0   38.45    1.41
   3   1   0   37.28    1.76
   3   1   0   37.42    1.31
   3   1   0   37.96    1.38
  -4  -1   0    0.92    0.27
  -4  -1   0    0.87    0.17
   4   1   0    1.42    0.24
   4   1   0    1.28    0.27
  -5  -1   0    5.07    0.31
  -5  -1   0    4.88    0.32
  -5  -1   0    4.66    0.24
   5   1   0    4.70    0.19
   5   1   0    4.92    0.26
   5   1   0    5.32    0.25
   5   1   0    4.57    0.36
   5  -2   0   14.94    0.52
   5  -2   0   14.70    0.55
   5  -2   0   15.01    0.70
  -5   2   0   15.04    0.63
  -5   2   0   14.73    0.60
   4  -2   0   15.54    0.70
   4  -2   0   14.96    0.80
  -4   2   0   15.16    0.83
  -4   2   0   14.83    0.63
   3  -2   0   13.38    0.58
   3  -2   0   14.71    0.67
   3  -2   0   13.32    0.96
  -3   2   0   13.79    0.69
  -3   2   0   13.27    0.55
  -3   2   0   14.49    0.77
   2  -2   0  162.80    5.25
   2  -2   0  165.48    5.47
   2  -2   0  149.42    5.46
   2  -2   0  163.84    5.15
   2  -2   0  159.87    5.16
  -2   2   0  159.83    5.11
  -2   2   0  157.34    5.31
  -2   2   0  158.37    5.03
  -2   2   0  159.68    5.17
  -2   2   0  156.54    5.06
  -2   2   0  155.30    5.17
   1  -2   0   89.42    2.89
   1  -2   0   86.87    2.96
   1  -2   0   91.41    2.89
   1  -2   0   82.93    2.96
  -1   2   0   87.51    2.91
  -1   2   0   88.15    3.00
  -1   2   0   88.23    2.94
  -1   2   0   93.80    3.00
   0  -2   0  114.16    3.66
   0  -2   0  114.85    3.57
   0  -2   0  109.25    3.64
   0  -2   0  115.93    3.67
   0  -2   0  115.01    3.68
   0   2   0  126.98    3.86
   0   2   0  115.58    3.84
   0   2   0  119.03    3.77
  -1  -2   0   94.59    3.11
  -1  -2   0   89.29    3.09
  -1  -2   0   92.69    3.04
  -1  -2   0   94.97    3.02
  -1  -2   0   88.57    2.97
  -1  -2   0   95.40    3.08
   1   2   0   99.20    3.23
   1   2   0   97.45    3.16
   1   2   0   92.55    3.22
  -2  -2   0   46.52    1.62
  -2  -2   0   44.04    1.57
  -2  -2   0   46.40    1.76
  -2  -2   0   49.68    1.67
  -2  -2   0   45.14    1.61
  -2  -2   0   48.79    1.67
  -2  -2   0   48.23    1.64
  -2  -2   0   45.59    1.61
  -2  -2   0   48.61    1.87
   2   2   0   44.55    1.59
   2   2   0   48.63    1.87
   2   2   0   48.56    1.83
   2   2   0   47.16    1.75
   2   2   0   46.56    1.58
   2   2   0   46.54    1.59
   2   2   0   48.05    1.74
  -3  -2   0   13.42    0.53
  -3  -2   0   15.29    0.69
  -3  -2   0   13.59    0.81
  -3  -2   0   15.26    0.68
  -3  -2   0   13.65    0.57
  -3  -2   0   14.68    0.74
   3   2   0   13.97    0.58
   3   2   0   14.42    0.80
   3   2   0   14.44    0.63
   3   2   0   14.39    0.94
   3   2   0   14.00    0.57
   3   2   0   14.82    0.65
  -5  -2   0    6.49    0.28
  -5  -2   0    6.95    0.28
   5   2   0    7.28    0.33
   5   2   0    7.56    0.27
   5  -3   0    0.84    0.14
   5  -3   0    1.04    0.11
   5  -3   0    1.32    0.24
  -5   3   0    0.92    0.18
   4  -3   0   36.96    1.35
   4  -3   0   34.48    1.44
  -4   3   0   34.38    1.46
  -4   3   0   34.04    1.23
   3  -3   0   45.73    1.61
   3  -3   0   43.26    1.51
   3  -3   0   40.65    2.01
   3  -3   0   42.73    1.43
  -3   3   0   43.68    1.73
  -3   3   0   41.98    1.43
  -3   3   0   43.95    1.48
  -3   3   0   44.33    1.65
   2  -3   0   13.13    0.59
   2  -3   0   12.89    0.57
   2  -3   0   12.31    0.60
   2  -3   0   13.87    0.83
   2  -3   0   13.64    0.82
   2  -3   0   14.57    0.69
  -2   3   0   13.36    0.61
  -2   3   0   14.31    0.66
  -2   3   0   13.43    0.55
  -2   3   0   13.40    0.59
  -2   3   0   14.54    0.70
  -2   3   0   14.21    0.77
   1  -3   0   13.31    0.55
   1  -3   0   13.68    0.61
   1  -3   0   12.83    0.66
   1  -3   0   13.14    0.52
   1  -3   0   12.97    0.63
  -1   3   0   12.73    0.52
  -1   3   0   12.51    0.58
  -1   3   0   12.48    0.61
  -1   3   0   11.99    0.50
  -1   3   0   12.81    0.46
   0  -3   0    7.47    0.44
   0  -3   0    6.79    0.38
   0  -3   0    7.21    0.38
   0  -3   0    6.79    0.35
   0   3   0    7.30    0.29
   0   3   0    7.21    0.37
   0   3   0    6.74    0.34
   0   3   0    6.84    0.36
  -1  -3   0  350.34   10.91
  -1  -3   0  343.66   10.94
  -1  -3   0  353.01   10.93
  -1  -3   0  339.86   11.08
  -1  -3   0  352.54   11.07
  -1  -3   0  352.59   10.95
  -1  -3   0  334.48   11.02
   1   3   0  354.76   11.18
   1   3   0  334.83   11.06
   1   3   0  354.66   11.21
   1   3   0  362.47   11.01
   1   3   0  347.31   11.05
  -2  -3   0   64.83    2.17
  -2  -3   0   67.22    2.23
  -2  -3   0   62.34    2.20
  -2  -3   0   68.08    2.28
  -2  -3   0   64.66    2.46
  -2  -3   0   64.55    2.22
  -2  -3   0   64.83    2.39
   2   3   0   65.98    2.16
   2   3   0   64.21    2.32
   2   3   0   65.62    2.35
   2   3   0   63.94    2.13
   2   3   0   61.23    2.43
  -3  -3   0    2.42    0.37
  -3  -3   0    1.60    0.26
  -3  -3   0    1.88    0.17
   3   3   0    1.89    0.21
   3   3   0    1.90    0.36
   3   3   0    2.48    0.27
  -5  -3   0    7.13    0.29
   5   3   0    7.94    0.29
   5  -4   0    4.71    0.27
   5  -4   0    4.40    0.46
   5  -4   0    4.66    0.23
  -5   4   0    5.07    0.32
   4  -4   0   31.17    1.01
   4  -4   0   29.81    1.09
   4  -4   0   28.43    1.26
   4  -4   0   30.66    1.02
   4  -4   0   32.12    1.19
  -4   4   0   34.02    1.20
  -4   4   0   31.75    1.40
   3  -4   0  153.62    4.71
   3  -4   0  146.38    4.82
   3  -4   0  143.69    4.64
   3  -4   0  144.72    4.72
   3  -4   0  140.61    4.73
  -3   4   0  137.44    4.53
  -3   4   0  145.60    4.73
  -3   4   0  140.74    4.49
   2  -4   0   66.04    2.25
   2  -4   0   62.69    2.57
   2  -4   0   65.24    2.52
   2  -4   0   66.05    2.37
   2  -4   0   66.50    2.26
   2  -4   0   62.84    2.07
   2  -4   0   63.50    2.18
  -2   4   0   62.69    2.47
  -2   4   0   68.05    2.26
  -2   4   0   66.11    2.19
  -2   4   0   65.87    2.31
  -2   4   0   63.41    2.41
  -2   4   0   68.38    2.27
   1  -4   0    8.94    0.43
   1  -4   0    8.60    0.56
   1  -4   0    8.82    0.41
   1  -4   0    9.25    0.51
  -1   4   0    9.34    0.39
  -1   4   0   10.06    0.55
  -1   4   0    9.63    0.54
  -1   4   0    8.97    0.44
   0  -4   0   25.18    1.03
   0  -4   0   27.25    0.96
   0  -4   0   24.23    0.98
   0  -4   0   25.80    0.90
   0  -4   0   26.06    1.04
   0   4   0   24.34    0.87
   0   4   0   26.16    0.86
   0   4   0   25.48    0.93
   0   4   0   26.05    0.97
   0   4   0   26.03    1.02
  -1  -4   0   85.70    2.97
  -1  -4   0   84.47    2.93
  -1  -4   0   83.92    2.83
  -1  -4   0   83.42    2.81
  -1  -4   0   84.73    2.78
  -1  -4   0   88.49    2.80
  -1  -4   0   85.54    2.96
   1   4   0   86.94    2.85
   1   4   0   80.13    2.92
   1   4   0   83.98    2.68
   1   4   0   83.80    2.73
   1   4   0   82.56    2.88
  -2  -4   0   40.88    1.42
  -2  -4   0   45.64    1.59
  -2  -4   0   43.33    1.82
  -2  -4   0   45.17    1.58
  -2  -4   0   43.28    1.77
  -2  -4   0   44.34    1.58
  -2  -4   0   44.18    1.53
   2   4   0   45.37    1.54
   2   4   0   47.59    1.80
   2   4   0   42.93    1.51
   2   4   0   46.00    1.58
   2   4   0   42.03    1.86
  -3  -4   0    0.03    0.08
  -3  -4   0    0.26    0.17
  -3  -4   0    0.17    0.10
   3   4   0    0.23    0.18
   3   4   0    0.17    0.09
   3   4   0    0.25    0.14
  -4  -4   0    8.42    0.38
  -4  -4   0    9.04    0.35
  -4  -4   0    9.04    0.43
  -4  -4   0    7.99    0.60
  -4  -4   0    8.71    0.34
  -4  -4   0    9.03    0.33
   4   4   0    7.40    0.66
   4   4   0    8.89    0.46
  -5  -4   0    7.81    0.31
   5   4   0    8.87    0.32
   5  -5   0    1.12    0.17
   5  -5   0    1.06    0.12
   4  -5   0    9.93    0.55
   4  -5   0   10.25    0.36
   4  -5   0   11.94    0.58
   4  -5   0   10.07    0.38
  -4   5   0    9.34    0.45
   3  -5   0    3.92    0.29
   3  -5   0    4.66    0.32
  -3   5   0    4.02    0.25
   2  -5   0   47.10    1.61
   2  -5   0   50.15    1.79
   2  -5   0   48.90    1.67
   2  -5   0   45.58    2.11
   2  -5   0   50.25    1.80
   2  -5   0   46.85    1.63
   2  -5   0   49.21    1.58
   2  -5   0   50.20    1.93
  -2   5   0   50.88    1.79
  -2   5   0   47.67    1.61
  -2   5   0   48.74    1.64
  -2   5   0   49.56    1.69
  -2   5   0   48.55    2.00
  -2   5   0   49.58    1.97
   1  -5   0   15.48    0.65
   1  -5   0   16.57    0.80
   1  -5   0   14.61    0.86
   1  -5   0   16.20    0.70
  -1   5   0   16.33    0.70
  -1   5   0   16.07    0.62
  -1   5   0   16.75    0.82
  -1   5   0   16.22    0.83
   0  -5   0   33.15    1.36
   0  -5   0   33.08    1.17
   0  -5   0   33.11    1.32
   0  -5   0   33.73    1.23
   0  -5   0   31.59    1.47
   0   5   0   30.16    1.22
   0   5   0   33.60    1.30
   0   5   0   32.83    1.18
   0   5   0   31.97    1.10
   0   5   0   33.62    1.31
  -1  -5   0    8.07    0.46
  -1  -5   0    8.03    0.54
  -1  -5   0    8.32    0.42
  -1  -5   0    8.20    0.57
  -1  -5   0    8.52    0.42
  -1  -5   0    7.25    0.42
  -1  -5   0    8.29    0.55
   1   5   0    7.46    0.52
   1   5   0    7.89    0.35
   1   5   0    7.82    0.57
   1   5   0    7.48    0.39
   1   5   0    8.72    0.52
  -2  -5   0   36.42    1.35
  -2  -5   0   30.71    1.18
  -2  -5   0   33.45    1.35
  -2  -5   0   35.23    1.16
  -2  -5   0   35.94    1.56
  -2  -5   0   33.94    1.17
  -2  -5   0   30.38    1.45
  -2  -5   0   37.37    1.29
  -2  -5   0   35.37    1.19
  -2  -5   0   34.57    1.59
  -2  -5   0   40.22    1.36
   2   5   0   35.58    1.48
   2   5   0   39.17    1.61
   2   5   0   36.22    1.29
   2   5   0   38.02    1.36
   2   5   0   34.74    1.68
   2   5   0   36.91    1.31
  -3  -5   0    2.60    0.22
  -3  -5   0    2.52    0.19
  -3  -5   0    2.77    0.37
   3   5   0    2.82    0.33
   3   5   0    2.26    0.21
   3   5   0    2.43    0.27
  -4  -5   0   27.23    0.92
  -4  -5   0   26.20    0.86
  -4  -5   0   27.19    0.98
  -4  -5   0   26.02    0.89
  -4  -5   0   25.45    0.87
   4   5   0   27.70    1.05
   4   5   0   25.68    0.88
  -5  -5   0    3.31    0.18
  -5  -5   0    3.24    0.19
   5   5   0    3.52    0.15
   5  -6   0    3.85    0.20
   4  -6   0   15.10    0.53
   4  -6   0   15.06    0.57
   3  -6   0   14.05    0.63
   3  -6   0   13.28    0.54
  -3   6   0   13.46    0.54
   2  -6   0   10.76    0.42
   2  -6   0   10.83    0.49
   2  -6   0   10.94    0.52
   2  -6   0   11.00    0.63
   2  -6   0   11.19    0.63
   2  -6   0   10.68    0.46
  -2   6   0   11.41    0.53
  -2   6   0   11.02    0.48
  -2   6   0   11.56    0.63
  -2   6   0   11.26    0.44
  -2   6   0    9.55    0.74
   1  -6   0   22.03    1.05
   1  -6   0   19.50    1.12
   1  -6   0   21.60    0.81
   1  -6   0   21.49    0.88
   1  -6   0   21.39    0.72
   1  -6   0   21.07    0.77
   1  -6   0   21.92    0.93
  -1   6   0   22.85    1.10
  -1   6   0   22.06    0.77
  -1   6   0   23.38    0.95
  -1   6   0   22.53    0.81
  -1   6   0   22.15    0.84
  -1   6   0   21.50    1.06
   0  -6   0   35.33    1.58
   0  -6   0   38.68    1.57
   0  -6   0   39.55    1.44
   0  -6   0   38.64    1.37
   0  -6   0   39.46    1.29
   0  -6   0   37.76    1.24
   0  -6   0   36.38    1.27
   0   6   0   40.02    1.46
   0   6   0   38.89    1.31
   0   6   0   40.46    1.62
   0   6   0   41.07    1.63
   0   6   0   39.57    1.36
  -1  -6   0   19.99    0.71
  -1  -6   0   21.21    0.83
  -1  -6   0   20.03    1.04
  -1  -6   0   18.71    0.71
  -1  -6   0   19.27    0.83
  -1  -6   0   20.72    1.02
  -1  -6   0   19.61    0.68
  -1  -6   0   19.34    0.87
  -1  -6   0   19.67    0.73
  -1  -6   0   20.18    1.01
   1   6   0   19.60    1.06
   1   6   0   19.95    0.75
   1   6   0   20.57    0.98
   1   6   0   19.23    0.98
   1   6   0   19.27    0.79
   1   6   0   20.66    0.69
   1   6   0   19.33    0.74
  -2  -6   0    2.51    0.30
  -2  -6   0    2.43    0.19
  -2  -6   0    2.56    0.33
  -2  -6   0    2.68    0.35
  -2  -6   0    2.55    0.21
  -2  -6   0    1.60    0.56
  -2  -6   0    2.69    0.34
  -2  -6   0    2.22    0.16
  -2  -6   0    2.38    0.23
   2   6   0    2.49    0.29
   2   6   0    2.45    0.27
   2   6   0    2.41    0.24
  -3  -6   0    1.52    0.31
  -3  -6   0    1.31    0.19
  -3  -6   0    1.36    0.17
   3   6   0    1.11    0.19
   3   6   0    1.35    0.24
   3   6   0    0.90    0.24
  -4  -6   0    5.21    0.26
  -4  -6   0    5.89    0.26
  -4  -6   0    5.66    0.24
  -4  -6   0    5.25    0.33
  -4  -6   0    5.62    0.28
   4   6   0    5.44    0.25
   4   6   0    5.70    0.39
  -5  -6   0    1.08    0.12
  -5  -6   0    1.07    0.11
   5   6   0    0.98    0.11
   5  -7   0    0.76    0.10
   4  -7   0    1.06    0.17
   4  -7   0    1.24    0.12
   3  -7   0    7.22    0.36
   3  -7   0    7.50    0.27
   3  -7   0    7.07    0.31
   3  -7   0    8.03    0.46
   3  -7   0    7.23    0.35
   3  -7   0    7.80    0.32
  -3   7   0    7.60    0.46
  -3   7   0    8.34    0.39
   2  -7   0    2.40    0.38
   2  -7   0    1.54    0.30
   2  -7   0    2.28    0.26
   2  -7   0    2.11    0.18
   2  -7   0    2.03    0.22
  -2   7   0    1.98    0.29
  -2   7   0    1.82    0.27
  -2   7   0    2.21    0.35
  -2   7   0    2.13    0.23
  -2   7   0    2.10    0.20
   1  -7   0   19.63    0.78
   1  -7   0   19.49    0.68
   1  -7   0   19.28    0.91
   1  -7   0   19.10    0.86
   1  -7   0   19.29    0.73
  -1   7   0   19.32    0.77
  -1   7   0   19.30    0.75
  -1   7   0   20.90    0.72
  -1   7   0   20.62    0.79
  -1   7   0   20.30    0.92
   0  -7   0   52.43    1.87
   0  -7   0   53.36    1.80
   0  -7   0   47.71    2.16
   0  -7   0   49.82    2.10
   0  -7   0   54.19    1.76
   0  -7   0   53.01    1.70
   0  -7   0   53.14    1.95
   0  -7   0   54.19    1.75
   0   7   0   55.36    2.23
   0   7   0   56.42    1.88
   0   7   0   55.01    1.81
   0   7   0   57.43    2.02
   0   7   0   53.71    1.86
  -1  -7   0   22.25    1.01
  -1  -7   0   22.52    0.94
  -1  -7   0   21.29    0.79
  -1  -7   0   20.35    0.80
  -1  -7   0   22.57    0.76
   1   7   0   21.65    0.76
   1   7   0   21.56    0.88
   1   7   0   20.97    0.84
   1   7   0   22.83    0.97
  -2  -7   0   87.12    2.87
  -2  -7   0   85.93    2.89
  -2  -7   0   90.87    2.89
  -2  -7   0   92.29    3.08
  -2  -7   0   90.85    2.84
  -2  -7   0   81.58    3.11
   2   7   0   87.23    3.03
   2   7   0   85.83    2.98
   2   7   0   91.72    2.95
  -3  -7   0    7.23    0.45
  -3  -7   0    7.28    0.31
  -3  -7   0    7.05    0.30
  -3  -7   0    6.93    0.31
  -3  -7   0    7.96    0.41
  -3  -7   0    7.00    0.33
   3   7   0    7.78    0.45
   3   7   0    6.09    0.37
  -4  -7   0   30.14    1.00
  -4  -7   0   30.30    1.00
  -4  -7   0   29.33    1.08
  -4  -7   0   30.95    0.98
   4   7   0   30.68    1.16
   4   7   0   30.68    1.00
  -5  -7   0    0.27    0.06
   4  -8   0    0.13    0.06
   4  -8   0    0.04    0.06
   4  -8   0    0.11    0.07
   3  -8   0   19.30    0.70
   3  -8   0   20.03    0.85
   3  -8   0   19.38    0.68
   3  -8   0   20.38    0.69
  -3   8   0   22.42    0.91
   2  -8   0   12.42    0.50
   2  -8   0   12.72    0.62
   2  -8   0   12.63    0.56
   2  -8   0   12.24    0.76
  -2   8   0   12.89    0.58
  -2   8   0   12.91    0.60
  -2   8   0   12.60    0.52
  -2   8   0   10.68    0.72
   1  -8   0    5.98    0.49
   1  -8   0    6.16    0.36
   1  -8   0    5.98    0.38
   1  -8   0    6.83    0.55
   1  -8   0    6.31    0.29
  -1   8   0    6.05    0.38
  -1   8   0    6.37    0.31
  -1   8   0    6.37    0.38
  -1   8   0    6.35    0.36
  -1   8   0    6.17    0.52
   0  -8   0    4.47    0.41
   0  -8   0    4.42    0.24
   0  -8   0    4.78    0.30
   0  -8   0    4.33    0.30
   0  -8   0    4.29    0.36
   0  -8   0    4.27    0.43
   0   8   0    5.04    0.47
   0   8   0    4.76    0.33
   0   8   0    4.63    0.25
   0   8   0    4.67    0.31
  -1  -8   0   16.06    0.59
  -1  -8   0   16.68    0.65
  -1  -8   0   16.19    0.87
  -1  -8   0   14.63    0.77
  -1  -8   0   15.89    0.65
   1   8   0   16.60    0.71
   1   8   0   16.42    0.61
   1   8   0   15.95    0.84
  -2  -8   0    9.38    0.41
  -2  -8   0    9.01    0.48
  -2  -8   0    9.84    0.47
  -2  -8   0   10.15    0.67
  -2  -8   0   10.01    0.47
   2   8   0    8.01    0.55
   2   8   0   10.03    0.51
   2   8   0   10.11    0.42
  -3  -8   0    4.17    0.23
  -3  -8   0    4.40    0.31
  -3  -8   0    4.24    0.24
  -3  -8   0    4.06    0.21
  -3  -8   0    4.38    0.22
   3   8   0    4.41    0.36
  -4  -8   0    0.49    0.10
  -4  -8   0    0.50    0.08
   4   8   0    0.56    0.10
   4  -9   0    0.71    0.08
   4  -9   0    0.59    0.09
   4  -9   0    0.60    0.08
   3  -9   0   35.31    1.14
   3  -9   0   35.76    1.15
   3  -9   0   32.84    1.30
   3  -9   0   34.89    1.14
  -3   9   0   38.80    1.39
   2  -9   0    7.05    0.35
   2  -9   0    7.05    0.30
   2  -9   0    6.67    0.25
   2  -9   0    7.28    0.42
   2  -9   0    7.14    0.31
   2  -9   0    7.77    0.47
   2  -9   0    6.77    0.31
   2  -9   0    6.25    0.29
  -2   9   0    7.30    0.43
  -2   9   0    7.51    0.37
  -2   9   0    8.08    0.46
   1  -9   0    1.49    0.25
   1  -9   0    1.69    0.19
   1  -9   0    2.11    0.43
   1  -9   0    2.23    0.41
   1  -9   0    1.64    0.27
  -1   9   0    1.83    0.36
  -1   9   0    1.88    0.20
  -1   9   0    1.38    0.24
  -1   9   0    2.15    0.27
  -1   9   0    1.98    0.28
   0  -9   0    5.22    0.47
   0  -9   0    5.58    0.57
   0  -9   0    5.85    0.37
   0  -9   0    5.94    0.29
   0   9   0    6.70    0.56
   0   9   0    5.74    0.30
  -1  -9   0   14.07    0.52
  -1  -9   0   13.57    0.58
  -1  -9   0   13.94    0.59
  -1  -9   0   12.49    0.79
  -1  -9   0   11.73    0.70
  -1  -9   0   11.82    0.45
   1   9   0   12.40    0.77
   1   9   0   14.05    0.53
   1   9   0   13.64    0.65
  -2  -9   0   10.52    0.38
  -2  -9   0    8.70    0.49
  -2  -9   0    9.34    0.40
  -2  -9   0    9.75    0.39
  -2  -9   0   10.40    0.49
  -2  -9   0   10.69    0.44
  -2  -9   0    9.60    0.48
  -2  -9   0   10.31    0.42
  -2  -9   0   10.49    0.35
   2   9   0   10.59    0.54
   2   9   0   10.94    0.47
  -3  -9   0    5.46    0.24
  -3  -9   0    5.35    0.33
  -3  -9   0    5.81    0.24
  -3  -9   0    5.79    0.26
   3   9   0    5.44    0.37
  -4  -9   0    2.41    0.10
  -4  -9   0    2.38    0.11
  -4  -9   0    2.42    0.13
   4   9   0    3.08    0.16
   3 -10   0    1.70    0.14
   3 -10   0    2.14    0.10
   3 -10   0    1.79    0.14
   3 -10   0    2.05    0.13
   2 -10   0   27.27    0.94
   2 -10   0   28.92    0.96
   2 -10   0   28.91    0.95
   2 -10   0   27.69    0.93
   2 -10   0   27.32    0.91
   2 -10   0   27.68    0.93
   2 -10   0   29.73    1.12
   2 -10   0   28.71    1.05
   2 -10   0   28.00    0.99
  -2  10   0   28.81    1.02
  -2  10   0   30.13    1.11
  -2  10   0   28.48    1.08
   1 -10   0    3.98    0.32
   1 -10   0    3.30    0.19
   1 -10   0    3.37    0.15
   1 -10   0    3.49    0.22
   1 -10   0    4.29    0.36
   1 -10   0    3.83    0.25
   1 -10   0    3.42    0.19
   1 -10   0    3.61    0.21
   1 -10   0    3.99    0.21
  -1  10   0    3.94    0.26
  -1  10   0    4.29    0.35
  -1  10   0    4.01    0.33
   0 -10   0   22.56    0.78
   0 -10   0   20.98    0.73
   0 -10   0   21.60    0.74
   0 -10   0   22.19    0.86
   0 -10   0   21.29    0.73
   0 -10   0   21.47    0.71
   0 -10   0   21.46    0.76
   0 -10   0   21.37    0.70
   0  10   0   23.91    0.91
   0  10   0   22.64    0.83
  -1 -10   0   22.75    0.74
  -1 -10   0   21.06    0.77
  -1 -10   0   21.55    0.70
  -1 -10   0   21.85    0.72
  -1 -10   0   22.97    0.75
  -1 -10   0   17.59    0.74
  -1 -10   0   21.74    0.72
  -1 -10   0   21.78    0.84
   1  10   0   22.36    0.81
  -2 -10   0    8.73    0.35
  -2 -10   0    8.91    0.34
  -2 -10   0    8.16    0.30
  -2 -10   0    8.73    0.33
  -2 -10   0    8.75    0.33
  -2 -10   0    8.64    0.32
  -2 -10   0    8.25    0.43
   2  10   0    7.07    0.38
  -3 -10   0    5.41    0.23
  -3 -10   0    5.47    0.22
  -3 -10   0    5.25    0.20
  -3 -10   0    5.81    0.22
   3  10   0    6.27    0.26
   3 -11   0    0.78    0.08
   3 -11   0    0.86    0.09
   3 -11   0    0.91    0.09
   2 -11   0    2.55    0.15
   2 -11   0    2.67    0.16
   2 -11   0    2.32    0.15
   1 -11   0   27.15    0.98
   1 -11   0   25.99    0.87
   1 -11   0   23.20    1.13
   1 -11   0   25.97    0.86
   1 -11   0   26.23    0.87
   1 -11   0   26.57    0.86
   1 -11   0   26.51    0.85
   1 -11   0   26.93    0.89
   1 -11   0   24.09    0.97
   1 -11   0   26.49    0.84
  -1  11   0   26.83    0.93
  -1  11   0   27.52    1.01
  -1  11   0   25.91    1.01
   0 -11   0   11.94    0.41
   0 -11   0   11.43    0.44
   0 -11   0   10.71    0.52
   0 -11   0   11.36    0.38
   0 -11   0   11.42    0.46
   0 -11   0   10.72    0.40
   0 -11   0   11.36    0.42
   0 -11   0   11.74    0.38
   0  11   0   11.65    0.47
   0  11   0   12.28    0.56
  -1 -11   0    9.74    0.33
  -1 -11   0   10.15    0.39
  -1 -11   0    9.44    0.46
  -1 -11   0    9.97    0.37
  -1 -11   0    9.62    0.36
   1  11   0    8.63    0.44
  -2 -11   0    6.37    0.25
  -2 -11   0    6.70    0.27
  -2 -11   0    6.02    0.25
  -2 -11   0    6.29    0.26
   2 -12   0    0.37    0.05
   2 -12   0    0.37    0.06
   2 -12   0    0.26    0.06
  -2  12   0    0.33    0.06
   1 -12   0   13.13    0.44
   1 -12   0   11.39    0.48
   1 -12   0   12.80    0.46
   1 -12   0   12.98    0.43
   1 -12   0   13.11    0.44
   0 -12   0    0.33    0.05
   0 -12   0    0.37    0.07
   0 -12   0    0.28    0.06
   0 -12   0    0.40    0.08
   0 -12   0    0.37    0.08
  -1 -12   0    0.20    0.06
  -1 -12   0    0.17    0.07
  -1 -12   0    0.19    0.07
  -1 -12   0    0.15    0.06
  -2 -12   1    0.39    0.07
  -2 -12   1    0.38    0.07
  -2 -12   1    0.38    0.06
  -1 -12   1    4.57    0.18
  -1 -12   1    4.13    0.19
  -1 -12   1    4.32    0.20
  -1 -12   1    4.07    0.18
   0 -12   1    0.12    0.07
   0 -12   1    0.23    0.08
   0 -12   1    0.12    0.06
   1 -12   1    1.87    0.13
   1 -12   1    1.89    0.12
   1 -12   1    1.92    0.13
   1 -12   1    2.05    0.15
  -2  12  -1    3.93    0.18
   2 -12   1    4.03    0.18
   2 -12   1    4.20    0.17
   2 -12   1    4.17    0.18
   3  11  -1    4.30    0.18
  -3 -11   1    3.84    0.14
  -3 -11   1    4.03    0.17
  -3 -11   1    3.67    0.16
  -2 -11   1    0.04    0.06
  -2 -11   1    0.00    0.06
  -2 -11   1   -0.04    0.07
  -2 -11   1    0.02    0.07
   1  11  -1    2.76    0.28
  -1 -11   1    2.91    0.16
  -1 -11   1    2.67    0.26
  -1 -11   1    3.18    0.20
  -1 -11   1    2.76    0.17
  -1 -11   1    2.99    0.18
   0  11  -1   10.81    0.52
   0  11  -1   10.20    0.55
   0 -11   1   11.51    0.40
   0 -11   1   10.50    0.39
   0 -11   1   11.06    0.42
   0 -11   1   10.52    0.51
   0 -11   1   10.42    0.39
   0 -11   1    9.74    0.39
   0 -11   1   10.43    0.36
  -1  11  -1    7.81    0.44
  -1  11  -1    7.84    0.44
   1 -11   1    7.89    0.31
   1 -11   1    7.35    0.30
   1 -11   1    7.81    0.42
   1 -11   1    7.90    0.33
   1 -11   1    7.53    0.30
   1 -11   1    6.94    0.45
   1 -11   1    7.34    0.30
   2 -11   1    3.99    0.18
   2 -11   1    4.03    0.18
   2 -11   1    3.46    0.19
   2 -11   1    3.91    0.20
  -3  11  -1    7.76    0.29
   3 -11   1    8.27    0.30
   3 -11   1    8.17    0.28
   3 -11   1    7.80    0.30
   3  10  -1    1.55    0.13
  -3 -10   1    1.60    0.11
  -3 -10   1    1.55    0.13
  -3 -10   1    1.32    0.12
  -2 -10   1    7.50    0.30
  -2 -10   1    7.21    0.29
  -2 -10   1    7.68    0.30
   1  10  -1    5.33    0.36
   1  10  -1    5.25    0.29
  -1 -10   1    4.84    0.27
  -1 -10   1    5.01    0.23
  -1 -10   1    4.37    0.18
  -1 -10   1    4.88    0.22
  -1 -10   1    4.84    0.34
  -1 -10   1    4.54    0.24
  -1 -10   1    4.85    0.25
   0  10  -1   16.89    0.72
   0  10  -1   16.99    0.64
   0 -10   1   15.92    0.57
   0 -10   1   15.28    0.53
   0 -10   1   15.35    0.56
   0 -10   1   16.86    0.61
   0 -10   1   16.57    0.59
   0 -10   1   16.01    0.68
  -1  10  -1   29.72    1.04
  -1  10  -1   30.57    1.13
  -1  10  -1   29.25    1.12
   1 -10   1   29.60    1.10
   1 -10   1   29.13    1.02
   1 -10   1   28.84    0.98
   1 -10   1   31.18    1.01
   1 -10   1   29.56    0.99
   1 -10   1   28.55    0.99
   1 -10   1   28.56    1.15
   1 -10   1   28.24    0.94
  -2  10  -1   29.16    1.07
  -2  10  -1   26.99    1.05
   2 -10   1   28.18    0.98
   2 -10   1   28.83    0.97
   2 -10   1   30.18    1.08
   2 -10   1   28.38    0.97
   2 -10   1   28.65    0.95
   2 -10   1   29.39    1.14
  -3  10  -1    5.04    0.24
   3 -10   1    5.20    0.23
   3 -10   1    5.12    0.23
   3 -10   1    5.12    0.21
   4   9  -1    5.19    0.23
  -4  -9   1    4.38    0.20
  -4  -9   1    4.64    0.19
   3   9  -1   18.28    0.64
   3   9  -1   16.84    0.75
  -3  -9   1   17.32    0.57
  -3  -9   1   16.30    0.58
  -3  -9   1   17.11    0.59
  -3  -9   1   15.96    0.66
   2   9  -1   21.21    0.84
   2   9  -1   20.45    0.73
   2   9  -1   19.68    0.77
  -2  -9   1   20.79    0.79
  -2  -9   1   20.85    0.71
  -2  -9   1   18.94    0.77
  -2  -9   1   20.65    0.70
  -2  -9   1   20.81    0.71
   1   9  -1   10.66    0.43
   1   9  -1    9.24    0.65
  -1  -9   1   10.52    0.50
  -1  -9   1   10.68    0.51
  -1  -9   1   10.22    0.71
  -1  -9   1   10.56    0.44
   0   9  -1   21.58    0.87
   0   9  -1   22.52    0.80
   0   9  -1   21.52    1.07
   0   9  -1   23.43    0.88
   0  -9   1   20.64    0.85
   0  -9   1   19.20    1.03
   0  -9   1   20.46    0.81
   0  -9   1   21.12    0.74
  -1   9  -1    2.80    0.44
  -1   9  -1    2.80    0.29
  -1   9  -1    3.18    0.24
  -1   9  -1    3.21    0.30
   1  -9   1    2.90    0.22
   1  -9   1    2.66    0.29
   1  -9   1    2.78    0.45
   1  -9   1    2.37    0.31
  -2   9  -1    6.32    0.34
  -2   9  -1    6.87    0.42
  -2   9  -1    6.62    0.41
   2  -9   1    6.39    0.28
   2  -9   1    6.19    0.24
   2  -9   1    6.57    0.44
   2  -9   1    6.88    0.34
   2  -9   1    6.10    0.31
   2  -9   1    6.43    0.29
   2  -9   1    6.52    0.30
   2  -9   1    6.61    0.40
  -3   9  -1    3.85    0.22
  -3   9  -1    3.90    0.30
  -3   9  -1    4.23    0.33
   3  -9   1    4.25    0.32
   3  -9   1    3.65    0.20
   3  -9   1    3.40    0.23
   3  -9   1    3.86    0.19
   3  -9   1    3.43    0.34
   4  -9   1    0.35    0.06
   4  -9   1    0.48    0.07
   4  -9   1    0.51    0.08
   4   8  -1    3.71    0.21
  -4  -8   1    3.10    0.14
  -4  -8   1    3.29    0.19
  -4  -8   1    3.14    0.18
   3   8  -1    3.62    0.34
  -3  -8   1    3.40    0.29
  -3  -8   1    3.57    0.20
  -3  -8   1    3.32    0.23
  -3  -8   1    3.51    0.19
   2   8  -1    7.76    0.37
   2   8  -1    8.32    0.45
   2   8  -1    6.55    0.49
  -2  -8   1    7.67    0.35
  -2  -8   1    8.20    0.41
  -2  -8   1    7.65    0.57
   1   8  -1    8.61    0.37
   1   8  -1    8.26    0.47
   1   8  -1    8.73    0.58
  -1  -8   1    9.16    0.55
  -1  -8   1    7.41    0.58
  -1  -8   1    7.82    0.40
  -1  -8   1    8.61    0.36
  -1  -8   1    8.25    0.41
   0   8  -1    3.47    0.29
   0   8  -1    3.20    0.26
   0   8  -1    3.96    0.42
   0   8  -1    3.77    0.23
   0  -8   1    3.20    0.20
   0  -8   1    3.17    0.26
   0  -8   1    3.12    0.28
   0  -8   1    3.59    0.37
   0  -8   1    3.50    0.41
  -1   8  -1    0.59    0.24
  -1   8  -1    0.83    0.18
  -1   8  -1    0.29    0.09
  -1   8  -1    0.45    0.15
  -1   8  -1    0.38    0.14
   1  -8   1    0.44    0.22
   1  -8   1    0.74    0.27
   1  -8   1    0.37    0.11
   1  -8   1    0.55    0.15
   1  -8   1    0.25    0.15
  -2   8  -1   11.46    0.56
  -2   8  -1   11.53    0.54
  -2   8  -1   10.75    0.70
  -2   8  -1   11.64    0.48
   2  -8   1   10.92    0.73
   2  -8   1   11.16    0.58
   2  -8   1   11.83    0.52
   2  -8   1   10.75    0.46
  -3   8  -1    9.61    0.50
  -3   8  -1    9.37    0.47
  -3   8  -1    8.63    0.37
   3  -8   1    9.53    0.37
   3  -8   1    8.96    0.51
   3  -8   1    9.27    0.40
   3  -8   1    9.31    0.47
   3  -8   1    9.06    0.35
   4  -8   1    1.74    0.12
   4  -8   1    1.79    0.17
   5   7  -1    0.23    0.06
   5   7  -1    0.19    0.06
  -5  -7   1    0.20    0.07
  -5  -7   1    0.11    0.06
   4   7  -1    5.41    0.37
  -4  -7   1    5.12    0.25
  -4  -7   1    4.92    0.26
  -4  -7   1    4.98    0.31
  -4  -7   1    5.44    0.21
   3   7  -1   34.02    1.29
  -3  -7   1   28.37    1.01
  -3  -7   1   29.63    0.97
  -3  -7   1   29.80    0.95
  -3  -7   1   29.41    0.99
  -3  -7   1   28.54    1.30
  -3  -7   1   29.84    0.99
  -3  -7   1   30.31    1.08
   2   7  -1    6.35    0.31
   2   7  -1    6.12    0.38
   2   7  -1    6.21    0.45
  -2  -7   1    6.64    0.49
  -2  -7   1    6.32    0.29
  -2  -7   1    5.50    0.32
   1   7  -1    1.83    0.31
   1   7  -1    1.97    0.25
   1   7  -1    1.58    0.21
   1   7  -1    1.57    0.36
   1   7  -1    2.08    0.16
   1   7  -1    2.08    0.23
  -1  -7   1    1.93    0.43
  -1  -7   1    1.74    0.33
  -1  -7   1    1.72    0.19
  -1  -7   1    1.62    0.26
  -1  -7   1    1.79    0.17
  -1  -7   1    1.85    0.29
  -1  -7   1    1.78    0.16
  -1  -7   1    1.72    0.20
  -1  -7   1    1.78    0.55
  -1  -7   1    1.73    0.38
   0   7  -1   20.10    0.87
   0   7  -1   18.83    1.00
   0   7  -1   19.40    0.76
   0   7  -1   17.99    0.72
   0   7  -1   19.69    0.68
   0   7  -1   18.97    1.06
   0  -7   1   17.05    0.96
   0  -7   1   18.99    0.65
   0  -7   1   18.01    0.85
   0  -7   1   18.37    1.08
   0  -7   1   19.53    0.82
   0  -7   1   18.69    0.69
   0  -7   1   18.89    0.70
   0  -7   1   18.24    0.73
  -1   7  -1    3.14    0.24
  -1   7  -1    3.97    0.22
  -1   7  -1    4.16    0.29
  -1   7  -1    3.43    0.28
  -1   7  -1    3.13    0.50
  -1   7  -1    3.39    0.37
   1  -7   1    3.52    0.27
   1  -7   1    3.37    0.52
   1  -7   1    3.82    0.25
   1  -7   1    3.63    0.36
   1  -7   1    4.26    0.40
   1  -7   1    3.43    0.19
  -2   7  -1    0.84    0.16
  -2   7  -1    1.06    0.24
  -2   7  -1    1.03    0.17
  -2   7  -1    1.46    0.22
   2  -7   1    1.15    0.21
   2  -7   1    1.14    0.16
   2  -7   1    1.14    0.19
   2  -7   1    1.09    0.27
  -3   7  -1   17.54    0.71
  -3   7  -1   17.03    0.73
   3  -7   1   17.07    0.75
   3  -7   1   18.53    0.75
   3  -7   1   14.85    0.66
   3  -7   1   17.33    0.69
   4  -7   1   10.63    0.38
   4  -7   1   10.39    0.43
  -5   7  -1    2.23    0.15
   5  -7   1    2.19    0.15
   5   6  -1    7.00    0.29
   5   6  -1    8.19    0.30
  -5  -6   1    7.91    0.29
  -5  -6   1    7.27    0.30
   4   6  -1    2.79    0.30
   4   6  -1    3.23    0.18
  -4  -6   1    2.32    0.14
  -4  -6   1    2.68    0.14
  -4  -6   1    2.42    0.18
  -4  -6   1    2.26    0.25
   3   6  -1   58.04    2.02
   3   6  -1   57.91    2.11
  -3  -6   1   53.55    1.80
  -3  -6   1   52.44    2.02
   2   6  -1   13.35    0.64
   2   6  -1   13.34    0.49
   2   6  -1   12.40    0.56
  -2  -6   1   14.93    0.57
  -2  -6   1   13.42    0.52
  -2  -6   1   14.59    0.72
   1   6  -1  138.36    4.94
   1   6  -1  150.82    4.61
   1   6  -1  139.70    4.54
   1   6  -1  141.79    4.55
   1   6  -1  134.95    4.79
   1   6  -1  142.84    4.48
   1   6  -1  139.80    4.83
   1   6  -1  143.20    4.64
  -1  -6   1  141.29    4.57
  -1  -6   1  144.28    4.62
  -1  -6   1  127.14    4.43
  -1  -6   1  139.07    4.79
  -1  -6   1  139.90    4.40
  -1  -6   1  137.09    4.76
  -1  -6   1  134.57    4.44
  -1  -6   1  141.05    4.43
  -1  -6   1  150.74    4.57
  -1  -6   1  136.60    4.83
   0   6  -1   69.89    2.35
   0   6  -1   69.90    2.23
   0   6  -1   66.93    2.53
   0   6  -1   66.59    2.50
   0   6  -1   67.59    2.25
   0  -6   1   66.02    2.20
   0  -6   1   64.07    2.06
   0  -6   1   65.90    2.26
   0  -6   1   64.16    2.38
   0  -6   1   65.10    2.10
   0  -6   1   60.84    2.44
  -1   6  -1   15.69    0.84
  -1   6  -1   13.77    0.81
  -1   6  -1   15.19    0.54
  -1   6  -1   14.40    0.68
  -1   6  -1   14.27    0.56
  -1   6  -1   15.27    0.59
  -1   6  -1   14.66    0.60
   1  -6   1   15.12    0.68
   1  -6   1   14.93    0.71
   1  -6   1   14.29    0.52
   1  -6   1   13.98    0.91
   1  -6   1   14.40    0.60
   1  -6   1   14.60    0.56
   1  -6   1   15.81    0.83
  -2   6  -1    0.29    0.14
  -2   6  -1    0.38    0.12
  -2   6  -1    0.55    0.27
  -2   6  -1    0.25    0.09
  -2   6  -1    0.40    0.18
   2  -6   1    0.43    0.10
   2  -6   1    0.24    0.13
   2  -6   1    0.35    0.18
   2  -6   1    0.35    0.10
   2  -6   1    0.36    0.20
  -3   6  -1   29.40    1.09
  -3   6  -1   28.30    1.26
  -3   6  -1   29.48    1.07
   3  -6   1   28.21    1.41
   3  -6   1   29.29    1.06
   3  -6   1   30.03    1.12
   4  -6   1    6.98    0.43
   4  -6   1    5.65    0.25
   4  -6   1    6.46    0.23
  -5   6  -1    0.57    0.16
   5  -6   1    0.48    0.10
   5   5  -1    3.16    0.19
  -5  -5   1    2.97    0.17
   4   5  -1    1.34    0.26
   4   5  -1    1.54    0.16
  -4  -5   1    1.37    0.12
  -4  -5   1    0.96    0.17
  -4  -5   1    1.60    0.23
  -4  -5   1    1.25    0.16
  -4  -5   1    1.31    0.15
   3   5  -1    5.54    0.35
   3   5  -1    6.08    0.45
  -3  -5   1    6.44    0.34
  -3  -5   1    6.27    0.49
   2   5  -1   58.01    1.95
   2   5  -1   54.13    1.81
   2   5  -1   58.81    2.23
   2   5  -1   53.55    1.88
  -2  -5   1   54.76    1.97
  -2  -5   1   53.99    1.80
  -2  -5   1   53.61    1.76
  -2  -5   1   55.11    1.95
  -2  -5   1   54.60    2.18
   1   5  -1   79.06    2.72
   1   5  -1   74.85    2.83
   1   5  -1   76.59    2.77
   1   5  -1   79.11    2.54
   1   5  -1   78.98    2.58
  -1  -5   1   77.75    2.84
  -1  -5   1   74.62    2.65
  -1  -5   1   80.86    2.83
  -1  -5   1   78.00    2.77
  -1  -5   1   79.97    2.65
  -1  -5   1   80.86    2.63
   0   5  -1   14.95    0.75
   0   5  -1   13.53    0.55
   0   5  -1   15.23    0.67
   0   5  -1   14.76    0.72
   0   5  -1   14.41    0.61
   0   5  -1   14.94    0.55
   0  -5   1   14.20    0.71
   0  -5   1   14.26    0.63
   0  -5   1   14.82    0.68
   0  -5   1   13.80    0.58
   0  -5   1   14.58    0.59
   0  -5   1   14.55    0.77
  -1   5  -1   11.11    0.48
  -1   5  -1   11.45    0.66
  -1   5  -1   11.56    0.55
  -1   5  -1   13.05    0.69
   1  -5   1   12.07    0.58
   1  -5   1   11.99    0.76
   1  -5   1   11.84    0.67
   1  -5   1   12.10    0.55
  -2   5  -1    2.01    0.28
  -2   5  -1    1.48    0.21
  -2   5  -1    1.45    0.15
  -2   5  -1    1.99    0.36
  -2   5  -1    1.73    0.18
   2  -5   1    1.64    0.18
   2  -5   1    1.74    0.18
   2  -5   1    1.67    0.14
   2  -5   1    1.77    0.27
   2  -5   1    1.50    0.28
   2  -5   1    2.02    0.35
  -3   5  -1    7.63    0.40
  -3   5  -1    7.98    0.45
  -3   5  -1    8.28    0.55
   3  -5   1    7.42    0.55
   3  -5   1    7.84    0.40
   3  -5   1    7.92    0.42
  -4   5  -1   31.37    1.14
   4  -5   1   30.51    1.18
   4  -5   1   31.21    1.00
   4  -5   1   29.15    1.03
   4  -5   1   31.21    1.01
   5  -5   1    3.36    0.18
   5  -5   1    3.41    0.23
   5   4  -1    4.24    0.23
  -5  -4   1    4.15    0.22
  -5  -4   1    4.45    0.19
   4   4  -1    8.83    0.34
   4   4  -1    8.39    0.47
  -4  -4   1    8.92    0.41
  -4  -4   1    8.37    0.35
  -4  -4   1    7.89    0.31
  -4  -4   1    7.70    0.33
   3   4  -1    2.92    0.25
   3   4  -1    3.00    0.31
  -3  -4   1    2.92    0.35
  -3  -4   1    2.66    0.22
   2   4  -1   62.37    2.09
   2   4  -1   65.55    2.32
   2   4  -1   58.89    2.05
   2   4  -1   58.74    2.04
  -2  -4   1   63.08    2.38
  -2  -4   1   62.26    2.17
  -2  -4   1   63.22    2.17
   1   4  -1    9.13    0.57
   1   4  -1    7.56    0.37
   1   4  -1    8.99    0.47
   1   4  -1    7.95    0.49
   1   4  -1    8.85    0.36
  -1  -4   1    9.20    0.44
  -1  -4   1    9.46    0.54
  -1  -4   1    8.89    0.42
  -1  -4   1    8.36    0.39
  -1  -4   1    8.84    0.55
  -1  -4   1    8.48    0.42
  -1  -4   1    9.62    0.51
   0   4  -1  139.50    4.34
   0   4  -1  140.03    4.50
   0   4  -1  135.93    4.45
   0   4  -1  136.98    4.40
   0   4  -1  133.15    4.35
   0   4  -1  136.01    4.51
   0  -4   1  138.15    4.33
   0  -4   1  134.68    4.42
   0  -4   1  130.82    4.43
   0  -4   1  131.49    4.32
   0  -4   1  140.60    4.36
   0  -4   1  134.83    4.49
  -1   4  -1   79.87    2.67
  -1   4  -1   76.54    2.52
  -1   4  -1   76.87    2.68
  -1   4  -1   75.91    2.55
  -1   4  -1   74.74    2.48
   1  -4   1   76.95    2.75
   1  -4   1   78.73    2.75
   1  -4   1   80.69    2.63
   1  -4   1   83.34    2.88
   1  -4   1   78.44    2.65
  -2   4  -1   17.07    0.88
  -2   4  -1   18.00    0.70
  -2   4  -1   17.64    0.78
  -2   4  -1   18.64    0.77
  -2   4  -1   18.02    0.75
   2  -4   1   17.05    0.77
   2  -4   1   17.44    0.72
   2  -4   1   16.40    0.96
   2  -4   1   19.06    0.79
   2  -4   1   17.29    1.12
   2  -4   1   19.08    0.91
  -3   4  -1    4.21    0.39
  -3   4  -1    4.34    0.39
  -3   4  -1    3.84    0.25
   3  -4   1    3.47    0.29
   3  -4   1    3.92    0.37
   3  -4   1    3.82    0.39
  -4   4  -1   27.43    1.23
  -4   4  -1   27.65    1.02
   4  -4   1   27.23    1.06
   4  -4   1   26.18    0.91
   4  -4   1   26.03    1.15
   4  -4   1   25.11    0.91
  -5   4  -1    0.34    0.12
  -5   4  -1    0.13    0.14
   5  -4   1    0.29    0.18
   5  -4   1    0.09    0.09
   5  -4   1    0.30    0.06
   5   3  -1    3.02    0.20
  -5  -3   1    3.38    0.19
  -5  -3   1    3.47    0.19
   3   3  -1   22.44    0.84
   3   3  -1   20.43    1.10
   3   3  -1   23.16    0.90
  -3  -3   1   24.38    0.99
  -3  -3   1   22.02    0.83
  -3  -3   1   24.32    1.20
   2   3  -1   60.66    2.22
   2   3  -1   60.93    2.05
  -2  -3   1   58.12    2.07
  -2  -3   1   60.18    1.89
  -2  -3   1   45.47    1.94
   1   3  -1    9.56    0.44
   1   3  -1    9.15    0.37
   1   3  -1    9.24    0.53
   1   3  -1    9.80    0.50
   1   3  -1    9.10    0.39
   1   3  -1    8.87    0.41
  -1  -3   1    8.91    0.49
  -1  -3   1    9.21    0.40
  -1  -3   1    9.20    0.37
  -1  -3   1    8.88    0.45
  -1  -3   1    9.12    0.51
  -1  -3   1    8.93    0.37
  -1  -3   1    8.95    0.40
   0   3  -1   64.88    2.15
   0   3  -1   63.80    2.17
   0   3  -1   63.91    2.21
   0   3  -1   63.71    2.05
   0   3  -1   67.02    2.19
   0  -3   1   62.00    2.15
   0  -3   1   65.52    2.19
   0  -3   1   64.68    2.08
   0  -3   1   63.93    2.16
   0  -3   1   65.29    2.20
  -1   3  -1  759.85   25.32
  -1   3  -1  802.67   25.43
  -1   3  -1  801.57   25.33
  -1   3  -1  786.74   25.18
  -1   3  -1  823.68   25.23
  -1   3  -1  853.51   25.56
   1  -3   1  863.90   25.60
   1  -3   1  827.71   26.16
   1  -3   1  795.08   25.43
   1  -3   1  813.37   25.51
   1  -3   1  781.76   25.42
   1  -3   1  783.40   25.56
  -2   3  -1   41.56    1.61
  -2   3  -1   41.01    1.49
  -2   3  -1   44.01    1.49
  -2   3  -1   40.74    1.43
  -2   3  -1   42.85    1.55
   2  -3   1   38.73    1.70
   2  -3   1   40.08    1.42
   2  -3   1   41.47    1.46
   2  -3   1   40.02    1.47
   2  -3   1   41.19    1.56
   2  -3   1   41.82    1.76
  -3   3  -1   22.09    0.79
  -3   3  -1   20.75    0.94
  -3   3  -1   20.87    0.91
   3  -3   1   18.29    1.23
   3  -3   1   21.16    0.91
   3  -3   1   23.00    1.19
   3  -3   1   21.12    0.83
  -4   3  -1   21.27    0.81
  -4   3  -1   19.76    1.00
   4  -3   1   22.52    0.93
   4  -3   1   21.20    1.02
  -5   3  -1    3.45    0.28
  -5   3  -1    3.16    0.23
   5  -3   1    3.53    0.35
   5  -3   1    3.27    0.18
   5  -3   1    3.38    0.21
   5   2  -1    1.97    0.17
  -5  -2   1    1.73    0.16
  -5  -2   1    2.07    0.16
   4   2  -1   12.79    0.60
  -4  -2   1   12.24    0.53
   3   2  -1  119.02    3.90
   3   2  -1  127.92    3.93
   3   2  -1  117.61    3.85
   3   2  -1  118.26    4.33
   3   2  -1  111.89    4.12
  -3  -2   1  121.51    3.95
  -3  -2   1  119.30    3.79
  -3  -2   1  110.12    4.01
  -3  -2   1  123.96    3.92
  -3  -2   1  116.60    4.13
  -3  -2   1  115.70    3.79
   2   2  -1   39.04    1.51
   2   2  -1   41.40    1.61
   2   2  -1   39.85    1.37
   2   2  -1   39.83    1.37
  -2  -2   1   39.99    1.43
  -2  -2   1   37.22    1.37
  -2  -2   1   41.66    1.45
  -2  -2   1   39.59    1.52
  -2  -2   1   39.09    1.38
   1   2  -1    3.06    0.25
   1   2  -1    3.32    0.26
   1   2  -1    3.49    0.31
   1   2  -1    2.91    0.18
   1   2  -1    3.27    0.30
  -1  -2   1    3.49    0.30
  -1  -2   1    3.30    0.27
  -1  -2   1    3.25    0.29
  -1  -2   1    3.47    0.21
  -1  -2   1    3.91    0.22
  -1  -2   1    3.36    0.23
   0   2  -1  302.68    9.94
   0   2  -1  309.38    9.93
   0   2  -1  334.83   10.00
   0  -2   1  305.75    9.95
   0  -2   1  314.88    9.95
   0  -2   1  312.47    9.98
   0  -2   1  321.04   10.02
   0  -2   1  323.63    9.98
  -1   2  -1  192.26    6.01
  -1   2  -1  187.05    6.04
  -1   2  -1  186.44    6.13
  -1   2  -1  201.46    6.19
  -1   2  -1  182.48    6.09
   1  -2   1  197.50    6.19
   1  -2   1  198.37    6.28
   1  -2   1  182.98    6.09
   1  -2   1  187.81    6.19
   1  -2   1  197.68    6.27
  -2   2  -1   36.39    1.37
  -2   2  -1   36.90    1.41
  -2   2  -1   36.61    1.32
  -2   2  -1   37.15    1.30
   2  -2   1   35.37    1.55
   2  -2   1   36.24    1.37
   2  -2   1   36.06    1.53
   2  -2   1   34.54    1.24
   2  -2   1   33.93    1.27
  -3   2  -1    7.11    0.52
  -3   2  -1    7.70    0.36
  -3   2  -1    7.87    0.49
   3  -2   1    6.92    0.43
   3  -2   1    7.13    0.69
   3  -2   1    6.68    0.37
  -4   2  -1   11.82    0.71
  -4   2  -1   11.20    0.51
   4  -2   1   11.91    0.71
   4  -2   1   11.92    0.60
  -5   2  -1    2.07    0.25
  -5   2  -1    2.09    0.18
   5  -2   1    2.11    0.19
   5  -2   1    2.41    0.34
   5  -2   1    2.25    0.17
   6   1  -1    0.02    0.04
   5   1  -1    7.20    0.30
   5   1  -1    7.11    0.44
   5   1  -1    6.90    0.30
  -5  -1   1    6.52    0.38
  -5  -1   1    7.03    0.28
  -5  -1   1    6.60    0.24
   4   1  -1    0.95    0.24
   4   1  -1    1.71    0.26
  -4  -1   1    1.47    0.32
  -4  -1   1    1.50    0.21
   3   1  -1   11.99    0.58
   3   1  -1   11.92    0.52
   3   1  -1   12.11    0.87
  -3  -1   1   11.44    0.48
  -3  -1   1   12.20    0.61
  -3  -1   1   12.18    0.67
   2   1  -1    8.46    0.40
   2   1  -1    8.02    0.58
   2   1  -1    8.03    0.51
   2   1  -1    8.18    0.36
   2   1  -1    8.53    0.46
   2   1  -1    8.96    0.59
  -2  -1   1    8.42    0.42
  -2  -1   1    8.48    0.40
  -2  -1   1    8.43    0.48
  -2  -1   1    8.23    0.39
  -2  -1   1    9.49    0.47
   1   1  -1  386.49   12.28
   1   1  -1  385.45   12.22
   1   1  -1  399.47   12.28
   1   1  -1  381.32   12.27
   1   1  -1  384.18   12.31
  -1  -1   1  391.31   12.33
  -1  -1   1  392.46   12.39
  -1  -1   1  387.67   12.33
  -1  -1   1  406.54   12.38
  -1  -1   1  375.07   12.29
   0   1  -1   12.86    0.46
   0   1  -1   12.70    0.46
   0   1  -1   13.14    0.48
   0   1  -1   11.74    0.44
   0   1  -1   13.33    0.43
   0   1  -1   11.50    0.45
   0  -1   1   12.48    0.45
   0  -1   1   11.29    0.42
   0  -1   1   11.57    0.43
   0  -1   1   11.49    0.42
  -1   1  -1   25.51    0.90
  -1   1  -1   24.66    0.96
  -1   1  -1   26.36    0.93
  -1   1  -1   23.93    0.88
  -1   1  -1   26.35    1.00
  -1   1  -1   25.58    0.89
   1  -1   1   24.45    0.95
   1  -1   1   25.36    1.01
   1  -1   1   25.22    0.94
   1  -1   1   26.58    1.01
  -2   1  -1   75.41    2.83
  -2   1  -1   75.75    2.62
  -2   1  -1   76.79    2.54
  -2   1  -1   75.73    2.51
  -2   1  -1   76.96    2.56
  -2   1  -1   75.34    2.59
   2  -1   1   71.97    2.44
   2  -1   1   75.05    2.57
   2  -1   1   75.37    2.73
   2  -1   1   73.52    2.47
   2  -1   1   73.68    2.48
  -3   1  -1   16.31    0.76
  -3   1  -1   16.26    0.62
  -3   1  -1   16.10    0.82
   3  -1   1   14.50    0.69
   3  -1   1   17.33    1.08
   3  -1   1   15.06    0.63
  -4   1  -1    1.63    0.21
  -4   1  -1    1.54    0.30
   4  -1   1    1.73    0.30
   4  -1   1    1.25    0.24
  -5   1  -1   10.18    0.40
  -5   1  -1   10.26    0.49
   5  -1   1   10.65    0.44
   5  -1   1   11.86    0.59
   5  -1   1   11.29    0.44
   6  -1   1    0.01    0.05
   6   0  -1    4.75    0.19
  -6   0   1    5.52    0.21
   5   0  -1    4.84    0.25
   5   0  -1    5.04    0.39
   5   0  -1    5.09    0.24
  -5   0   1    4.89    0.22
  -5   0   1    4.53    0.33
   4   0  -1    2.23    0.29
   4   0  -1    2.11    0.38
  -4   0   1    1.93    0.23
  -4   0   1    2.05    0.38
   3   0  -1   28.73    1.46
   3   0  -1   27.51    1.09
   3   0  -1   27.66    1.02
  -3   0   1   27.78    0.99
  -3   0   1   28.01    1.22
  -3   0   1   28.73    1.14
   2   0  -1   40.84    1.64
   2   0  -1   39.19    1.61
   2   0  -1   38.88    1.40
   2   0  -1   39.35    1.40
   2   0  -1   38.82    1.40
   2   0  -1   39.20    1.36
  -2   0   1   39.76    1.39
  -2   0   1   39.36    1.44
  -2   0   1   38.24    1.37
  -2   0   1   39.90    1.59
  -2   0   1   39.99    1.41
  -2   0   1   38.49    1.33
   1   0  -1  183.23    5.86
   1   0  -1  179.39    5.72
   1   0  -1  180.04    5.74
   1   0  -1  181.83    5.81
  -1   0   1  189.06    5.88
  -1   0   1  184.06    5.82
  -1   0   1  189.93    5.89
  -1   0   1  183.22    5.77
  -1   0   1  168.49    5.79
   0   0  -1   76.83    2.38
   0   0  -1   75.51    2.39
   0   0  -1   75.99    2.37
   0   0  -1   73.78    2.39
   0   0  -1   73.57    2.37
   0   0  -1   75.47    2.40
   0   0  -1   73.64    2.35
   0   0   1   74.35    2.34
   0   0   1   73.46    2.35
   0   0   1   76.13    2.37
  -1   0  -1  177.71    5.66
  -1   0  -1  179.94    5.73
  -1   0  -1  169.10    5.69
  -1   0  -1  186.64    5.64
  -1   0  -1  173.15    5.66
   1   0   1  184.68    5.80
   1   0   1  179.75    5.82
   1   0   1  179.79    5.84
   1   0   1  174.00    5.74
   1   0   1  183.82    5.77
  -2   0  -1   82.08    2.83
  -2   0  -1   83.30    2.75
  -2   0  -1   86.41    2.86
  -2   0  -1   86.55    3.04
  -2   0  -1   87.28    2.86
  -2   0  -1   80.10    2.74
  -2   0  -1   83.56    2.79
  -2   0  -1   85.31    2.79
   2   0   1   82.29    2.77
   2   0   1   79.43    2.69
   2   0   1   83.63    2.83
   2   0   1   83.80    2.70
   2   0   1   84.94    2.95
   2   0   1   83.68    3.01
   2   0   1   86.54    2.87
   2   0   1   83.80    2.74
  -3   0  -1   33.19    1.38
  -3   0  -1   34.75    1.32
  -3   0  -1   34.26    1.18
   3   0   1   31.96    1.62
   3   0   1   33.14    1.17
   3   0   1   32.84    1.25
  -4   0  -1    8.94    0.59
  -4   0  -1    9.15    0.44
   4   0   1    9.71    0.63
   4   0   1   10.05    0.52
  -5   0  -1    3.28    0.20
  -5   0  -1    3.44    0.28
   5   0   1    3.21    0.15
   5   0   1    2.98    0.22
   5   0   1    3.65    0.21
   5   0   1    3.38    0.34
   6   0   1    0.09    0.05
   6   0   1    0.10    0.04
   5  -1  -1    0.79    0.22
   5  -1  -1    0.71    0.11
   5  -1  -1    0.89    0.12
  -5   1   1    0.90    0.20
  -5   1   1    0.94    0.13
   4  -1  -1    8.94    0.49
   4  -1  -1    9.32    0.61
  -4   1   1    9.26    0.46
  -4   1   1    9.30    0.65
   3  -1  -1   45.93    1.58
   3  -1  -1   44.06    1.50
   3  -1  -1   47.18    1.66
   3  -1  -1   46.24    2.07
  -3   1   1   45.73    1.69
  -3   1   1   40.59    1.47
  -3   1   1   47.33    1.79
  -3   1   1   47.60    1.53
   2  -1  -1  292.05    9.28
   2  -1  -1  282.72    9.53
   2  -1  -1  303.45    9.55
   2  -1  -1  290.01    9.23
   2  -1  -1  288.92    9.27
  -2   1   1  291.94    9.16
  -2   1   1  292.46    9.16
  -2   1   1  277.88    9.08
  -2   1   1  280.14    9.21
  -2   1   1  295.93    9.37
   1  -1  -1  281.31    8.71
   1  -1  -1  273.07    8.60
   1  -1  -1  273.54    8.58
   1  -1  -1  262.17    8.72
  -1   1   1  269.90    8.72
  -1   1   1  280.80    8.82
  -1   1   1  277.26    8.73
  -1   1   1  278.79    8.75
   0  -1  -1   28.31    0.97
   0  -1  -1   28.80    0.92
   0  -1  -1   29.09    0.97
   0  -1  -1   27.97    0.92
   0  -1  -1   29.04    0.98
   0  -1  -1   30.41    0.94
   0  -1  -1   29.04    0.97
   0   1   1   29.12    0.93
   0   1   1   29.50    0.93
  -1  -1  -1  396.32   12.63
  -1  -1  -1  404.73   12.53
  -1  -1  -1  388.75   12.57
  -1  -1  -1  404.16   12.60
   1   1   1  412.92   12.73
   1   1   1  385.86   12.71
   1   1   1  401.06   12.69
   1   1   1  411.82   12.72
   1   1   1  396.62   12.69
  -2  -1  -1  117.50    3.75
  -2  -1  -1  112.38    3.72
  -2  -1  -1  119.08    3.82
  -2  -1  -1  112.18    3.78
  -2  -1  -1  114.86    3.86
  -2  -1  -1  117.18    3.71
  -2  -1  -1  108.43    3.73
  -2  -1  -1  116.47    4.00
   2   1   1  117.37    3.94
   2   1   1  116.42    3.83
   2   1   1  111.52    3.66
   2   1   1  112.43    3.95
   2   1   1  113.81    3.69
   2   1   1  111.61    3.67
   2   1   1  115.48    3.85
  -3  -1  -1   37.28    1.51
  -3  -1  -1   37.64    1.31
  -3  -1  -1   39.66    1.92
  -3  -1  -1   40.01    1.46
  -3  -1  -1   38.35    1.41
   3   1   1   38.24    1.35
   3   1   1   39.93    1.43
   3   1   1   38.54    1.81
   3   1   1   37.94    1.38
  -4  -1  -1   19.70    0.96
  -4  -1  -1   20.63    0.78
   4   1   1   21.64    0.87
   4   1   1   20.39    0.96
  -5  -1  -1    8.32    0.43
  -5  -1  -1    8.39    0.32
   5   1   1    7.99    0.37
   5   1   1    8.44    0.48
   5   1   1    8.52    0.35
   5   1   1    8.80    0.31
   5  -2  -1   35.50    1.15
   5  -2  -1   35.47    1.33
   5  -2  -1   35.92    1.19
  -5   2   1   35.17    1.27
   4  -2  -1    1.35    0.29
   4  -2  -1    1.23    0.27
  -4   2   1    1.70    0.23
  -4   2   1    1.64    0.34
   3  -2  -1    9.21    0.51
   3  -2  -1    9.49    0.81
   3  -2  -1    8.78    0.36
   3  -2  -1    8.32    0.44
  -3   2   1    8.74    0.39
  -3   2   1    7.89    0.50
  -3   2   1    8.08    0.57
   2  -2  -1   25.57    0.96
   2  -2  -1   26.15    1.02
   2  -2  -1   26.04    1.23
   2  -2  -1   25.64    1.22
   2  -2  -1   26.30    0.99
  -2   2   1   24.18    0.97
  -2   2   1   26.14    1.16
  -2   2   1   25.41    0.90
  -2   2   1   26.07    1.03
  -2   2   1   25.31    1.00
   1  -2  -1   47.75    1.73
   1  -2  -1   47.94    1.72
   1  -2  -1   48.65    1.72
   1  -2  -1   48.93    1.65
  -1   2   1   47.85    1.65
  -1   2   1   46.87    1.63
  -1   2   1   47.53    1.55
  -1   2   1   50.43    1.71
   0  -2  -1  135.07    4.20
   0  -2  -1  131.08    4.17
   0  -2  -1  126.53    4.20
   0  -2  -1  132.02    4.23
   0  -2  -1  132.01    4.19
   0   2   1  129.57    4.08
   0   2   1  128.83    4.13
   0   2   1  123.49    4.14
   0   2   1  135.94    4.13
   0   2   1  130.03    4.16
  -1  -2  -1   23.36    0.85
  -1  -2  -1   24.36    0.97
  -1  -2  -1   23.09    0.83
  -1  -2  -1   24.04    0.91
  -1  -2  -1   24.41    0.93
  -1  -2  -1   24.92    0.86
  -1  -2  -1   25.43    0.96
  -1  -2  -1   24.15    0.87
   1   2   1   25.24    0.84
   1   2   1   24.94    0.96
   1   2   1   25.74    0.99
  -2  -2  -1   40.10    1.43
  -2  -2  -1   39.23    1.39
  -2  -2  -1   39.63    1.64
  -2  -2  -1   39.53    1.55
  -2  -2  -1   39.35    1.42
  -2  -2  -1   40.19    1.48
  -2  -2  -1   40.85    1.41
  -2  -2  -1   40.31    1.42
  -2  -2  -1   38.56    1.37
   2   2   1   39.18    1.33
   2   2   1   36.47    1.34
   2   2   1   39.26    1.52
   2   2   1   40.96    1.59
   2   2   1   40.55    1.54
   2   2   1   37.35    1.33
   2   2   1   39.92    1.61
  -3  -2  -1    6.67    0.33
  -3  -2  -1    7.95    0.60
  -3  -2  -1    7.83    0.46
  -3  -2  -1    7.72    0.32
  -3  -2  -1    8.20    0.46
   3   2   1    8.05    0.43
   3   2   1    7.22    0.33
   3   2   1    8.03    0.44
   3   2   1    7.71    0.58
  -5  -2  -1    0.62    0.11
   5   2   1    0.77    0.11
   5  -3  -1    4.98    0.38
   5  -3  -1    4.95    0.24
   5  -3  -1    4.78    0.19
   5  -3  -1    4.44    0.26
  -5   3   1    5.19    0.33
   4  -3  -1   12.50    0.60
   4  -3  -1   11.68    0.71
  -4   3   1   10.44    0.70
  -4   3   1   11.85    0.53
   3  -3  -1   17.01    0.60
   3  -3  -1   15.77    0.67
   3  -3  -1   15.99    0.75
  -3   3   1   15.63    0.84
  -3   3   1   15.40    0.57
  -3   3   1   15.21    0.61
  -3   3   1   15.33    0.76
   2  -3  -1  133.94    4.17
   2  -3  -1  119.45    4.44
   2  -3  -1  126.28    4.13
   2  -3  -1  129.39    4.23
   2  -3  -1  126.93    4.43
   2  -3  -1  123.89    4.11
  -2   3   1  121.18    4.05
  -2   3   1  125.00    4.31
  -2   3   1  131.03    4.19
  -2   3   1  124.67    4.16
  -2   3   1  129.20    4.02
  -2   3   1  119.07    4.09
   1  -3  -1    2.65    0.17
   1  -3  -1    2.86    0.22
   1  -3  -1    2.53    0.27
   1  -3  -1    2.88    0.28
   1  -3  -1    2.70    0.25
  -1   3   1    2.94    0.27
  -1   3   1    3.00    0.22
  -1   3   1    3.18    0.28
  -1   3   1    2.72    0.21
  -1   3   1    2.84    0.16
   0  -3  -1    7.76    0.39
   0  -3  -1    8.49    0.32
   0  -3  -1    8.50    0.38
   0  -3  -1    8.56    0.36
   0  -3  -1    7.76    0.41
   0  -3  -1    9.50    0.45
   0   3   1    9.49    0.42
   0   3   1    8.73    0.41
   0   3   1    8.83    0.32
   0   3   1    9.19    0.45
   0   3   1    9.33    0.41
   0   3   1    8.47    0.31
  -1  -3  -1   99.04    3.39
  -1  -3  -1   99.68    3.38
  -1  -3  -1  100.46    3.24
  -1  -3  -1  100.64    3.26
  -1  -3  -1  100.55    3.34
  -1  -3  -1  101.22    3.37
  -1  -3  -1  100.52    3.28
  -1  -3  -1  100.90    3.25
   1   3   1  104.69    3.34
   1   3   1  100.66    3.14
   1   3   1   94.28    3.32
   1   3   1   95.54    3.19
  -2  -3  -1   22.70    0.87
  -2  -3  -1   20.61    1.06
  -2  -3  -1   21.01    0.88
  -2  -3  -1   21.79    1.02
  -2  -3  -1   21.36    0.86
  -2  -3  -1   21.74    0.94
  -2  -3  -1   22.10    0.83
   2   3   1   21.43    0.79
   2   3   1   20.76    1.05
   2   3   1   20.95    0.82
   2   3   1   22.08    1.01
   2   3   1   21.17    1.00
  -3  -3  -1    3.14    0.32
  -3  -3  -1    2.50    0.20
  -3  -3  -1    4.10    0.62
  -3  -3  -1    3.07    0.18
   3   3   1    2.81    0.20
   3   3   1    3.05    0.24
   3   3   1    3.50    0.30
  -4  -3  -1    0.01    0.11
   4   3   1    0.06    0.16
   5   3   1    3.67    0.18
   5  -4  -1   12.50    0.46
   5  -4  -1   11.82    0.45
  -5   4   1   12.98    0.69
   4  -4  -1    4.78    0.25
   4  -4  -1    4.99    0.20
   4  -4  -1    5.32    0.23
   4  -4  -1    4.55    0.38
   4  -4  -1    4.31    0.28
  -4   4   1    4.37    0.31
  -4   4   1    4.43    0.47
   3  -4  -1   10.11    0.48
   3  -4  -1   10.34    0.85
   3  -4  -1   10.41    0.46
   3  -4  -1   10.73    0.58
   3  -4  -1   10.21    0.50
  -3   4   1   10.57    0.42
  -3   4   1   10.42    0.47
  -3   4   1   10.16    0.61
   2  -4  -1   11.46    0.40
   2  -4  -1    9.75    0.71
   2  -4  -1   11.09    0.56
   2  -4  -1   10.35    0.53
   2  -4  -1   11.40    0.78
   2  -4  -1   11.39    0.51
   2  -4  -1   11.10    0.63
   2  -4  -1   10.89    0.47
   2  -4  -1   10.80    0.46
  -2   4   1   11.80    0.68
  -2   4   1   11.66    0.56
  -2   4   1   11.92    0.44
  -2   4   1   11.86    0.50
  -2   4   1   12.36    0.73
  -2   4   1   11.50    0.61
  -2   4   1   11.05    0.55
   1  -4  -1    2.57    0.20
   1  -4  -1    3.11    0.33
   1  -4  -1    2.85    0.30
   1  -4  -1    2.57    0.24
  -1   4   1    3.41    0.32
  -1   4   1    2.97    0.18
  -1   4   1    2.75    0.29
  -1   4   1    3.03    0.25
   0  -4  -1   45.52    1.52
   0  -4  -1   44.21    1.48
   0  -4  -1   41.68    1.49
   0  -4  -1   45.32    1.64
   0  -4  -1   46.40    1.62
   0  -4  -1   45.31    1.55
   0  -4  -1   44.09    1.58
   0   4   1   43.89    1.53
   0   4   1   44.48    1.40
   0   4   1   39.99    1.42
   0   4   1   44.03    1.59
  -1  -4  -1  117.88    3.84
  -1  -4  -1  114.48    3.67
  -1  -4  -1  110.90    3.65
  -1  -4  -1  111.24    3.83
  -1  -4  -1  112.01    3.82
  -1  -4  -1  116.73    3.72
  -1  -4  -1  106.67    3.67
   1   4   1  107.90    3.78
   1   4   1  111.78    3.56
   1   4   1  110.83    3.61
   1   4   1  117.32    3.76
   1   4   1  110.33    3.79
  -2  -4  -1   19.16    0.68
  -2  -4  -1   20.31    0.80
  -2  -4  -1   20.05    1.04
  -2  -4  -1   19.02    0.82
  -2  -4  -1   19.92    0.86
  -2  -4  -1   21.42    1.03
  -2  -4  -1   19.54    0.71
  -2  -4  -1   20.11    0.84
  -2  -4  -1   18.36    0.91
   2   4   1   21.17    1.03
   2   4   1   21.11    0.79
   2   4   1   19.12    1.07
   2   4   1   20.70    0.83
  -3  -4  -1   26.21    0.90
  -3  -4  -1   26.95    1.12
  -3  -4  -1   25.03    0.93
   3   4   1   27.87    1.07
   3   4   1   25.17    0.98
   3   4   1   24.88    0.90
  -4  -4  -1    0.63    0.12
  -4  -4  -1    0.55    0.15
  -4  -4  -1    0.70    0.13
  -4  -4  -1    0.63    0.09
   4   4   1    0.67    0.20
  -5  -4  -1    2.16    0.16
  -5  -4  -1    2.02    0.14
   5   4   1    2.37    0.14
   5  -5  -1    1.00    0.11
   5  -5  -1    0.83    0.14
   4  -5  -1   51.04    1.61
   4  -5  -1   48.37    1.63
   3  -5  -1    3.38    0.29
   3  -5  -1    4.17    0.24
   3  -5  -1    3.82    0.28
  -3   5   1    3.93    0.24
   2  -5  -1    5.02    0.23
   2  -5  -1    4.82    0.28
   2  -5  -1    4.85    0.31
   2  -5  -1    4.69    0.26
   2  -5  -1    5.54    0.48
   2  -5  -1    4.72    0.38
   2  -5  -1    4.56    0.38
   2  -5  -1    4.70    0.56
  -2   5   1    5.48    0.49
  -2   5   1    5.46    0.39
  -2   5   1    5.43    0.25
  -2   5   1    4.94    0.28
  -2   5   1    5.34    0.33
  -2   5   1    5.11    0.49
   1  -5  -1   28.54    1.22
   1  -5  -1   28.78    1.06
   1  -5  -1   28.07    1.11
   1  -5  -1   29.84    1.32
  -1   5   1   29.53    1.13
  -1   5   1   30.05    1.28
  -1   5   1   31.10    1.05
  -1   5   1   28.69    1.23
   0  -5  -1   19.48    0.90
   0  -5  -1   18.53    0.71
   0  -5  -1   18.57    0.79
   0  -5  -1   19.19    0.89
   0   5   1   18.38    0.89
   0   5   1   18.99    0.67
   0   5   1   19.31    0.85
  -1  -5  -1    3.48    0.29
  -1  -5  -1    3.47    0.26
  -1  -5  -1    3.62    0.33
  -1  -5  -1    3.17    0.39
  -1  -5  -1    3.17    0.37
  -1  -5  -1    3.54    0.29
  -1  -5  -1    3.19    0.38
   1   5   1    3.95    0.39
   1   5   1    3.17    0.39
   1   5   1    4.38    0.39
   1   5   1    3.47    0.26
   1   5   1    3.62    0.22
  -2  -5  -1   39.53    1.31
  -2  -5  -1   40.90    1.47
  -2  -5  -1   38.47    1.32
  -2  -5  -1   40.45    1.44
  -2  -5  -1   38.30    1.33
  -2  -5  -1   38.74    1.70
  -2  -5  -1   40.49    1.52
  -2  -5  -1   35.41    1.69
  -2  -5  -1   39.50    1.49
  -2  -5  -1   37.35    1.65
  -2  -5  -1   39.10    1.29
   2   5   1   38.52    1.68
   2   5   1   34.49    1.72
   2   5   1   40.56    1.39
   2   5   1   40.39    1.62
   2   5   1   40.32    1.37
   2   5   1   39.23    1.44
  -3  -5  -1    8.17    0.56
  -3  -5  -1    7.93    0.36
  -3  -5  -1    8.60    0.40
   3   5   1    8.86    0.55
   3   5   1    8.21    0.45
   3   5   1    7.96    0.37
  -4  -5  -1   23.66    0.82
  -4  -5  -1   24.68    0.84
  -4  -5  -1   24.53    0.87
  -4  -5  -1   24.33    0.84
  -4  -5  -1   26.62    0.93
   4   5   1   23.27    0.94
  -5  -5  -1    0.34    0.08
  -5  -5  -1    0.33    0.08
   5   5   1    0.29    0.06
   5  -6  -1    1.96    0.13
   4  -6  -1    7.10    0.29
   4  -6  -1    6.99    0.31
   3  -6  -1    4.96    0.33
   3  -6  -1    4.29    0.27
   3  -6  -1    4.24    0.32
  -3   6   1    4.69    0.28
   2  -6  -1   13.94    0.53
   2  -6  -1   14.72    0.75
   2  -6  -1   14.05    0.57
   2  -6  -1   14.40    0.63
   2  -6  -1   14.42    0.60
  -2   6   1   13.88    0.72
  -2   6   1   14.10    0.62
  -2   6   1   13.54    0.57
  -2   6   1   14.38    0.53
   1  -6  -1   31.68    1.03
   1  -6  -1   31.70    1.13
   1  -6  -1   31.20    1.24
   1  -6  -1   32.43    1.19
   1  -6  -1   30.95    1.08
   1  -6  -1   29.66    1.45
   1  -6  -1   31.29    1.38
   1  -6  -1   31.21    1.11
  -1   6   1   30.91    1.40
  -1   6   1   31.70    1.12
  -1   6   1   32.75    1.06
  -1   6   1   31.53    1.36
  -1   6   1   31.53    1.24
   0  -6  -1   47.18    1.88
   0  -6  -1   46.76    1.56
   0  -6  -1   48.03    1.74
   0  -6  -1   44.33    1.52
   0  -6  -1   46.18    1.87
   0  -6  -1   48.43    1.65
   0  -6  -1   49.04    1.58
   0   6   1   49.99    1.73
   0   6   1   47.91    1.86
   0   6   1   45.94    1.55
   0   6   1   48.12    1.89
   0   6   1   47.73    1.60
  -1  -6  -1    7.74    0.36
  -1  -6  -1    7.27    0.49
  -1  -6  -1    6.75    0.32
  -1  -6  -1    7.65    0.58
  -1  -6  -1    7.38    0.30
  -1  -6  -1    7.14    0.34
  -1  -6  -1    7.66    0.45
  -1  -6  -1    8.16    0.44
  -1  -6  -1    7.96    0.61
  -1  -6  -1    7.42    0.45
  -1  -6  -1    7.38    0.60
   1   6   1    7.30    0.30
   1   6   1    6.86    0.55
   1   6   1    7.11    0.36
   1   6   1    7.85    0.61
   1   6   1    8.08    0.59
   1   6   1    7.50    0.36
   1   6   1    7.62    0.41
  -2  -6  -1    4.13    0.23
  -2  -6  -1    4.17    0.29
  -2  -6  -1    4.63    0.28
  -2  -6  -1    4.17    0.43
  -2  -6  -1    4.30    0.26
  -2  -6  -1    4.14    0.37
  -2  -6  -1    4.50    0.42
  -2  -6  -1    4.96    0.41
   2   6   1    4.54    0.38
   2   6   1    4.25    0.33
   2   6   1    4.54    0.24
   2   6   1    4.53    0.31
  -3  -6  -1   45.08    1.55
  -3  -6  -1   45.13    1.50
  -3  -6  -1   44.47    1.77
   3   6   1   43.19    1.47
   3   6   1   44.14    1.58
   3   6   1   43.49    1.68
  -4  -6  -1    6.56    0.29
  -4  -6  -1    6.79    0.28
  -4  -6  -1    6.92    0.29
  -4  -6  -1    6.24    0.36
  -4  -6  -1    7.05    0.32
   4   6   1    7.20    0.44
  -5  -6  -1    2.51    0.13
  -5  -6  -1    2.22    0.13
   5   6   1    2.63    0.15
   4  -7  -1    5.39    0.24
   4  -7  -1    5.78    0.26
   4  -7  -1    5.90    0.24
   3  -7  -1    9.00    0.36
   3  -7  -1    8.61    0.37
   3  -7  -1    8.76    0.31
   3  -7  -1    9.37    0.37
   3  -7  -1    8.33    0.49
   3  -7  -1    8.88    0.41
  -3   7   1    8.64    0.51
  -3   7   1    9.39    0.42
   2  -7  -1   38.80    1.61
   2  -7  -1   41.05    1.47
   2  -7  -1   41.08    1.40
   2  -7  -1   40.05    1.35
   2  -7  -1   39.77    1.61
  -2   7   1   39.49    1.37
  -2   7   1   40.44    1.32
  -2   7   1   37.12    1.41
  -2   7   1   38.12    1.55
   1  -7  -1    0.47    0.17
   1  -7  -1    0.58    0.16
   1  -7  -1    0.30    0.12
   1  -7  -1    0.50    0.09
   1  -7  -1    0.27    0.20
  -1   7   1    0.42    0.12
  -1   7   1    0.40    0.19
  -1   7   1    0.48    0.16
  -1   7   1    0.31    0.09
  -1   7   1    0.35    0.13
   0  -7  -1    8.60    0.41
   0  -7  -1    8.65    0.49
   0  -7  -1    9.05    0.41
   0  -7  -1    8.71    0.34
   0  -7  -1    8.81    0.57
   0   7   1    9.04    0.43
   0   7   1    8.72    0.36
   0   7   1   10.30    0.58
  -1  -7  -1   11.67    0.43
  -1  -7  -1   10.98    0.67
  -1  -7  -1   11.48    0.48
  -1  -7  -1   10.94    0.49
  -1  -7  -1   11.32    0.59
   1   7   1   11.20    0.65
   1   7   1   11.34    0.44
   1   7   1   11.25    0.51
  -2  -7  -1   19.61    0.75
  -2  -7  -1   20.13    0.79
  -2  -7  -1   18.53    0.91
  -2  -7  -1   20.71    0.72
  -2  -7  -1   20.40    0.96
  -2  -7  -1   19.60    0.76
  -2  -7  -1   19.11    0.92
   2   7   1   18.55    0.86
   2   7   1   18.88    0.82
   2   7   1   19.57    0.79
  -3  -7  -1   20.22    0.75
  -3  -7  -1   21.12    0.81
  -3  -7  -1   21.41    0.72
  -3  -7  -1   20.66    0.72
  -3  -7  -1   20.53    0.68
  -3  -7  -1   21.49    0.76
   3   7   1   21.34    0.89
  -4  -7  -1   39.25    1.31
  -4  -7  -1   38.31    1.36
  -4  -7  -1   37.42    1.27
  -4  -7  -1   40.10    1.27
  -4  -7  -1   40.53    1.27
   4   7   1   40.49    1.47
   4   7   1   40.58    1.32
   4  -8  -1    0.48    0.07
   4  -8  -1    0.43    0.09
   4  -8  -1    0.38    0.07
   4  -8  -1    0.47    0.07
   3  -8  -1    1.15    0.16
   3  -8  -1    1.02    0.09
   3  -8  -1    1.23    0.14
   3  -8  -1    1.06    0.22
   3  -8  -1    1.27    0.15
   3  -8  -1    1.17    0.16
  -3   8   1    1.16    0.20
  -3   8   1    1.71    0.28
   2  -8  -1    6.64    0.43
   2  -8  -1    5.93    0.56
   2  -8  -1    6.38    0.32
   2  -8  -1    6.94    0.39
   2  -8  -1    5.32    0.51
  -2   8   1    6.85    0.34
  -2   8   1    6.26    0.42
  -2   8   1    6.61    0.42
  -2   8   1    6.07    0.55
  -2   8   1    6.77    0.39
   1  -8  -1    5.29    0.27
   1  -8  -1    5.29    0.34
   1  -8  -1    5.43    0.51
   1  -8  -1    5.20    0.37
   1  -8  -1    5.25    0.45
  -1   8   1    4.79    0.35
  -1   8   1    5.10    0.49
  -1   8   1    5.35    0.29
  -1   8   1    5.36    0.33
  -1   8   1    5.56    0.36
   0  -8  -1   22.67    1.02
   0  -8  -1   23.81    0.83
   0  -8  -1   24.17    1.13
   0  -8  -1   24.88    0.91
   0  -8  -1   24.40    0.90
   0   8   1   25.15    0.98
   0   8   1   27.36    1.17
   0   8   1   25.47    0.90
  -1  -8  -1   23.63    0.81
  -1  -8  -1   22.21    0.88
  -1  -8  -1   23.44    1.02
  -1  -8  -1   23.72    0.87
  -1  -8  -1   22.17    1.10
   1   8   1   23.72    0.93
   1   8   1   23.80    0.83
   1   8   1   23.17    1.08
  -2  -8  -1   16.52    0.66
  -2  -8  -1   16.85    0.67
  -2  -8  -1   16.87    0.59
  -2  -8  -1   16.36    0.69
  -2  -8  -1   16.46    0.87
  -2  -8  -1   15.11    0.54
  -2  -8  -1   17.07    0.62
  -2  -8  -1   14.97    0.90
  -2  -8  -1   14.96    0.82
  -2  -8  -1   16.84    0.59
   2   8   1   15.16    0.85
   2   8   1   17.67    0.71
   2   8   1   14.21    0.77
   2   8   1   15.68    0.75
  -3  -8  -1    6.71    0.28
  -3  -8  -1    7.12    0.34
  -3  -8  -1    7.17    0.32
  -3  -8  -1    6.54    0.29
  -3  -8  -1    6.74    0.25
  -3  -8  -1    7.31    0.39
  -3  -8  -1    7.36    0.30
   3   8   1    7.25    0.45
  -4  -8  -1    0.70    0.09
  -4  -8  -1    0.76    0.10
  -4  -8  -1    0.65    0.09
   4  -9  -1   14.81    0.52
   4  -9  -1   16.36    0.51
   4  -9  -1   15.18    0.52
   3  -9  -1   13.18    0.47
   3  -9  -1   13.07    0.48
   3  -9  -1   14.06    0.46
   3  -9  -1   12.87    0.48
   3  -9  -1   13.52    0.63
  -3   9   1   13.24    0.61
  -3   9   1   14.38    0.66
   2  -9  -1   14.95    0.56
   2  -9  -1   16.51    0.61
   2  -9  -1   16.09    0.67
   2  -9  -1   14.77    0.54
   2  -9  -1   14.85    0.53
   2  -9  -1   16.09    0.56
   2  -9  -1   15.32    0.54
   2  -9  -1   16.44    0.74
   2  -9  -1   14.69    0.55
   2  -9  -1   15.70    0.52
  -2   9   1   15.60    0.71
  -2   9   1   16.18    0.69
  -2   9   1   17.01    0.64
   1  -9  -1    1.09    0.13
   1  -9  -1    1.13    0.15
   1  -9  -1    1.19    0.17
   1  -9  -1    0.95    0.16
   1  -9  -1    1.05    0.22
   1  -9  -1    1.36    0.13
   1  -9  -1    1.05    0.19
   1  -9  -1    1.90    0.49
   1  -9  -1    0.93    0.14
   1  -9  -1    1.10    0.12
   1  -9  -1    0.97    0.09
  -1   9   1    1.03    0.21
  -1   9   1    1.08    0.19
  -1   9   1    1.14    0.22
  -1   9   1    1.03    0.18
   0  -9  -1    2.82    0.38
   0  -9  -1    2.81    0.21
   0  -9  -1    2.44    0.46
   0  -9  -1    2.56    0.28
   0   9   1    2.01    0.36
   0   9   1    2.43    0.21
  -1  -9  -1    4.87    0.21
  -1  -9  -1    4.42    0.19
  -1  -9  -1    4.34    0.35
  -1  -9  -1    4.10    0.32
  -1  -9  -1    4.42    0.26
  -1  -9  -1    4.69    0.25
  -1  -9  -1    4.25    0.18
  -1  -9  -1    4.58    0.21
  -1  -9  -1    4.34    0.22
   1   9   1    4.47    0.26
  -2  -9  -1    2.00    0.28
  -2  -9  -1    2.21    0.28
  -2  -9  -1    2.13    0.12
  -2  -9  -1    2.68    0.20
  -2  -9  -1    2.41    0.17
  -2  -9  -1    2.55    0.16
  -2  -9  -1    2.17    0.13
  -2  -9  -1    2.24    0.15
  -2  -9  -1    2.44    0.20
   2   9   1    2.62    0.23
  -3  -9  -1    0.38    0.07
  -3  -9  -1    0.29    0.13
  -3  -9  -1    0.35    0.07
  -3  -9  -1    0.27    0.08
  -3  -9  -1    0.45    0.10
  -4  -9  -1    3.64    0.16
  -4  -9  -1    3.41    0.14
   4   9   1    3.99    0.18
   3 -10  -1    3.15    0.17
   3 -10  -1    2.99    0.16
   3 -10  -1    2.92    0.15
   2 -10  -1   28.70    0.96
   2 -10  -1   27.73    0.94
   2 -10  -1   27.42    0.95
   2 -10  -1   28.68    0.96
   2 -10  -1   28.21    0.93
   2 -10  -1   28.93    1.11
   2 -10  -1   29.34    1.00
   2 -10  -1   29.41    0.92
   2 -10  -1   28.23    1.04
  -2  10   1   25.87    1.04
  -2  10   1   29.20    0.99
  -2  10   1   30.26    1.08
   1 -10  -1    9.70    0.35
   1 -10  -1   11.40    0.44
   1 -10  -1   10.33    0.41
   1 -10  -1    9.98    0.39
   1 -10  -1   10.26    0.40
   1 -10  -1    9.94    0.38
   1 -10  -1   10.33    0.55
   1 -10  -1   10.36    0.35
   1 -10  -1   10.17    0.51
  -1  10   1   11.42    0.47
  -1  10   1   11.06    0.54
  -1  10   1   10.42    0.53
   0 -10  -1    1.13    0.17
   0 -10  -1    0.92    0.10
   0 -10  -1    0.91    0.08
   0 -10  -1    0.99    0.13
   0 -10  -1    0.96    0.16
   0 -10  -1    1.16    0.11
   0 -10  -1    1.07    0.12
   0 -10  -1    1.17    0.20
   0  10   1    1.40    0.18
   0  10   1    0.92    0.18
  -1 -10  -1    4.86    0.25
  -1 -10  -1    4.48    0.21
  -1 -10  -1    4.38    0.26
  -1 -10  -1    4.40    0.22
  -1 -10  -1    4.56    0.19
  -1 -10  -1    4.40    0.18
  -1 -10  -1    4.17    0.33
  -1 -10  -1    4.28    0.18
   1  10   1    4.40    0.26
  -2 -10  -1    2.91    0.18
  -2 -10  -1    3.53    0.17
  -2 -10  -1    2.87    0.29
  -2 -10  -1    3.03    0.15
  -2 -10  -1    3.08    0.22
  -2 -10  -1    3.45    0.20
  -2 -10  -1    3.27    0.14
  -2 -10  -1    3.11    0.19
  -2 -10  -1    2.87    0.28
   2  10   1    3.48    0.25
  -3 -10  -1    2.15    0.13
  -3 -10  -1    2.18    0.12
  -3 -10  -1    2.14    0.14
   3  10   1    2.33    0.15
   2 -11  -1    0.47    0.06
   2 -11  -1    0.37    0.07
   2 -11  -1    0.45    0.08
   2 -11  -1    0.48    0.05
   2 -11  -1    0.53    0.07
   2 -11  -1    0.54    0.07
   1 -11  -1   10.46    0.36
   1 -11  -1   10.34    0.35
   1 -11  -1    9.74    0.37
   1 -11  -1   10.59    0.38
   1 -11  -1   10.34    0.39
   1 -11  -1   10.46    0.40
   1 -11  -1   10.78    0.59
   0 -11  -1    2.97    0.16
   0 -11  -1    2.98    0.15
   0 -11  -1    2.80    0.20
   0 -11  -1    3.24    0.28
   0 -11  -1    2.93    0.13
   0 -11  -1    3.19    0.18
   0 -11  -1    2.94    0.19
   0  11   1    3.19    0.21
   0  11   1    3.09    0.29
  -1 -11  -1    3.43    0.16
  -1 -11  -1    3.20    0.15
  -1 -11  -1    3.50    0.19
  -1 -11  -1    3.23    0.14
  -1 -11  -1    3.56    0.20
  -2 -11  -1    1.71    0.11
  -2 -11  -1    1.88    0.14
  -2 -11  -1    1.78    0.13
  -2 -11  -1    1.58    0.12
  -2 -11  -1    1.65    0.10
  -2 -11  -1    1.71    0.09
   1 -12  -1    2.00    0.12
   1 -12  -1    1.90    0.12
   1 -12  -1    2.03    0.10
   1 -12  -1    2.03    0.09
   1 -12  -1    2.11    0.12
   1 -12  -1    2.03    0.14
   0 -12  -1   22.66    0.72
   0 -12  -1   23.29    0.75
   0 -12  -1   20.93    0.73
   0 -12  -1   21.69    0.74
   0 -12  -1   22.72    0.71
  -1 -12  -1    1.28    0.12
  -1 -12  -1    1.36    0.09
  -1 -12  -1    1.21    0.07
  -1 -12  -1    1.16    0.08
  -1 -12  -1    1.35    0.11
  -1 -12  -1    1.09    0.09
  -2 -12   2   10.01    0.35
  -2 -12   2   10.13    0.34
  -1 -12   2    1.88    0.12
  -1 -12   2    2.04    0.14
  -1 -12   2    1.90    0.12
   0 -12   2   10.99    0.45
   0 -12   2   11.78    0.43
   0 -12   2   11.77    0.41
   0 -12   2   11.69    0.41
   1 -12   2    0.72    0.10
   1 -12   2    0.71    0.10
   1 -12   2    0.64    0.10
   1 -12   2    0.58    0.08
   1 -12   2    0.77    0.13
  -2  12  -2    6.59    0.27
   2 -12   2    6.13    0.25
   2 -12   2    6.36    0.22
   2 -12   2    6.36    0.25
   3  11  -2    3.51    0.17
  -3 -11   2    3.13    0.14
  -3 -11   2    3.23    0.15
  -2 -11   2    0.06    0.08
  -2 -11   2    0.10    0.06
  -2 -11   2    0.14    0.08
   1  11  -2    1.92    0.31
  -1 -11   2    1.53    0.14
  -1 -11   2    1.94    0.16
  -1 -11   2    1.72    0.17
  -1 -11   2    1.95    0.14
  -1 -11   2    1.80    0.27
   0  11  -2    2.00    0.27
   0 -11   2    1.54    0.17
   0 -11   2    1.78    0.18
   0 -11   2    1.84    0.14
   0 -11   2    2.00    0.26
  -1  11  -2   10.53    0.53
  -1  11  -2   10.94    0.53
   1 -11   2   10.27    0.50
   1 -11   2   10.42    0.41
   1 -11   2   10.36    0.39
   1 -11   2   10.24    0.38
   1 -11   2   10.01    0.40
   1 -11   2    9.72    0.54
  -2  11  -2    0.47    0.10
   2 -11   2    0.43    0.10
   2 -11   2    0.47    0.08
   2 -11   2    0.44    0.09
  -3  11  -2    1.36    0.13
   3 -11   2    1.32    0.10
   3 -11   2    1.20    0.08
   3 -11   2    1.33    0.11
   3  10  -2    6.44    0.28
  -3 -10   2    5.93    0.25
  -3 -10   2    6.30    0.26
  -3 -10   2    6.27    0.23
  -2 -10   2    4.10    0.22
  -2 -10   2    4.04    0.20
  -2 -10   2    3.55    0.19
   1  10  -2   40.74    1.44
  -1 -10   2   37.93    1.22
  -1 -10   2   35.55    1.32
  -1 -10   2   36.91    1.22
  -1 -10   2   37.32    1.24
  -1 -10   2   38.61    1.23
   0  10  -2    9.21    0.47
   0  10  -2    9.04    0.46
   0  10  -2    9.62    0.49
   0 -10   2    9.09    0.36
   0 -10   2    9.50    0.53
   0 -10   2    9.39    0.46
   0 -10   2    9.82    0.39
   0 -10   2    9.22    0.39
   0 -10   2    9.78    0.49
  -1  10  -2    7.45    0.45
  -1  10  -2    7.78    0.44
   1 -10   2    6.90    0.33
   1 -10   2    6.95    0.32
   1 -10   2    6.72    0.29
   1 -10   2    7.15    0.47
   1 -10   2    7.35    0.31
   1 -10   2    7.41    0.42
  -2  10  -2    2.63    0.29
  -2  10  -2    2.73    0.28
   2 -10   2    2.72    0.30
   2 -10   2    2.54    0.18
   2 -10   2    2.32    0.21
   2 -10   2    2.41    0.16
   2 -10   2    2.16    0.32
  -3  10  -2   22.17    0.76
   3 -10   2   20.65    0.71
   3 -10   2   20.00    0.70
   3 -10   2   21.32    0.68
   4   9  -2    1.63    0.13
  -4  -9   2    1.73    0.14
  -4  -9   2    1.71    0.12
   3   9  -2    6.00    0.29
   3   9  -2    6.18    0.40
  -3  -9   2    5.41    0.33
  -3  -9   2    5.62    0.23
  -3  -9   2    5.57    0.25
   2   9  -2    4.36    0.24
   2   9  -2    3.90    0.33
  -2  -9   2    4.05    0.30
  -2  -9   2    3.44    0.23
  -2  -9   2    3.81    0.21
  -2  -9   2    3.85    0.19
   1   9  -2   25.58    0.89
   1   9  -2   24.13    1.13
  -1  -9   2   23.89    0.79
  -1  -9   2   19.08    1.04
  -1  -9   2   22.23    0.85
   0   9  -2    7.27    0.34
   0   9  -2    7.39    0.41
   0   9  -2    7.05    0.56
   0   9  -2    7.05    0.41
   0  -9   2    7.39    0.33
   0  -9   2    8.33    0.60
   0  -9   2    6.80    0.40
   0  -9   2    7.27    0.44
  -1   9  -2   24.80    0.89
  -1   9  -2   24.96    0.97
  -1   9  -2   25.02    1.16
  -1   9  -2   24.69    0.96
   1  -9   2   24.45    0.93
   1  -9   2   23.83    0.99
   1  -9   2   25.29    0.86
   1  -9   2   22.88    1.15
  -2   9  -2    0.90    0.18
  -2   9  -2    1.01    0.21
   2  -9   2    0.66    0.11
   2  -9   2    0.96    0.17
   2  -9   2    1.34    0.25
   2  -9   2    0.88    0.23
   2  -9   2    0.73    0.13
   2  -9   2    0.82    0.11
  -3   9  -2    4.31    0.32
  -3   9  -2    4.96    0.34
  -3   9  -2    4.87    0.24
   3  -9   2    4.76    0.34
   3  -9   2    4.65    0.21
   3  -9   2    4.79    0.27
   3  -9   2    4.56    0.37
   3  -9   2    4.47    0.23
   4  -9   2    3.25    0.19
   4   8  -2    0.05    0.08
  -4  -8   2    0.14    0.09
  -4  -8   2   -0.04    0.09
   3   8  -2   15.07    0.57
   3   8  -2   15.38    0.70
  -3  -8   2   14.97    0.62
  -3  -8   2   14.49    0.52
  -3  -8   2   14.11    0.50
   2   8  -2   20.71    0.82
   2   8  -2   18.06    0.88
  -2  -8   2   20.04    0.97
  -2  -8   2   19.59    0.77
   1   8  -2    2.74    0.20
   1   8  -2    3.17    0.38
  -1  -8   2    2.54    0.23
  -1  -8   2    2.24    0.24
  -1  -8   2    2.49    0.39
  -1  -8   2    2.55    0.19
   0   8  -2   16.31    0.64
   0   8  -2   15.74    0.65
   0   8  -2   15.48    0.59
   0   8  -2   16.31    0.82
   0  -8   2   14.83    0.81
   0  -8   2   15.06    0.63
   0  -8   2   15.75    0.68
   0  -8   2   17.03    0.58
  -1   8  -2   20.00    0.78
  -1   8  -2   20.37    0.96
  -1   8  -2   19.08    0.79
  -1   8  -2   19.76    0.72
   1  -8   2   19.45    0.81
   1  -8   2   19.43    0.69
   1  -8   2   19.09    0.75
   1  -8   2   18.53    0.95
  -2   8  -2   11.36    0.55
  -2   8  -2   10.94    0.52
  -2   8  -2   10.73    0.71
   2  -8   2   10.09    0.48
   2  -8   2   10.46    0.70
   2  -8   2    9.47    0.52
  -3   8  -2    5.06    0.26
  -3   8  -2    5.57    0.37
  -3   8  -2    5.33    0.36
   3  -8   2    4.74    0.29
   3  -8   2    5.31    0.36
   3  -8   2    5.36    0.23
   3  -8   2    4.66    0.24
   3  -8   2    4.73    0.38
   4  -8   2    0.85    0.09
   4  -8   2    0.54    0.11
   5   7  -2    0.15    0.06
   5   7  -2    0.13    0.06
  -5  -7   2    0.07    0.07
  -5  -7   2    0.06    0.07
   4   7  -2    2.43    0.18
   4   7  -2    2.91    0.28
  -4  -7   2    2.55    0.24
  -4  -7   2    2.27    0.12
  -4  -7   2    2.14    0.18
   3   7  -2    0.80    0.38
   3   7  -2    1.14    0.17
   3   7  -2    1.23    0.25
  -3  -7   2    1.22    0.28
  -3  -7   2    1.08    0.15
  -3  -7   2    0.96    0.13
  -3  -7   2    0.94    0.17
  -3  -7   2    0.95    0.13
   2   7  -2    6.18    0.42
   2   7  -2    7.94    0.42
   2   7  -2    7.71    0.49
  -2  -7   2    7.05    0.53
  -2  -7   2    7.55    0.37
   1   7  -2   11.13    0.59
   1   7  -2   11.58    0.44
   1   7  -2   12.18    0.57
   1   7  -2   11.34    0.50
   1   7  -2   11.43    0.72
   1   7  -2    9.96    0.71
  -1  -7   2   11.62    0.43
  -1  -7   2   11.02    0.46
  -1  -7   2   10.36    0.62
  -1  -7   2   11.54    0.77
  -1  -7   2   11.17    0.46
  -1  -7   2   11.15    0.47
  -1  -7   2   12.08    0.61
  -1  -7   2   10.82    0.73
   0   7  -2    0.92    0.27
   0   7  -2    0.85    0.20
   0   7  -2    0.43    0.14
   0   7  -2    0.77    0.16
   0   7  -2    0.74    0.10
   0  -7   2    0.69    0.12
   0  -7   2    0.63    0.15
   0  -7   2    0.64    0.27
   0  -7   2    1.16    0.25
   0  -7   2    0.72    0.14
   0  -7   2    0.95    0.23
  -1   7  -2   15.94    0.79
  -1   7  -2   16.74    0.66
  -1   7  -2   16.07    0.59
  -1   7  -2   16.02    0.64
   1  -7   2   16.96    0.62
   1  -7   2   15.83    0.57
   1  -7   2   15.72    0.79
   1  -7   2   14.96    0.66
  -2   7  -2    7.50    0.42
  -2   7  -2    8.43    0.58
  -2   7  -2    7.47    0.35
  -2   7  -2    8.47    0.41
   2  -7   2    7.19    0.34
   2  -7   2    8.07    0.58
   2  -7   2    7.66    0.38
   2  -7   2    7.40    0.43
  -3   7  -2   28.64    1.35
  -3   7  -2   33.94    1.17
  -3   7  -2   31.14    1.16
   3  -7   2   30.83    1.39
   3  -7   2   31.69    1.20
   3  -7   2   31.62    1.08
   3  -7   2   31.19    1.08
   3  -7   2   31.67    1.14
   4  -7   2   11.42    0.39
   4  -7   2   10.90    0.46
  -5   7  -2    3.74    0.19
   5  -7   2    3.84    0.20
   5   6  -2    0.89    0.11
  -5  -6   2    0.52    0.10
  -5  -6   2    0.96    0.12
   4   6  -2    9.68    0.36
   4   6  -2   10.14    0.52
  -4  -6   2    9.02    0.32
  -4  -6   2    9.04    0.36
  -4  -6   2    9.20    0.45
  -4  -6   2    9.08    0.35
   3   6  -2   11.92    0.58
   3   6  -2   11.53    0.64
  -3  -6   2   10.85    0.49
  -3  -6   2    9.80    0.66
   2   6  -2   25.27    0.97
   2   6  -2   23.26    0.81
   2   6  -2   21.82    0.88
  -2  -6   2   22.42    0.78
  -2  -6   2   22.72    0.99
  -2  -6   2   22.26    0.82
   1   6  -2    1.04    0.17
   1   6  -2    1.36    0.30
   1   6  -2    0.81    0.22
   1   6  -2    1.28    0.22
   1   6  -2    1.46    0.20
   1   6  -2    1.33    0.12
   1   6  -2    0.90    0.15
  -1  -6   2    0.83    0.23
  -1  -6   2    1.32    0.24
  -1  -6   2    1.11    0.13
  -1  -6   2    1.16    0.22
  -1  -6   2    1.09    0.15
  -1  -6   2    1.34    0.28
  -1  -6   2    1.10    0.16
  -1  -6   2    0.98    0.22
   0   6  -2   22.87    0.82
   0   6  -2   20.47    1.01
   0   6  -2   21.68    1.09
   0   6  -2   22.42    0.90
   0  -6   2   22.24    0.75
   0  -6   2   21.43    1.02
   0  -6   2   22.43    0.89
   0  -6   2   24.24    1.16
   0  -6   2   22.00    0.89
   0  -6   2   21.31    0.92
  -1   6  -2   26.50    1.25
  -1   6  -2   28.31    1.00
  -1   6  -2   28.35    1.11
  -1   6  -2   27.89    0.99
  -1   6  -2   27.21    0.97
  -1   6  -2   27.43    0.93
   1  -6   2   25.72    0.88
   1  -6   2   26.03    0.96
   1  -6   2   27.13    1.09
   1  -6   2   26.72    1.20
   1  -6   2   26.52    1.06
   1  -6   2   26.22    0.92
  -2   6  -2   25.50    0.94
  -2   6  -2   26.11    0.95
  -2   6  -2   26.47    1.11
  -2   6  -2   25.06    0.89
   2  -6   2   27.47    1.16
   2  -6   2   26.66    0.95
   2  -6   2   26.41    1.00
   2  -6   2   25.92    0.91
  -3   6  -2   14.22    0.62
  -3   6  -2   14.69    0.62
  -3   6  -2   13.97    0.79
   3  -6   2   12.31    0.77
   3  -6   2   12.97    0.60
   3  -6   2   14.00    0.58
   4  -6   2    4.25    0.19
   4  -6   2    4.52    0.22
  -5   6  -2    0.71    0.11
   5  -6   2    0.56    0.11
   5   5  -2    1.73    0.15
  -5  -5   2    1.91    0.15
  -5  -5   2    1.65    0.11
   4   5  -2    1.04    0.23
   4   5  -2    0.88    0.13
  -4  -5   2    1.14    0.18
  -4  -5   2    1.14    0.14
  -4  -5   2    0.92    0.09
   3   5  -2   24.39    1.03
   3   5  -2   24.60    0.95
  -3  -5   2   23.93    0.88
  -3  -5   2   23.36    1.06
   2   5  -2  114.67    3.66
   2   5  -2  107.12    3.58
   2   5  -2  106.78    3.52
   2   5  -2  114.26    3.94
  -2  -5   2  109.96    3.57
  -2  -5   2  106.36    3.41
  -2  -5   2  102.89    3.37
  -2  -5   2  105.16    3.81
   1   5  -2    2.31    0.37
   1   5  -2    2.59    0.23
   1   5  -2    2.62    0.29
   1   5  -2    2.63    0.21
   1   5  -2    2.72    0.23
   1   5  -2    2.57    0.33
  -1  -5   2    2.30    0.29
  -1  -5   2    2.62    0.32
  -1  -5   2    1.93    0.23
  -1  -5   2    2.12    0.24
  -1  -5   2    2.31    0.35
  -1  -5   2    2.15    0.24
   0   5  -2   52.78    1.85
   0   5  -2   54.74    1.93
   0   5  -2   54.34    1.97
   0   5  -2   57.54    2.04
   0   5  -2   51.43    1.79
   0  -5   2   50.06    1.74
   0  -5   2   51.81    1.75
   0  -5   2   50.65    1.88
   0  -5   2   52.94    1.97
   0  -5   2   51.63    1.87
   0  -5   2   50.43    1.78
  -1   5  -2   24.74    1.07
  -1   5  -2   23.37    1.08
  -1   5  -2   24.17    0.94
  -1   5  -2   23.65    0.86
   1  -5   2   22.96    0.93
   1  -5   2   24.68    1.07
   1  -5   2   23.63    1.18
   1  -5   2   24.80    0.97
  -2   5  -2   47.32    1.54
  -2   5  -2   44.00    1.49
  -2   5  -2   45.20    1.86
  -2   5  -2   44.96    1.54
  -2   5  -2   45.99    1.68
   2  -5   2   46.60    1.71
   2  -5   2   46.61    1.57
   2  -5   2   44.16    1.84
   2  -5   2   45.56    1.53
   2  -5   2   44.77    1.49
  -3   5  -2   36.57    1.49
  -3   5  -2   38.94    1.34
  -3   5  -2   39.15    1.53
  -3   5  -2   37.64    1.32
   3  -5   2   37.80    1.48
   3  -5   2   35.91    1.36
   3  -5   2   38.72    1.54
   3  -5   2   38.57    1.32
  -4   5  -2   13.49    0.59
   4  -5   2   12.56    0.44
   4  -5   2   12.38    0.63
   4  -5   2   13.28    0.48
   4  -5   2   12.34    0.48
  -5   5  -2    1.94    0.19
   5  -5   2    2.16    0.10
   5  -5   2    1.66    0.14
   5   4  -2    3.45    0.20
  -5  -4   2    3.07    0.19
   4   4  -2    5.47    0.24
  -4  -4   2    5.27    0.21
  -4  -4   2    5.29    0.26
  -4  -4   2    5.50    0.25
   3   4  -2   13.26    0.63
   3   4  -2   12.20    0.55
  -3  -4   2   13.67    0.69
  -3  -4   2   12.74    0.53
   2   4  -2    4.42    0.26
   2   4  -2    5.55    0.48
   2   4  -2    4.96    0.31
  -2  -4   2    4.91    0.35
  -2  -4   2    5.70    0.49
   1   4  -2  188.22    6.13
   1   4  -2  182.01    5.96
   1   4  -2  191.62    6.20
   1   4  -2  186.42    6.04
  -1  -4   2  184.56    6.02
  -1  -4   2  184.74    6.00
  -1  -4   2  185.50    5.84
  -1  -4   2  165.87    5.81
  -1  -4   2  193.31    5.92
  -1  -4   2  179.68    5.82
   0   4  -2   67.59    2.23
   0   4  -2   68.46    2.36
   0   4  -2   67.67    2.30
   0   4  -2   69.01    2.33
   0   4  -2   66.11    2.19
   0   4  -2   65.74    2.18
   0  -4   2   60.88    2.14
   0  -4   2   68.39    2.33
   0  -4   2   67.48    2.15
   0  -4   2   63.06    2.24
   0  -4   2   65.60    2.25
   0  -4   2   65.48    2.17
  -1   4  -2   82.89    2.90
  -1   4  -2   78.64    2.69
  -1   4  -2   81.28    2.71
  -1   4  -2   89.65    2.89
  -1   4  -2   82.41    2.74
  -1   4  -2   85.96    2.76
   1  -4   2   83.48    2.91
   1  -4   2   88.75    3.14
   1  -4   2   86.01    3.02
   1  -4   2   85.69    2.90
   1  -4   2   88.30    3.06
   1  -4   2   94.90    2.93
  -2   4  -2  198.97    6.38
  -2   4  -2  200.34    6.59
  -2   4  -2  201.15    6.41
  -2   4  -2  192.04    6.44
   2  -4   2  197.14    6.21
   2  -4   2  198.58    6.37
   2  -4   2  182.78    6.14
   2  -4   2  187.23    6.51
  -3   4  -2    1.40    0.27
  -3   4  -2    0.85    0.16
  -3   4  -2    1.21    0.16
  -3   4  -2    1.40    0.28
   3  -4   2    1.11    0.22
   3  -4   2    0.87    0.14
   3  -4   2    0.99    0.22
   3  -4   2    0.80    0.23
  -4   4  -2   16.62    0.90
  -4   4  -2   17.20    0.70
   4  -4   2   15.22    0.60
   4  -4   2   17.02    0.56
   4  -4   2   17.57    0.76
   4  -4   2   13.82    0.86
   4  -4   2   16.14    0.65
  -5   4  -2   13.59    0.50
  -5   4  -2   13.38    0.58
   5  -4   2   11.85    0.65
   5  -4   2   12.43    0.44
   5  -4   2   12.83    0.47
   5   3  -2   11.21    0.42
  -5  -3   2   11.15    0.42
  -5  -3   2   11.42    0.42
   3   3  -2   11.88    0.57
   3   3  -2   12.15    0.76
   3   3  -2   11.90    0.51
  -3  -3   2   11.10    0.59
  -3  -3   2   10.79    0.46
  -3  -3   2   12.44    0.78
   2   3  -2   53.10    1.97
   2   3  -2   50.88    1.77
   2   3  -2   52.92    1.97
  -2  -3   2   50.40    1.94
  -2  -3   2   51.50    1.81
  -2  -3   2   51.90    1.79
   1   3  -2   46.86    1.73
   1   3  -2   46.97    1.58
   1   3  -2   44.53    1.75
   1   3  -2   46.61    1.62
  -1  -3   2   44.45    1.67
  -1  -3   2   47.24    1.54
  -1  -3   2   43.58    1.62
  -1  -3   2   43.35    1.64
  -1  -3   2   45.56    1.51
  -1  -3   2   41.80    1.49
   0   3  -2   64.95    2.14
   0   3  -2   63.88    2.21
   0   3  -2   63.22    2.13
   0   3  -2   60.86    2.05
   0   3  -2   63.83    2.17
   0  -3   2   64.59    2.15
   0  -3   2   61.07    2.09
   0  -3   2   63.05    2.15
   0  -3   2   60.85    2.07
   0  -3   2   59.59    2.09
  -1   3  -2   89.01    2.94
  -1   3  -2   88.07    3.04
  -1   3  -2   89.04    3.11
  -1   3  -2   92.26    2.91
  -1   3  -2   89.87    2.94
   1  -3   2   88.07    2.88
   1  -3   2   89.65    3.07
   1  -3   2   85.79    2.84
   1  -3   2   86.26    2.87
   1  -3   2   85.89    2.96
   1  -3   2   91.88    3.05
   1  -3   2   87.58    2.96
  -2   3  -2   16.32    0.69
  -2   3  -2   15.16    0.72
  -2   3  -2   15.96    0.69
  -2   3  -2   17.00    0.81
   2  -3   2   17.54    0.95
   2  -3   2   15.93    0.67
   2  -3   2   15.55    0.70
   2  -3   2   16.22    0.80
  -3   3  -2   34.28    1.22
  -3   3  -2   35.22    1.37
  -3   3  -2   35.89    1.47
  -3   3  -2   36.21    1.23
  -3   3  -2   34.07    1.54
  -3   3  -2   37.10    1.40
   3  -3   2   33.56    1.49
   3  -3   2   33.58    1.23
   3  -3   2   34.59    1.32
   3  -3   2   33.97    1.18
   3  -3   2   34.51    1.35
  -4   3  -2    0.18    0.13
  -4   3  -2    0.16    0.20
   4  -3   2    0.39    0.21
   4  -3   2    0.28    0.23
  -5   3  -2   21.67    0.88
  -5   3  -2   23.86    0.79
   5  -3   2   22.67    0.94
   5  -3   2   22.51    0.79
   5  -3   2   24.20    0.81
   5   2  -2   12.26    0.45
  -5  -2   2   12.00    0.45
  -5  -2   2   12.24    0.41
  -5  -2   2   12.43    0.46
   4   2  -2   26.78    1.15
   4   2  -2   28.85    1.07
  -4  -2   2   28.66    1.01
  -4  -2   2   25.39    1.19
   3   2  -2    2.02    0.29
   3   2  -2    2.29    0.33
   3   2  -2    2.30    0.21
   3   2  -2    2.12    0.42
  -3  -2   2    2.59    0.31
  -3  -2   2    2.61    0.34
  -3  -2   2    2.27    0.20
  -3  -2   2    2.54    0.28
   2   2  -2    7.89    0.38
   2   2  -2    8.18    0.51
   2   2  -2    8.60    0.40
   2   2  -2    8.72    0.57
  -2  -2   2    7.82    0.40
  -2  -2   2    8.84    0.52
  -2  -2   2    8.41    0.45
  -2  -2   2    7.39    0.40
   1   2  -2   84.29    2.80
   1   2  -2   79.90    2.69
   1   2  -2   81.41    2.70
   1   2  -2   78.94    2.59
   1   2  -2   79.52    2.75
   1   2  -2   78.84    2.59
  -1  -2   2   75.21    2.61
  -1  -2   2   74.73    2.48
  -1  -2   2   75.94    2.46
  -1  -2   2   78.20    2.59
  -1  -2   2   75.43    2.46
  -1  -2   2   75.57    2.56
   0   2  -2  347.83   10.95
   0   2  -2  354.82   11.02
   0   2  -2  341.77   11.00
   0   2  -2  349.73   11.06
   0  -2   2  353.02   10.66
   0  -2   2  324.33   10.64
   0  -2   2  361.38   10.69
   0  -2   2  360.10   10.67
   0  -2   2  286.74   10.61
  -1   2  -2  754.45   23.91
  -1   2  -2  768.37   24.00
  -1   2  -2  746.28   23.99
  -1   2  -2  779.71   24.32
   1  -2   2  758.59   24.24
   1  -2   2  783.68   23.87
   1  -2   2  758.34   24.02
   1  -2   2  783.76   23.94
   1  -2   2  750.52   23.95
   1  -2   2  738.76   24.00
   1  -2   2  751.32   23.83
  -2   2  -2   95.22    3.25
  -2   2  -2   98.87    3.20
  -2   2  -2   94.71    3.32
  -2   2  -2   98.15    3.19
   2  -2   2   96.19    3.32
   2  -2   2   95.21    3.17
   2  -2   2   96.72    3.21
   2  -2   2   97.47    3.49
  -3   2  -2   11.74    0.68
  -3   2  -2   12.83    0.62
  -3   2  -2   12.35    0.74
  -3   2  -2   11.24    0.48
  -3   2  -2   11.20    0.61
  -3   2  -2   12.03    0.49
   3  -2   2   10.85    0.71
   3  -2   2   12.67    0.93
   3  -2   2   11.51    0.63
   3  -2   2   12.20    0.60
   3  -2   2   11.41    0.52
   3  -2   2   10.43    0.46
  -4   2  -2    1.35    0.20
  -4   2  -2    1.42    0.32
   4  -2   2    1.08    0.22
   4  -2   2    0.65    0.25
  -5   2  -2    4.58    0.32
  -5   2  -2    4.47    0.23
   5  -2   2    4.53    0.25
   5  -2   2    5.08    0.40
   5  -2   2    4.15    0.24
   5   1  -2   16.55    0.74
   5   1  -2   17.31    0.61
   5   1  -2   17.96    0.60
  -5  -1   2   17.53    0.61
  -5  -1   2   17.59    0.72
  -5  -1   2   17.61    0.63
   4   1  -2   17.69    0.87
   4   1  -2   18.84    0.78
  -4  -1   2   19.98    0.97
  -4  -1   2   18.38    0.76
   3   1  -2    0.46    0.16
   3   1  -2    0.58    0.30
   3   1  -2    0.48    0.14
  -3  -1   2    0.31    0.12
  -3  -1   2    0.08    0.15
  -3  -1   2    0.31    0.15
   2   1  -2    7.18    0.43
   2   1  -2    7.63    0.55
   2   1  -2    7.61    0.56
   2   1  -2    7.11    0.36
   2   1  -2    6.70    0.32
   2   1  -2    7.32    0.40
  -2  -1   2    7.52    0.43
  -2  -1   2    6.81    0.41
  -2  -1   2    6.77    0.34
  -2  -1   2    7.02    0.38
  -2  -1   2    6.49    0.32
  -2  -1   2    6.85    0.52
   1   1  -2  122.64    3.84
   1   1  -2  120.35    3.93
   1   1  -2  118.32    3.88
   1   1  -2  117.71    3.90
   1   1  -2  113.00    3.72
   1   1  -2  118.42    3.72
  -1  -1   2  113.17    3.85
  -1  -1   2  123.14    3.83
  -1  -1   2  120.39    3.91
  -1  -1   2  117.92    3.87
   0   1  -2   81.92    2.55
   0   1  -2   78.40    2.61
   0   1  -2   75.05    2.55
   0   1  -2   82.80    2.61
   0  -1   2   75.35    2.43
   0  -1   2   75.61    2.42
   0  -1   2   75.28    2.43
   0  -1   2   72.96    2.41
  -1   1  -2  272.23    9.00
  -1   1  -2  275.64    8.98
  -1   1  -2  296.01    8.97
  -1   1  -2  285.31    9.07
  -1   1  -2  287.13    8.99
   1  -1   2  306.05    9.27
   1  -1   2  281.32    9.30
   1  -1   2  287.03    9.25
   1  -1   2  288.26    9.33
  -2   1  -2    2.69    0.25
  -2   1  -2    2.56    0.23
  -2   1  -2    3.43    0.40
  -2   1  -2    2.97    0.30
  -2   1  -2    3.00    0.28
  -2   1  -2    2.71    0.20
  -2   1  -2    3.23    0.27
  -2   1  -2    3.28    0.25
  -2   1  -2    2.57    0.19
   2  -1   2    2.94    0.23
   2  -1   2    2.67    0.19
   2  -1   2    3.18    0.38
   2  -1   2    2.76    0.33
   2  -1   2    2.97    0.27
   2  -1   2    3.65    0.36
   2  -1   2    3.00    0.27
  -3   1  -2   13.14    0.65
  -3   1  -2   13.13    0.51
  -3   1  -2   12.85    0.71
  -3   1  -2   11.99    0.50
  -3   1  -2   12.06    0.73
  -3   1  -2   13.21    0.63
   3  -1   2   11.66    0.49
   3  -1   2   13.46    0.96
   3  -1   2   10.77    0.62
   3  -1   2   11.66    0.75
   3  -1   2   12.59    0.61
   3  -1   2   12.53    0.54
  -4   1  -2   15.71    0.65
  -4   1  -2   16.13    0.85
   4  -1   2   16.48    0.84
   4  -1   2   15.43    0.72
  -5   1  -2    1.44    0.24
  -5   1  -2    1.68    0.15
   5  -1   2    1.75    0.31
   5  -1   2    1.50    0.19
   5  -1   2    1.72    0.17
   5  -1   2    1.66    0.11
   5   0  -2   42.69    1.39
   5   0  -2   43.96    1.42
   5   0  -2   42.66    1.55
  -5   0   2   41.48    1.48
  -5   0   2   42.36    1.37
   4   0  -2    1.07    0.25
   4   0  -2    0.97    0.21
  -4   0   2    1.31    0.22
  -4   0   2    1.42    0.32
   3   0  -2   42.59    1.54
   3   0  -2   42.45    1.47
   3   0  -2   41.62    1.40
   3   0  -2   43.30    1.94
  -3   0   2   42.63    1.67
  -3   0   2   42.76    1.42
  -3   0   2   42.43    1.59
  -3   0   2   39.07    1.37
   2   0  -2   58.41    2.04
   2   0  -2   58.93    2.03
   2   0  -2   61.97    2.28
   2   0  -2   57.37    1.98
   2   0  -2   60.71    2.28
  -2   0   2   57.88    2.06
  -2   0   2   59.10    2.01
  -2   0   2   57.98    2.00
  -2   0   2   59.75    2.20
  -2   0   2   56.21    1.92
   1   0  -2   52.82    1.75
   1   0  -2   57.89    1.94
  -1   0   2   58.76    1.90
  -1   0   2   55.86    1.79
  -1   0   2   58.29    1.95
  -1   0   2   53.46    1.87
   0   0  -2   23.01    0.75
   0   0  -2   20.73    0.79
   0   0  -2   23.62    0.78
   0   0  -2   23.14    0.83
   0   0  -2   23.18    0.80
   0   0  -2   21.83    0.77
   0   0  -2   21.72    0.74
   0   0   2   23.57    0.80
   0   0   2   23.76    0.76
   0   0   2   22.08    0.75
  -1   0  -2  162.96    5.00
  -1   0  -2  152.72    5.08
  -1   0  -2  159.70    5.06
  -1   0  -2  159.99    5.05
  -1   0  -2  146.34    5.07
   1   0   2  160.69    5.22
   1   0   2  163.40    5.23
   1   0   2  160.63    5.28
  -2   0  -2   23.05    0.97
  -2   0  -2   21.53    0.84
  -2   0  -2   24.20    1.11
  -2   0  -2   21.78    0.86
  -2   0  -2   23.59    0.92
  -2   0  -2   23.16    0.96
  -2   0  -2   23.15    0.83
  -2   0  -2   22.85    0.88
  -2   0  -2   22.09    0.86
   2   0   2   22.79    0.85
   2   0   2   22.99    0.95
   2   0   2   22.77    1.11
   2   0   2   23.30    1.00
   2   0   2   21.93    0.89
   2   0   2   21.51    0.80
   2   0   2   23.53    1.04
  -3   0  -2   37.28    1.53
  -3   0  -2   37.32    1.48
  -3   0  -2   37.16    1.40
  -3   0  -2   34.91    1.23
  -3   0  -2   35.92    1.25
  -3   0  -2   36.12    1.21
  -3   0  -2   38.09    1.36
   3   0   2   34.97    1.54
   3   0   2   36.83    1.35
   3   0   2   35.96    1.27
   3   0   2   37.71    1.41
   3   0   2   37.45    1.77
   3   0   2   32.94    1.19
  -4   0  -2   21.03    0.80
  -4   0  -2   20.54    1.00
   4   0   2   20.16    0.98
   4   0   2   21.68    0.88
  -5   0  -2    0.39    0.08
  -5   0  -2    0.44    0.16
   5   0   2    0.08    0.16
   5   0   2    0.49    0.17
   5   0   2    0.28    0.10
   5   0   2    0.20    0.07
   5  -1  -2   25.83    0.84
   5  -1  -2   25.97    0.84
   5  -1  -2   26.02    0.88
   5  -1  -2   25.34    1.02
  -5   1   2   24.28    0.93
   4  -1  -2    7.53    0.45
   4  -1  -2    8.24    0.57
  -4   1   2    7.65    0.42
  -4   1   2    7.44    0.60
   3  -1  -2   11.96    0.59
   3  -1  -2   11.47    0.52
   3  -1  -2   12.27    0.46
   3  -1  -2   11.74    0.88
  -3   1   2   11.24    0.45
  -3   1   2   12.28    0.64
  -3   1   2   12.16    0.50
  -3   1   2   11.51    0.69
   2  -1  -2    0.25    0.16
   2  -1  -2    0.56    0.25
   2  -1  -2    0.27    0.11
   2  -1  -2    0.34    0.12
  -2   1   2    0.33    0.18
  -2   1   2    0.28    0.14
  -2   1   2    0.24    0.13
  -2   1   2    0.21    0.09
   1  -1  -2   74.77    2.53
   1  -1  -2   75.50    2.41
   1  -1  -2   73.97    2.43
   1  -1  -2   76.24    2.55
   1  -1  -2   75.17    2.58
  -1   1   2   74.04    2.42
  -1   1   2   77.60    2.49
  -1   1   2   77.86    2.44
  -1   1   2   69.24    2.50
  -1   1   2   78.00    2.53
   0  -1  -2  181.17    5.72
   0  -1  -2  173.86    5.70
   0  -1  -2  179.50    5.70
   0  -1  -2  180.00    5.69
   0  -1  -2  180.87    5.66
  -1  -1  -2   57.73    1.96
  -1  -1  -2   57.48    1.98
  -1  -1  -2   57.54    1.90
  -1  -1  -2   55.31    1.98
  -1  -1  -2   62.23    1.95
  -1  -1  -2   56.38    1.88
  -1  -1  -2   57.94    1.91
  -1  -1  -2   55.06    1.85
  -1  -1  -2   55.14    1.99
   1   1   2   57.50    1.96
   1   1   2   51.03    1.93
   1   1   2   58.87    1.94
   1   1   2   57.39    1.95
   1   1   2   57.22    1.99
  -2  -1  -2   57.42    1.94
  -2  -1  -2   57.28    1.98
  -2  -1  -2   57.99    2.08
  -2  -1  -2   57.16    1.94
  -2  -1  -2   56.59    1.93
  -2  -1  -2   55.68    2.19
  -2  -1  -2   57.36    1.95
  -2  -1  -2   56.20    2.05
   2   1   2   53.43    2.10
   2   1   2   55.36    1.88
   2   1   2   53.64    2.14
   2   1   2   57.42    2.07
   2   1   2   56.71    2.04
   2   1   2   57.70    1.85
  -3  -1  -2   72.30    2.41
  -3  -1  -2   75.24    2.54
  -3  -1  -2   72.81    2.70
  -3  -1  -2   77.76    2.39
  -3  -1  -2   71.01    2.45
  -3  -1  -2   70.13    2.39
  -3  -1  -2   72.26    2.74
  -3  -1  -2   77.67    2.53
  -3  -1  -2   77.51    2.58
  -3  -1  -2   73.49    2.41
  -3  -1  -2   71.10    2.40
  -3  -1  -2   77.02    2.65
   3   1   2   77.38    2.54
   3   1   2   71.30    2.45
   3   1   2   76.04    2.50
   3   1   2   75.23    2.38
   3   1   2   72.12    2.95
   3   1   2   69.59    2.72
   3   1   2   70.43    2.75
   3   1   2   76.96    2.62
   4   1   2   22.91    0.91
   4   1   2   21.44    1.00
  -5  -1  -2    0.95    0.11
   5   1   2    1.05    0.12
   5   1   2    1.57    0.15
   5  -2  -2    0.64    0.20
   5  -2  -2    0.72    0.10
   5  -2  -2    1.19    0.18
   5  -2  -2    0.95    0.14
  -5   2   2    0.59    0.16
   4  -2  -2    0.87    0.21
   4  -2  -2    0.62    0.24
  -4   2   2    0.52    0.25
  -4   2   2    0.49    0.16
   3  -2  -2   13.39    0.98
   3  -2  -2   13.80    0.60
   3  -2  -2   13.98    0.68
   3  -2  -2   13.86    0.73
   3  -2  -2   14.58    0.53
  -3   2   2   14.08    0.72
  -3   2   2   13.94    0.57
  -3   2   2   14.03    0.62
  -3   2   2   12.40    0.76
  -3   2   2   14.04    0.52
   2  -2  -2  183.47    5.77
   2  -2  -2  183.47    6.06
   2  -2  -2  165.44    6.04
   2  -2  -2  182.37    5.73
  -2   2   2  182.39    5.92
  -2   2   2  176.18    6.04
  -2   2   2  177.42    5.85
  -2   2   2  186.90    5.76
   1  -2  -2   41.74    1.56
   1  -2  -2   43.46    1.47
   1  -2  -2   43.71    1.39
   1  -2  -2   41.30    1.41
  -1   2   2   44.73    1.59
  -1   2   2   47.92    1.67
  -1   2   2   46.62    1.55
  -1   2   2   43.55    1.44
  -1   2   2   42.01    1.54
   0  -2  -2  172.46    5.64
   0  -2  -2  173.47    5.64
   0  -2  -2  173.94    5.58
   0  -2  -2  178.23    5.67
   0  -2  -2  180.37    5.57
   0  -2  -2  180.68    5.58
   0   2   2  168.01    5.31
   0   2   2  170.21    5.39
   0   2   2  166.90    5.32
  -1  -2  -2   21.75    0.87
  -1  -2  -2   20.66    0.76
  -1  -2  -2   21.14    0.73
  -1  -2  -2   19.60    0.76
  -1  -2  -2   20.50    0.87
  -1  -2  -2   20.47    0.75
  -1  -2  -2   21.88    0.79
  -1  -2  -2   20.63    0.76
  -1  -2  -2   20.38    0.83
   1   2   2   21.73    0.86
   1   2   2   20.72    0.88
   1   2   2   21.05    0.71
   1   2   2   21.60    0.88
  -2  -2  -2   25.86    0.95
  -2  -2  -2   23.71    0.98
  -2  -2  -2   26.49    0.97
  -2  -2  -2   25.00    1.10
  -2  -2  -2   25.76    1.19
  -2  -2  -2   25.60    1.06
  -2  -2  -2   23.79    0.93
  -2  -2  -2   24.78    0.96
  -2  -2  -2   24.49    0.97
   2   2   2   24.08    0.88
   2   2   2   26.08    1.16
   2   2   2   25.69    1.10
   2   2   2   25.45    1.15
   2   2   2   23.78    1.10
   2   2   2   24.37    0.91
   2   2   2   23.31    0.90
  -3  -2  -2   19.10    0.85
  -3  -2  -2   20.37    0.78
  -3  -2  -2   20.61    0.99
  -3  -2  -2   18.21    0.71
  -3  -2  -2   18.69    1.03
  -3  -2  -2   19.97    0.74
  -3  -2  -2   20.99    0.70
  -3  -2  -2   20.77    0.84
  -3  -2  -2   19.36    0.71
   3   2   2   17.74    0.98
   3   2   2   20.10    0.94
   3   2   2   20.56    0.82
   3   2   2   20.07    0.70
   3   2   2   17.39    1.09
   3   2   2   20.09    1.04
  -5  -2  -2    5.98    0.38
   5   2   2    5.50    0.23
   5  -3  -2   10.04    0.37
   5  -3  -2    9.75    0.52
   5  -3  -2   10.22    0.39
   5  -3  -2   10.10    0.40
  -5   3   2    9.91    0.47
   4  -3  -2    1.01    0.27
   4  -3  -2    0.79    0.22
  -4   3   2    0.90    0.27
  -4   3   2    0.93    0.19
   3  -3  -2   19.94    0.71
   3  -3  -2   20.54    0.95
   3  -3  -2   19.89    0.79
   3  -3  -2   20.71    0.88
   3  -3  -2   20.42    0.78
   3  -3  -2   18.65    0.75
  -3   3   2   19.52    0.80
  -3   3   2   20.47    0.92
  -3   3   2   18.59    0.74
  -3   3   2   19.82    0.71
   2  -3  -2   30.07    1.11
   2  -3  -2   30.83    1.15
   2  -3  -2   31.03    1.42
   2  -3  -2   30.41    1.38
  -2   3   2   30.97    1.09
  -2   3   2   31.54    1.24
  -2   3   2   30.69    1.18
  -2   3   2   31.16    1.36
   1  -3  -2   28.01    0.92
   1  -3  -2   25.60    0.92
   1  -3  -2   26.12    0.97
   1  -3  -2   27.53    1.08
   1  -3  -2   26.37    1.03
   1  -3  -2   27.42    1.08
  -1   3   2   27.77    1.05
  -1   3   2   26.70    1.05
  -1   3   2   25.73    0.95
  -1   3   2   26.50    0.96
  -1   3   2   27.95    1.00
  -1   3   2   26.16    0.89
   0  -3  -2    3.38    0.24
   0  -3  -2    3.31    0.22
   0  -3  -2    2.74    0.13
   0  -3  -2    3.32    0.24
   0  -3  -2    3.31    0.29
   0  -3  -2    3.18    0.21
   0  -3  -2    3.18    0.24
   0  -3  -2    3.30    0.22
   0   3   2    2.88    0.23
   0   3   2    3.17    0.21
   0   3   2    3.27    0.22
   0   3   2    3.43    0.18
   0   3   2    3.36    0.27
  -1  -3  -2   75.73    2.63
  -1  -3  -2   72.17    2.45
  -1  -3  -2   78.73    2.60
  -1  -3  -2   77.02    2.53
  -1  -3  -2   75.10    2.50
  -1  -3  -2   73.22    2.60
  -1  -3  -2   76.35    2.49
  -1  -3  -2   75.82    2.62
   1   3   2   72.99    2.51
   1   3   2   73.45    2.32
   1   3   2   72.16    2.39
   1   3   2   72.53    2.55
  -2  -3  -2   24.41    1.09
  -2  -3  -2   26.86    1.01
  -2  -3  -2   25.15    0.97
  -2  -3  -2   25.67    1.22
  -2  -3  -2   25.57    0.99
  -2  -3  -2   25.49    1.17
  -2  -3  -2   24.87    1.03
   2   3   2   22.97    1.13
   2   3   2   24.13    1.17
   2   3   2   25.76    0.90
   2   3   2   24.33    0.94
   2   3   2   26.03    1.15
  -3  -3  -2    0.96    0.15
  -3  -3  -2    0.65    0.14
  -3  -3  -2    1.38    0.25
  -3  -3  -2    0.99    0.23
  -3  -3  -2    0.68    0.19
  -3  -3  -2    1.08    0.14
  -3  -3  -2    0.75    0.13
   3   3   2    0.81    0.15
   3   3   2    0.84    0.20
   3   3   2    0.73    0.17
  -4  -3  -2   10.41    0.43
  -4  -3  -2   10.28    0.68
  -4  -3  -2   11.16    0.48
   4   3   2   10.84    0.54
   4   3   2   11.17    0.82
  -5  -3  -2   12.70    0.46
  -5  -3  -2   12.67    0.43
   5   3   2   13.32    0.46
   5  -4  -2    5.77    0.24
   5  -4  -2    5.46    0.25
   5  -4  -2    5.83    0.22
   5  -4  -2    5.61    0.25
   4  -4  -2    8.83    0.35
   4  -4  -2    8.29    0.37
   4  -4  -2    8.72    0.34
   4  -4  -2    7.96    0.33
   4  -4  -2    9.83    0.51
  -4   4   2    9.13    0.46
   3  -4  -2    7.16    0.53
   3  -4  -2    7.11    0.40
   3  -4  -2    7.32    0.32
   3  -4  -2    7.11    0.48
   3  -4  -2    6.75    0.37
   3  -4  -2    7.37    0.40
  -3   4   2    6.72    0.32
  -3   4   2    6.58    0.35
  -3   4   2    6.60    0.50
  -3   4   2    6.95    0.41
   2  -4  -2    6.29    0.25
   2  -4  -2    5.74    0.30
   2  -4  -2    5.57    0.38
   2  -4  -2    5.88    0.57
   2  -4  -2    5.69    0.31
  -2   4   2    6.05    0.32
  -2   4   2    5.99    0.50
  -2   4   2    5.53    0.49
  -2   4   2    5.94    0.26
   1  -4  -2    9.03    0.52
   1  -4  -2    9.70    0.56
   1  -4  -2    8.08    0.43
   1  -4  -2    8.75    0.39
  -1   4   2    9.18    0.54
  -1   4   2    8.48    0.43
  -1   4   2    9.67    0.52
  -1   4   2    8.91    0.36
   0  -4  -2   65.96    2.34
   0  -4  -2   69.69    2.28
   0  -4  -2   68.93    2.22
   0  -4  -2   68.40    2.41
   0  -4  -2   69.01    2.32
   0  -4  -2   68.70    2.35
   0   4   2   70.52    2.43
   0   4   2   68.49    2.37
   0   4   2   68.75    2.21
  -1  -4  -2   15.40    0.64
  -1  -4  -2   14.99    0.77
  -1  -4  -2   15.76    0.69
  -1  -4  -2   17.53    0.78
  -1  -4  -2   15.09    0.61
  -1  -4  -2   14.44    0.64
  -1  -4  -2   15.71    0.78
   1   4   2   16.01    0.75
   1   4   2   14.15    0.60
   1   4   2   14.68    0.75
  -2  -4  -2    3.11    0.40
  -2  -4  -2    2.97    0.37
  -2  -4  -2    2.47    0.19
  -2  -4  -2    2.74    0.28
  -2  -4  -2    2.85    0.22
  -2  -4  -2    2.78    0.32
  -2  -4  -2    2.54    0.26
  -2  -4  -2    2.76    0.19
  -2  -4  -2    2.13    0.21
  -2  -4  -2    2.98    0.29
  -2  -4  -2    2.78    0.41
  -2  -4  -2    2.36    0.15
   2   4   2    2.31    0.25
   2   4   2    2.75    0.23
   2   4   2    3.15    0.40
   2   4   2    2.46    0.39
   2   4   2    2.46    0.37
  -3  -4  -2   10.17    0.69
  -3  -4  -2   11.70    0.49
  -3  -4  -2   12.33    0.51
  -3  -4  -2   12.49    0.48
  -3  -4  -2   12.31    0.63
  -3  -4  -2   13.03    0.69
  -3  -4  -2   11.48    0.67
  -3  -4  -2   12.57    0.53
   3   4   2   12.66    0.50
   3   4   2   12.71    0.65
   3   4   2   12.38    0.57
  -4  -4  -2    7.80    0.40
  -4  -4  -2    8.19    0.32
  -4  -4  -2    7.77    0.33
  -4  -4  -2    7.77    0.36
   4   4   2    8.18    0.47
  -5  -4  -2    7.48    0.26
  -5  -4  -2    7.38    0.30
   5   4   2    8.24    0.30
   5  -5  -2    1.70    0.11
   5  -5  -2    1.83    0.13
   5  -5  -2    1.68    0.12
   5  -5  -2    1.74    0.13
   4  -5  -2   17.87    0.63
   4  -5  -2   17.97    0.61
   4  -5  -2   16.88    0.61
   3  -5  -2   16.18    0.86
   3  -5  -2   16.11    0.69
   3  -5  -2   15.60    0.66
   3  -5  -2   15.55    0.60
  -3   5   2   16.64    0.62
  -3   5   2   15.32    0.72
   2  -5  -2   20.00    1.19
   2  -5  -2   18.63    0.80
   2  -5  -2   21.18    0.79
   2  -5  -2   22.05    0.92
   2  -5  -2   21.62    0.72
  -2   5   2   20.91    1.07
  -2   5   2   21.00    0.74
  -2   5   2   21.24    0.81
   1  -5  -2    1.60    0.24
   1  -5  -2    1.60    0.29
   1  -5  -2    1.85    0.20
   1  -5  -2    1.61    0.18
   1  -5  -2    1.77    0.18
   1  -5  -2    1.89    0.30
  -1   5   2    1.83    0.24
  -1   5   2    1.79    0.27
  -1   5   2    2.05    0.17
  -1   5   2    1.65    0.30
   0  -5  -2    6.11    0.40
   0  -5  -2    5.57    0.35
   0  -5  -2    5.43    0.30
   0  -5  -2    6.01    0.47
   0  -5  -2    5.56    0.42
   0   5   2    5.14    0.43
   0   5   2    5.52    0.26
   0   5   2    5.87    0.40
  -1  -5  -2   67.77    2.55
  -1  -5  -2   65.09    2.54
  -1  -5  -2   69.90    2.36
  -1  -5  -2   67.63    2.36
  -1  -5  -2   72.37    2.33
  -1  -5  -2   73.05    2.43
  -1  -5  -2   70.32    2.26
  -1  -5  -2   68.19    2.24
  -1  -5  -2   67.05    2.52
   1   5   2   67.71    2.53
   1   5   2   68.15    2.51
   1   5   2   73.29    2.33
   1   5   2   65.65    2.50
  -2  -5  -2   17.41    1.04
  -2  -5  -2   14.63    0.53
  -2  -5  -2   14.18    0.57
  -2  -5  -2   14.51    0.69
  -2  -5  -2   14.45    0.76
  -2  -5  -2   14.39    0.59
  -2  -5  -2   14.25    0.56
  -2  -5  -2   15.40    0.73
  -2  -5  -2   14.53    0.69
   2   5   2   15.70    0.54
   2   5   2   13.94    0.62
   2   5   2   14.35    0.93
   2   5   2   14.85    0.68
  -3  -5  -2    6.82    0.35
  -3  -5  -2    5.43    0.57
  -3  -5  -2    6.86    0.52
  -3  -5  -2    7.02    0.32
  -3  -5  -2    7.03    0.39
  -3  -5  -2    6.79    0.36
  -3  -5  -2    6.75    0.49
  -3  -5  -2    6.91    0.53
   3   5   2    6.53    0.45
   3   5   2    7.57    0.35
   3   5   2    7.46    0.43
   3   5   2    6.95    0.49
  -4  -5  -2    9.58    0.42
  -4  -5  -2    9.52    0.39
  -4  -5  -2   10.47    0.48
  -4  -5  -2   10.79    0.39
  -4  -5  -2   10.19    0.38
   4   5   2   10.06    0.54
  -5  -5  -2    1.80    0.13
  -5  -5  -2    1.75    0.10
   5   5   2    1.81    0.12
   5  -6  -2    6.56    0.23
   5  -6  -2    6.69    0.23
   4  -6  -2    4.34    0.48
   4  -6  -2    3.77    0.19
   4  -6  -2    3.86    0.21
   4  -6  -2    3.81    0.19
   4  -6  -2    4.03    0.20
   3  -6  -2   16.70    0.62
   3  -6  -2   16.26    0.72
   3  -6  -2   16.05    0.69
   3  -6  -2   15.41    0.88
  -3   6   2   17.08    0.77
  -3   6   2   17.04    0.65
   2  -6  -2    4.78    0.24
   2  -6  -2    5.29    0.35
   2  -6  -2    5.00    0.32
  -2   6   2    5.05    0.34
  -2   6   2    5.45    0.27
   1  -6  -2   70.83    2.76
   1  -6  -2   74.73    2.46
   1  -6  -2   71.40    2.38
   1  -6  -2   73.41    2.41
   1  -6  -2   72.19    2.30
   1  -6  -2   72.16    2.53
   1  -6  -2   69.27    2.35
   1  -6  -2   72.15    2.71
   1  -6  -2   72.09    2.35
  -1   6   2   69.48    2.71
  -1   6   2   74.29    2.54
  -1   6   2   75.26    2.40
  -1   6   2   71.98    2.33
  -1   6   2   71.64    2.65
   0  -6  -2    0.63    0.25
   0  -6  -2    0.49    0.11
   0  -6  -2    0.35    0.18
   0  -6  -2    0.50    0.13
   0  -6  -2    0.54    0.12
   0  -6  -2    0.42    0.18
   0   6   2    0.49    0.27
   0   6   2    0.83    0.21
   0   6   2    0.55    0.20
   0   6   2    0.46    0.10
  -1  -6  -2    0.84    0.32
  -1  -6  -2    0.56    0.10
  -1  -6  -2    0.69    0.15
  -1  -6  -2    0.35    0.11
  -1  -6  -2    0.50    0.14
  -1  -6  -2    0.73    0.17
  -1  -6  -2    0.63    0.18
  -1  -6  -2    0.31    0.23
  -1  -6  -2    0.56    0.22
   1   6   2    0.42    0.10
   1   6   2    0.53    0.24
   1   6   2    0.67    0.11
   1   6   2    0.19    0.29
   1   6   2    0.50    0.24
   1   6   2    0.32    0.14
  -2  -6  -2   26.89    0.92
  -2  -6  -2   26.80    1.20
  -2  -6  -2   25.70    0.98
  -2  -6  -2   27.41    0.96
  -2  -6  -2   28.08    1.16
  -2  -6  -2   27.15    0.96
  -2  -6  -2   26.39    1.11
  -2  -6  -2   25.14    1.09
   2   6   2   25.56    1.08
   2   6   2   26.60    1.03
   2   6   2   27.14    1.02
   2   6   2   27.54    0.93
  -3  -6  -2   21.52    0.80
  -3  -6  -2   20.58    1.00
  -3  -6  -2   20.51    0.77
  -3  -6  -2   20.45    0.74
  -3  -6  -2   18.57    0.80
   3   6   2   21.78    0.98
   3   6   2   21.13    0.78
   3   6   2   20.75    0.88
  -4  -6  -2    0.61    0.11
  -4  -6  -2    0.96    0.14
  -4  -6  -2    0.89    0.14
  -4  -6  -2    1.09    0.19
  -4  -6  -2    0.91    0.12
   4   6   2    1.04    0.24
  -5  -6  -2    5.25    0.19
   5   6   2    5.63    0.21
   5   6   2    5.65    0.23
   4  -7  -2    5.52    0.23
   4  -7  -2    5.43    0.23
   4  -7  -2    5.23    0.23
   4  -7  -2    5.13    0.24
   4  -7  -2    5.57    0.23
  -4   7   2    4.79    0.53
   3  -7  -2   10.90    0.42
   3  -7  -2   11.09    0.58
   3  -7  -2   10.88    0.42
   3  -7  -2   11.33    0.42
   3  -7  -2   11.67    0.39
   3  -7  -2   11.12    0.48
   3  -7  -2   11.09    0.40
   3  -7  -2   11.77    0.43
  -3   7   2   11.66    0.50
   2  -7  -2   11.09    0.56
   2  -7  -2   11.73    0.55
   2  -7  -2   11.24    0.45
   2  -7  -2   10.33    0.66
  -2   7   2   10.88    0.45
  -2   7   2   10.95    0.54
   1  -7  -2   28.97    1.20
   1  -7  -2   26.24    1.03
   1  -7  -2   26.35    0.98
   1  -7  -2   26.44    0.91
   1  -7  -2   28.18    1.11
  -1   7   2   25.20    1.11
  -1   7   2   23.97    0.87
  -1   7   2   27.45    0.96
   0  -7  -2   25.81    1.02
   0  -7  -2   25.45    0.92
   0  -7  -2   25.17    1.13
   0  -7  -2   25.95    0.93
   0  -7  -2   25.05    0.86
   0   7   2   26.09    1.10
   0   7   2   25.20    0.87
   0   7   2   25.28    0.93
  -1  -7  -2   15.97    0.63
  -1  -7  -2   16.14    0.74
  -1  -7  -2   16.33    0.65
  -1  -7  -2   16.54    0.86
  -1  -7  -2   15.03    0.57
   1   7   2   16.90    0.67
   1   7   2   15.74    0.59
  -2  -7  -2   58.62    1.96
  -2  -7  -2   59.91    1.96
  -2  -7  -2   58.31    2.15
  -2  -7  -2   61.50    1.92
  -2  -7  -2   55.52    2.13
  -2  -7  -2   57.23    2.17
  -2  -7  -2   57.01    1.99
   2   7   2   57.47    2.02
   2   7   2   57.84    2.00
  -3  -7  -2   14.64    0.50
  -3  -7  -2   11.16    0.67
  -3  -7  -2   14.39    0.61
  -3  -7  -2   13.90    0.48
  -3  -7  -2   13.08    0.53
  -3  -7  -2   13.73    0.46
  -3  -7  -2   13.36    0.54
  -3  -7  -2   14.37    0.60
  -3  -7  -2   13.99    0.49
   3   7   2   14.70    0.68
   3   7   2   14.17    0.58
  -4  -7  -2   11.05    0.43
  -4  -7  -2   12.28    0.47
  -4  -7  -2   11.90    0.42
  -4  -7  -2   14.40    0.64
  -4  -7  -2   12.32    0.42
  -4  -7  -2   10.90    0.48
   4  -8  -2    5.80    0.23
   4  -8  -2    5.31    0.22
   4  -8  -2    5.73    0.24
   4  -8  -2    5.48    0.23
   3  -8  -2    1.15    0.13
   3  -8  -2    1.00    0.13
   3  -8  -2    1.04    0.14
   3  -8  -2    0.83    0.21
   3  -8  -2    0.61    0.08
   3  -8  -2    0.86    0.15
   3  -8  -2    1.04    0.09
   3  -8  -2    1.12    0.11
  -3   8   2    1.08    0.15
  -3   8   2    0.92    0.22
   2  -8  -2    1.79    0.16
   2  -8  -2    2.08    0.15
   2  -8  -2    1.73    0.15
   2  -8  -2    2.20    0.19
   2  -8  -2    1.90    0.15
   2  -8  -2    1.74    0.11
   2  -8  -2    2.01    0.28
   2  -8  -2    1.80    0.12
  -2   8   2    1.88    0.21
  -2   8   2    2.20    0.30
  -2   8   2    1.86    0.36
   1  -8  -2    1.01    0.18
   1  -8  -2    1.28    0.31
   1  -8  -2    1.38    0.26
   1  -8  -2    1.10    0.15
   1  -8  -2    1.24    0.24
  -1   8   2    1.16    0.18
  -1   8   2    1.07    0.28
  -1   8   2    1.54    0.23
  -1   8   2    1.50    0.24
  -1   8   2    1.19    0.20
   0  -8  -2    6.56    0.37
   0  -8  -2    5.97    0.28
   0  -8  -2    5.67    0.55
   0  -8  -2    6.14    0.45
   0  -8  -2    5.97    0.36
   0   8   2    5.71    0.36
   0   8   2    6.06    0.53
   0   8   2    6.08    0.29
  -1  -8  -2   10.95    0.51
  -1  -8  -2    9.70    0.70
  -1  -8  -2   11.23    0.50
  -1  -8  -2   10.73    0.43
  -1  -8  -2   10.87    0.63
   1   8   2   11.41    0.54
   1   8   2   10.96    0.44
   1   8   2   10.79    0.69
  -2  -8  -2    5.24    0.34
  -2  -8  -2    5.79    0.26
  -2  -8  -2    6.23    0.30
  -2  -8  -2    5.82    0.23
  -2  -8  -2    5.46    0.23
  -2  -8  -2    5.82    0.28
  -2  -8  -2    5.15    0.23
  -2  -8  -2    5.20    0.37
  -2  -8  -2    5.35    0.21
  -2  -8  -2    5.61    0.35
   2   8   2    5.24    0.36
  -3  -8  -2   10.78    0.43
  -3  -8  -2   10.02    0.40
  -3  -8  -2   10.77    0.36
  -3  -8  -2   10.37    0.37
  -3  -8  -2   10.88    0.49
  -3  -8  -2   11.15    0.38
  -3  -8  -2   10.50    0.44
   3   8   2   10.08    0.45
   3   8   2   10.75    0.54
  -4  -8  -2    2.06    0.12
  -4  -8  -2    1.69    0.12
  -4  -8  -2    1.43    0.12
   4  -9  -2    2.44    0.12
   4  -9  -2    2.47    0.13
   4  -9  -2    2.51    0.13
   3  -9  -2   15.79    0.54
   3  -9  -2   15.93    0.55
   3  -9  -2   15.55    0.54
   3  -9  -2   15.32    0.53
   3  -9  -2   14.82    0.52
  -3   9   2   16.85    0.80
   2  -9  -2   27.26    0.88
   2  -9  -2   27.42    1.09
   2  -9  -2   26.95    0.92
   2  -9  -2   27.68    0.91
   2  -9  -2   27.19    0.96
   2  -9  -2   27.27    0.92
  -2   9   2   29.03    1.01
  -2   9   2   27.74    1.09
   1  -9  -2   12.88    0.45
   1  -9  -2   12.77    0.48
   1  -9  -2   12.80    0.47
   1  -9  -2   12.93    0.44
   1  -9  -2   13.38    0.63
   1  -9  -2   13.41    0.59
   1  -9  -2   11.90    0.49
   1  -9  -2   13.10    0.51
   1  -9  -2   13.07    0.43
  -1   9   2   12.84    0.59
  -1   9   2   13.12    0.61
  -1   9   2   12.84    0.52
   0  -9  -2    3.98    0.24
   0  -9  -2    3.99    0.23
   0  -9  -2    4.46    0.18
   0  -9  -2    3.84    0.21
   0  -9  -2    3.94    0.19
   0  -9  -2    4.32    0.33
   0  -9  -2    4.03    0.32
   0  -9  -2    3.96    0.16
   0   9   2    4.48    0.26
  -1  -9  -2   11.53    0.39
  -1  -9  -2   10.43    0.37
  -1  -9  -2   11.34    0.53
  -1  -9  -2   10.11    0.41
  -1  -9  -2   11.20    0.38
  -1  -9  -2   10.67    0.52
  -1  -9  -2   10.93    0.44
  -1  -9  -2   11.40    0.45
   1   9   2   11.04    0.45
  -2  -9  -2    5.47    0.38
  -2  -9  -2    6.15    0.27
  -2  -9  -2    7.02    0.30
  -2  -9  -2    6.30    0.39
  -2  -9  -2    6.65    0.26
  -2  -9  -2    6.06    0.24
  -2  -9  -2    6.13    0.23
  -2  -9  -2    6.40    0.32
   2   9   2    6.56    0.33
  -3  -9  -2    1.25    0.12
  -3  -9  -2    1.38    0.11
  -3  -9  -2    1.30    0.08
  -3  -9  -2    1.07    0.12
  -3  -9  -2    1.30    0.14
   3 -10  -2    8.77    0.31
   3 -10  -2   10.02    0.35
   3 -10  -2    9.44    0.34
   3 -10  -2    9.51    0.33
   3 -10  -2    9.72    0.34
   3 -10  -2    9.30    0.34
   2 -10  -2    4.28    0.19
   2 -10  -2    4.59    0.48
   2 -10  -2    4.35    0.23
   2 -10  -2    4.72    0.22
   2 -10  -2    4.61    0.18
   2 -10  -2    4.67    0.20
   2 -10  -2    4.41    0.22
   2 -10  -2    4.71    0.30
  -2  10   2    4.69    0.32
  -2  10   2    4.46    0.25
   1 -10  -2   11.34    0.46
   1 -10  -2   10.74    0.52
   1 -10  -2   11.36    0.42
   1 -10  -2   11.22    0.37
   1 -10  -2   11.07    0.39
   1 -10  -2   10.57    0.43
   1 -10  -2   10.54    0.46
  -1  10   2   11.26    0.46
  -1  10   2   10.68    0.52
   0 -10  -2   29.72    0.95
   0 -10  -2   28.80    0.98
   0 -10  -2   28.58    1.08
   0 -10  -2   30.10    1.00
   0 -10  -2   29.57    1.01
   0 -10  -2   29.22    0.96
   0 -10  -2   29.06    0.94
   0  10   2   30.58    1.05
   0  10   2   30.05    1.13
  -1 -10  -2    5.16    0.27
  -1 -10  -2    5.43    0.24
  -1 -10  -2    5.18    0.36
  -1 -10  -2    4.95    0.21
  -1 -10  -2    5.19    0.22
  -1 -10  -2    4.90    0.19
  -1 -10  -2    4.64    0.35
  -1 -10  -2    4.81    0.26
   1  10   2    4.92    0.27
  -2 -10  -2    3.49    0.21
  -2 -10  -2    3.70    0.16
  -2 -10  -2    3.48    0.17
  -2 -10  -2    3.81    0.15
  -2 -10  -2    3.23    0.19
   2  10   2    4.09    0.31
  -3 -10  -2    0.10    0.05
  -3 -10  -2    0.10    0.05
  -3 -10  -2    0.21    0.07
  -3 -10  -2    0.09    0.04
   3  10   2    0.23    0.07
   2 -11  -2    5.11    0.20
   2 -11  -2    5.29    0.21
   2 -11  -2    5.43    0.22
   2 -11  -2    5.44    0.21
   2 -11  -2    5.14    0.21
   2 -11  -2    5.01    0.19
   1 -11  -2   12.27    0.46
   1 -11  -2   12.25    0.42
   1 -11  -2   12.79    0.45
   1 -11  -2   12.49    0.42
   1 -11  -2   12.60    0.43
   0 -11  -2    5.21    0.19
   0 -11  -2    5.14    0.21
   0 -11  -2    5.07    0.25
   0 -11  -2    5.17    0.23
   0 -11  -2    5.09    0.20
  -1 -11  -2    1.94    0.10
  -1 -11  -2    2.02    0.11
  -1 -11  -2    2.19    0.15
  -1 -11  -2    1.87    0.16
  -1 -11  -2    1.98    0.12
  -2 -11  -2    1.02    0.11
  -2 -11  -2    0.93    0.06
  -2 -11  -2    1.04    0.09
  -2 -11  -2    0.84    0.10
  -2 -11  -2    0.82    0.07
   1 -12  -2   15.03    0.49
   1 -12  -2   15.58    0.49
   1 -12  -2   15.01    0.51
   1 -12  -2   14.85    0.51
   1 -12  -2   14.62    0.49
   1 -12  -2   15.09    0.50
   0 -12  -2    6.69    0.24
   0 -12  -2    6.57    0.23
   0 -12  -2    7.09    0.27
   0 -12  -2    6.83    0.25
   0 -12  -2    6.78    0.26
   0 -12  -2    7.04    0.24
  -1 -12  -2    1.00    0.10
  -1 -12  -2    0.93    0.05
  -1 -12  -2    0.72    0.07
  -1 -12  -2    0.93    0.07
  -1 -12  -2    0.91    0.08
  -1 -12  -2    0.99    0.09
   0 -13   3    3.33    0.15
  -2 -12   3    1.12    0.10
  -1 -12   3    4.93    0.23
  -1 -12   3    5.11    0.20
   0 -12   3   14.26    0.48
   0 -12   3   14.05    0.50
   0 -12   3   14.17    0.51
   1 -12   3    0.83    0.12
   1 -12   3    0.59    0.09
   1 -12   3    0.74    0.09
  -2  12  -3    5.46    0.24
   2 -12   3    4.58    0.19
   2 -12   3    5.01    0.21
   2 -12   3    5.18    0.20
   3  11  -3    4.63    0.20
  -3 -11   3    4.18    0.18
  -3 -11   3    4.77    0.19
  -2 -11   3   12.55    0.44
  -2 -11   3   12.65    0.43
  -2 -11   3   12.64    0.46
  -1 -11   3    6.31    0.29
  -1 -11   3    6.43    0.26
   0  11  -3    7.24    0.41
   0 -11   3    7.00    0.33
   0 -11   3    7.46    0.32
   0 -11   3    7.07    0.41
   0 -11   3    7.33    0.28
   0 -11   3    6.53    0.30
  -1  11  -3    0.80    0.17
  -1  11  -3    1.19    0.21
   1 -11   3    0.80    0.19
   1 -11   3    0.75    0.12
   1 -11   3    0.98    0.22
   1 -11   3    0.82    0.13
   1 -11   3    0.64    0.12
   1 -11   3    0.55    0.10
  -2  11  -3    1.61    0.16
   2 -11   3    1.40    0.17
   2 -11   3    1.51    0.15
   2 -11   3    1.75    0.12
  -3  11  -3    2.47    0.15
   3 -11   3    2.58    0.15
   3 -11   3    2.37    0.14
   3  10  -3    4.01    0.21
  -3 -10   3    3.26    0.14
  -3 -10   3    3.34    0.20
  -3 -10   3    3.41    0.18
   2  10  -3    1.90    0.25
   2  10  -3    1.87    0.16
  -2 -10   3    1.82    0.15
  -2 -10   3    1.92    0.13
  -2 -10   3    1.93    0.24
  -2 -10   3    1.97    0.19
  -1 -10   3   24.38    0.79
  -1 -10   3   22.76    0.81
   0  10  -3    3.43    0.31
   0  10  -3    3.35    0.30
   0 -10   3    2.89    0.23
   0 -10   3    2.79    0.18
   0 -10   3    2.67    0.31
   0 -10   3    2.95    0.20
   0 -10   3    3.36    0.31
   0 -10   3    2.87    0.19
  -1  10  -3   12.76    0.61
  -1  10  -3   12.52    0.59
   1 -10   3   12.00    0.56
   1 -10   3   12.19    0.47
   1 -10   3   12.15    0.48
   1 -10   3   11.78    0.43
   1 -10   3   11.58    0.62
  -2  10  -3    0.25    0.18
  -2  10  -3    0.25    0.15
  -2  10  -3    0.25    0.11
   2 -10   3    0.17    0.20
   2 -10   3    0.29    0.16
   2 -10   3    0.28    0.10
   2 -10   3    0.38    0.12
   2 -10   3    0.22    0.07
  -3  10  -3    1.20    0.16
   3 -10   3    1.21    0.19
   3 -10   3    1.08    0.12
   3 -10   3    1.21    0.10
   4   9  -3    4.32    0.21
   4   9  -3    4.98    0.22
  -4  -9   3    4.66    0.20
  -4  -9   3    4.66    0.22
   3   9  -3   13.35    0.62
   3   9  -3   13.26    0.50
  -3  -9   3   12.52    0.43
  -3  -9   3   12.89    0.46
  -3  -9   3   12.63    0.55
   2   9  -3   17.37    0.63
   2   9  -3   17.10    0.74
  -2  -9   3   17.24    0.69
  -2  -9   3   16.77    0.57
  -2  -9   3   17.12    0.58
  -2  -9   3   16.92    0.60
   0   9  -3   25.85    0.99
   0   9  -3   26.44    0.97
   0   9  -3   24.88    1.15
   0  -9   3   24.62    0.94
   0  -9   3   25.49    1.17
   0  -9   3   25.57    1.00
  -1   9  -3    3.41    0.30
  -1   9  -3    4.01    0.32
  -1   9  -3    3.62    0.45
   1  -9   3    3.31    0.32
   1  -9   3    3.60    0.47
   1  -9   3    3.29    0.29
  -2   9  -3   10.19    0.50
  -2   9  -3    8.66    0.48
   2  -9   3    9.22    0.35
   2  -9   3    9.47    0.53
   2  -9   3    8.64    0.37
   2  -9   3    8.94    0.33
   2  -9   3    9.43    0.47
  -3   9  -3    0.39    0.10
  -3   9  -3    0.33    0.14
  -3   9  -3    0.56    0.17
   3  -9   3    0.24    0.18
   3  -9   3    0.17    0.08
   3  -9   3    0.28    0.07
   3  -9   3    0.44    0.16
   3  -9   3    0.28    0.12
  -4   9  -3    1.56    0.14
   4  -9   3    1.21    0.16
   4   8  -3    0.84    0.13
  -4  -8   3    1.07    0.13
  -4  -8   3    0.62    0.11
   3   8  -3    0.97    0.15
   3   8  -3    1.33    0.26
  -3  -8   3    0.91    0.13
  -3  -8   3    0.71    0.10
  -3  -8   3    0.91    0.17
  -3  -8   3    0.66    0.12
   2   8  -3   11.90    0.67
   2   8  -3   13.15    0.61
  -2  -8   3   12.11    0.53
  -2  -8   3   11.08    0.70
   1   8  -3   14.94    0.71
   1   8  -3   15.59    0.64
  -1  -8   3   15.32    0.59
  -1  -8   3   13.32    0.73
   0   8  -3    8.40    0.36
   0   8  -3    8.67    0.42
   0   8  -3    8.92    0.57
   0   8  -3    8.13    0.42
   0  -8   3    9.18    0.57
   0  -8   3    8.52    0.44
   0  -8   3    7.84    0.40
   0  -8   3    8.55    0.35
  -1   8  -3   25.36    0.96
  -1   8  -3   24.70    1.14
  -1   8  -3   26.97    0.98
   1  -8   3   24.09    1.12
   1  -8   3   25.25    0.92
   1  -8   3   24.58    0.98
  -2   8  -3    0.19    0.16
  -2   8  -3    0.17    0.12
  -2   8  -3   -0.02    0.19
   2  -8   3    0.14    0.16
   2  -8   3   -0.18    0.23
   2  -8   3   -0.02    0.12
  -3   8  -3    7.22    0.31
  -3   8  -3    6.60    0.41
  -3   8  -3    6.68    0.40
   3  -8   3    6.26    0.40
   3  -8   3    6.69    0.44
   3  -8   3    6.50    0.29
   3  -8   3    6.61    0.26
   3  -8   3    6.52    0.27
  -4   8  -3   11.81    0.44
   5   7  -3    6.87    0.26
   5   7  -3    6.61    0.25
  -5  -7   3    6.95    0.26
   4   7  -3    9.19    0.48
   4   7  -3    8.81    0.37
  -4  -7   3    7.99    0.34
  -4  -7   3    8.70    0.42
  -4  -7   3    8.36    0.31
   3   7  -3    9.88    0.42
   3   7  -3   10.88    0.54
  -3  -7   3    9.24    0.37
  -3  -7   3    9.22    0.36
  -3  -7   3    8.75    0.33
  -3  -7   3    8.89    0.65
  -3  -7   3    9.44    0.46
   2   7  -3    9.14    0.46
   2   7  -3    8.71    0.53
  -2  -7   3    9.27    0.43
  -2  -7   3    8.85    0.58
   1   7  -3    4.56    0.31
   1   7  -3    4.89    0.30
   1   7  -3    5.49    0.36
  -1  -7   3    3.34    0.51
  -1  -7   3    4.92    0.39
  -1  -7   3    4.32    0.26
  -1  -7   3    5.53    0.54
   0   7  -3   46.78    1.97
   0   7  -3   50.72    1.66
   0   7  -3   50.77    1.69
   0   7  -3   47.88    1.62
   0   7  -3   51.32    1.82
   0  -7   3   50.12    1.99
   0  -7   3   48.44    1.61
   0  -7   3   47.65    1.65
   0  -7   3   51.57    1.71
   0  -7   3   49.68    1.83
  -1   7  -3   43.75    1.54
  -1   7  -3   47.96    1.60
  -1   7  -3   49.26    1.78
  -1   7  -3   47.81    1.62
   1  -7   3   47.59    1.63
   1  -7   3   46.37    1.57
   1  -7   3   45.35    1.52
   1  -7   3   46.13    1.76
  -2   7  -3    8.47    0.58
  -2   7  -3    7.25    0.39
  -2   7  -3    7.25    0.39
   2  -7   3    7.45    0.57
   2  -7   3    7.81    0.40
   2  -7   3    6.98    0.41
  -3   7  -3   11.70    0.54
  -3   7  -3   11.65    0.47
  -3   7  -3   12.15    0.87
  -3   7  -3   11.81    0.56
   3  -7   3   10.49    0.44
   3  -7   3   11.09    0.75
   3  -7   3   12.10    0.54
   3  -7   3   11.95    0.57
   3  -7   3   11.39    0.41
  -4   7  -3    1.53    0.23
   4  -7   3    1.25    0.13
  -5   7  -3    1.30    0.12
   5  -7   3    1.22    0.15
   5   6  -3    2.46    0.14
  -5  -6   3    2.96    0.16
   4   6  -3   17.63    0.64
   4   6  -3   18.17    0.76
  -4  -6   3   17.73    0.62
  -4  -6   3   17.92    0.63
  -4  -6   3   17.62    0.71
   3   6  -3    0.59    0.19
   3   6  -3    0.61    0.23
  -3  -6   3    0.37    0.21
  -3  -6   3    0.33    0.13
   2   6  -3    2.52    0.29
   2   6  -3    2.48    0.24
  -2  -6   3    3.13    0.35
  -2  -6   3    2.49    0.21
   1   6  -3    4.37    0.44
   1   6  -3    4.36    0.30
   1   6  -3    4.72    0.27
  -1  -6   3    4.00    0.35
  -1  -6   3    4.80    0.45
  -1  -6   3    4.17    0.27
  -1  -6   3    3.87    0.22
  -1  -6   3    3.76    0.21
  -1  -6   3    4.42    0.34
   0   6  -3    8.97    0.48
   0   6  -3    9.06    0.42
   0   6  -3    8.73    0.54
   0   6  -3    9.64    0.60
   0  -6   3    7.92    0.47
   0  -6   3    8.36    0.44
   0  -6   3    9.36    0.58
   0  -6   3    8.29    0.39
   0  -6   3    8.99    0.56
  -1   6  -3    7.92    0.37
  -1   6  -3    8.30    0.38
  -1   6  -3    8.18    0.35
  -1   6  -3    7.71    0.59
  -1   6  -3    7.71    0.48
   1  -6   3    7.36    0.33
   1  -6   3    7.36    0.37
   1  -6   3    7.07    0.30
   1  -6   3    7.37    0.46
   1  -6   3    7.11    0.54
  -2   6  -3   25.93    0.95
  -2   6  -3   27.04    1.13
  -2   6  -3   25.89    0.96
   2  -6   3   28.04    1.17
   2  -6   3   25.72    0.99
   2  -6   3   25.51    0.95
  -3   6  -3   39.01    1.37
  -3   6  -3   37.78    1.58
   3  -6   3   38.11    1.60
   3  -6   3   38.46    1.36
   4  -6   3   13.14    0.49
  -5   6  -3    3.28    0.19
   5  -6   3    2.83    0.15
   5   5  -3    7.76    0.29
  -5  -5   3    9.67    0.34
  -5  -5   3    9.21    0.36
   4   5  -3    6.54    0.40
   4   5  -3    6.26    0.30
  -4  -5   3    6.35    0.28
  -4  -5   3    5.83    0.22
  -4  -5   3    5.64    0.35
  -4  -5   3    6.49    0.28
   3   5  -3   47.98    1.77
   3   5  -3   48.08    1.68
  -3  -5   3   43.48    1.52
  -3  -5   3   45.69    1.73
   2   5  -3   53.28    1.83
   2   5  -3   54.45    2.08
   2   5  -3   48.40    1.75
  -2  -5   3   47.98    2.05
  -2  -5   3   52.24    1.85
  -2  -5   3   51.53    1.69
   1   5  -3  149.31    5.01
   1   5  -3  151.41    4.80
   1   5  -3  145.49    4.92
  -1  -5   3  148.82    4.92
  -1  -5   3  150.19    4.73
  -1  -5   3  135.81    4.80
   0   5  -3   96.11    3.29
   0   5  -3   98.30    3.14
   0   5  -3   98.47    3.19
   0   5  -3   93.67    3.30
   0  -5   3   92.88    3.17
   0  -5   3   88.31    3.05
   0  -5   3   92.29    3.03
   0  -5   3   95.71    3.19
  -1   5  -3   87.78    2.93
  -1   5  -3   86.97    3.09
   1  -5   3   86.11    2.88
   1  -5   3   83.63    3.00
  -2   5  -3  164.86    5.43
  -2   5  -3  163.75    5.28
  -2   5  -3  167.61    5.65
  -2   5  -3  165.43    5.28
   2  -5   3  163.73    5.31
   2  -5   3  163.74    5.64
   2  -5   3  166.42    5.28
   2  -5   3  167.86    5.46
  -3   5  -3    1.98    0.36
  -3   5  -3    1.95    0.24
  -3   5  -3    1.54    0.30
  -3   5  -3    1.38    0.19
   3  -5   3    1.47    0.22
   3  -5   3    2.02    0.33
   3  -5   3    1.39    0.25
   3  -5   3    1.85    0.39
  -4   5  -3    1.67    0.24
   4  -5   3    1.53    0.31
   4  -5   3    1.20    0.17
   4  -5   3    1.47    0.19
  -5   5  -3    1.06    0.15
   5  -5   3    1.01    0.11
   5  -5   3    1.05    0.13
   5   4  -3    1.80    0.14
  -5  -4   3    1.89    0.16
   4   4  -3   13.24    0.44
   4   4  -3   12.47    0.49
  -4  -4   3   13.73    0.50
  -4  -4   3   13.62    0.47
  -4  -4   3   13.91    0.52
   3   4  -3   11.12    0.51
   3   4  -3   11.55    0.58
  -3  -4   3   10.46    0.60
  -3  -4   3    9.55    0.43
   2   4  -3  107.05    3.52
   2   4  -3  111.94    3.58
   2   4  -3  107.39    3.79
  -2  -4   3   99.71    3.62
  -2  -4   3  101.54    3.42
  -2  -4   3  105.35    3.30
   1   4  -3  150.20    4.94
   1   4  -3  155.12    5.06
   1   4  -3  151.46    4.88
  -1  -4   3  143.97    4.61
  -1  -4   3  146.64    4.78
  -1  -4   3  137.29    4.65
   0   4  -3    0.79    0.19
   0   4  -3    0.93    0.14
   0   4  -3    1.50    0.27
   0   4  -3    1.16    0.13
   0   4  -3    0.95    0.19
   0   4  -3    0.92    0.16
   0   4  -3    1.25    0.21
   0  -4   3    1.25    0.26
   0  -4   3    1.56    0.25
   0  -4   3    1.15    0.22
   0  -4   3    0.94    0.15
   0  -4   3    1.28    0.22
   0  -4   3    1.05    0.19
  -1   4  -3    3.15    0.25
  -1   4  -3    3.42    0.27
  -1   4  -3    3.26    0.23
  -1   4  -3    2.85    0.32
  -1   4  -3    3.61    0.25
   1  -4   3    2.65    0.21
   1  -4   3    2.89    0.26
   1  -4   3    3.14    0.35
   1  -4   3    3.11    0.32
   1  -4   3    2.93    0.26
  -2   4  -3   16.61    0.63
  -2   4  -3   16.75    0.73
  -2   4  -3   17.14    0.78
  -2   4  -3   16.97    0.89
  -2   4  -3   17.56    0.76
   2  -4   3   16.58    0.74
   2  -4   3   15.63    0.60
   2  -4   3   16.93    0.86
   2  -4   3   15.48    0.69
   2  -4   3   16.20    0.97
  -3   4  -3    3.72    0.36
  -3   4  -3    3.27    0.39
  -3   4  -3    3.07    0.23
  -3   4  -3    3.43    0.26
   3  -4   3    3.61    0.37
   3  -4   3    3.31    0.25
   3  -4   3    3.18    0.39
   3  -4   3    3.60    0.30
  -4   4  -3   20.29    1.08
  -4   4  -3   21.53    0.83
   4  -4   3   22.53    0.78
   4  -4   3   21.14    0.78
   4  -4   3   21.65    0.72
   4  -4   3   22.12    0.93
  -5   4  -3    2.32    0.32
  -5   4  -3    2.01    0.17
   5  -4   3    2.17    0.16
   5  -4   3    2.24    0.17
   5   3  -3    7.26    0.28
  -5  -3   3    7.96    0.33
  -5  -3   3    8.08    0.32
   3   3  -3    9.90    0.69
   3   3  -3   11.50    0.54
   3   3  -3   10.97    0.48
  -3  -3   3    9.77    0.70
  -3  -3   3    9.65    0.41
  -3  -3   3    9.60    0.54
   2   3  -3   32.69    1.19
   2   3  -3   35.05    1.39
   2   3  -3   34.20    1.42
   2   3  -3   34.12    1.21
  -2  -3   3   31.44    1.16
  -2  -3   3   30.11    1.20
  -2  -3   3   33.94    1.34
  -2  -3   3   29.50    1.15
   1   3  -3    2.39    0.21
   1   3  -3    2.69    0.18
   1   3  -3    2.86    0.33
   1   3  -3    2.38    0.25
   1   3  -3    2.47    0.18
   1   3  -3    2.83    0.29
   1   3  -3    2.70    0.20
  -1  -3   3    2.82    0.22
  -1  -3   3    2.61    0.18
  -1  -3   3    2.73    0.29
  -1  -3   3    2.76    0.33
  -1  -3   3    3.06    0.22
  -1  -3   3    2.90    0.22
   0   3  -3   75.44    2.55
   0   3  -3   76.48    2.54
   0   3  -3   72.13    2.59
   0   3  -3   77.30    2.48
   0   3  -3   78.25    2.65
   0   3  -3   77.89    2.45
   0   3  -3   74.10    2.46
   0  -3   3   72.73    2.40
   0  -3   3   67.87    2.46
   0  -3   3   76.13    2.53
   0  -3   3   76.27    2.51
   0  -3   3   78.07    2.55
   0  -3   3   72.17    2.55
  -1   3  -3  545.84   17.65
  -1   3  -3  533.38   17.54
  -1   3  -3  573.27   17.71
  -1   3  -3  560.16   17.58
  -1   3  -3  566.17   17.60
  -1   3  -3  563.26   17.60
  -1   3  -3  580.46   17.84
  -1   3  -3  551.55   17.61
   1  -3   3  554.33   16.95
   1  -3   3  539.81   17.15
   1  -3   3  534.09   16.90
   1  -3   3  546.37   17.06
   1  -3   3  533.50   16.97
   1  -3   3  526.52   16.86
   1  -3   3  531.41   17.04
  -2   3  -3   28.91    1.26
  -2   3  -3   29.13    1.11
  -2   3  -3   29.93    1.12
  -2   3  -3   29.09    1.16
   2  -3   3   29.69    1.12
   2  -3   3   30.42    1.29
   2  -3   3   29.29    1.42
   2  -3   3   31.22    1.18
  -3   3  -3   54.92    1.82
  -3   3  -3   53.59    1.82
  -3   3  -3   52.66    1.97
  -3   3  -3   55.74    2.00
   3  -3   3   51.33    1.73
   3  -3   3   54.42    1.94
   3  -3   3   45.40    2.36
   3  -3   3   51.99    1.79
   3  -3   3   52.87    1.89
  -4   3  -3   30.82    1.15
  -4   3  -3   32.02    1.39
   4  -3   3   31.51    1.35
   4  -3   3   32.64    1.25
  -5   3  -3    1.43    0.22
  -5   3  -3    1.18    0.14
   5  -3   3    1.15    0.16
   5  -3   3    1.30    0.16
   5  -3   3    1.14    0.23
   5   2  -3   10.50    0.38
   5   2  -3   10.32    0.39
  -5  -2   3   10.70    0.37
  -5  -2   3   11.37    0.41
  -5  -2   3   10.71    0.42
   4   2  -3   44.72    1.54
   4   2  -3   41.23    1.63
  -4  -2   3   38.97    1.66
  -4  -2   3   42.61    1.45
   3   2  -3   15.08    0.98
   3   2  -3   15.44    0.64
   3   2  -3   17.80    0.73
  -3  -2   3   15.83    0.76
  -3  -2   3   14.74    0.80
  -3  -2   3   14.67    0.59
   2   2  -3   15.51    0.83
   2   2  -3   15.59    0.62
   2   2  -3   14.77    0.73
   2   2  -3   15.04    0.67
   2   2  -3   16.40    0.91
   2   2  -3   14.67    0.60
  -2  -2   3   14.62    0.84
  -2  -2   3   15.00    0.65
  -2  -2   3   14.51    0.61
  -2  -2   3   13.98    0.58
  -2  -2   3   14.62    0.68
  -2  -2   3   15.63    0.75
   1   2  -3   52.81    1.71
   1   2  -3   45.85    1.73
   1   2  -3   53.37    1.75
   1   2  -3   52.64    1.71
   1   2  -3   53.25    1.83
   1   2  -3   54.44    1.94
   1   2  -3   51.11    1.69
   1   2  -3   53.35    1.87
  -1  -2   3   51.86    1.73
  -1  -2   3   51.64    1.65
  -1  -2   3   50.64    1.69
  -1  -2   3   48.68    1.64
  -1  -2   3   51.87    1.86
  -1  -2   3   50.30    1.80
   0   2  -3   22.66    0.84
   0   2  -3   22.01    0.87
   0   2  -3   23.83    0.83
   0   2  -3   24.04    0.93
   0   2  -3   22.68    0.88
   0  -2   3   21.91    0.84
   0  -2   3   20.48    0.81
   0  -2   3   19.92    0.78
   0  -2   3   21.85    0.82
  -1   2  -3  966.60   30.27
  -1   2  -3  978.43   30.35
  -1   2  -3  943.07   30.67
  -1   2  -3  984.09   30.78
  -1   2  -3  951.87   30.28
  -1   2  -3  958.78   30.72
  -1   2  -3  946.76   30.31
  -1   2  -3 1000.00   30.35
   1  -2   3  983.92   29.47
   1  -2   3  946.12   29.73
   1  -2   3  853.13   29.41
   1  -2   3  956.78   29.42
   1  -2   3  901.16   29.63
   1  -2   3  972.53   29.71
   1  -2   3  961.74   29.55
  -2   2  -3   40.28    1.42
  -2   2  -3   40.35    1.71
  -2   2  -3   37.71    1.46
  -2   2  -3   40.35    1.43
  -2   2  -3   37.75    1.42
  -2   2  -3   40.14    1.56
  -2   2  -3   39.79    1.47
   2  -2   3   39.55    1.46
   2  -2   3   40.40    1.62
   2  -2   3   39.40    1.50
   2  -2   3   38.83    1.41
   2  -2   3   39.51    1.57
   2  -2   3   40.48    1.74
  -3   2  -3   12.92    0.81
  -3   2  -3   13.89    0.67
  -3   2  -3   12.81    0.67
  -3   2  -3   13.65    0.54
  -3   2  -3   13.09    0.54
  -3   2  -3   13.73    0.74
   3  -2   3   13.16    0.58
   3  -2   3   13.97    0.66
   3  -2   3   11.91    0.80
   3  -2   3   12.90    0.53
   3  -2   3   12.83    0.70
  -4   2  -3   11.80    0.52
  -4   2  -3   10.61    0.71
   4  -2   3   11.70    0.61
   4  -2   3   11.31    0.71
  -5   2  -3    4.98    0.24
  -5   2  -3    5.70    0.35
   5  -2   3    4.69    0.40
   5  -2   3    4.74    0.26
   5  -2   3    4.44    0.25
   5  -2   3    4.85    0.19
   5   1  -3   21.94    0.73
   5   1  -3   22.62    0.76
   5   1  -3   21.76    0.89
  -5  -1   3   22.53    0.86
  -5  -1   3   22.10    0.76
   4   1  -3    2.28    0.38
   4   1  -3    2.25    0.29
  -4  -1   3    2.28    0.25
  -4  -1   3    2.59    0.43
   3   1  -3   18.32    0.66
   3   1  -3   18.38    0.79
   3   1  -3   19.02    0.73
   3   1  -3   17.68    1.09
  -3  -1   3   19.31    0.87
  -3  -1   3   19.41    0.94
  -3  -1   3   18.17    0.71
   2   1  -3    0.90    0.18
   2   1  -3    0.75    0.14
   2   1  -3    0.75    0.13
   2   1  -3    0.87    0.17
   2   1  -3    0.77    0.22
   2   1  -3    0.86    0.27
  -2  -1   3    0.65    0.16
  -2  -1   3    0.86    0.19
  -2  -1   3    0.68    0.13
  -2  -1   3    0.84    0.26
  -2  -1   3    0.86    0.13
  -2  -1   3    0.95    0.19
   1   1  -3  479.75   14.54
   1   1  -3  472.06   14.59
   1   1  -3  469.41   14.68
   1   1  -3  476.45   14.70
   1   1  -3  463.67   14.50
   1   1  -3  415.73   14.57
   1   1  -3  457.27   14.53
  -1  -1   3  446.18   14.68
  -1  -1   3  464.19   14.72
  -1  -1   3  481.93   14.66
  -1  -1   3  465.74   14.55
   0   1  -3   33.87    1.18
   0   1  -3   35.44    1.23
   0   1  -3   36.33    1.28
   0   1  -3   31.50    1.20
   0   1  -3   34.24    1.22
   0   1  -3   36.28    1.20
   0  -1   3   30.27    1.10
   0  -1   3   32.16    1.14
   0  -1   3   31.33    1.10
   0  -1   3   33.38    1.10
  -1   1  -3  132.70    4.32
  -1   1  -3  130.23    4.41
  -1   1  -3  137.67    4.33
  -1   1  -3  131.90    4.43
  -1   1  -3  140.83    4.38
  -1   1  -3  132.44    4.34
  -1   1  -3  140.15    4.34
  -1   1  -3  139.19    4.49
  -1   1  -3  134.21    4.35
  -1   1  -3  135.36    4.43
   1  -1   3  138.27    4.40
   1  -1   3  132.80    4.25
   1  -1   3  134.21    4.34
   1  -1   3  132.68    4.41
  -2   1  -3   54.40    1.87
  -2   1  -3   53.33    1.87
  -2   1  -3   56.63    1.98
  -2   1  -3   55.92    1.91
  -2   1  -3   55.55    2.20
  -2   1  -3   57.25    1.93
  -2   1  -3   56.31    1.92
  -2   1  -3   55.36    2.05
  -2   1  -3   56.92    2.01
   2  -1   3   54.40    2.06
   2  -1   3   51.98    1.81
   2  -1   3   54.32    1.88
   2  -1   3   57.23    2.22
   2  -1   3   56.17    2.06
   2  -1   3   53.95    1.97
   2  -1   3   56.54    1.94
  -3   1  -3    5.11    0.40
  -3   1  -3    5.40    0.29
  -3   1  -3    5.23    0.50
  -3   1  -3    5.09    0.45
  -3   1  -3    5.16    0.24
  -3   1  -3    5.25    0.41
  -3   1  -3    5.25    0.28
   3  -1   3    4.70    0.52
   3  -1   3    4.87    0.39
   3  -1   3    4.61    0.42
   3  -1   3    5.87    0.67
   3  -1   3    5.49    0.33
   3  -1   3    4.48    0.29
   3  -1   3    5.28    0.25
  -4   1  -3    0.53    0.16
  -4   1  -3    0.55    0.26
   4  -1   3    0.75    0.26
   4  -1   3    0.67    0.22
  -5   1  -3    9.29    0.46
  -5   1  -3    9.24    0.34
   5  -1   3    8.85    0.51
   5  -1   3    9.18    0.37
   5  -1   3    8.51    0.31
   5   0  -3   53.09    1.64
   5   0  -3   50.87    1.65
   5   0  -3   51.96    1.69
   5   0  -3   51.74    1.82
  -5   0   3   54.19    1.85
  -5   0   3   52.85    1.73
   4   0  -3   19.48    0.82
   4   0  -3   20.10    0.94
  -4   0   3   18.23    0.97
  -4   0   3   19.24    0.77
   3   0  -3   35.66    1.28
   3   0  -3   34.61    1.71
   3   0  -3   36.87    1.22
   3   0  -3   35.71    1.36
   3   0  -3   39.54    1.76
  -3   0   3   33.21    1.45
  -3   0   3   35.42    1.22
  -3   0   3   34.72    1.38
   2   0  -3   52.02    2.06
   2   0  -3   53.41    1.80
   2   0  -3   52.25    2.09
   2   0  -3   54.17    1.85
  -2   0   3   53.82    1.78
  -2   0   3   52.50    2.06
  -2   0   3   54.78    1.94
  -2   0   3   53.50    1.88
   1   0  -3   49.62    1.66
   1   0  -3   49.88    1.61
   1   0  -3   45.61    1.73
   1   0  -3   50.88    1.65
   1   0  -3   48.29    1.73
  -1   0   3   44.05    1.67
  -1   0   3   49.58    1.67
  -1   0   3   48.29    1.69
  -1   0   3   46.80    1.64
  -1   0   3   51.88    1.55
   0   0  -3  125.85    4.53
   0   0  -3  146.81    4.51
   0   0  -3  148.66    4.48
   0   0  -3  142.13    4.60
   0   0   3  133.30    4.15
   0   0   3  130.05    4.21
   0   0   3  130.04    4.15
  -1   0  -3   31.23    1.10
  -1   0  -3   32.53    1.11
  -1   0  -3   30.65    1.21
  -1   0  -3   31.20    1.09
  -1   0  -3   33.84    1.14
  -1   0  -3   30.45    1.20
  -1   0  -3   32.24    1.20
  -1   0  -3   33.80    1.13
  -1   0  -3   31.85    1.19
  -1   0  -3   31.56    1.11
  -1   0  -3   31.93    1.07
   1   0   3   31.03    1.09
   1   0   3   29.28    1.19
   1   0   3   33.15    1.19
   1   0   3   32.98    1.04
   1   0   3   31.57    1.27
   1   0   3   32.41    1.21
  -2   0  -3   73.87    2.61
  -2   0  -3   70.07    2.46
  -2   0  -3   73.35    2.54
  -2   0  -3   75.05    2.62
  -2   0  -3   75.56    2.77
  -2   0  -3   74.69    2.49
  -2   0  -3   72.63    2.48
  -2   0  -3   75.12    2.49
  -2   0  -3   74.97    2.45
   2   0   3   70.43    2.69
   2   0   3   70.78    2.32
   2   0   3   70.53    2.51
   2   0   3   71.42    2.57
   2   0   3   68.00    2.57
   2   0   3   72.36    2.37
   2   0   3   71.68    2.44
  -3   0  -3    0.12    0.15
  -3   0  -3    0.11    0.16
  -3   0  -3    0.08    0.09
  -3   0  -3    0.02    0.10
  -3   0  -3    0.09    0.13
  -3   0  -3    0.08    0.07
  -3   0  -3    0.17    0.18
  -3   0  -3    0.30    0.16
  -3   0  -3   -0.05    0.09
   3   0   3    0.05    0.08
   3   0   3    0.28    0.24
   3   0   3    0.03    0.12
   3   0   3    0.03    0.17
   3   0   3    0.14    0.27
   3   0   3    0.05    0.14
  -4   0  -3    0.63    0.25
  -4   0  -3    0.60    0.16
   4   0   3    0.53    0.20
   4   0   3    0.64    0.23
  -5   0  -3    0.51    0.17
  -5   0  -3    0.48    0.07
   5   0   3    0.64    0.19
   5   0   3    0.39    0.10
   5   0   3    0.56    0.08
   5  -1  -3   10.72    0.38
   5  -1  -3   10.70    0.42
   5  -1  -3   11.00    0.56
   5  -1  -3   10.52    0.41
  -5   1   3   11.16    0.53
   4  -1  -3   11.82    0.67
   4  -1  -3   10.53    0.55
  -4   1   3   11.23    0.53
  -4   1   3   10.64    0.74
   3  -1  -3  229.93    7.50
   3  -1  -3  192.98    6.20
   3  -1  -3  188.38    6.44
   3  -1  -3  183.96    6.26
   3  -1  -3  192.21    6.35
  -3   1   3  185.26    5.84
  -3   1   3  190.63    5.90
  -3   1   3  190.74    5.95
  -3   1   3  174.14    6.17
  -3   1   3  180.18    6.08
   2  -1  -3  171.31    5.84
   2  -1  -3  165.06    5.81
   2  -1  -3  177.82    5.57
   2  -1  -3  174.00    5.53
  -2   1   3  182.77    5.79
  -2   1   3  177.98    6.08
  -2   1   3  181.29    5.97
  -2   1   3  185.89    5.91
   1  -1  -3   46.25    1.58
   1  -1  -3   45.19    1.54
   1  -1  -3   47.04    1.54
   1  -1  -3   47.98    1.72
   1  -1  -3   46.08    1.74
  -1   1   3   48.63    1.59
  -1   1   3   47.62    1.61
  -1   1   3   46.48    1.66
  -1   1   3   47.81    1.67
  -1   1   3   48.91    1.53
  -1   1   3   47.80    1.66
   0  -1  -3  100.77    3.23
   0  -1  -3   94.30    3.18
   0  -1  -3   97.92    3.13
   0  -1  -3   95.84    3.17
   0  -1  -3   97.03    3.15
   0  -1  -3   95.21    3.16
  -1  -1  -3   72.86    2.49
  -1  -1  -3   74.80    2.51
  -1  -1  -3   80.52    2.53
  -1  -1  -3   78.43    2.46
  -1  -1  -3   78.45    2.54
  -1  -1  -3   75.84    2.63
   1   1   3   76.78    2.49
   1   1   3   78.52    2.43
   1   1   3   76.19    2.64
   1   1   3   77.80    2.68
   1   1   3   74.40    2.58
  -2  -1  -3   12.27    0.54
  -2  -1  -3   12.31    0.58
  -2  -1  -3   12.13    0.67
  -2  -1  -3   12.49    0.75
  -2  -1  -3   12.09    0.55
  -2  -1  -3   10.96    0.53
  -2  -1  -3   11.09    0.53
  -2  -1  -3   12.29    0.55
  -2  -1  -3   11.63    0.65
   2   1   3   11.41    0.52
   2   1   3   11.88    0.48
   2   1   3   11.81    0.76
   2   1   3   11.84    0.66
   2   1   3   12.07    0.71
   2   1   3   11.64    0.68
  -3  -1  -3    3.22    0.33
  -3  -1  -3    3.34    0.22
  -3  -1  -3    3.47    0.42
  -3  -1  -3    3.46    0.36
  -3  -1  -3    3.79    0.26
  -3  -1  -3    3.56    0.20
  -3  -1  -3    3.68    0.38
  -3  -1  -3    3.74    0.22
  -3  -1  -3    3.50    0.23
  -3  -1  -3    4.02    0.45
  -3  -1  -3    3.24    0.25
  -3  -1  -3    3.62    0.32
  -3  -1  -3    4.13    0.35
   3   1   3    3.56    0.27
   3   1   3    4.27    0.45
   3   1   3    3.54    0.34
   3   1   3    3.66    0.29
   3   1   3    3.60    0.22
   3   1   3    3.72    0.41
   3   1   3    4.00    0.50
   3   1   3    3.84    0.54
   3   1   3    3.35    0.28
  -4  -1  -3    7.25    0.39
  -4  -1  -3    6.05    0.56
   4   1   3    7.00    0.53
   4   1   3    7.02    0.44
  -5  -1  -3    7.22    0.26
  -5  -1  -3    6.99    0.31
   5   1   3    6.96    0.27
   5  -2  -3    0.06    0.06
   5  -2  -3    0.14    0.08
   5  -2  -3   -0.06    0.07
   5  -2  -3    0.17    0.17
   5  -2  -3    0.07    0.08
  -5   2   3    0.12    0.13
   4  -2  -3    1.12    0.29
   4  -2  -3    0.79    0.22
  -4   2   3    1.20    0.22
  -4   2   3    0.82    0.29
  -4   2   3    0.81    0.20
   3  -2  -3   80.60    2.65
   3  -2  -3   73.45    2.51
   3  -2  -3   67.03    3.10
   3  -2  -3   73.50    2.54
   3  -2  -3   77.15    2.73
   3  -2  -3   79.46    2.56
   3  -2  -3   82.36    2.48
  -3   2   3   78.40    2.52
  -3   2   3   78.18    2.58
  -3   2   3   80.18    2.78
  -3   2   3   79.32    2.63
  -3   2   3   73.19    3.05
   2  -2  -3    9.73    0.47
   2  -2  -3   10.12    0.48
   2  -2  -3   10.09    0.68
   2  -2  -3    9.47    0.68
  -2   2   3    9.91    0.53
  -2   2   3   10.17    0.65
  -2   2   3    9.72    0.56
  -2   2   3   10.87    0.44
   1  -2  -3   68.32    2.42
   1  -2  -3   69.25    2.19
   1  -2  -3   67.24    2.29
   1  -2  -3   66.15    2.23
   1  -2  -3   71.57    2.36
  -1   2   3   61.68    2.21
  -1   2   3   65.19    2.23
  -1   2   3   66.96    2.20
  -1   2   3   66.94    2.07
   0  -2  -3   10.76    0.37
   0  -2  -3   10.51    0.46
   0  -2  -3   11.06    0.44
   0  -2  -3   11.74    0.54
   0  -2  -3   12.23    0.53
   0  -2  -3   10.23    0.37
   0  -2  -3   11.14    0.46
   0  -2  -3   11.51    0.51
   0  -2  -3   11.32    0.51
   0   2   3   10.94    0.36
   0   2   3   10.59    0.36
  -1  -2  -3   66.39    2.25
  -1  -2  -3   64.88    2.20
  -1  -2  -3   65.57    2.24
  -1  -2  -3   62.33    2.09
  -1  -2  -3   63.54    2.10
  -1  -2  -3   61.56    2.04
  -1  -2  -3   58.10    2.10
  -1  -2  -3   60.13    2.09
  -1  -2  -3   64.57    2.20
  -1  -2  -3   63.69    2.13
  -1  -2  -3   64.03    2.10
   1   2   3   62.87    2.23
   1   2   3   61.66    2.00
   1   2   3   62.26    2.06
   1   2   3   62.29    2.17
   1   2   3   66.79    2.25
  -2  -2  -3   84.91    2.94
  -2  -2  -3   91.06    2.92
  -2  -2  -3   90.11    2.93
  -2  -2  -3   86.21    2.91
  -2  -2  -3   86.53    2.96
  -2  -2  -3   88.21    3.12
  -2  -2  -3   84.70    3.18
  -2  -2  -3   89.68    3.07
  -2  -2  -3   83.49    2.89
   2   2   3   82.10    3.11
   2   2   3   91.32    3.12
   2   2   3   90.19    3.18
   2   2   3   90.86    2.83
   2   2   3   82.47    2.85
   2   2   3   83.27    3.11
  -3  -2  -3   35.90    1.23
  -3  -2  -3   37.80    1.44
  -3  -2  -3   33.48    1.22
  -3  -2  -3   34.43    1.25
  -3  -2  -3   37.82    1.38
  -3  -2  -3   35.67    1.29
  -3  -2  -3   36.48    1.40
  -3  -2  -3   36.45    1.21
   3   2   3   34.11    1.15
   3   2   3   33.90    1.43
   3   2   3   35.73    1.30
   3   2   3   32.62    1.25
  -5  -2  -3   10.35    0.35
  -5  -2  -3    9.56    0.38
   5   2   3    9.87    0.36
   5  -3  -3    4.55    0.22
   5  -3  -3    4.62    0.22
   5  -3  -3    4.77    0.21
  -5   3   3    4.13    0.33
   4  -3  -3   43.77    1.41
   4  -3  -3   40.84    1.35
   4  -3  -3   39.32    1.36
   4  -3  -3   39.70    1.34
   4  -3  -3   42.66    1.51
   4  -3  -3   41.16    1.36
  -4   3   3   41.24    1.41
  -4   3   3   42.29    1.48
  -4   3   3   40.24    1.76
   3  -3  -3    4.01    0.37
   3  -3  -3    4.00    0.29
   3  -3  -3    4.10    0.29
   3  -3  -3    4.01    0.26
   3  -3  -3    3.94    0.40
  -3   3   3    4.16    0.28
  -3   3   3    4.37    0.42
  -3   3   3    4.40    0.24
  -3   3   3    4.79    0.34
   2  -3  -3    5.17    0.33
   2  -3  -3    5.73    0.53
   2  -3  -3    5.49    0.30
   2  -3  -3    4.98    0.33
   2  -3  -3    5.11    0.50
   2  -3  -3    5.57    0.29
  -2   3   3    5.58    0.47
  -2   3   3    5.30    0.38
  -2   3   3    5.50    0.42
  -2   3   3    5.07    0.28
   1  -3  -3    7.87    0.44
   1  -3  -3    8.00    0.45
   1  -3  -3    7.19    0.47
   1  -3  -3    7.22    0.30
   1  -3  -3    6.95    0.33
   1  -3  -3    7.47    0.37
  -1   3   3    8.97    0.43
  -1   3   3    7.17    0.38
  -1   3   3    7.19    0.43
  -1   3   3    8.16    0.44
  -1   3   3    7.81    0.30
  -1   3   3    7.81    0.37
   0  -3  -3  266.60    8.13
   0  -3  -3  264.37    8.22
   0  -3  -3  249.65    8.06
   0  -3  -3  239.14    8.06
   0  -3  -3  265.61    8.09
   0  -3  -3  246.26    8.17
   0  -3  -3  255.27    8.08
   0   3   3  266.20    8.27
   0   3   3  257.41    8.21
   0   3   3  248.79    8.09
   0   3   3  252.97    8.22
  -1  -3  -3    2.89    0.29
  -1  -3  -3    3.60    0.34
  -1  -3  -3    3.89    0.32
  -1  -3  -3    3.26    0.34
  -1  -3  -3    3.09    0.25
  -1  -3  -3    2.95    0.24
  -1  -3  -3    2.86    0.19
  -1  -3  -3    3.01    0.27
   1   3   3    3.17    0.29
   1   3   3    3.25    0.33
  -2  -3  -3    2.08    0.26
  -2  -3  -3    1.95    0.13
  -2  -3  -3    1.88    0.25
  -2  -3  -3    2.40    0.34
  -2  -3  -3    2.14    0.37
  -2  -3  -3    1.87    0.16
  -2  -3  -3    2.02    0.24
  -2  -3  -3    1.60    0.17
  -2  -3  -3    1.42    0.18
  -2  -3  -3    2.17    0.35
  -2  -3  -3    2.03    0.18
  -2  -3  -3    1.68    0.26
   2   3   3    1.77    0.19
   2   3   3    2.22    0.34
   2   3   3    2.11    0.39
   2   3   3    2.18    0.36
   2   3   3    1.81    0.21
  -3  -3  -3    3.59    0.38
  -3  -3  -3    3.81    0.22
  -3  -3  -3    3.87    0.30
  -3  -3  -3    4.65    0.39
  -3  -3  -3    3.99    0.26
  -3  -3  -3    3.47    0.28
  -3  -3  -3    3.84    0.25
  -3  -3  -3    4.30    0.41
   3   3   3    3.95    0.33
   3   3   3    3.72    0.45
   3   3   3    4.17    0.36
   3   3   3    3.85    0.23
  -4  -3  -3    3.71    0.25
  -4  -3  -3    4.19    0.21
  -4  -3  -3    4.10    0.23
  -4  -3  -3    4.32    0.29
   4   3   3    4.42    0.34
  -5  -3  -3    3.29    0.18
  -5  -3  -3    3.20    0.15
   5   3   3    3.56    0.17
   5  -4  -3    2.14    0.13
   5  -4  -3    2.15    0.14
   5  -4  -3    2.49    0.14
   5  -4  -3    2.23    0.15
   4  -4  -3    3.86    0.16
   4  -4  -3    3.80    0.20
   4  -4  -3    3.82    0.21
   4  -4  -3    3.34    0.22
   4  -4  -3    4.17    0.26
   4  -4  -3    3.66    0.19
   4  -4  -3    4.07    0.35
  -4   4   3    3.84    0.28
  -4   4   3    4.04    0.31
   3  -4  -3    0.15    0.09
   3  -4  -3    0.07    0.13
   3  -4  -3    0.24    0.15
   3  -4  -3    0.22    0.17
   3  -4  -3    0.28    0.17
   3  -4  -3    0.30    0.13
  -3   4   3    0.28    0.21
  -3   4   3    0.43    0.15
  -3   4   3    0.17    0.09
  -3   4   3    0.25    0.14
   2  -4  -3    7.11    0.34
   2  -4  -3    6.90    0.28
   2  -4  -3    7.27    0.37
   2  -4  -3    6.88    0.42
   2  -4  -3    6.69    0.61
  -2   4   3    6.49    0.28
  -2   4   3    6.88    0.53
  -2   4   3    6.93    0.35
   1  -4  -3   28.18    1.08
   1  -4  -3   29.71    1.19
   1  -4  -3   28.55    1.19
   1  -4  -3   28.77    1.00
  -1   4   3   29.56    1.09
  -1   4   3   29.00    1.20
  -1   4   3   28.51    0.99
  -1   4   3   31.34    1.18
   0  -4  -3   32.21    1.19
   0  -4  -3   32.52    1.30
   0  -4  -3   32.11    1.19
   0  -4  -3   32.86    1.15
   0  -4  -3   30.04    1.05
   0   4   3   32.09    1.28
   0   4   3   31.82    1.04
  -1  -4  -3   69.69    2.49
  -1  -4  -3   71.59    2.37
  -1  -4  -3   71.45    2.43
  -1  -4  -3   69.00    2.54
  -1  -4  -3   70.89    2.56
  -1  -4  -3   68.33    2.31
  -1  -4  -3   69.26    2.37
   1   4   3   68.68    2.23
   1   4   3   63.83    2.35
   1   4   3   66.79    2.44
  -2  -4  -3    4.67    0.26
  -2  -4  -3    4.78    0.50
  -2  -4  -3    4.77    0.38
  -2  -4  -3    5.06    0.49
  -2  -4  -3    4.79    0.30
  -2  -4  -3    5.03    0.42
  -2  -4  -3    5.14    0.38
  -2  -4  -3    4.94    0.29
  -2  -4  -3    4.83    0.26
  -2  -4  -3    5.09    0.36
  -2  -4  -3    4.76    0.22
  -2  -4  -3    4.58    0.50
   2   4   3    5.47    0.51
   2   4   3    4.58    0.23
   2   4   3    4.91    0.30
   2   4   3    4.61    0.52
   2   4   3    4.96    0.35
   2   4   3    4.95    0.52
  -3  -4  -3    9.99    0.48
  -3  -4  -3   10.22    0.62
  -3  -4  -3   10.19    0.44
  -3  -4  -3    9.49    0.58
  -3  -4  -3   10.20    0.45
  -3  -4  -3    9.68    0.62
  -3  -4  -3   10.37    0.42
   3   4   3    9.75    0.57
   3   4   3    9.92    0.41
   3   4   3    8.48    0.50
  -4  -4  -3    2.03    0.16
  -4  -4  -3    2.04    0.23
  -4  -4  -3    2.01    0.17
  -4  -4  -3    1.97    0.20
   4   4   3    1.87    0.29
  -5  -4  -3    8.21    0.31
  -5  -4  -3    8.73    0.30
   5   4   3    8.33    0.30
   5  -5  -3    6.29    0.22
   5  -5  -3    5.97    0.24
   5  -5  -3    6.14    0.23
   4  -5  -3    3.41    0.14
   4  -5  -3    2.76    0.31
   4  -5  -3    3.38    0.19
   4  -5  -3    3.60    0.21
   4  -5  -3    2.83    0.29
   4  -5  -3    3.07    0.19
   4  -5  -3    3.27    0.23
   4  -5  -3    3.60    0.20
   4  -5  -3    3.65    0.19
  -4   5   3    3.25    0.25
   3  -5  -3   20.61    0.83
   3  -5  -3   22.07    0.77
   3  -5  -3   20.86    0.86
   3  -5  -3   20.47    1.02
  -3   5   3   22.57    0.81
  -3   5   3   22.42    0.93
   2  -5  -3   97.37    3.17
   2  -5  -3   96.70    3.27
   2  -5  -3   96.01    3.13
   2  -5  -3   92.41    3.05
  -2   5   3   88.80    2.89
  -2   5   3   91.97    2.98
   1  -5  -3   28.39    1.25
   1  -5  -3   30.84    1.29
   1  -5  -3   28.99    1.05
   1  -5  -3   27.86    1.00
   1  -5  -3   29.75    1.15
   1  -5  -3   28.68    1.00
   1  -5  -3   29.94    1.06
   1  -5  -3   28.93    1.02
  -1   5   3   29.60    1.13
  -1   5   3   27.20    1.25
  -1   5   3   29.22    1.01
  -1   5   3   30.00    1.20
   0  -5  -3   10.26    0.64
   0  -5  -3    9.96    0.42
   0  -5  -3   10.41    0.52
   0  -5  -3    9.61    0.54
   0  -5  -3   10.07    0.56
   0  -5  -3    9.64    0.40
   0  -5  -3    9.69    0.41
   0   5   3    9.36    0.37
   0   5   3    8.99    0.60
   0   5   3    9.97    0.52
  -1  -5  -3   10.46    0.64
  -1  -5  -3   11.21    0.73
  -1  -5  -3   10.76    0.44
  -1  -5  -3   10.55    0.47
  -1  -5  -3   11.26    0.55
  -1  -5  -3   10.97    0.44
  -1  -5  -3   10.99    0.56
  -1  -5  -3   11.54    0.46
  -1  -5  -3   10.80    0.69
  -1  -5  -3   11.87    0.63
  -1  -5  -3   10.89    0.50
   1   5   3   10.72    0.51
   1   5   3   11.42    0.69
   1   5   3   10.80    0.68
   1   5   3   10.69    0.64
  -2  -5  -3   10.29    0.64
  -2  -5  -3   10.51    0.47
  -2  -5  -3   10.70    0.59
  -2  -5  -3   10.67    0.60
  -2  -5  -3   10.92    0.57
  -2  -5  -3    9.91    0.50
  -2  -5  -3   10.15    0.45
  -2  -5  -3    9.94    0.40
  -2  -5  -3   10.53    0.45
   2   5   3    9.95    0.40
   2   5   3   10.70    0.49
   2   5   3   10.00    0.55
  -3  -5  -3   15.10    0.82
  -3  -5  -3   14.87    0.80
  -3  -5  -3   15.52    0.62
  -3  -5  -3   15.95    0.58
  -3  -5  -3   13.89    0.75
  -3  -5  -3   13.23    0.85
  -3  -5  -3   15.80    0.61
  -3  -5  -3   14.59    0.65
   3   5   3   15.72    0.59
   3   5   3   14.99    0.68
   3   5   3   13.37    0.70
   3   5   3   16.54    0.79
  -4  -5  -3   20.22    0.71
  -4  -5  -3   20.82    0.76
  -4  -5  -3   21.82    0.71
  -4  -5  -3   21.31    0.81
   4   5   3   22.84    0.93
  -5  -5  -3    5.81    0.24
  -5  -5  -3    5.90    0.21
  -5  -5  -3    5.62    0.21
   5   5   3    5.57    0.22
   5  -6  -3    2.06    0.11
   5  -6  -3    1.75    0.10
   5  -6  -3    1.87    0.11
   4  -6  -3    5.62    0.24
   4  -6  -3    5.45    0.23
   4  -6  -3    5.34    0.24
   4  -6  -3    5.23    0.29
   4  -6  -3    5.26    0.24
   4  -6  -3    5.30    0.20
   4  -6  -3    5.10    0.36
   4  -6  -3    5.43    0.24
  -4   6   3    5.07    0.29
   3  -6  -3   25.00    0.90
   3  -6  -3   24.27    1.00
   3  -6  -3   24.82    0.82
   3  -6  -3   25.87    0.85
   3  -6  -3   24.71    0.84
   3  -6  -3   25.06    0.86
   3  -6  -3   25.82    0.84
   3  -6  -3   25.58    0.98
   3  -6  -3   24.98    0.83
  -3   6   3   26.28    0.91
  -3   6   3   24.29    1.02
   2  -6  -3    1.71    0.15
   2  -6  -3    1.82    0.21
   2  -6  -3    1.85    0.23
   2  -6  -3    1.47    0.27
  -2   6   3    1.85    0.17
  -2   6   3    2.07    0.24
   1  -6  -3   44.92    1.95
   1  -6  -3   46.73    1.59
   1  -6  -3   48.55    1.69
   1  -6  -3   48.51    1.79
   1  -6  -3   48.34    1.63
   1  -6  -3   48.67    1.65
   1  -6  -3   46.27    1.60
  -1   6   3   49.92    1.85
  -1   6   3   50.80    1.70
   0  -6  -3    2.37    0.33
   0  -6  -3    2.40    0.22
   0  -6  -3    2.33    0.22
   0  -6  -3    2.63    0.41
   0  -6  -3    2.30    0.21
   0   6   3    2.46    0.34
   0   6   3    2.63    0.19
   0   6   3    2.55    0.32
  -1  -6  -3   10.27    0.65
  -1  -6  -3    9.95    0.44
  -1  -6  -3   10.65    0.59
  -1  -6  -3   11.42    0.48
  -1  -6  -3   11.17    0.46
  -1  -6  -3   11.28    0.54
   1   6   3   10.60    0.45
  -2  -6  -3   14.86    0.59
  -2  -6  -3   14.79    0.62
  -2  -6  -3   15.06    0.60
  -2  -6  -3   15.01    0.73
  -2  -6  -3   14.22    0.74
  -2  -6  -3   13.16    0.80
  -2  -6  -3   15.42    0.78
  -2  -6  -3   13.79    0.54
   2   6   3   13.79    0.63
   2   6   3   13.83    0.70
   2   6   3   14.01    0.53
   2   6   3   14.81    0.63
  -3  -6  -3    7.81    0.38
  -3  -6  -3    8.20    0.46
  -3  -6  -3    9.24    0.39
  -3  -6  -3    8.31    0.34
  -3  -6  -3    8.11    0.31
  -3  -6  -3    8.22    0.42
  -3  -6  -3    8.38    0.32
  -3  -6  -3    8.65    0.43
  -3  -6  -3    8.42    0.30
  -3  -6  -3    8.43    0.35
  -3  -6  -3    8.45    0.32
   3   6   3    8.19    0.50
   3   6   3    8.92    0.40
  -4  -6  -3    5.22    0.24
  -4  -6  -3    5.94    0.23
  -4  -6  -3    5.52    0.28
  -4  -6  -3    5.55    0.33
  -4  -6  -3    6.02    0.24
   4   6   3    5.59    0.39
   4  -7  -3    2.45    0.15
   4  -7  -3    2.76    0.15
   4  -7  -3    2.48    0.11
   4  -7  -3    2.67    0.15
   4  -7  -3    2.54    0.15
   3  -7  -3    4.95    0.23
   3  -7  -3    5.05    0.21
   3  -7  -3    4.88    0.38
   3  -7  -3    4.96    0.24
   3  -7  -3    5.49    0.30
   3  -7  -3    5.06    0.25
   3  -7  -3    5.20    0.20
   3  -7  -3    5.23    0.22
  -3   7   3    5.68    0.31
   2  -7  -3   54.45    1.86
   2  -7  -3   52.47    1.75
   2  -7  -3   53.03    2.02
   2  -7  -3   52.56    1.88
  -2   7   3   50.53    1.77
  -2   7   3   50.26    1.67
   1  -7  -3   15.73    0.63
   1  -7  -3   14.49    0.67
   1  -7  -3   15.93    0.73
   1  -7  -3   15.60    0.56
   1  -7  -3   15.84    0.66
   1  -7  -3   15.25    0.84
  -1   7   3   15.67    0.82
  -1   7   3   16.14    0.66
  -1   7   3   16.41    0.59
   0  -7  -3   14.07    0.56
   0  -7  -3   12.23    0.62
   0  -7  -3   12.76    0.75
   0  -7  -3   13.63    0.56
   0   7   3   14.08    0.56
   0   7   3   12.97    0.73
  -1  -7  -3   60.08    1.94
  -1  -7  -3   61.12    2.02
  -1  -7  -3   57.86    2.25
  -1  -7  -3   60.07    2.00
  -1  -7  -3   59.94    2.12
   1   7   3   62.04    1.99
   1   7   3   60.75    2.07
  -2  -7  -3   52.94    1.81
  -2  -7  -3   55.17    1.77
  -2  -7  -3   54.19    2.03
  -2  -7  -3   55.15    1.81
  -2  -7  -3   53.71    1.84
  -2  -7  -3   51.63    2.10
  -2  -7  -3   52.70    2.00
  -2  -7  -3   51.00    1.97
   2   7   3   53.36    1.88
   2   7   3   49.82    1.94
   2   7   3   55.93    1.87
  -3  -7  -3   23.93    0.92
  -3  -7  -3   25.64    0.81
  -3  -7  -3   25.93    0.93
  -3  -7  -3   24.81    0.82
  -3  -7  -3   24.94    0.84
  -3  -7  -3   23.52    0.95
  -3  -7  -3   25.35    0.85
  -3  -7  -3   24.83    0.81
  -3  -7  -3   24.13    0.87
  -3  -7  -3   25.18    0.88
   3   7   3   24.98    0.90
   3   7   3   25.03    1.00
  -4  -7  -3    0.34    0.08
  -4  -7  -3    0.31    0.09
  -4  -7  -3    0.28    0.07
  -4  -7  -3    0.32    0.07
   4  -8  -3    1.40    0.11
   4  -8  -3    1.20    0.10
   4  -8  -3    1.22    0.09
   4  -8  -3    1.35    0.11
   4  -8  -3    1.14    0.10
   3  -8  -3   24.04    0.99
   3  -8  -3   25.14    0.81
   3  -8  -3   24.78    0.80
   3  -8  -3   25.43    0.83
   3  -8  -3   23.88    0.88
   3  -8  -3   25.43    0.82
   3  -8  -3   24.07    0.84
  -3   8   3   25.65    0.99
  -3   8   3   24.96    0.90
   2  -8  -3    7.42    0.47
   2  -8  -3    7.81    0.27
   2  -8  -3    8.07    0.28
   2  -8  -3    7.33    0.32
   2  -8  -3    7.31    0.31
   2  -8  -3    7.45    0.35
   2  -8  -3    7.77    0.30
  -2   8   3    8.17    0.38
  -2   8   3    7.73    0.47
   1  -8  -3    2.62    0.44
   1  -8  -3    2.71    0.18
   1  -8  -3    2.36    0.34
   1  -8  -3    2.75    0.27
   1  -8  -3    2.32    0.27
  -1   8   3    2.91    0.28
  -1   8   3    2.46    0.30
  -1   8   3    2.95    0.22
  -1   8   3    2.88    0.27
  -1   8   3    2.14    0.42
   0  -8  -3    1.97    0.17
   0  -8  -3    2.17    0.27
   0  -8  -3    1.82    0.27
   0  -8  -3    2.07    0.31
   0  -8  -3    2.38    0.42
   0   8   3    2.13    0.24
   0   8   3    1.59    0.33
   0   8   3    2.15    0.18
  -1  -8  -3   13.57    0.84
  -1  -8  -3   13.30    0.72
  -1  -8  -3   14.56    0.61
  -1  -8  -3   14.54    0.54
  -1  -8  -3   14.28    0.62
   1   8   3   14.40    0.53
   1   8   3   12.50    0.78
   1   8   3   13.88    0.62
  -2  -8  -3   32.46    1.02
  -2  -8  -3   30.61    1.14
  -2  -8  -3   31.84    1.08
  -2  -8  -3   31.28    1.01
  -2  -8  -3   31.23    1.05
  -2  -8  -3   29.93    1.16
  -2  -8  -3   32.01    1.06
  -2  -8  -3   32.18    1.02
  -3  -8  -3    5.44    0.39
  -3  -8  -3    7.64    0.26
  -3  -8  -3    7.50    0.27
  -3  -8  -3    7.40    0.30
  -3  -8  -3    7.72    0.32
  -3  -8  -3    7.72    0.27
  -3  -8  -3    7.01    0.33
  -3  -8  -3    6.43    0.36
  -3  -8  -3    6.88    0.38
  -3  -8  -3    7.35    0.33
   3   8   3    7.34    0.36
   3   8   3    7.27    0.43
  -4  -8  -3    0.47    0.07
  -4  -8  -3    0.59    0.08
  -4  -8  -3    0.52    0.06
   3  -9  -3    9.64    0.35
   3  -9  -3    9.61    0.35
   3  -9  -3   10.28    0.37
   3  -9  -3   10.03    0.37
   2  -9  -3    5.10    0.24
   2  -9  -3    5.30    0.21
   2  -9  -3    5.22    0.24
   2  -9  -3    5.64    0.29
   2  -9  -3    5.26    0.22
   2  -9  -3    5.02    0.20
   2  -9  -3    4.65    0.38
  -2   9   3    5.03    0.38
  -2   9   3    5.24    0.29
   1  -9  -3    3.30    0.16
   1  -9  -3    2.96    0.18
   1  -9  -3    3.40    0.22
   1  -9  -3    3.48    0.14
   1  -9  -3    3.34    0.16
   1  -9  -3    3.37    0.30
   1  -9  -3    3.20    0.20
  -1   9   3    3.08    0.30
  -1   9   3    3.26    0.42
  -1   9   3    3.42    0.23
   0  -9  -3    6.73    0.40
   0  -9  -3    6.58    0.32
   0  -9  -3    6.53    0.29
   0  -9  -3    7.14    0.32
   0  -9  -3    7.18    0.25
   0  -9  -3    7.17    0.27
   0  -9  -3    6.60    0.41
   0  -9  -3    7.81    0.26
   0   9   3    7.54    0.35
  -1  -9  -3    0.86    0.11
  -1  -9  -3    1.38    0.16
  -1  -9  -3    1.13    0.10
  -1  -9  -3    2.11    0.27
  -1  -9  -3    0.98    0.08
  -1  -9  -3    1.01    0.19
  -1  -9  -3    1.22    0.17
  -1  -9  -3    1.13    0.14
   1   9   3    1.37    0.17
  -2  -9  -3    0.53    0.08
  -2  -9  -3    0.58    0.07
  -2  -9  -3    0.59    0.12
  -2  -9  -3    0.81    0.17
  -2  -9  -3    0.50    0.06
  -2  -9  -3    0.61    0.10
  -2  -9  -3    0.71    0.12
  -2  -9  -3    0.67    0.17
   2   9   3    0.66    0.12
  -3  -9  -3    2.50    0.17
  -3  -9  -3    2.49    0.13
  -3  -9  -3    2.35    0.14
  -3  -9  -3    2.37    0.15
  -3  -9  -3    2.53    0.17
  -3  -9  -3    2.44    0.11
  -3  -9  -3    2.53    0.13
   3 -10  -3    0.58    0.09
   3 -10  -3    0.68    0.08
   3 -10  -3    0.73    0.10
   3 -10  -3    0.74    0.07
   3 -10  -3    0.71    0.05
   3 -10  -3    0.77    0.09
   2 -10  -3    2.32    0.12
   2 -10  -3    2.48    0.11
   2 -10  -3    2.32    0.13
   2 -10  -3    2.74    0.16
   2 -10  -3    2.27    0.16
   1 -10  -3    0.56    0.16
   1 -10  -3    0.56    0.11
   1 -10  -3    0.64    0.12
   1 -10  -3    0.34    0.06
   1 -10  -3    0.44    0.07
   1 -10  -3    0.44    0.06
   1 -10  -3    0.34    0.09
  -1  10   3    0.32    0.13
  -1  10   3    0.34    0.09
   0 -10  -3   33.12    1.05
   0 -10  -3   31.01    1.10
   0 -10  -3   33.91    1.06
   0 -10  -3   32.29    1.18
   0 -10  -3   32.60    1.09
   0 -10  -3   33.53    1.05
   0 -10  -3   32.12    1.08
   0  10   3   33.51    1.22
   0  10   3   34.27    1.15
  -1 -10  -3    2.72    0.19
  -1 -10  -3    2.59    0.27
  -1 -10  -3    2.63    0.17
  -1 -10  -3    2.67    0.12
  -1 -10  -3    2.79    0.14
  -1 -10  -3    2.84    0.19
  -1 -10  -3    3.03    0.28
   1  10   3    2.86    0.19
  -2 -10  -3   12.05    0.40
  -2 -10  -3   11.73    0.40
  -2 -10  -3   12.59    0.43
  -2 -10  -3   11.98    0.44
  -2 -10  -3   11.83    0.41
  -3 -10  -3    4.33    0.15
  -3 -10  -3    4.29    0.18
  -3 -10  -3    4.33    0.16
  -3 -10  -3    4.16    0.17
  -3 -10  -3    4.24    0.17
  -3 -10  -3    4.23    0.16
   2 -11  -3    5.53    0.20
   2 -11  -3    5.32    0.19
   2 -11  -3    5.80    0.20
   2 -11  -3    5.44    0.22
   2 -11  -3    5.50    0.22
   1 -11  -3   11.62    0.38
   1 -11  -3   11.33    0.40
   1 -11  -3   10.32    0.41
   1 -11  -3   10.97    0.38
   1 -11  -3   11.31    0.37
   0 -11  -3    2.46    0.11
   0 -11  -3    2.46    0.12
   0 -11  -3    2.28    0.16
   0 -11  -3    2.63    0.12
   0 -11  -3    2.49    0.17
  -1 -11  -3   11.87    0.41
  -1 -11  -3   11.09    0.38
  -1 -11  -3   11.46    0.38
  -1 -11  -3   11.39    0.42
  -1 -11  -3   11.42    0.38
  -2 -11  -3    0.60    0.06
  -2 -11  -3    0.51    0.05
  -2 -11  -3    0.65    0.06
  -2 -11  -3    0.54    0.08
  -2 -11  -3    0.46    0.07
  -2 -11  -3    0.52    0.07
   0  13  -4    1.79    0.12
   0 -13   4    1.66    0.11
  -2 -12   4    1.66    0.13
  -1 -12   4    0.80    0.08
  -1 -12   4    0.69    0.10
   0 -12   4    3.69    0.16
   0 -12   4    3.53    0.19
   0 -12   4    3.41    0.21
   0 -12   4    3.60    0.18
  -1  12  -4    5.48    0.25
   1 -12   4    5.13    0.19
   1 -12   4    5.12    0.22
   1 -12   4    5.00    0.25
  -2  12  -4    2.63    0.15
   2 -12   4    2.42    0.14
   2 -12   4    2.45    0.16
   3  11  -4    2.21    0.13
   3  11  -4    2.21    0.15
  -3 -11   4    2.29    0.14
  -3 -11   4    2.15    0.12
  -2 -11   4    0.57    0.09
  -2 -11   4    0.66    0.10
  -1 -11   4    3.70    0.23
  -1 -11   4    3.59    0.17
   0  11  -4    1.97    0.27
   0  11  -4    1.40    0.20
   0 -11   4    1.25    0.16
   0 -11   4    1.30    0.23
   0 -11   4    1.60    0.26
   0 -11   4    0.89    0.13
   0 -11   4    1.34    0.13
   0 -11   4    1.10    0.15
  -1  11  -4    1.73    0.27
  -1  11  -4    1.65    0.25
   1 -11   4    1.57    0.12
   1 -11   4    1.36    0.16
   1 -11   4    1.64    0.21
   1 -11   4    1.70    0.26
   1 -11   4    1.45    0.26
  -2  11  -4   12.87    0.48
   2 -11   4   12.56    0.43
   2 -11   4   13.54    0.50
   2 -11   4   12.86    0.47
  -3  11  -4    1.72    0.14
   3 -11   4    1.42    0.15
   3 -11   4    1.57    0.11
   3  10  -4    0.06    0.07
  -3 -10   4    0.16    0.08
  -3 -10   4    0.03    0.08
   2  10  -4    2.42    0.17
   2  10  -4    2.49    0.26
  -2 -10   4    2.51    0.25
  -2 -10   4    2.02    0.21
  -2 -10   4    2.43    0.14
  -1 -10   4    5.09    0.22
  -1 -10   4    4.96    0.22
   0  10  -4    1.46    0.21
   0  10  -4    0.98    0.21
   0 -10   4    1.29    0.16
   0 -10   4    1.03    0.19
   0 -10   4    1.07    0.14
   0 -10   4    1.27    0.15
   0 -10   4    0.98    0.12
   0 -10   4    1.12    0.23
  -1  10  -4    8.21    0.47
  -1  10  -4    9.77    0.49
   1 -10   4    8.73    0.37
   1 -10   4    8.78    0.47
   1 -10   4    8.65    0.36
   1 -10   4    8.51    0.33
   1 -10   4    8.61    0.32
   1 -10   4    9.23    0.53
  -2  10  -4    1.01    0.19
  -2  10  -4    0.85    0.13
  -2  10  -4    0.73    0.19
   2 -10   4    0.70    0.11
   2 -10   4    0.79    0.15
   2 -10   4    0.73    0.18
   2 -10   4    0.97    0.11
   2 -10   4    0.63    0.23
  -3  10  -4    0.97    0.16
   3 -10   4    0.95    0.12
   3 -10   4    0.98    0.14
   4   9  -4    0.69    0.10
   4   9  -4    0.51    0.08
  -4  -9   4    0.47    0.08
  -4  -9   4    0.55    0.09
   3   9  -4    0.24    0.09
   3   9  -4    0.21    0.17
  -3  -9   4    0.11    0.09
  -3  -9   4    0.23    0.07
  -3  -9   4    0.21    0.13
   2   9  -4   28.01    0.95
   2   9  -4   27.58    1.07
  -2  -9   4   27.97    0.94
  -2  -9   4   29.26    1.05
  -2  -9   4   27.97    0.92
   0   9  -4    2.66    0.40
   0   9  -4    2.83    0.28
   0   9  -4    2.72    0.27
   0  -9   4    2.89    0.29
   0  -9   4    2.51    0.30
   0  -9   4    3.15    0.46
  -1   9  -4    9.05    0.48
  -1   9  -4    9.54    0.66
  -1   9  -4    9.78    0.50
   1  -9   4    9.68    0.68
   1  -9   4    8.90    0.52
   1  -9   4    9.07    0.46
  -2   9  -4   43.93    1.48
  -2   9  -4   45.32    1.58
  -2   9  -4   44.96    1.60
   2  -9   4   42.84    1.39
   2  -9   4   42.45    1.41
   2  -9   4   43.25    1.50
   2  -9   4   42.74    1.58
   2  -9   4   42.09    1.37
  -3   9  -4    6.52    0.40
  -3   9  -4    8.07    0.44
  -3   9  -4    7.36    0.33
   3  -9   4    6.07    0.42
   3  -9   4    7.14    0.25
   3  -9   4    6.64    0.29
   3  -9   4    6.92    0.40
  -4   9  -4   11.18    0.40
  -4   9  -4   10.65    0.41
   4  -9   4   10.16    0.40
   4   8  -4    3.56    0.20
   4   8  -4    3.69    0.20
  -4  -8   4    3.19    0.17
  -4  -8   4    3.12    0.13
   3   8  -4    6.14    0.29
   3   8  -4    6.45    0.42
  -3  -8   4    5.54    0.26
  -3  -8   4    5.25    0.26
  -3  -8   4    5.53    0.35
   2   8  -4   10.41    0.60
   2   8  -4    9.26    0.49
  -2  -8   4    8.80    0.61
  -2  -8   4    9.31    0.45
   1   8  -4   27.76    1.03
   1   8  -4   28.39    1.04
   1   8  -4   27.45    1.12
  -1  -8   4   24.11    1.09
  -1  -8   4   25.15    0.92
  -1  -8   4   26.01    0.97
   0   8  -4   35.08    1.40
   0   8  -4   35.37    1.23
   0   8  -4   34.38    1.25
   0  -8   4   34.23    1.24
   0  -8   4   32.91    1.18
   0  -8   4   33.55    1.38
  -1   8  -4    5.69    0.50
  -1   8  -4    6.08    0.35
  -1   8  -4    6.34    0.37
   1  -8   4    5.96    0.39
   1  -8   4    5.51    0.33
   1  -8   4    5.78    0.50
  -2   8  -4   45.10    1.84
  -2   8  -4   46.75    1.63
  -2   8  -4   47.30    1.64
   2  -8   4   46.18    1.62
   2  -8   4   47.18    1.89
   2  -8   4   46.62    1.68
  -3   8  -4   59.80    1.94
  -3   8  -4   59.04    2.04
   3  -8   4   55.05    1.76
   3  -8   4   56.79    1.79
   3  -8   4   54.99    1.90
   3  -8   4   54.44    1.95
  -4   8  -4    1.40    0.16
  -4   8  -4    1.76    0.19
   5   7  -4    0.76    0.08
  -5  -7   4    0.88    0.09
   4   7  -4    1.90    0.16
   4   7  -4    1.76    0.25
   4   7  -4    1.99    0.16
  -4  -7   4    2.06    0.16
  -4  -7   4    2.07    0.23
  -4  -7   4    1.82    0.17
   3   7  -4    2.10    0.27
   3   7  -4    1.60    0.17
  -3  -7   4    1.65    0.23
  -3  -7   4    1.21    0.19
  -3  -7   4    1.58    0.11
  -3  -7   4    1.86    0.16
   2   7  -4   16.64    0.71
   2   7  -4   16.72    0.79
  -2  -7   4   15.35    0.82
  -2  -7   4   16.90    0.65
   1   7  -4    4.50    0.29
   1   7  -4    4.40    0.29
   1   7  -4    4.24    0.33
  -1  -7   4    4.84    0.38
  -1  -7   4    3.73    0.24
  -1  -7   4    4.23    0.29
   0   7  -4    5.62    0.41
   0   7  -4    5.51    0.31
   0   7  -4    5.87    0.30
   0   7  -4    5.50    0.49
   0  -7   4    6.01    0.44
   0  -7   4    4.73    0.28
   0  -7   4    5.90    0.34
   0  -7   4    5.48    0.51
  -1   7  -4   26.38    1.09
  -1   7  -4   24.39    0.93
  -1   7  -4   24.95    0.92
   1  -7   4   25.09    1.08
   1  -7   4   23.63    0.93
   1  -7   4   23.75    0.88
  -2   7  -4    1.02    0.27
  -2   7  -4    1.26    0.20
  -2   7  -4    1.25    0.21
   2  -7   4    0.65    0.17
   2  -7   4    1.40    0.23
   2  -7   4    1.30    0.32
  -3   7  -4    0.14    0.10
  -3   7  -4    0.17    0.15
   3  -7   4    0.20    0.46
   3  -7   4    0.27    0.11
   3  -7   4    0.13    0.07
   3  -7   4    0.30    0.16
  -4   7  -4    5.78    0.38
  -4   7  -4    6.45    0.30
  -4   7  -4    6.24    0.31
   4  -7   4    5.73    0.27
   4  -7   4    6.18    0.37
  -5   7  -4    8.84    0.31
   5  -7   4    7.27    0.31
   5   6  -4    2.78    0.14
  -5  -6   4    2.80    0.13
  -5  -6   4    2.85    0.15
   4   6  -4    2.79    0.28
   4   6  -4    2.50    0.17
   4   6  -4    2.22    0.18
  -4  -6   4    2.61    0.19
  -4  -6   4    2.64    0.20
  -4  -6   4    2.65    0.26
   3   6  -4   13.06    0.67
   3   6  -4   12.16    0.59
  -3  -6   4   11.11    0.71
  -3  -6   4   10.65    0.50
   2   6  -4   30.89    1.17
   2   6  -4   34.44    1.27
  -2  -6   4   29.83    1.07
  -2  -6   4   31.31    1.26
   1   6  -4   32.69    1.18
   1   6  -4   34.49    1.25
   1   6  -4   33.70    1.19
   1   6  -4   35.07    1.48
  -1  -6   4   32.97    1.15
  -1  -6   4   32.54    1.25
  -1  -6   4   32.14    1.45
  -1  -6   4   31.42    1.10
   0   6  -4   17.28    0.64
   0   6  -4   16.78    0.63
   0   6  -4   15.52    0.71
   0   6  -4   16.05    0.82
   0   6  -4   15.24    0.82
   0   6  -4   17.39    0.67
   0  -6   4   15.70    0.83
   0  -6   4   15.67    0.68
   0  -6   4   16.05    0.63
   0  -6   4   15.40    0.70
   0  -6   4   15.68    0.81
  -1   6  -4   12.39    0.62
  -1   6  -4   13.00    0.52
  -1   6  -4   12.15    0.50
  -1   6  -4   12.85    0.77
   1  -6   4   12.38    0.65
   1  -6   4   12.12    0.53
   1  -6   4   12.38    0.50
   1  -6   4   12.45    0.76
  -2   6  -4   24.02    1.05
  -2   6  -4   23.70    0.87
  -2   6  -4   22.33    0.87
   2  -6   4   24.09    0.90
   2  -6   4   22.24    1.06
   2  -6   4   22.43    0.86
  -3   6  -4    1.82    0.34
  -3   6  -4    1.49    0.25
   3  -6   4    1.66    0.27
   3  -6   4    1.64    0.37
  -4   6  -4    1.56    0.18
  -4   6  -4    1.48    0.21
  -4   6  -4    1.10    0.19
   4  -6   4    1.39    0.18
   4  -6   4    1.52    0.27
  -5   6  -4    4.32    0.19
   5  -6   4    3.95    0.15
   5  -6   4    3.91    0.19
   5   5  -4    4.84    0.20
  -5  -5   4    5.29    0.23
  -5  -5   4    5.12    0.22
   4   5  -4    0.96    0.23
   4   5  -4    0.85    0.14
  -4  -5   4    1.02    0.17
  -4  -5   4    0.90    0.17
  -4  -5   4    1.08    0.15
  -4  -5   4    0.97    0.11
   3   5  -4   10.74    0.58
   3   5  -4   10.82    0.52
  -3  -5   4   10.60    0.65
  -3  -5   4   10.36    0.48
   2   5  -4   16.07    0.91
   2   5  -4   16.12    0.64
   2   5  -4   15.78    0.70
  -2  -5   4   15.70    0.60
  -2  -5   4   14.97    0.73
  -2  -5   4   16.57    0.93
   1   5  -4   63.78    2.34
   1   5  -4   62.02    2.13
  -1  -5   4   56.67    2.17
  -1  -5   4   56.99    1.98
   0   5  -4    4.49    0.38
   0   5  -4    4.37    0.26
   0   5  -4    4.98    0.38
   0   5  -4    4.67    0.31
   0  -5   4    4.88    0.41
   0  -5   4    3.85    0.30
   0  -5   4    4.29    0.30
   0  -5   4    4.74    0.38
  -1   5  -4   28.41    1.11
  -1   5  -4   29.41    1.26
   1  -5   4   25.83    1.05
   1  -5   4   26.52    1.18
  -2   5  -4   51.45    1.75
  -2   5  -4   50.15    1.74
  -2   5  -4   53.11    1.92
  -2   5  -4   53.87    1.87
  -2   5  -4   52.80    2.11
   2  -5   4   50.98    1.68
   2  -5   4   47.43    1.70
   2  -5   4   51.48    2.04
   2  -5   4   50.82    1.79
   2  -5   4   50.41    1.87
  -3   5  -4   17.40    0.69
  -3   5  -4   15.77    0.85
  -3   5  -4   16.29    0.82
  -3   5  -4   16.49    0.66
   3  -5   4   16.05    0.70
   3  -5   4   16.07    0.66
   3  -5   4   15.41    0.79
   3  -5   4   15.79    0.86
  -4   5  -4   10.72    0.43
  -4   5  -4   11.44    0.53
  -4   5  -4   10.45    0.45
  -4   5  -4   11.08    0.52
   4  -5   4    9.67    0.52
   4  -5   4   10.64    0.58
   4  -5   4   10.19    0.35
   4  -5   4    9.35    0.41
   4  -5   4   10.52    0.43
  -5   5  -4    5.31    0.23
   5  -5   4    5.05    0.22
   5  -5   4    5.07    0.24
   5   4  -4   10.17    0.36
  -5  -4   4   11.27    0.42
   4   4  -4   69.34    2.23
  -4  -4   4   69.04    2.23
  -4  -4   4   71.75    2.26
   3   4  -4    6.41    0.41
   3   4  -4    5.73    0.34
  -3  -4   4    5.63    0.31
  -3  -4   4    5.91    0.46
   2   4  -4   28.82    1.29
   2   4  -4   27.91    1.03
   2   4  -4   30.64    1.10
  -2  -4   4   27.83    1.27
  -2  -4   4   26.98    1.07
  -2  -4   4   26.44    0.94
   1   4  -4   44.07    1.68
   1   4  -4   43.82    1.51
  -1  -4   4   42.09    1.65
  -1  -4   4   41.66    1.48
   0   4  -4  171.98    5.41
   0   4  -4  162.75    5.55
   0   4  -4  171.58    5.69
   0   4  -4  167.78    5.43
   0   4  -4  173.34    5.47
   0   4  -4  170.38    5.45
   0   4  -4  173.37    5.41
   0   4  -4  167.56    5.42
   0   4  -4  167.76    5.54
   0  -4   4  157.24    5.06
   0  -4   4  153.12    5.01
   0  -4   4  158.52    5.27
   0  -4   4  162.58    5.16
   0  -4   4  143.15    5.06
   0  -4   4  164.03    5.24
   0  -4   4  166.40    5.23
  -1   4  -4   93.95    3.18
  -1   4  -4   90.90    3.03
  -1   4  -4   90.70    3.06
  -1   4  -4   94.82    3.24
  -1   4  -4   94.64    3.11
  -1   4  -4   94.27    3.09
   1  -4   4   83.56    2.77
   1  -4   4   80.83    2.75
   1  -4   4   84.84    2.88
   1  -4   4   83.10    3.05
   1  -4   4   86.67    2.83
   1  -4   4   86.19    2.94
  -2   4  -4   58.81    2.00
  -2   4  -4   57.06    2.20
  -2   4  -4   54.97    1.87
  -2   4  -4   57.20    2.02
  -2   4  -4   55.83    1.87
  -2   4  -4   56.46    2.06
   2  -4   4   53.35    1.83
   2  -4   4   57.84    1.98
   2  -4   4   53.62    1.80
   2  -4   4   54.29    1.90
   2  -4   4   50.06    2.25
   2  -4   4   55.78    2.13
  -3   4  -4   19.35    0.77
  -3   4  -4   20.92    0.78
  -3   4  -4   20.60    0.95
  -3   4  -4   20.10    0.94
   3  -4   4   20.82    0.92
   3  -4   4   19.57    0.96
   3  -4   4   19.14    0.75
   3  -4   4   19.22    0.80
  -4   4  -4    9.04    0.47
  -4   4  -4    8.15    0.37
  -4   4  -4    9.36    0.46
  -4   4  -4    9.34    0.39
   4  -4   4    8.45    0.47
   4  -4   4    8.61    0.32
   4  -4   4    8.61    0.53
   4  -4   4    8.94    0.38
  -5   4  -4    2.70    0.16
   5  -4   4    2.39    0.18
   5  -4   4    2.48    0.18
   5   3  -4    7.07    0.26
  -5  -3   4    7.12    0.26
  -5  -3   4    7.33    0.30
  -5  -3   4    7.01    0.30
   4   3  -4   47.59    1.57
   4   3  -4   48.57    1.59
  -4  -3   4   34.38    1.17
   3   3  -4    3.07    0.28
   3   3  -4    3.02    0.26
   3   3  -4    3.88    0.34
  -3  -3   4    3.09    0.32
  -3  -3   4    3.37    0.22
  -3  -3   4    2.82    0.35
   2   3  -4   34.99    1.51
   2   3  -4   35.57    1.27
   2   3  -4   36.42    1.26
   2   3  -4   35.18    1.45
  -2  -3   4   34.06    1.28
  -2  -3   4   33.64    1.27
  -2  -3   4   33.89    1.33
  -2  -3   4   35.13    1.45
   1   3  -4    5.18    0.40
   1   3  -4    4.96    0.30
   1   3  -4    4.74    0.26
   1   3  -4    5.17    0.45
   1   3  -4    4.86    0.36
   1   3  -4    4.72    0.27
   1   3  -4    5.06    0.31
  -1  -3   4    4.57    0.25
  -1  -3   4    4.69    0.32
  -1  -3   4    4.84    0.43
  -1  -3   4    4.63    0.29
  -1  -3   4    5.08    0.39
   0   3  -4   10.42    0.44
   0   3  -4    9.84    0.42
   0   3  -4   10.24    0.50
   0   3  -4   10.53    0.47
   0   3  -4   10.90    0.54
   0   3  -4   10.49    0.42
   0   3  -4   11.48    0.62
   0   3  -4   10.15    0.45
   0   3  -4   10.97    0.47
   0  -3   4    9.59    0.46
   0  -3   4   10.06    0.53
   0  -3   4    8.34    0.40
   0  -3   4    9.46    0.51
   0  -3   4    9.45    0.55
   0  -3   4    8.95    0.36
   0  -3   4    9.46    0.41
  -1   3  -4  187.73    6.07
  -1   3  -4  190.66    6.24
  -1   3  -4  184.14    6.10
  -1   3  -4  187.07    6.12
  -1   3  -4  208.00    6.41
  -1   3  -4  196.58    6.12
  -1   3  -4  190.99    6.22
  -1   3  -4  189.07    6.15
  -1   3  -4  185.42    6.09
   1  -3   4  178.72    5.61
   1  -3   4  166.08    5.70
   1  -3   4  179.90    5.66
   1  -3   4  179.27    5.77
   1  -3   4  174.84    5.76
   1  -3   4  173.40    5.55
  -2   3  -4   40.44    1.46
  -2   3  -4   39.32    1.46
  -2   3  -4   38.92    1.34
  -2   3  -4   41.16    1.53
  -2   3  -4   39.34    1.63
   2  -3   4   39.76    1.48
   2  -3   4   39.13    1.42
   2  -3   4   38.37    1.77
   2  -3   4   38.42    1.60
  -3   3  -4   32.17    1.12
  -3   3  -4   30.55    1.27
  -3   3  -4   31.59    1.12
  -3   3  -4   31.21    1.29
   3  -3   4   31.48    1.20
   3  -3   4   32.01    1.35
   3  -3   4   31.05    1.14
   3  -3   4   34.46    1.32
  -4   3  -4    1.12    0.30
  -4   3  -4    1.30    0.38
  -4   3  -4    1.44    0.17
  -4   3  -4    1.46    0.12
  -4   3  -4    1.10    0.18
  -4   3  -4    1.25    0.22
   4  -3   4    1.50    0.27
   4  -3   4    1.43    0.54
   4  -3   4    0.95    0.50
   4  -3   4    1.25    0.27
   4  -3   4    1.02    0.14
   4  -3   4    1.48    0.18
  -5   3  -4    6.59    0.38
  -5   3  -4    7.55    0.28
   5  -3   4    6.52    0.46
   5  -3   4    6.81    0.24
   5  -3   4    6.67    0.30
   5  -3   4    6.83    0.31
   5   2  -4   14.05    0.46
   5   2  -4   13.65    0.50
  -5  -2   4   14.87    0.48
  -5  -2   4   13.58    0.51
   4   2  -4   10.68    0.66
   4   2  -4   12.33    0.57
  -4  -2   4   11.17    0.53
  -4  -2   4   11.13    0.73
   3   2  -4   19.35    0.75
   3   2  -4   18.85    0.68
   3   2  -4   19.27    0.83
  -3  -2   4   19.58    0.88
  -3  -2   4   16.86    0.64
  -3  -2   4   17.29    0.92
  -3  -2   4   17.60    0.69
   2   2  -4  185.09    6.59
   2   2  -4  201.07    6.21
   2   2  -4  193.28    6.38
   2   2  -4  198.77    6.20
   2   2  -4  187.06    6.50
   2   2  -4  197.71    6.29
  -2  -2   4  193.23    6.13
  -2  -2   4  183.34    6.07
  -2  -2   4  186.13    6.03
  -2  -2   4  189.68    6.25
  -2  -2   4  186.50    6.40
  -2  -2   4  195.34    6.20
   1   2  -4   20.36    0.74
   1   2  -4   20.77    0.95
   1   2  -4   20.70    0.79
   1   2  -4   21.09    0.93
   1   2  -4   20.33    0.86
   1   2  -4   19.10    0.74
   1   2  -4   21.75    0.79
  -1  -2   4   20.48    0.83
  -1  -2   4   21.93    0.91
  -1  -2   4   20.49    0.72
  -1  -2   4   21.68    0.95
  -1  -2   4   20.16    0.78
   0   2  -4    3.13    0.23
   0   2  -4    3.25    0.29
   0   2  -4    2.45    0.23
   0   2  -4    2.79    0.24
   0   2  -4    2.94    0.20
   0   2  -4    2.99    0.20
   0  -2   4    3.08    0.26
   0  -2   4    2.59    0.19
   0  -2   4    3.01    0.26
   0  -2   4    2.68    0.22
   0  -2   4    2.53    0.14
  -1   2  -4   64.54    2.30
  -1   2  -4   63.33    2.38
  -1   2  -4   65.86    2.23
  -1   2  -4   64.69    2.20
  -1   2  -4   67.84    2.32
  -1   2  -4   64.57    2.18
  -1   2  -4   67.71    2.17
  -1   2  -4   66.51    2.19
  -1   2  -4   68.18    2.20
   1  -2   4   65.37    2.39
   1  -2   4   63.46    2.28
   1  -2   4   64.71    2.09
   1  -2   4   64.29    2.18
   1  -2   4   64.65    2.24
   1  -2   4   64.08    2.14
   1  -2   4   65.01    2.26
  -2   2  -4   11.47    0.79
  -2   2  -4   12.12    0.57
  -2   2  -4   11.18    0.51
  -2   2  -4   11.94    0.56
  -2   2  -4   11.85    0.69
  -2   2  -4   11.12    0.56
  -2   2  -4   11.12    0.59
  -2   2  -4   10.48    0.49
   2  -2   4   11.37    0.55
   2  -2   4   11.42    0.69
   2  -2   4   11.96    0.60
   2  -2   4   11.12    0.67
   2  -2   4   10.87    0.80
  -3   2  -4   10.15    0.44
  -3   2  -4    9.85    0.59
  -3   2  -4   10.02    0.58
  -3   2  -4    9.72    0.44
   3  -2   4    9.58    0.49
   3  -2   4    9.46    0.62
   3  -2   4   10.94    0.60
   3  -2   4    9.48    0.45
  -4   2  -4    2.80    0.42
  -4   2  -4    2.56    0.44
  -4   2  -4    3.12    0.29
  -4   2  -4    2.95    0.27
   4  -2   4    2.81    0.34
   4  -2   4    2.97    0.42
   4  -2   4    2.88    0.29
  -5   2  -4    2.16    0.13
  -5   2  -4    1.89    0.24
   5  -2   4    2.11    0.12
   5  -2   4    1.83    0.20
   5  -2   4    2.01    0.17
   5  -2   4    2.02    0.32
   5   1  -4    1.35    0.10
   5   1  -4    1.17    0.16
   5   1  -4    1.63    0.28
   5   1  -4    1.43    0.14
  -5  -1   4    1.68    0.25
  -5  -1   4    1.24    0.14
   4   1  -4   38.53    1.53
   4   1  -4   39.26    1.42
  -4  -1   4   39.25    1.70
  -4  -1   4   42.76    1.48
   3   1  -4   15.46    0.65
   3   1  -4   16.07    0.73
   3   1  -4   16.51    0.59
  -3  -1   4   15.56    0.62
  -3  -1   4   14.30    0.83
  -3  -1   4   15.34    0.78
   2   1  -4   42.72    1.55
   2   1  -4   42.33    1.80
   2   1  -4   44.13    1.60
   2   1  -4   41.94    1.76
   2   1  -4   42.80    1.45
   2   1  -4   42.41    1.49
  -2  -1   4   43.43    1.60
  -2  -1   4   39.90    1.44
  -2  -1   4   43.45    1.53
  -2  -1   4   40.13    1.72
  -2  -1   4   42.02    1.58
  -2  -1   4   41.69    1.42
   1   1  -4   44.00    1.52
   1   1  -4   44.31    1.57
   1   1  -4   43.43    1.65
   1   1  -4   42.94    1.45
   1   1  -4   43.86    1.67
   1   1  -4   44.13    1.48
   1   1  -4   44.12    1.47
  -1  -1   4   44.55    1.62
  -1  -1   4   45.28    1.43
  -1  -1   4   44.86    1.57
  -1  -1   4   42.22    1.58
  -1  -1   4   42.72    1.48
   0   1  -4   13.03    0.50
   0   1  -4   10.74    0.54
   0   1  -4   10.51    0.44
   0   1  -4   11.94    0.69
   0   1  -4   11.66    0.49
   0   1  -4   10.71    0.50
   0   1  -4   12.28    0.51
   0   1  -4   11.15    0.46
   0   1  -4   11.85    0.43
   0  -1   4   11.25    0.47
   0  -1   4   11.07    0.48
   0  -1   4   11.14    0.53
   0  -1   4   10.55    0.38
  -1   1  -4   33.98    1.15
  -1   1  -4   31.32    1.15
  -1   1  -4   31.53    1.26
  -1   1  -4   32.33    1.25
  -1   1  -4   34.45    1.19
  -1   1  -4   31.52    1.12
  -1   1  -4   33.26    1.13
  -1   1  -4   32.78    1.14
  -1   1  -4   33.25    1.26
  -1   1  -4   31.46    1.28
   1  -1   4   31.83    1.25
   1  -1   4   32.51    1.17
   1  -1   4   32.00    1.35
   1  -1   4   33.52    1.07
   1  -1   4   32.29    1.22
   1  -1   4   31.20    1.12
  -2   1  -4   56.41    1.98
  -2   1  -4   56.84    1.93
  -2   1  -4   54.50    1.96
  -2   1  -4   55.52    2.26
  -2   1  -4   59.28    2.11
  -2   1  -4   59.82    1.99
  -2   1  -4   58.44    2.13
  -2   1  -4   55.15    2.03
  -2   1  -4   54.90    1.93
   2  -1   4   53.78    1.83
   2  -1   4   54.22    2.03
   2  -1   4   54.72    1.90
   2  -1   4   55.22    1.96
   2  -1   4   54.89    2.26
   2  -1   4   55.20    2.09
   2  -1   4   56.50    2.10
  -3   1  -4   21.62    0.95
  -3   1  -4   21.32    0.78
  -3   1  -4   20.82    0.77
  -3   1  -4   19.65    0.91
   3  -1   4   21.08    1.36
   3  -1   4   19.92    0.74
   3  -1   4   20.77    0.84
   3  -1   4   20.95    0.80
   3  -1   4   22.22    1.01
   3  -1   4   22.09    0.94
  -4   1  -4   38.97    1.84
  -4   1  -4   35.73    1.29
  -4   1  -4   35.47    1.52
  -4   1  -4   37.40    1.32
   4  -1   4   35.81    1.26
   4  -1   4   33.72    1.43
   4  -1   4   34.36    1.32
  -5   1  -4   11.54    0.52
   5  -1   4   12.87    0.44
   5  -1   4   12.83    0.48
   5  -1   4   12.02    0.61
   5   0  -4    1.70    0.12
   5   0  -4    1.56    0.17
   5   0  -4    1.83    0.15
   5   0  -4    1.72    0.28
  -5   0   4    1.91    0.25
  -5   0   4    1.62    0.15
   4   0  -4   16.72    0.74
   4   0  -4   16.27    0.84
  -4   0   4   16.45    0.92
  -4   0   4   15.70    0.69
   3   0  -4   30.07    1.17
   3   0  -4   29.62    1.26
   3   0  -4   29.96    1.09
   3   0  -4   30.38    1.03
  -3   0   4   29.95    1.02
  -3   0   4   30.53    1.08
  -3   0   4   31.63    1.28
  -3   0   4   27.93    1.12
   2   0  -4   49.11    1.69
   2   0  -4   46.65    1.98
   2   0  -4   50.67    1.75
   2   0  -4   49.87    1.99
  -2   0   4   50.72    1.79
  -2   0   4   49.28    1.96
  -2   0   4   51.27    1.68
  -2   0   4   48.02    1.84
   1   0  -4   58.53    2.04
   1   0  -4   61.65    2.02
   1   0  -4   59.17    2.11
   1   0  -4   59.95    1.95
   1   0  -4   60.08    2.18
   1   0  -4   60.32    1.97
   1   0  -4   58.54    1.95
  -1   0   4   59.76    1.88
  -1   0   4   56.57    2.02
  -1   0   4   58.87    2.04
  -1   0   4   59.57    2.03
  -1   0   4   58.96    1.96
   0   0  -4   10.92    0.45
   0   0  -4   11.22    0.48
   0   0  -4    9.77    0.42
   0   0  -4   10.64    0.52
   0   0  -4   10.54    0.46
   0   0  -4   11.17    0.44
   0   0  -4    9.78    0.41
   0   0  -4   10.12    0.55
   0   0  -4   10.01    0.42
   0   0  -4   10.05    0.41
   0   0   4   10.12    0.47
   0   0   4   10.65    0.41
   0   0   4   10.31    0.41
   0   0   4   10.31    0.50
  -1   0  -4  107.45    3.73
  -1   0  -4  108.06    3.72
  -1   0  -4  109.87    3.76
  -1   0  -4  108.61    3.60
  -1   0  -4  117.40    3.62
  -1   0  -4  113.86    3.72
  -1   0  -4  110.53    3.61
  -1   0  -4  112.26    3.57
  -1   0  -4  115.46    3.66
  -1   0  -4  111.76    3.61
   1   0   4  106.65    3.44
   1   0   4  103.24    3.59
   1   0   4  106.10    3.69
   1   0   4  108.51    3.38
   1   0   4  108.17    3.54
  -2   0  -4    2.05    0.23
  -2   0  -4    2.46    0.25
  -2   0  -4    2.43    0.38
  -2   0  -4    1.78    0.22
  -2   0  -4    2.28    0.34
  -2   0  -4    1.80    0.25
  -2   0  -4    1.96    0.25
  -2   0  -4    2.27    0.32
  -2   0  -4    2.03    0.22
   2   0   4    2.14    0.19
   2   0   4    2.61    0.43
   2   0   4    2.27    0.38
   2   0   4    2.28    0.23
   2   0   4    2.70    0.32
   2   0   4    2.21    0.33
   2   0   4    2.02    0.31
  -3   0  -4    2.14    0.30
  -3   0  -4    2.62    0.29
  -3   0  -4    2.53    0.17
  -3   0  -4    2.50    0.23
  -3   0  -4    2.50    0.22
  -3   0  -4    2.39    0.33
  -3   0  -4    2.33    0.20
  -3   0  -4    2.49    0.23
  -3   0  -4    2.10    0.18
  -3   0  -4    2.89    0.34
   3   0   4    2.66    0.37
   3   0   4    2.79    0.19
   3   0   4    2.35    0.26
   3   0   4    2.18    0.25
   3   0   4    2.80    0.26
   3   0   4    2.16    0.31
  -4   0  -4    1.25    0.23
  -4   0  -4    0.40    0.25
  -4   0  -4    0.89    0.15
   4   0   4    1.01    0.22
   4   0   4    1.01    0.20
   4   0   4    0.83    0.25
  -5   0  -4    5.97    0.28
  -5   0  -4    5.89    0.22
  -5   0  -4    5.42    0.35
   5   0   4    5.28    0.39
   5   0   4    5.65    0.23
   5   0   4    5.39    0.26
   5  -1  -4    1.53    0.14
   5  -1  -4    1.90    0.28
   5  -1  -4    1.39    0.11
   5  -1  -4    1.33    0.15
  -5   1   4    1.64    0.24
   4  -1  -4    1.42    0.32
   4  -1  -4    1.62    0.27
  -4   1   4    1.52    0.24
  -4   1   4    1.60    0.21
  -4   1   4    1.56    0.35
   3  -1  -4    1.31    0.19
   3  -1  -4    1.77    0.30
   3  -1  -4    1.50    0.14
   3  -1  -4    1.29    0.18
   3  -1  -4    1.50    0.23
   3  -1  -4    1.60    0.25
  -3   1   4    1.60    0.15
  -3   1   4    1.56    0.22
  -3   1   4    1.38    0.27
  -3   1   4    1.09    0.32
  -3   1   4    1.59    0.18
   2  -1  -4   49.06    1.73
   2  -1  -4   50.15    1.71
   2  -1  -4   48.98    1.99
   2  -1  -4   48.79    2.01
  -2   1   4   47.13    1.59
  -2   1   4   43.12    1.85
  -2   1   4   48.82    1.73
  -2   1   4   50.62    1.80
   1  -1  -4  322.67   10.36
   1  -1  -4  322.03   10.24
   1  -1  -4  322.57   10.47
   1  -1  -4  327.84   10.30
   1  -1  -4  328.89   10.31
  -1   1   4  318.35    9.93
  -1   1   4  302.37    9.94
  -1   1   4  317.70    9.78
  -1   1   4  311.62    9.96
   0  -1  -4   56.31    1.88
   0  -1  -4   57.23    1.88
   0  -1  -4   57.99    2.06
   0  -1  -4   58.56    1.95
   0  -1  -4   58.84    1.94
   0  -1  -4   54.10    1.89
   0  -1  -4   58.20    2.01
   0  -1  -4   57.76    1.91
   0  -1  -4   56.73    1.87
   0  -1  -4   57.81    1.99
  -1  -1  -4   57.74    1.89
  -1  -1  -4   55.76    1.89
  -1  -1  -4   54.64    1.88
  -1  -1  -4   55.37    1.97
  -1  -1  -4   56.54    2.03
  -1  -1  -4   57.36    1.92
  -1  -1  -4   56.13    1.92
  -1  -1  -4   56.51    2.00
  -1  -1  -4   56.91    1.82
  -1  -1  -4   53.70    1.88
   1   1   4   52.41    1.98
   1   1   4   55.52    1.74
   1   1   4   54.05    1.89
   1   1   4   55.44    2.05
   1   1   4   54.50    1.81
  -2  -1  -4   15.12    0.68
  -2  -1  -4   14.74    0.67
  -2  -1  -4   15.11    0.68
  -2  -1  -4   15.94    0.68
  -2  -1  -4   16.63    0.74
  -2  -1  -4   17.14    0.84
  -2  -1  -4   16.00    0.85
  -2  -1  -4   17.20    0.93
  -2  -1  -4   15.53    0.67
   2   1   4   15.88    0.61
   2   1   4   16.03    0.67
   2   1   4   15.24    0.93
   2   1   4   15.54    0.84
   2   1   4   14.99    0.86
   2   1   4   16.51    0.84
  -3  -1  -4    6.20    0.46
  -3  -1  -4    6.94    0.38
  -3  -1  -4    6.94    0.50
  -3  -1  -4    7.00    0.31
  -3  -1  -4    6.44    0.32
  -3  -1  -4    6.57    0.34
  -3  -1  -4    6.90    0.34
  -3  -1  -4    6.67    0.36
  -3  -1  -4    6.73    0.47
  -3  -1  -4    7.28    0.46
   3   1   4    7.10    0.46
   3   1   4    6.90    0.41
   3   1   4    6.45    0.31
   3   1   4    6.54    0.38
   3   1   4    6.78    0.55
   3   1   4    6.74    0.39
  -4  -1  -4    3.08    0.27
  -4  -1  -4    3.40    0.28
   4   1   4    3.03    0.31
   4   1   4    3.04    0.32
  -5  -1  -4    1.05    0.15
  -5  -1  -4    1.06    0.10
   5   1   4    1.14    0.12
   5  -2  -4    2.51    0.46
   5  -2  -4    1.98    0.13
   5  -2  -4    1.94    0.16
   5  -2  -4    2.18    0.15
   5  -2  -4    2.19    0.15
  -5   2   4    2.27    0.24
   4  -2  -4    6.98    0.32
   4  -2  -4    7.26    0.35
   4  -2  -4    7.45    0.30
   4  -2  -4    7.19    0.32
   4  -2  -4    7.82    0.47
  -4   2   4    7.81    0.43
  -4   2   4    6.97    0.37
  -4   2   4    7.53    0.63
   3  -2  -4   21.57    0.83
   3  -2  -4   21.52    0.77
   3  -2  -4   22.59    0.94
   3  -2  -4   20.53    0.99
   3  -2  -4   22.51    0.85
   3  -2  -4   21.85    0.85
  -3   2   4   21.22    0.87
  -3   2   4   22.48    1.02
  -3   2   4   21.77    0.77
  -3   2   4   21.41    0.83
   2  -2  -4   18.12    0.97
   2  -2  -4   16.80    0.71
   2  -2  -4   16.90    0.65
   2  -2  -4   15.89    0.64
   2  -2  -4   15.35    0.76
   2  -2  -4   17.62    0.70
   2  -2  -4   17.73    0.95
  -2   2   4   16.74    0.88
  -2   2   4   16.48    0.77
  -2   2   4   17.26    0.65
  -2   2   4   17.53    0.83
   1  -2  -4   55.54    1.87
   1  -2  -4   53.90    1.81
   1  -2  -4   53.53    2.03
   1  -2  -4   57.02    1.93
   1  -2  -4   53.00    1.74
  -1   2   4   51.17    1.66
  -1   2   4   54.47    1.85
  -1   2   4   51.74    1.82
   0  -2  -4   28.36    1.02
   0  -2  -4   28.73    1.13
   0  -2  -4   29.05    1.03
   0  -2  -4   30.80    1.08
   0  -2  -4   28.80    1.02
   0  -2  -4   29.74    1.13
   0  -2  -4   30.19    1.01
   0  -2  -4   27.19    1.04
   0  -2  -4   30.42    1.18
   0  -2  -4   29.59    1.05
   0  -2  -4   29.61    1.12
  -1  -2  -4   49.82    1.84
  -1  -2  -4   48.43    1.64
  -1  -2  -4   50.82    1.89
  -1  -2  -4   51.56    1.74
  -1  -2  -4   48.44    1.72
  -1  -2  -4   50.89    1.73
  -1  -2  -4   50.42    1.81
  -1  -2  -4   51.80    1.74
  -1  -2  -4   51.67    1.77
   1   2   4   48.73    1.81
   1   2   4   51.12    1.85
   1   2   4   46.53    1.53
   1   2   4   47.48    1.70
   1   2   4   46.72    1.61
   1   2   4   48.51    1.83
  -2  -2  -4    5.41    0.52
  -2  -2  -4    4.85    0.29
  -2  -2  -4    5.02    0.30
  -2  -2  -4    5.03    0.35
  -2  -2  -4    5.97    0.52
  -2  -2  -4    5.49    0.27
  -2  -2  -4    5.27    0.27
  -2  -2  -4    6.08    0.43
  -2  -2  -4    5.16    0.47
  -2  -2  -4    5.61    0.35
  -2  -2  -4    4.91    0.37
  -2  -2  -4    5.48    0.37
  -2  -2  -4    6.26    0.30
   2   2   4    5.75    0.30
   2   2   4    5.03    0.53
   2   2   4    5.74    0.49
   2   2   4    5.50    0.50
  -3  -2  -4   22.83    1.00
  -3  -2  -4   23.31    0.85
  -3  -2  -4   21.37    0.84
  -3  -2  -4   24.09    0.82
  -3  -2  -4   24.32    1.03
  -3  -2  -4   24.32    1.06
  -3  -2  -4   23.13    0.87
  -3  -2  -4   23.38    0.92
   3   2   4   23.76    0.93
   3   2   4   24.31    0.98
   3   2   4   23.56    0.83
   3   2   4   22.02    1.10
  -4  -2  -4    3.41    0.27
  -4  -2  -4    3.44    0.29
  -4  -2  -4    3.39    0.31
  -4  -2  -4    3.37    0.19
  -4  -2  -4    3.37    0.22
   4   2   4    3.03    0.26
  -5  -2  -4   15.36    0.51
  -5  -2  -4   14.66    0.52
   5   2   4   13.86    0.48
   5  -3  -4   10.86    0.39
   5  -3  -4   10.91    0.40
   5  -3  -4   10.71    0.39
   4  -3  -4    4.96    0.38
   4  -3  -4    4.68    0.24
   4  -3  -4    4.97    0.28
   4  -3  -4    4.40    0.23
   4  -3  -4    4.65    0.22
  -4   3   4    4.84    0.30
  -4   3   4    5.14    0.35
   3  -3  -4   13.73    0.59
   3  -3  -4   12.48    0.72
   3  -3  -4   13.03    0.69
   3  -3  -4   13.41    0.58
   3  -3  -4   11.88    0.55
  -3   3   4   13.49    0.62
  -3   3   4   13.86    0.76
  -3   3   4   12.84    0.57
  -3   3   4   13.57    0.52
   2  -3  -4   35.59    1.27
   2  -3  -4   33.08    1.20
   2  -3  -4   37.63    1.61
   2  -3  -4   33.83    1.23
   2  -3  -4   35.71    1.14
   2  -3  -4   34.67    1.20
   2  -3  -4   33.77    1.58
   2  -3  -4   34.85    1.29
   2  -3  -4   35.88    1.22
  -2   3   4   35.50    1.22
  -2   3   4   34.57    1.35
  -2   3   4   34.52    1.17
  -2   3   4   36.01    1.43
  -2   3   4   34.82    1.50
   1  -3  -4    6.46    0.40
   1  -3  -4    5.95    0.31
   1  -3  -4    6.32    0.48
   1  -3  -4    5.76    0.25
  -1   3   4    5.72    0.23
  -1   3   4    5.71    0.37
  -1   3   4    6.34    0.38
  -1   3   4    5.82    0.35
   0  -3  -4   42.27    1.52
   0  -3  -4   39.51    1.44
   0  -3  -4   41.72    1.55
   0  -3  -4   40.25    1.40
   0  -3  -4   42.18    1.37
   0  -3  -4   38.03    1.40
   0  -3  -4   41.43    1.39
   0   3   4   43.84    1.45
   0   3   4   44.05    1.61
   0   3   4   43.47    1.62
  -1  -3  -4   31.13    1.35
  -1  -3  -4   33.42    1.28
  -1  -3  -4   31.68    1.19
  -1  -3  -4   33.70    1.25
  -1  -3  -4   33.70    1.20
  -1  -3  -4   32.67    1.32
  -1  -3  -4   33.02    1.20
  -1  -3  -4   31.50    1.11
  -1  -3  -4   33.01    1.36
   1   3   4   31.47    1.21
   1   3   4   31.43    1.32
  -2  -3  -4   37.01    1.28
  -2  -3  -4   39.81    1.30
  -2  -3  -4   35.83    1.24
  -2  -3  -4   39.25    1.49
  -2  -3  -4   37.63    1.34
  -2  -3  -4   36.97    1.57
  -2  -3  -4   38.34    1.65
  -2  -3  -4   35.42    1.64
  -2  -3  -4   38.45    1.41
  -2  -3  -4   39.79    1.44
  -2  -3  -4   37.82    1.42
  -2  -3  -4   38.71    1.29
   2   3   4   38.89    1.42
   2   3   4   40.33    1.69
   2   3   4   38.56    1.70
   2   3   4   39.55    1.34
   2   3   4   35.82    1.63
  -3  -3  -4    8.30    0.40
  -3  -3  -4    9.04    0.38
  -3  -3  -4    8.57    0.43
  -3  -3  -4    9.08    0.58
  -3  -3  -4    8.33    0.41
  -3  -3  -4    8.59    0.57
  -3  -3  -4    8.44    0.55
  -3  -3  -4    8.47    0.46
   3   3   4    8.22    0.47
   3   3   4    7.91    0.51
   3   3   4    8.69    0.66
   3   3   4    8.52    0.37
  -4  -3  -4   16.26    0.93
  -4  -3  -4   20.32    0.68
  -4  -3  -4   19.20    0.72
  -4  -3  -4   19.60    0.65
  -4  -3  -4   19.68    0.68
  -4  -3  -4   21.34    0.74
  -4  -3  -4   20.67    0.88
  -4  -3  -4   20.23    0.77
   4   3   4   19.22    0.81
   4   3   4   18.82    0.72
  -5  -3  -4    8.08    0.29
  -5  -3  -4    7.85    0.30
   5   3   4    7.72    0.29
   5  -4  -4    3.04    0.15
   5  -4  -4    3.15    0.13
   5  -4  -4    3.03    0.16
   5  -4  -4    2.94    0.15
   4  -4  -4    1.07    0.09
   4  -4  -4    1.07    0.13
   4  -4  -4    1.28    0.14
   4  -4  -4    1.31    0.21
   4  -4  -4    0.97    0.14
   4  -4  -4    1.25    0.13
   4  -4  -4    1.32    0.23
   4  -4  -4    1.24    0.18
   4  -4  -4    1.23    0.14
   4  -4  -4    1.47    0.29
  -4   4   4    1.23    0.22
  -4   4   4    0.87    0.14
   3  -4  -4   14.78    0.55
   3  -4  -4   14.09    0.64
   3  -4  -4   13.37    0.60
   3  -4  -4   14.33    0.79
  -3   4   4   13.80    0.60
  -3   4   4   14.38    0.55
  -3   4   4   13.89    0.65
   2  -4  -4    1.72    0.20
   2  -4  -4    1.88    0.23
   2  -4  -4    1.83    0.20
   2  -4  -4    1.83    0.13
  -2   4   4    1.76    0.18
  -2   4   4    1.92    0.14
   1  -4  -4   20.31    0.74
   1  -4  -4   21.29    0.93
   1  -4  -4   19.28    0.74
   1  -4  -4   21.37    0.78
  -1   4   4   21.51    0.74
  -1   4   4   21.22    0.90
   0  -4  -4  108.24    3.45
   0  -4  -4  102.14    3.34
   0  -4  -4  104.31    3.49
   0  -4  -4  105.02    3.63
   0  -4  -4  104.78    3.45
   0   4   4  101.46    3.55
   0   4   4  104.77    3.38
  -1  -4  -4   42.49    1.50
  -1  -4  -4   44.45    1.48
  -1  -4  -4   43.43    1.58
  -1  -4  -4   45.08    1.46
  -1  -4  -4   44.28    1.79
  -1  -4  -4   42.38    1.75
  -1  -4  -4   45.71    1.65
  -1  -4  -4   45.74    1.59
  -1  -4  -4   43.58    1.50
  -1  -4  -4   42.84    1.66
   1   4   4   41.47    1.62
   1   4   4   44.29    1.52
   1   4   4   43.49    1.74
  -2  -4  -4   19.03    0.90
  -2  -4  -4   17.44    0.67
  -2  -4  -4   17.12    0.62
  -2  -4  -4   20.32    0.82
  -2  -4  -4   18.32    0.83
  -2  -4  -4   17.06    0.67
  -2  -4  -4   18.75    0.83
  -2  -4  -4   17.27    0.73
  -2  -4  -4   17.98    0.70
   2   4   4   18.07    0.76
   2   4   4   17.74    0.68
   2   4   4   15.50    0.59
  -3  -4  -4    7.61    0.42
  -3  -4  -4    7.27    0.55
  -3  -4  -4    8.05    0.54
  -3  -4  -4    7.47    0.38
  -3  -4  -4    7.69    0.46
  -3  -4  -4    7.76    0.39
  -3  -4  -4    7.42    0.34
  -3  -4  -4    7.95    0.57
   3   4   4    8.31    0.37
   3   4   4    8.12    0.48
   3   4   4    7.53    0.52
  -4  -4  -4    4.16    0.17
  -4  -4  -4    3.81    0.19
  -4  -4  -4    3.75    0.29
  -4  -4  -4    3.79    0.20
  -4  -4  -4    3.73    0.25
   4   4   4    3.78    0.34
   4   4   4    3.86    0.27
  -5  -4  -4   37.41    1.18
  -5  -4  -4   35.46    1.20
  -5  -4  -4   37.30    1.17
   5   4   4   33.92    1.09
   5  -5  -4    0.84    0.09
   5  -5  -4    0.69    0.09
   5  -5  -4    0.97    0.09
   4  -5  -4    1.91    0.26
   4  -5  -4    2.10    0.15
   4  -5  -4    2.29    0.20
   4  -5  -4    1.68    0.27
   4  -5  -4    1.83    0.13
   4  -5  -4    2.03    0.15
   4  -5  -4    2.27    0.11
   4  -5  -4    1.94    0.15
  -4   5   4    1.90    0.21
   3  -5  -4    4.10    0.32
   3  -5  -4    4.59    0.44
   3  -5  -4    4.28    0.26
   3  -5  -4    4.37    0.34
  -3   5   4    4.26    0.26
  -3   5   4    4.45    0.35
   2  -5  -4   42.19    1.43
   2  -5  -4   45.52    1.65
   2  -5  -4   43.52    1.53
   2  -5  -4   44.38    1.56
  -2   5   4   41.43    1.49
  -2   5   4   44.00    1.41
   1  -5  -4   31.69    1.40
   1  -5  -4   32.86    1.19
   1  -5  -4   33.67    1.37
   1  -5  -4   34.77    1.17
   1  -5  -4   33.40    1.18
  -1   5   4   31.80    1.28
  -1   5   4   33.32    1.11
  -1   5   4   31.83    1.24
   0  -5  -4   22.84    0.83
   0  -5  -4   23.02    1.12
   0  -5  -4   24.16    0.83
   0  -5  -4   23.71    0.95
   0  -5  -4   24.19    1.00
   0  -5  -4   23.60    0.98
   0  -5  -4   22.23    0.83
   0   5   4   21.33    1.08
   0   5   4   24.47    0.80
   0   5   4   23.29    0.96
  -1  -5  -4    0.31    0.10
  -1  -5  -4    0.06    0.16
  -1  -5  -4    0.27    0.24
  -1  -5  -4    0.45    0.18
  -1  -5  -4    0.30    0.11
  -1  -5  -4    0.36    0.13
  -1  -5  -4    0.21    0.18
  -1  -5  -4    0.37    0.12
  -1  -5  -4    0.27    0.15
  -1  -5  -4    0.23    0.10
   1   5   4    0.40    0.19
   1   5   4    0.30    0.08
   1   5   4    0.20    0.17
   1   5   4    0.45    0.15
  -2  -5  -4    2.09    0.15
  -2  -5  -4    2.08    0.39
  -2  -5  -4    2.12    0.20
  -2  -5  -4    1.95    0.24
  -2  -5  -4    2.54    0.30
  -2  -5  -4    1.89    0.33
  -2  -5  -4    1.88    0.24
  -2  -5  -4    2.43    0.33
  -2  -5  -4    1.78    0.22
   2   5   4    2.19    0.24
   2   5   4    1.68    0.27
   2   5   4    1.80    0.16
  -3  -5  -4    3.71    0.32
  -3  -5  -4    3.87    0.30
  -3  -5  -4    3.41    0.42
  -3  -5  -4    3.91    0.45
  -3  -5  -4    4.14    0.43
  -3  -5  -4    3.28    0.27
  -3  -5  -4    3.87    0.24
   3   5   4    3.48    0.24
   3   5   4    3.87    0.41
   3   5   4    3.35    0.35
  -4  -5  -4    7.00    0.33
  -4  -5  -4    7.28    0.27
  -4  -5  -4    7.18    0.38
  -4  -5  -4    7.00    0.28
  -4  -5  -4    7.02    0.29
  -4  -5  -4    6.93    0.34
  -4  -5  -4    6.97    0.25
   4   5   4    7.77    0.46
   4   5   4    6.62    0.35
  -5  -5  -4    1.91    0.11
  -5  -5  -4    1.99    0.10
  -5  -5  -4    1.85    0.13
   5   5   4    1.84    0.11
   4  -6  -4    0.91    0.12
   4  -6  -4    0.90    0.12
   4  -6  -4    0.75    0.11
   4  -6  -4    0.81    0.07
   4  -6  -4    0.98    0.10
   4  -6  -4    0.95    0.15
   4  -6  -4    0.56    0.23
   4  -6  -4    0.93    0.10
  -4   6   4    0.92    0.14
   3  -6  -4    4.31    0.34
   3  -6  -4    4.39    0.22
   3  -6  -4    4.49    0.17
   3  -6  -4    4.47    0.19
   3  -6  -4    3.96    0.20
   3  -6  -4    4.13    0.26
   3  -6  -4    4.07    0.35
   3  -6  -4    4.12    0.22
   3  -6  -4    4.54    0.17
  -3   6   4    4.43    0.26
   2  -6  -4    4.61    0.40
   2  -6  -4    4.80    0.25
   2  -6  -4    5.54    0.35
   2  -6  -4    5.74    0.37
  -2   6   4    5.20    0.34
  -2   6   4    4.84    0.26
   1  -6  -4    5.33    0.33
   1  -6  -4    5.00    0.45
   1  -6  -4    4.99    0.31
   1  -6  -4    4.72    0.33
  -1   6   4    4.77    0.43
  -1   6   4    5.30    0.29
   0  -6  -4    2.50    0.23
   0  -6  -4    3.13    0.37
   0  -6  -4    2.46    0.22
   0  -6  -4    2.71    0.22
   0   6   4    3.01    0.20
  -1  -6  -4   21.28    0.77
  -1  -6  -4   19.08    0.90
  -1  -6  -4   19.82    0.96
  -1  -6  -4   19.16    0.82
  -1  -6  -4   19.79    0.75
   1   6   4   19.05    0.71
  -2  -6  -4    9.46    0.43
  -2  -6  -4    9.73    0.45
  -2  -6  -4    8.98    0.68
  -2  -6  -4    9.12    0.39
  -2  -6  -4   10.53    0.63
  -2  -6  -4    9.22    0.47
  -2  -6  -4    9.25    0.57
   2   6   4    9.61    0.50
   2   6   4    9.31    0.56
   2   6   4    9.46    0.39
  -3  -6  -4   16.54    0.57
  -3  -6  -4   14.70    0.63
  -3  -6  -4   15.68    0.68
  -3  -6  -4   14.80    0.51
  -3  -6  -4   15.17    0.59
  -3  -6  -4   16.56    0.60
  -3  -6  -4   15.66    0.53
  -3  -6  -4   14.91    0.64
  -3  -6  -4   15.73    0.52
  -3  -6  -4   14.75    0.51
   3   6   4   15.72    0.73
   3   6   4   15.99    0.61
  -4  -6  -4    5.38    0.33
  -4  -6  -4    6.17    0.25
  -4  -6  -4    5.84    0.22
  -4  -6  -4    6.06    0.24
  -4  -6  -4    6.35    0.29
   4  -7  -4    1.50    0.11
   4  -7  -4    1.43    0.12
   4  -7  -4    1.40    0.10
   4  -7  -4    1.24    0.12
   4  -7  -4    1.60    0.08
   4  -7  -4    1.72    0.12
   3  -7  -4    3.55    0.20
   3  -7  -4    3.91    0.17
   3  -7  -4    3.43    0.33
   3  -7  -4    3.95    0.19
   3  -7  -4    3.71    0.25
   3  -7  -4    3.85    0.16
   3  -7  -4    3.88    0.20
   3  -7  -4    4.27    0.35
  -3   7   4    3.43    0.24
   2  -7  -4   19.27    0.65
   2  -7  -4   18.54    0.69
   2  -7  -4   19.62    0.63
   2  -7  -4   18.81    0.64
   2  -7  -4   19.11    0.83
   2  -7  -4   20.43    0.81
   2  -7  -4   19.11    0.68
   2  -7  -4   19.49    0.67
  -2   7   4   18.59    0.68
  -2   7   4   18.16    0.76
   1  -7  -4   21.46    0.90
   1  -7  -4   23.52    0.88
   1  -7  -4   24.50    0.99
   1  -7  -4   24.73    0.94
  -1   7   4   23.83    1.31
  -1   7   4   21.92    0.85
   0  -7  -4   14.19    0.59
   0  -7  -4   13.91    0.65
   0  -7  -4   14.46    0.59
   0  -7  -4   13.48    0.79
   0   7   4   13.73    0.55
   0   7   4   12.67    0.74
  -1  -7  -4   27.56    1.01
  -1  -7  -4   28.42    1.17
  -1  -7  -4   29.99    1.35
  -1  -7  -4   33.22    1.12
  -1  -7  -4   31.31    1.09
   1   7   4   31.26    1.05
   1   7   4   30.20    1.11
  -2  -7  -4   10.46    0.77
  -2  -7  -4    9.83    0.91
  -2  -7  -4    9.53    0.49
  -2  -7  -4   10.26    0.47
  -2  -7  -4    9.78    0.41
  -2  -7  -4    9.71    0.34
  -2  -7  -4    9.66    0.38
  -2  -7  -4   10.51    0.49
  -2  -7  -4   10.25    0.40
  -2  -7  -4    9.37    0.41
  -2  -7  -4    9.72    0.35
  -2  -7  -4    9.59    0.34
   2   7   4    9.80    0.51
   2   7   4    9.29    0.66
  -3  -7  -4    8.00    0.43
  -3  -7  -4    7.86    0.46
  -3  -7  -4    8.86    0.32
  -3  -7  -4    8.73    0.39
  -3  -7  -4    8.71    0.38
  -3  -7  -4    8.94    0.34
  -3  -7  -4    8.86    0.36
  -3  -7  -4    8.68    0.30
  -3  -7  -4    8.74    0.31
  -3  -7  -4    8.25    0.42
   3   7   4    9.47    0.41
   3   7   4    8.54    0.49
  -4  -7  -4    0.22    0.08
  -4  -7  -4    0.27    0.04
  -4  -7  -4    0.23    0.06
  -4  -7  -4    0.19    0.06
  -4  -7  -4    0.24    0.05
   4  -8  -4    1.81    0.10
   4  -8  -4    1.91    0.11
   4  -8  -4    1.81    0.10
   4  -8  -4    1.64    0.08
   4  -8  -4    1.62    0.10
   4  -8  -4    1.84    0.11
   3  -8  -4   16.85    0.56
   3  -8  -4   16.99    0.55
   3  -8  -4   16.69    0.57
   3  -8  -4   17.25    0.59
   3  -8  -4   17.07    0.63
   3  -8  -4   16.24    0.58
   3  -8  -4   16.06    0.72
  -3   8   4   16.80    0.70
  -3   8   4   16.01    0.62
   2  -8  -4   32.41    1.11
   2  -8  -4   33.63    1.05
   2  -8  -4   31.90    1.04
   2  -8  -4   33.64    1.25
   2  -8  -4   31.08    1.05
   2  -8  -4   32.50    1.08
   2  -8  -4   32.43    1.08
  -2   8   4   31.87    1.10
   1  -8  -4   36.02    1.52
   1  -8  -4   41.97    1.42
   1  -8  -4   39.00    1.34
   1  -8  -4   41.85    1.29
   1  -8  -4   41.10    1.32
   1  -8  -4   40.59    1.29
   1  -8  -4   40.70    1.28
  -1   8   4   43.25    1.43
  -1   8   4   41.70    1.49
  -1   8   4   42.61    1.53
   0  -8  -4   14.01    0.49
   0  -8  -4   14.51    0.54
   0  -8  -4   14.61    0.88
   0  -8  -4   14.25    0.56
   0  -8  -4   15.63    0.54
   0  -8  -4   14.67    0.63
   0  -8  -4   14.50    0.63
   0  -8  -4   14.64    0.94
   0  -8  -4   15.14    0.49
   0   8   4   13.88    0.61
   0   8   4   14.67    0.54
   0   8   4   15.55    1.25
  -1  -8  -4   60.16    1.95
  -1  -8  -4   60.86    2.01
  -1  -8  -4   61.97    1.98
  -1  -8  -4   62.92    2.10
  -1  -8  -4   61.46    1.95
  -1  -8  -4   60.83    2.00
  -1  -8  -4   64.29    2.09
  -1  -8  -4   60.81    1.95
   1   8   4   64.71    2.10
  -2  -8  -4   13.17    0.46
  -2  -8  -4   14.31    0.49
  -2  -8  -4   13.53    0.46
  -2  -8  -4   13.81    0.52
  -2  -8  -4   13.72    0.46
  -2  -8  -4   13.53    0.61
  -2  -8  -4   13.77    0.53
  -2  -8  -4   13.71    0.60
   2   8   4   13.96    0.54
  -3  -8  -4    7.86    0.33
  -3  -8  -4    8.00    0.28
  -3  -8  -4    7.60    0.32
  -3  -8  -4    7.43    0.28
  -3  -8  -4    7.57    0.27
  -3  -8  -4    7.50    0.30
   3   8   4    6.43    0.32
  -4  -8  -4    0.95    0.08
  -4  -8  -4    0.85    0.08
  -4  -8  -4    0.86    0.07
   3  -9  -4    3.85    0.16
   3  -9  -4    3.77    0.18
   3  -9  -4    4.11    0.16
   3  -9  -4    3.94    0.19
   3  -9  -4    3.85    0.15
   2  -9  -4    8.01    0.46
   2  -9  -4    9.28    0.31
   2  -9  -4    8.87    0.35
   2  -9  -4    8.90    0.38
   2  -9  -4    8.77    0.30
   2  -9  -4    8.76    0.32
   2  -9  -4    8.69    0.35
  -2   9   4    9.25    0.48
  -2   9   4    8.24    0.37
   1  -9  -4    0.50    0.16
   1  -9  -4    0.54    0.10
   1  -9  -4    0.78    0.12
   1  -9  -4    0.54    0.07
   1  -9  -4    0.49    0.06
   1  -9  -4    0.60    0.11
  -1   9   4    0.59    0.16
  -1   9   4    0.61    0.11
   0  -9  -4    3.27    0.30
   0  -9  -4    2.89    0.18
   0  -9  -4    3.21    0.29
   0  -9  -4    2.87    0.20
   0  -9  -4    3.08    0.20
   0  -9  -4    2.98    0.13
   0  -9  -4    2.97    0.14
   0  -9  -4    2.94    0.14
   0   9   4    2.91    0.21
  -1  -9  -4   11.40    0.53
  -1  -9  -4   11.08    0.44
  -1  -9  -4   11.33    0.39
  -1  -9  -4   11.20    0.54
  -1  -9  -4   11.58    0.39
  -1  -9  -4   11.35    0.38
  -1  -9  -4   10.97    0.45
  -1  -9  -4   11.44    0.42
   1   9   4   11.11    0.44
  -2  -9  -4    0.69    0.11
  -2  -9  -4    0.71    0.07
  -2  -9  -4    0.82    0.10
  -2  -9  -4    0.70    0.16
  -2  -9  -4    0.81    0.14
  -2  -9  -4    0.80    0.16
  -2  -9  -4    0.66    0.07
  -2  -9  -4    0.67    0.10
   2   9   4    0.62    0.11
  -3  -9  -4    0.38    0.06
  -3  -9  -4    0.36    0.07
  -3  -9  -4    0.37    0.08
  -3  -9  -4    0.41    0.05
  -3  -9  -4    0.44    0.08
  -3  -9  -4    0.35    0.05
   2 -10  -4    8.31    0.28
   2 -10  -4    7.78    0.31
   2 -10  -4    8.29    0.29
   2 -10  -4    7.89    0.31
   2 -10  -4    8.14    0.28
   1 -10  -4    5.43    0.21
   1 -10  -4    5.74    0.20
   1 -10  -4    5.65    0.21
   1 -10  -4    5.64    0.24
   1 -10  -4    5.04    0.25
  -1  10   4    5.54    0.34
   0 -10  -4   17.92    0.58
   0 -10  -4   17.65    0.71
   0 -10  -4   16.89    0.62
   0 -10  -4   18.10    0.58
   0 -10  -4   17.19    0.61
   0 -10  -4   17.55    0.63
   0 -10  -4   17.94    0.57
   0  10   4   18.57    0.67
  -1 -10  -4    1.58    0.10
  -1 -10  -4    1.52    0.14
  -1 -10  -4    1.54    0.10
  -1 -10  -4    1.71    0.09
  -1 -10  -4    1.45    0.16
  -2 -10  -4    3.11    0.12
  -2 -10  -4    2.91    0.18
  -2 -10  -4    2.88    0.16
  -2 -10  -4    3.04    0.13
   1 -11  -4   22.82    0.71
   1 -11  -4   22.38    0.71
   1 -11  -4   22.18    0.73
   1 -11  -4   20.70    0.73
   0 -11  -4    0.14    0.07
   0 -11  -4    0.11    0.07
   0 -11  -4    0.05    0.04
   0 -11  -4    0.07    0.03
  -1 -11  -4    0.11    0.07
  -1 -11  -4    0.09    0.06
  -1 -11  -4    0.09    0.03
  -1 -11  -4    0.07    0.04
   2  12  -5    2.19    0.14
  -2 -12   5    2.27    0.15
  -1 -12   5    0.86    0.11
   0 -12   5    8.19    0.35
   0 -12   5    8.38    0.32
  -1  12  -5    2.13    0.16
   1 -12   5    2.25    0.20
   1 -12   5    2.24    0.15
  -2  12  -5    0.22    0.09
  -2  12  -5    0.13    0.07
   2 -12   5    0.22    0.07
   2 -12   5    0.21    0.08
   3  11  -5    4.22    0.18
   3  11  -5    3.59    0.18
  -3 -11   5    3.75    0.19
   2  11  -5    3.72    0.19
  -2 -11   5    4.00    0.23
  -1 -11   5   16.88    0.60
  -1 -11   5   16.16    0.55
   0  11  -5    8.16    0.47
   0 -11   5    8.49    0.34
   0 -11   5    8.00    0.47
   0 -11   5    8.45    0.40
   0 -11   5    8.39    0.30
  -1  11  -5    9.23    0.49
  -1  11  -5    9.56    0.48
  -1  11  -5   10.11    0.40
   1 -11   5    9.47    0.47
   1 -11   5   10.37    0.55
   1 -11   5   10.09    0.34
   1 -11   5    9.68    0.39
   1 -11   5    9.61    0.42
  -2  11  -5    3.79    0.21
   2 -11   5    3.59    0.19
   2 -11   5    3.21    0.25
  -3  11  -5    1.31    0.13
  -3  11  -5    1.35    0.13
   3 -11   5    1.23    0.15
   3 -11   5    1.20    0.10
   3  10  -5    3.06    0.19
   3  10  -5    3.52    0.19
   2  10  -5    4.53    0.33
   2  10  -5    4.84    0.24
  -2 -10   5    4.67    0.20
  -2 -10   5    4.38    0.31
  -1 -10   5   23.57    0.80
  -1 -10   5   23.78    0.78
   0  10  -5    9.12    0.49
   0 -10   5    8.81    0.32
   0 -10   5    8.84    0.55
   0 -10   5    8.63    0.52
   0 -10   5    8.39    0.35
   0 -10   5    8.44    0.35
  -1  10  -5    1.08    0.19
  -1  10  -5    0.82    0.20
   1 -10   5    0.65    0.12
   1 -10   5    0.93    0.16
   1 -10   5    0.70    0.11
   1 -10   5    0.84    0.24
   1 -10   5    0.91    0.19
  -2  10  -5   11.08    0.54
  -2  10  -5   11.22    0.45
  -2  10  -5   12.07    0.56
   2 -10   5   10.84    0.59
   2 -10   5   11.26    0.40
   2 -10   5   10.97    0.53
   2 -10   5   11.73    0.43
  -3  10  -5    1.26    0.16
  -3  10  -5    1.22    0.17
   3 -10   5    1.06    0.11
   3 -10   5    0.78    0.12
   4   9  -5    1.01    0.10
   4   9  -5    1.10    0.11
  -4  -9   5    0.90    0.10
   3   9  -5    0.25    0.09
   3   9  -5    0.51    0.18
   3   9  -5    0.22    0.09
  -3  -9   5    0.16    0.08
  -3  -9   5    0.46    0.14
  -3  -9   5    0.19    0.09
   2   9  -5    2.70    0.27
   2   9  -5    2.67    0.20
  -2  -9   5    2.56    0.20
  -2  -9   5    2.58    0.14
  -2  -9   5    3.09    0.28
   1   9  -5    3.59    0.29
   1   9  -5    4.14    0.33
  -1  -9   5    3.98    0.33
  -1  -9   5    3.94    0.34
  -1  -9   5    4.68    0.36
   0   9  -5   46.58    1.66
   0   9  -5   47.48    1.63
   0  -9   5   46.13    1.63
   0  -9   5   43.76    1.55
  -1   9  -5   23.73    0.94
  -1   9  -5   21.76    1.10
  -1   9  -5   24.72    0.92
   1  -9   5   21.98    1.11
   1  -9   5   24.58    0.98
   1  -9   5   22.80    0.89
  -2   9  -5   -0.03    0.14
  -2   9  -5    0.28    0.11
  -2   9  -5    0.13    0.17
   2  -9   5    0.14    0.06
   2  -9   5    0.18    0.10
   2  -9   5    0.07    0.18
   2  -9   5    0.19    0.11
   2  -9   5    0.16    0.15
  -3   9  -5    0.56    0.15
  -3   9  -5    0.65    0.12
  -3   9  -5    0.50    0.16
   3  -9   5    0.54    0.09
   3  -9   5    0.77    0.18
   3  -9   5    0.50    0.09
  -4   9  -5   14.41    0.49
  -4   9  -5   13.66    0.49
   4  -9   5   14.65    0.55
   4   8  -5    3.35    0.18
   4   8  -5    3.01    0.17
  -4  -8   5    3.05    0.16
  -4  -8   5    3.30    0.18
   3   8  -5    1.25    0.17
   3   8  -5    1.81    0.26
   3   8  -5    1.73    0.16
  -3  -8   5    1.27    0.15
  -3  -8   5    1.33    0.18
  -3  -8   5    1.72    0.24
   2   8  -5    1.38    0.29
   2   8  -5    2.01    0.25
  -2  -8   5    2.20    0.40
  -2  -8   5    1.88    0.24
   1   8  -5    4.16    0.36
   1   8  -5    4.26    0.30
   1   8  -5    4.26    0.32
  -1  -8   5    4.28    0.43
  -1  -8   5    4.49    0.33
  -1  -8   5    3.99    0.28
   0   8  -5   21.01    1.02
   0   8  -5   23.46    0.89
   0   8  -5   23.14    0.85
   0  -8   5   20.58    0.84
   0  -8   5   19.91    0.97
   0  -8   5   21.48    0.79
  -1   8  -5   31.95    1.15
  -1   8  -5   29.95    1.33
  -1   8  -5   32.77    1.18
   1  -8   5   29.18    1.28
   1  -8   5   29.81    1.13
   1  -8   5   28.30    1.05
  -2   8  -5    2.36    0.27
  -2   8  -5    2.53    0.42
  -2   8  -5    2.40    0.28
   2  -8   5    2.44    0.46
   2  -8   5    2.37    0.28
   2  -8   5    2.40    0.30
  -3   8  -5   18.69    0.77
  -3   8  -5   17.59    0.66
   3  -8   5   18.29    0.73
   3  -8   5   17.20    0.64
  -4   8  -5    7.81    0.33
  -4   8  -5    8.12    0.33
   4  -8   5    7.87    0.29
   4   7  -5    8.20    0.33
   4   7  -5    7.69    0.42
   4   7  -5    7.55    0.31
  -4  -7   5    8.20    0.41
  -4  -7   5    8.10    0.33
  -4  -7   5    8.16    0.33
   3   7  -5   12.24    0.51
   3   7  -5   14.91    0.64
   3   7  -5   13.78    0.51
  -3  -7   5   13.45    0.59
  -3  -7   5   13.71    0.49
  -3  -7   5   13.27    0.51
  -3  -7   5   13.13    0.45
   2   7  -5   13.76    0.68
   2   7  -5   12.27    0.58
  -2  -7   5   12.37    0.53
  -2  -7   5   12.23    0.72
   1   7  -5   20.84    0.83
   1   7  -5   22.67    0.84
   1   7  -5   21.10    0.90
  -1  -7   5   19.92    0.78
  -1  -7   5   22.24    0.84
  -1  -7   5   21.73    0.95
   0   7  -5    1.88    0.22
   0   7  -5    1.54    0.21
   0   7  -5    1.90    0.21
   0   7  -5    1.99    0.28
   0  -7   5    1.63    0.29
   0  -7   5    1.72    0.20
   0  -7   5    2.02    0.22
  -1   7  -5    8.98    0.41
  -1   7  -5    8.46    0.56
  -1   7  -5    8.56    0.43
   1  -7   5    8.59    0.57
   1  -7   5    8.10    0.40
   1  -7   5    8.34    0.44
  -2   7  -5    6.85    0.53
  -2   7  -5    5.41    0.35
  -2   7  -5    6.05    0.36
   2  -7   5    6.15    0.37
   2  -7   5    5.76    0.37
   2  -7   5    6.45    0.57
  -3   7  -5   30.70    1.14
  -3   7  -5   30.29    1.04
   3  -7   5   30.14    1.12
   3  -7   5   30.75    1.04
   3  -7   5   29.48    0.97
  -4   7  -5    0.46    0.11
  -4   7  -5    0.48    0.16
  -4   7  -5    0.42    0.11
   4  -7   5    0.32    0.10
   4  -7   5    0.77    0.18
   5   6  -5    0.95    0.06
  -5  -6   5    1.12    0.10
  -5  -6   5    1.04    0.11
   4   6  -5    3.41    0.29
   4   6  -5    3.09    0.20
   4   6  -5    3.28    0.18
  -4  -6   5    3.11    0.14
  -4  -6   5    2.89    0.27
  -4  -6   5    3.00    0.20
  -4  -6   5    3.65    0.22
   3   6  -5   33.89    1.25
   3   6  -5   33.26    1.34
  -3  -6   5   33.52    1.19
  -3  -6   5   32.20    1.41
   2   6  -5    0.06    0.17
   2   6  -5    0.21    0.13
  -2  -6   5    0.05    0.10
  -2  -6   5    0.30    0.16
   1   6  -5    3.26    0.29
   1   6  -5    3.30    0.24
   1   6  -5    3.19    0.42
   1   6  -5    3.16    0.23
  -1  -6   5    3.18    0.21
  -1  -6   5    3.43    0.43
  -1  -6   5    3.00    0.24
  -1  -6   5    3.00    0.32
   0   6  -5   10.22    0.65
   0   6  -5   10.98    0.50
   0   6  -5   11.33    0.47
   0   6  -5   11.19    0.55
   0   6  -5   10.38    0.45
   0   6  -5   10.12    0.65
   0  -6   5    9.86    0.45
   0  -6   5   10.01    0.54
   0  -6   5   11.27    0.69
   0  -6   5    9.14    0.40
   0  -6   5   10.05    0.62
   0  -6   5   10.11    0.52
  -1   6  -5    2.90    0.23
  -1   6  -5    2.89    0.22
  -1   6  -5    3.67    0.34
  -1   6  -5    3.24    0.41
   1  -6   5    2.68    0.22
   1  -6   5    2.71    0.35
   1  -6   5    3.45    0.43
   1  -6   5    2.51    0.21
  -2   6  -5   17.95    0.87
  -2   6  -5   18.05    0.70
  -2   6  -5   16.79    0.69
   2  -6   5   17.55    0.68
   2  -6   5   16.10    0.86
   2  -6   5   16.66    0.70
  -3   6  -5    4.57    0.50
  -3   6  -5    5.59    0.36
   3  -6   5    4.93    0.55
   3  -6   5    4.57    0.36
  -4   6  -5    4.46    0.25
  -4   6  -5    4.33    0.25
  -4   6  -5    4.45    0.34
   4  -6   5    3.59    0.22
   4  -6   5    4.05    0.34
   4  -6   5    3.82    0.24
  -5   6  -5   12.04    0.40
   5  -6   5   11.68    0.38
   5  -6   5   10.43    0.39
   5   5  -5    9.30    0.31
  -5  -5   5   10.18    0.37
  -5  -5   5   10.24    0.38
   4   5  -5   19.40    0.66
  -4  -5   5   21.07    0.72
  -4  -5   5   20.78    0.69
   3   5  -5   27.71    1.14
   3   5  -5   27.81    1.05
  -3  -5   5   26.48    0.99
  -3  -5   5   27.63    1.20
   2   5  -5   26.13    1.02
   2   5  -5   24.98    0.94
  -2  -5   5   25.14    0.90
  -2  -5   5   24.77    1.06
   1   5  -5    8.08    0.38
   1   5  -5    8.51    0.43
   1   5  -5    9.26    0.60
   1   5  -5    7.71    0.37
  -1  -5   5    8.35    0.61
  -1  -5   5    7.39    0.37
  -1  -5   5    7.42    0.34
  -1  -5   5    7.18    0.44
   0   5  -5   30.03    1.10
   0   5  -5   30.04    1.23
   0   5  -5   28.23    1.24
   0   5  -5   29.68    1.07
   0  -5   5   27.06    1.19
   0  -5   5   30.22    1.28
   0  -5   5   28.32    1.10
   0  -5   5   32.73    1.09
   0  -5   5   27.96    1.09
  -1   5  -5    6.74    0.32
  -1   5  -5    6.52    0.42
  -1   5  -5    6.57    0.52
  -1   5  -5    6.82    0.34
   1  -5   5    7.13    0.54
   1  -5   5    6.75    0.31
   1  -5   5    6.32    0.33
   1  -5   5    5.90    0.43
  -2   5  -5   11.83    0.49
  -2   5  -5   13.36    0.68
  -2   5  -5   11.76    0.52
  -2   5  -5   12.74    0.86
  -2   5  -5   12.77    0.63
   2  -5   5   12.09    0.49
   2  -5   5   10.40    0.51
   2  -5   5   11.68    0.65
   2  -5   5   11.38    0.59
  -3   5  -5    2.58    0.27
  -3   5  -5    2.76    0.38
  -3   5  -5    2.47    0.23
  -3   5  -5    2.10    0.38
   3  -5   5    2.98    0.42
   3  -5   5    2.45    0.44
   3  -5   5    2.35    0.27
   3  -5   5    2.52    0.30
  -4   5  -5    0.29    0.15
  -4   5  -5    0.07    0.15
  -4   5  -5    0.08    0.10
  -4   5  -5   -0.03    0.11
   4  -5   5   -0.09    0.21
   4  -5   5    0.06    0.17
   4  -5   5    0.14    0.10
   4  -5   5    0.15    0.12
   4  -5   5    0.10    0.07
  -5   5  -5    2.92    0.13
   5  -5   5    2.91    0.17
   5  -5   5    2.57    0.17
  -5  -4   5    2.43    0.16
  -5  -4   5    2.31    0.11
   4   4  -5   18.22    0.61
   4   4  -5   17.43    0.59
  -4  -4   5   19.66    0.64
  -4  -4   5   18.39    0.66
   3   4  -5   22.40    0.87
   3   4  -5   23.01    0.95
  -3  -4   5   22.70    1.03
  -3  -4   5   22.80    0.84
   2   4  -5   33.01    1.15
   2   4  -5   33.03    1.43
   2   4  -5   31.76    1.14
   2   4  -5   35.13    1.23
   2   4  -5   30.94    1.09
  -2  -4   5   31.75    1.43
  -2  -4   5   29.25    1.04
  -2  -4   5   32.04    1.23
  -2  -4   5   31.93    1.08
   1   4  -5  111.25    3.87
   1   4  -5  105.77    3.71
   1   4  -5  101.50    3.98
   1   4  -5  115.36    3.67
   1   4  -5  116.16    3.87
   1   4  -5  119.15    3.79
   1   4  -5  117.20    3.72
  -1  -4   5  108.59    3.56
  -1  -4   5  110.28    3.74
  -1  -4   5  103.13    3.86
  -1  -4   5  102.69    3.45
  -1  -4   5  108.21    3.53
   0   4  -5    7.68    0.57
   0   4  -5    7.16    0.35
   0   4  -5    6.79    0.37
   0   4  -5    7.27    0.41
   0   4  -5    6.95    0.43
   0   4  -5    6.64    0.47
   0   4  -5    6.53    0.39
   0   4  -5    6.54    0.35
   0   4  -5    6.61    0.35
   0  -4   5    6.05    0.36
   0  -4   5    6.63    0.51
   0  -4   5    6.51    0.43
   0  -4   5    6.85    0.53
   0  -4   5    6.58    0.47
   0  -4   5    6.57    0.37
   0  -4   5    6.19    0.30
  -1   4  -5   39.04    1.38
  -1   4  -5   37.34    1.40
  -1   4  -5   38.92    1.52
  -1   4  -5   37.61    1.86
  -1   4  -5   37.35    1.53
  -1   4  -5   37.24    1.41
  -1   4  -5   39.68    1.35
  -1   4  -5   38.29    1.40
   1  -4   5   35.09    1.22
   1  -4   5   36.07    1.59
   1  -4   5   36.35    1.34
   1  -4   5   34.57    1.27
   1  -4   5   37.79    1.30
   1  -4   5   37.02    1.46
   1  -4   5   33.99    1.41
  -2   4  -5  110.87    3.64
  -2   4  -5  114.55    3.81
  -2   4  -5  113.26    3.64
  -2   4  -5  116.27    3.79
  -2   4  -5  109.60    3.84
  -2   4  -5  114.25    4.02
   2  -4   5  108.92    3.66
   2  -4   5  107.99    3.85
   2  -4   5  100.94    4.03
   2  -4   5  111.25    3.48
   2  -4   5  107.75    3.60
   2  -4   5  108.05    3.52
  -3   4  -5    8.83    0.43
  -3   4  -5    9.49    0.45
  -3   4  -5    9.50    0.60
  -3   4  -5    9.48    0.62
   3  -4   5    8.95    0.50
   3  -4   5    9.10    0.65
   3  -4   5    9.13    0.45
   3  -4   5    9.30    0.60
  -4   4  -5    9.19    0.38
  -4   4  -5    9.68    0.47
  -4   4  -5    9.37    0.37
  -4   4  -5    8.90    0.47
  -4   4  -5    8.74    0.35
   4  -4   5    8.99    0.34
   4  -4   5    8.52    0.39
   4  -4   5    9.16    0.48
   4  -4   5    9.34    0.55
  -5   4  -5    1.23    0.09
   5  -4   5    1.33    0.16
   5  -4   5    1.06    0.14
  -5  -3   5    3.23    0.18
  -5  -3   5    3.21    0.15
   4   3  -5    6.84    0.27
   4   3  -5    6.80    0.27
  -4  -3   5    7.32    0.31
   3   3  -5    0.33    0.15
   3   3  -5    0.25    0.18
  -3  -3   5    0.18    0.14
  -3  -3   5    0.45    0.23
   2   3  -5    3.56    0.28
   2   3  -5    3.68    0.27
   2   3  -5    3.45    0.23
   2   3  -5    4.37    0.48
   2   3  -5    3.03    0.36
   2   3  -5    4.08    0.34
   2   3  -5    2.99    0.22
   2   3  -5    3.72    0.19
  -2  -3   5    3.45    0.32
  -2  -3   5    3.33    0.41
  -2  -3   5    3.37    0.19
  -2  -3   5    4.08    0.24
  -2  -3   5    3.48    0.31
  -2  -3   5    3.31    0.33
  -2  -3   5    3.75    0.27
   1   3  -5   18.24    0.95
   1   3  -5   17.05    0.74
   1   3  -5   17.83    0.70
   1   3  -5   18.59    0.70
   1   3  -5   17.90    0.85
   1   3  -5   18.24    0.75
   1   3  -5   19.47    0.92
  -1  -3   5   18.09    0.77
  -1  -3   5   17.50    0.71
  -1  -3   5   17.52    0.86
  -1  -3   5   16.62    0.64
  -1  -3   5   16.76    0.90
   0   3  -5   21.98    0.83
   0   3  -5   21.50    0.81
   0   3  -5   23.22    0.88
   0   3  -5   20.35    0.80
   0   3  -5   21.84    1.01
   0   3  -5   22.81    0.90
   0   3  -5   21.53    0.84
   0   3  -5   22.51    0.95
   0   3  -5   21.75    0.79
   0  -3   5   21.51    0.93
   0  -3   5   21.19    0.73
   0  -3   5   19.67    0.98
   0  -3   5   21.80    0.80
   0  -3   5   18.77    0.77
   0  -3   5   22.35    0.93
   0  -3   5   20.79    0.84
  -1   3  -5  104.69    3.45
  -1   3  -5  108.13    3.45
  -1   3  -5   98.14    3.40
  -1   3  -5  106.52    3.74
  -1   3  -5  101.79    3.42
  -1   3  -5  108.68    3.50
  -1   3  -5  107.72    3.45
  -1   3  -5   99.74    3.58
  -1   3  -5  105.95    3.59
   1  -3   5   97.44    3.21
   1  -3   5   99.60    3.59
   1  -3   5   97.47    3.32
   1  -3   5  101.17    3.44
   1  -3   5  101.48    3.44
   1  -3   5  103.85    3.28
   1  -3   5   98.42    3.40
  -2   3  -5  180.01    5.64
  -2   3  -5  176.31    5.60
  -2   3  -5  173.41    5.80
  -2   3  -5  175.82    5.85
  -2   3  -5  183.03    6.01
  -2   3  -5  175.11    5.77
  -2   3  -5  174.27    5.64
  -2   3  -5  182.09    5.80
   2  -3   5  167.18    5.67
   2  -3   5  161.69    5.89
   2  -3   5  170.91    5.31
   2  -3   5  158.70    5.26
   2  -3   5  165.02    5.43
   2  -3   5  178.76    5.52
   2  -3   5  164.83    5.36
  -3   3  -5    3.59    0.26
  -3   3  -5    3.76    0.28
  -3   3  -5    3.80    0.39
  -3   3  -5    4.00    0.41
   3  -3   5    4.02    0.43
   3  -3   5    3.98    0.33
   3  -3   5    3.00    0.44
   3  -3   5    3.21    0.28
  -4   3  -5    9.42    0.35
  -4   3  -5    9.66    0.48
  -4   3  -5    9.55    0.39
  -4   3  -5    8.87    0.37
  -4   3  -5   10.18    0.48
   4  -3   5    8.60    0.35
   4  -3   5    9.15    0.55
   4  -3   5    8.99    0.39
   4  -3   5    8.77    0.48
   5  -3   5    2.76    0.13
   5  -3   5    2.53    0.20
   5  -3   5    2.75    0.19
   5   2  -5    1.00    0.13
   5   2  -5    0.71    0.10
  -5  -2   5    0.96    0.11
  -5  -2   5    0.95    0.12
   4   2  -5   53.96    1.76
   4   2  -5   55.15    1.74
   4   2  -5   57.24    1.91
   4   2  -5   52.56    1.77
  -4  -2   5   57.63    1.94
  -4  -2   5   54.06    2.17
   3   2  -5    7.77    0.41
   3   2  -5    7.72    0.34
   3   2  -5    7.09    0.48
  -3  -2   5    7.56    0.55
  -3  -2   5    7.08    0.33
   2   2  -5   27.12    0.99
   2   2  -5   26.84    1.06
   2   2  -5   26.30    1.32
   2   2  -5   26.81    0.97
   2   2  -5   25.46    1.12
   2   2  -5   25.09    1.26
   2   2  -5   25.22    0.88
  -2  -2   5   24.91    1.11
  -2  -2   5   24.59    1.06
  -2  -2   5   24.62    0.94
  -2  -2   5   23.20    1.21
  -2  -2   5   24.64    1.00
  -2  -2   5   22.52    0.89
  -2  -2   5   24.12    0.81
   1   2  -5   59.17    1.98
   1   2  -5   58.33    2.02
   1   2  -5   63.01    2.15
   1   2  -5   59.95    1.99
   1   2  -5   59.14    2.23
   1   2  -5   58.50    2.04
   1   2  -5   60.70    2.24
  -1  -2   5   54.72    1.92
  -1  -2   5   58.12    1.85
  -1  -2   5   54.46    2.07
  -1  -2   5   58.62    2.12
  -1  -2   5   58.33    2.02
   0   2  -5   74.12    2.44
   0   2  -5   73.82    2.58
   0   2  -5   77.24    2.48
   0   2  -5   77.98    2.46
   0   2  -5   73.11    2.51
   0   2  -5   70.78    2.43
   0   2  -5   75.27    2.52
   0   2  -5   74.11    2.62
   0   2  -5   74.85    2.44
   0  -2   5   71.11    2.49
   0  -2   5   74.23    2.45
   0  -2   5   72.99    2.53
   0  -2   5   72.28    2.33
  -1   2  -5   12.82    0.59
  -1   2  -5   12.60    0.53
  -1   2  -5   12.00    0.54
  -1   2  -5   12.42    0.65
  -1   2  -5   12.53    0.54
  -1   2  -5   13.08    0.56
  -1   2  -5   12.18    0.66
  -1   2  -5   12.30    0.55
  -1   2  -5   12.61    0.73
   1  -2   5   13.15    0.67
   1  -2   5   11.31    0.56
   1  -2   5   12.60    0.78
   1  -2   5   11.58    0.62
   1  -2   5   12.14    0.54
   1  -2   5   12.26    0.63
   1  -2   5   12.34    0.46
  -2   2  -5  168.36    5.37
  -2   2  -5  156.19    5.43
  -2   2  -5  157.31    5.55
  -2   2  -5  167.68    5.57
  -2   2  -5  162.93    5.24
  -2   2  -5  163.72    5.32
  -2   2  -5  166.99    5.20
  -2   2  -5  169.93    5.33
  -2   2  -5  164.34    5.76
  -2   2  -5  167.78    5.39
   2  -2   5  165.11    5.24
   2  -2   5  161.93    5.26
   2  -2   5  159.52    5.58
   2  -2   5  168.13    5.36
   2  -2   5  170.21    5.43
   2  -2   5  161.63    5.28
   2  -2   5  162.45    5.19
   2  -2   5  164.68    5.57
   2  -2   5  167.60    5.83
  -3   2  -5    4.20    0.40
  -3   2  -5    4.31    0.23
  -3   2  -5    4.28    0.28
  -3   2  -5    4.36    0.39
  -3   2  -5    4.36    0.27
   3  -2   5    4.55    0.33
   3  -2   5    5.20    0.45
   3  -2   5    4.32    0.24
   3  -2   5    4.71    0.49
   3  -2   5    4.50    0.32
  -4   2  -5   12.35    0.44
  -4   2  -5   12.81    0.57
  -4   2  -5   12.46    0.48
  -4   2  -5   12.89    0.56
  -4   2  -5   11.83    0.44
   4  -2   5   12.95    1.18
   4  -2   5   11.41    0.56
   4  -2   5   11.94    0.47
   4  -2   5   11.07    0.44
   4  -2   5   12.75    0.64
  -5   2  -5    4.07    0.24
   5  -2   5    4.38    0.23
   5  -2   5    4.29    0.18
   5   1  -5    2.28    0.18
   5   1  -5    2.71    0.17
   5   1  -5    2.60    0.13
  -5  -1   5    2.39    0.17
  -5  -1   5    2.61    0.27
   4   1  -5   16.16    0.92
   4   1  -5   18.69    0.81
   4   1  -5   19.26    0.68
   4   1  -5   19.60    0.66
   4   1  -5   20.07    0.68
   4   1  -5   19.18    0.67
  -4  -1   5   18.72    0.77
  -4  -1   5   18.07    1.00
   3   1  -5    9.23    0.53
   3   1  -5    9.07    0.44
   3   1  -5    8.98    0.43
   3   1  -5    9.57    0.38
   3   1  -5    9.48    0.60
   3   1  -5    8.27    0.42
  -3  -1   5    9.56    0.62
  -3  -1   5    9.71    0.50
  -3  -1   5    9.19    0.39
   2   1  -5    8.94    0.35
   2   1  -5    9.32    0.69
   2   1  -5    7.96    0.64
   2   1  -5    8.57    0.48
   2   1  -5    9.30    0.46
   2   1  -5    8.51    0.39
  -2  -1   5    8.14    0.49
  -2  -1   5    8.78    0.54
  -2  -1   5    8.39    0.62
  -2  -1   5    7.85    0.38
   1   1  -5  105.42    3.46
   1   1  -5  104.79    3.60
   1   1  -5  103.01    3.52
   1   1  -5  104.12    3.40
   1   1  -5  109.82    3.42
   1   1  -5  102.39    3.38
   1   1  -5  105.21    3.66
  -1  -1   5  100.11    3.39
  -1  -1   5  104.01    3.17
  -1  -1   5   96.12    3.24
  -1  -1   5   99.10    3.38
  -1  -1   5   97.65    3.34
   0   1  -5  187.56    6.14
   0   1  -5  187.25    6.23
   0   1  -5  194.69    6.17
   0   1  -5  195.50    6.22
   0   1  -5  179.22    6.09
   0   1  -5  201.38    6.14
   0   1  -5  196.51    6.09
   0   1  -5  194.48    6.33
   0   1  -5  187.07    6.06
   0   1  -5  192.24    6.11
   0  -1   5  187.06    5.90
   0  -1   5  181.38    5.97
   0  -1   5  184.30    5.88
   0  -1   5  180.22    5.76
  -1   1  -5    0.74    0.15
  -1   1  -5    1.06    0.23
  -1   1  -5    0.64    0.16
  -1   1  -5    0.67    0.20
  -1   1  -5    1.18    0.17
  -1   1  -5    0.60    0.13
  -1   1  -5    0.65    0.15
  -1   1  -5    0.71    0.18
  -1   1  -5    0.62    0.14
   1  -1   5    1.17    0.22
   1  -1   5    1.01    0.24
   1  -1   5    0.92    0.30
   1  -1   5    0.75    0.12
   1  -1   5    0.84    0.18
  -2   1  -5    4.80    0.33
  -2   1  -5    5.57    0.40
  -2   1  -5    5.77    0.49
  -2   1  -5    5.47    0.46
  -2   1  -5    5.55    0.56
  -2   1  -5    4.97    0.37
  -2   1  -5    5.61    0.29
  -2   1  -5    5.19    0.35
  -2   1  -5    4.92    0.27
  -2   1  -5    4.93    0.23
  -2   1  -5    5.18    0.37
  -2   1  -5    5.37    0.36
  -2   1  -5    5.89    0.37
   2  -1   5    4.86    0.35
   2  -1   5    5.75    0.61
   2  -1   5    5.14    0.46
   2  -1   5    5.04    0.48
   2  -1   5    4.60    0.39
   2  -1   5    5.27    0.28
  -3   1  -5    6.71    0.35
  -3   1  -5    7.28    0.50
  -3   1  -5    7.42    0.50
  -3   1  -5    7.69    0.32
  -3   1  -5    6.51    0.36
   3  -1   5    6.85    0.50
   3  -1   5    6.67    0.39
   3  -1   5    6.71    0.31
   3  -1   5    6.92    0.57
   3  -1   5    6.33    0.37
  -4   1  -5   10.79    0.37
  -4   1  -5   10.27    0.51
  -4   1  -5   10.33    0.39
  -4   1  -5   11.74    0.50
  -4   1  -5   10.29    0.42
   4  -1   5    9.98    0.56
   4  -1   5   10.50    0.42
   4  -1   5    8.64    0.72
   4  -1   5   10.48    0.52
  -5   1  -5    1.60    0.18
   5  -1   5    1.81    0.17
   5  -1   5    1.79    0.13
   5   0  -5   28.50    0.90
   5   0  -5   26.30    1.08
   5   0  -5   26.91    0.92
   5   0  -5   28.34    0.93
  -5   0   5   28.59    0.94
  -5   0   5   27.86    1.05
   4   0  -5    3.13    0.25
   4   0  -5    2.99    0.18
   4   0  -5    2.60    0.19
   4   0  -5    2.96    0.33
   4   0  -5    2.74    0.19
   4   0  -5    2.80    0.18
  -4   0   5    2.94    0.30
  -4   0   5    3.08    0.49
  -4   0   5    2.98    0.24
   3   0  -5    4.30    0.29
   3   0  -5    3.91    0.22
   3   0  -5    3.75    0.39
   3   0  -5    3.53    0.26
   3   0  -5    3.74    0.37
   3   0  -5    3.74    0.28
  -3   0   5    3.90    0.32
  -3   0   5    4.03    0.41
  -3   0   5    4.40    0.23
   2   0  -5   13.08    0.82
   2   0  -5   12.78    0.80
   2   0  -5   12.01    0.56
   2   0  -5   14.97    0.61
   2   0  -5   12.56    0.60
   2   0  -5   11.47    0.50
   2   0  -5   12.50    0.52
  -2   0   5   12.66    0.68
  -2   0   5   12.28    0.51
  -2   0   5   12.88    0.64
  -2   0   5   11.63    0.74
   1   0  -5   21.36    0.80
   1   0  -5   23.04    0.94
   1   0  -5   21.14    0.89
   1   0  -5   21.33    0.78
   1   0  -5   20.77    0.77
   1   0  -5   21.41    0.86
   1   0  -5   22.56    1.04
  -1   0   5   20.45    0.86
  -1   0   5   19.07    0.75
  -1   0   5   20.22    0.86
  -1   0   5   20.85    0.68
  -1   0   5   20.91    0.85
   0   0  -5   18.64    0.73
   0   0  -5   20.17    0.80
   0   0  -5   18.42    0.70
   0   0  -5   20.51    0.76
   0   0  -5   19.84    0.76
   0   0  -5   20.22    0.78
   0   0  -5   19.79    0.85
   0   0  -5   18.93    0.72
   0   0  -5   19.00    0.72
   0   0  -5   20.54    0.93
   0   0  -5   18.32    0.73
   0   0   5   19.85    0.79
   0   0   5   18.94    0.82
   0   0   5   18.53    0.70
  -1   0  -5    1.77    0.19
  -1   0  -5    2.18    0.29
  -1   0  -5    2.23    0.25
  -1   0  -5    2.07    0.17
  -1   0  -5    2.19    0.29
  -1   0  -5    1.86    0.22
  -1   0  -5    1.99    0.23
  -1   0  -5    2.02    0.25
  -1   0  -5    2.29    0.22
  -1   0  -5    2.46    0.31
   1   0   5    1.99    0.34
   1   0   5    2.13    0.29
   1   0   5    1.80    0.23
   1   0   5    2.06    0.24
   1   0   5    1.64    0.13
  -2   0  -5    1.09    0.20
  -2   0  -5    1.50    0.21
  -2   0  -5    1.30    0.23
  -2   0  -5    1.56    0.32
  -2   0  -5    0.94    0.17
  -2   0  -5    0.96    0.11
  -2   0  -5    1.49    0.32
  -2   0  -5    0.99    0.15
  -2   0  -5    0.94    0.13
  -2   0  -5    0.72    0.18
  -2   0  -5    0.98    0.18
  -2   0  -5    1.29    0.27
  -2   0  -5    1.05    0.20
   2   0   5    0.96    0.24
   2   0   5    1.27    0.35
   2   0   5    1.22    0.29
   2   0   5    0.95    0.18
   2   0   5    1.11    0.36
   2   0   5    1.30    0.17
   2   0   5    1.23    0.27
  -3   0  -5    3.26    0.28
  -3   0  -5    3.58    0.28
  -3   0  -5    3.36    0.23
  -3   0  -5    3.72    0.39
  -3   0  -5    3.88    0.37
  -3   0  -5    3.62    0.21
  -3   0  -5    3.68    0.27
  -3   0  -5    4.09    0.40
  -3   0  -5    3.36    0.25
  -3   0  -5    3.34    0.35
   3   0   5    2.85    0.43
   3   0   5    3.39    0.28
   3   0   5    3.17    0.37
   3   0   5    3.57    0.22
   3   0   5    3.51    0.28
  -4   0  -5    0.10    0.15
  -4   0  -5    0.31    0.11
  -4   0  -5    0.32    0.14
  -4   0  -5    0.27    0.08
  -4   0  -5    0.13    0.11
   4   0   5    0.20    0.17
   4   0   5    0.24    0.11
   4   0   5    0.08    0.18
  -5   0  -5   10.91    0.38
  -5   0  -5   11.34    0.42
   5   0   5   11.14    0.42
   5   0   5   10.60    0.38
   5  -1  -5    1.61    0.12
   5  -1  -5    1.62    0.14
   5  -1  -5    1.63    0.13
  -5   1   5    2.03    0.35
   4  -1  -5   13.94    0.50
   4  -1  -5   11.10    0.54
   4  -1  -5   13.42    0.46
   4  -1  -5   13.80    0.50
   4  -1  -5   13.93    0.49
   4  -1  -5   16.07    0.67
  -4   1   5   13.86    0.64
  -4   1   5   14.49    0.58
   3  -1  -5   14.06    0.60
   3  -1  -5   12.69    0.73
   3  -1  -5   13.44    0.59
   3  -1  -5   13.18    0.57
   3  -1  -5   15.23    0.71
   3  -1  -5   14.44    0.53
  -3   1   5   13.63    0.78
  -3   1   5   13.85    0.60
  -3   1   5   14.20    0.65
  -3   1   5   14.65    0.54
   2  -1  -5   38.65    1.38
   2  -1  -5   40.26    1.38
   2  -1  -5   40.07    1.77
   2  -1  -5   41.71    1.40
   2  -1  -5   41.68    1.48
   2  -1  -5   39.20    1.72
   2  -1  -5   41.64    1.39
   2  -1  -5   40.51    1.45
  -2   1   5   40.22    1.60
  -2   1   5   41.15    1.39
  -2   1   5   39.99    1.67
  -2   1   5   40.50    1.53
   1  -1  -5    6.17    0.38
   1  -1  -5    5.81    0.32
   1  -1  -5    6.29    0.26
   1  -1  -5    7.01    0.51
   1  -1  -5    6.65    0.40
  -1   1   5    6.36    0.40
  -1   1   5    6.21    0.40
  -1   1   5    6.28    0.23
  -1   1   5    6.51    0.38
   0  -1  -5   27.62    1.06
   0  -1  -5   29.33    1.12
   0  -1  -5   29.05    1.19
   0  -1  -5   29.07    1.06
   0  -1  -5   29.46    1.04
   0  -1  -5   29.59    1.01
   0  -1  -5   30.00    1.05
   0  -1  -5   29.87    1.04
   0  -1  -5   32.17    1.14
   0  -1  -5   30.44    1.09
   0  -1  -5   31.61    1.27
   0   1   5   29.00    0.94
   0   1   5   27.83    1.10
   0   1   5   27.78    0.94
  -1  -1  -5   83.06    2.72
  -1  -1  -5   83.37    2.71
  -1  -1  -5   80.55    2.71
  -1  -1  -5   77.91    2.62
  -1  -1  -5   82.41    2.76
  -1  -1  -5   81.40    2.89
  -1  -1  -5   82.64    2.85
  -1  -1  -5   82.80    2.81
  -1  -1  -5   81.83    2.72
  -1  -1  -5   81.11    2.76
   1   1   5   76.67    2.64
   1   1   5   79.12    2.78
   1   1   5   78.79    2.57
   1   1   5   76.15    2.47
   1   1   5   78.90    2.87
  -2  -1  -5   14.54    0.68
  -2  -1  -5   14.22    0.61
  -2  -1  -5   16.31    0.59
  -2  -1  -5   14.65    0.57
  -2  -1  -5   14.75    0.52
  -2  -1  -5   13.93    0.72
  -2  -1  -5   15.25    0.91
  -2  -1  -5   14.81    0.85
  -2  -1  -5   16.08    0.70
  -2  -1  -5   15.46    0.69
  -2  -1  -5   16.17    0.68
  -2  -1  -5   14.85    0.57
  -2  -1  -5   14.97    0.68
  -2  -1  -5   15.85    0.85
   2   1   5   14.69    0.85
   2   1   5   15.90    0.91
   2   1   5   14.84    0.83
   2   1   5   16.13    0.58
   2   1   5   16.39    0.61
   2   1   5   14.60    0.61
   2   1   5   15.09    0.68
   2   1   5   14.10    0.95
   2   1   5   16.23    0.80
  -3  -1  -5    4.15    0.26
  -3  -1  -5    3.89    0.27
  -3  -1  -5    4.66    0.30
  -3  -1  -5    4.24    0.40
  -3  -1  -5    4.54    0.41
  -3  -1  -5    4.26    0.41
  -3  -1  -5    4.17    0.23
  -3  -1  -5    4.16    0.28
  -3  -1  -5    4.80    0.33
  -3  -1  -5    4.33    0.42
   3   1   5    4.69    0.36
   3   1   5    4.17    0.31
   3   1   5    4.51    0.34
   3   1   5    3.93    0.48
   3   1   5    4.63    0.41
   3   1   5    4.24    0.24
  -4  -1  -5    2.95    0.21
  -4  -1  -5    3.07    0.20
  -4  -1  -5    2.74    0.23
  -4  -1  -5    2.97    0.27
  -4  -1  -5    2.74    0.17
   4   1   5    2.77    0.23
   4   1   5    2.77    0.32
   4   1   5    2.71    0.51
  -5  -1  -5    2.71    0.14
  -5  -1  -5    2.78    0.16
   5   1   5    2.51    0.15
   5  -2  -5    9.21    0.34
   5  -2  -5    9.15    0.33
   5  -2  -5    8.80    0.33
   5  -2  -5    9.10    0.35
   4  -2  -5    3.60    0.16
   4  -2  -5    3.51    0.20
   4  -2  -5    3.80    0.21
   4  -2  -5    3.82    0.24
   4  -2  -5    3.99    0.21
   4  -2  -5    4.01    0.36
  -4   2   5    3.13    0.30
  -4   2   5    3.75    0.26
   3  -2  -5    6.28    0.38
   3  -2  -5    5.75    0.35
   3  -2  -5    6.63    0.48
   3  -2  -5    6.11    0.49
   3  -2  -5    6.00    0.29
   3  -2  -5    6.35    0.37
  -3   2   5    5.97    0.28
  -3   2   5    6.11    0.50
  -3   2   5    5.44    0.37
  -3   2   5    5.31    0.33
   2  -2  -5   18.23    0.75
   2  -2  -5   16.88    0.68
   2  -2  -5   16.91    0.74
   2  -2  -5   17.95    0.67
   2  -2  -5   18.39    0.68
   2  -2  -5   16.75    0.95
   2  -2  -5   17.90    1.02
   2  -2  -5   17.02    0.67
  -2   2   5   17.92    0.67
  -2   2   5   17.97    0.81
  -2   2   5   16.65    0.90
  -2   2   5   16.76    0.86
   1  -2  -5  105.51    3.68
   1  -2  -5  108.39    3.47
   1  -2  -5  102.44    3.39
   1  -2  -5  105.04    3.50
   1  -2  -5  101.59    3.30
  -1   2   5  104.52    3.34
  -1   2   5   99.67    3.15
  -1   2   5   96.46    3.39
   0  -2  -5  112.61    3.83
   0  -2  -5  116.07    3.98
   0  -2  -5  119.17    3.96
   0  -2  -5  114.82    3.80
   0  -2  -5  120.53    3.94
   0  -2  -5  120.45    3.88
   0  -2  -5  113.86    3.80
   0  -2  -5  118.73    3.91
   0  -2  -5  124.28    3.84
   0  -2  -5  114.79    3.80
   0  -2  -5  118.15    3.78
  -1  -2  -5    7.28    0.44
  -1  -2  -5    6.73    0.29
  -1  -2  -5    6.60    0.39
  -1  -2  -5    6.78    0.38
  -1  -2  -5    6.91    0.43
  -1  -2  -5    7.92    0.43
  -1  -2  -5    7.69    0.41
  -1  -2  -5    6.75    0.39
  -1  -2  -5    6.75    0.51
  -1  -2  -5    7.35    0.50
   1   2   5    6.66    0.41
   1   2   5    7.52    0.55
   1   2   5    7.42    0.52
   1   2   5    7.74    0.56
   1   2   5    6.05    0.35
   1   2   5    6.60    0.25
  -2  -2  -5   18.17    1.03
  -2  -2  -5   18.73    0.76
  -2  -2  -5   20.55    0.85
  -2  -2  -5   18.15    0.65
  -2  -2  -5   19.15    0.70
  -2  -2  -5   17.57    0.96
  -2  -2  -5   18.45    0.70
  -2  -2  -5   19.62    0.72
  -2  -2  -5   19.51    0.90
  -2  -2  -5   18.70    0.80
  -2  -2  -5   19.86    1.03
  -2  -2  -5   19.55    0.83
  -2  -2  -5   20.22    0.84
   2   2   5   18.29    0.64
   2   2   5   19.66    0.71
   2   2   5   17.00    1.02
   2   2   5   19.69    1.02
   2   2   5   18.03    0.96
  -3  -2  -5   -0.02    0.14
  -3  -2  -5    0.17    0.09
  -3  -2  -5    0.15    0.11
  -3  -2  -5    0.29    0.20
  -3  -2  -5    0.05    0.12
  -3  -2  -5    0.33    0.18
  -3  -2  -5   -0.01    0.16
  -3  -2  -5    0.34    0.13
   3   2   5    0.21    0.17
   3   2   5    0.02    0.08
   3   2   5    0.48    0.27
   3   2   5    0.19    0.14
  -4  -2  -5    1.16    0.20
  -4  -2  -5    1.26    0.16
  -4  -2  -5    0.88    0.15
  -4  -2  -5    1.62    0.20
  -4  -2  -5    0.93    0.14
  -4  -2  -5    0.96    0.09
  -4  -2  -5    1.04    0.18
  -4  -2  -5    0.94    0.17
   4   2   5    1.14    0.21
  -5  -2  -5    1.52    0.11
  -5  -2  -5    1.76    0.12
   5   2   5    1.67    0.12
   5  -3  -5    0.34    0.07
   5  -3  -5    0.30    0.05
   5  -3  -5    0.34    0.08
   5  -3  -5    0.31    0.07
   4  -3  -5    2.51    0.15
   4  -3  -5    2.34    0.20
   4  -3  -5    2.78    0.17
   4  -3  -5    2.27    0.16
   4  -3  -5    1.87    0.27
   4  -3  -5    2.45    0.18
   4  -3  -5    2.60    0.32
   4  -3  -5    1.96    0.27
   4  -3  -5    2.49    0.12
  -4   3   5    2.31    0.27
  -4   3   5    2.49    0.23
   3  -3  -5   15.07    0.65
   3  -3  -5   16.75    0.84
   3  -3  -5   14.46    0.67
   3  -3  -5   16.13    0.59
   3  -3  -5   15.22    0.77
   3  -3  -5   15.43    0.67
  -3   3   5   15.18    0.57
  -3   3   5   14.27    0.81
  -3   3   5   14.22    0.62
  -3   3   5   15.69    0.68
   2  -3  -5    6.18    0.34
   2  -3  -5    6.04    0.39
   2  -3  -5    5.62    0.33
   2  -3  -5    6.50    0.33
   2  -3  -5    5.56    0.37
   2  -3  -5    6.69    0.61
   2  -3  -5    5.83    0.33
  -2   3   5    5.47    0.47
  -2   3   5    6.41    0.32
  -2   3   5    5.75    0.50
  -2   3   5    6.12    0.45
   1  -3  -5   41.62    1.40
   1  -3  -5   43.96    1.60
   1  -3  -5   43.67    1.47
  -1   3   5   43.97    1.60
  -1   3   5   44.86    1.43
   0  -3  -5   67.46    2.25
   0  -3  -5   65.32    2.20
   0  -3  -5   65.86    2.36
   0  -3  -5   63.11    2.11
   0   3   5   67.85    2.36
   0   3   5   68.90    2.37
   0   3   5   62.67    2.13
  -1  -3  -5   56.61    1.93
  -1  -3  -5   57.65    1.93
  -1  -3  -5   52.13    2.06
  -1  -3  -5   55.39    1.81
  -1  -3  -5   56.86    1.93
  -1  -3  -5   56.11    1.82
  -1  -3  -5   52.58    1.81
  -1  -3  -5   52.10    1.98
  -1  -3  -5   56.42    1.98
  -1  -3  -5   55.29    2.12
  -1  -3  -5   54.60    1.86
   1   3   5   53.62    2.10
   1   3   5   55.29    2.14
   1   3   5   54.40    1.74
   1   3   5   54.25    1.94
  -2  -3  -5    2.80    0.37
  -2  -3  -5    2.67    0.22
  -2  -3  -5    2.47    0.23
  -2  -3  -5    2.66    0.33
  -2  -3  -5    2.68    0.15
  -2  -3  -5    2.67    0.32
  -2  -3  -5    2.71    0.25
  -2  -3  -5    2.60    0.20
  -2  -3  -5    2.96    0.28
   2   3   5    3.02    0.29
   2   3   5    2.58    0.23
   2   3   5    3.05    0.20
  -3  -3  -5    4.95    0.31
  -3  -3  -5    5.13    0.45
  -3  -3  -5    4.87    0.34
  -3  -3  -5    4.83    0.36
  -3  -3  -5    4.57    0.46
  -3  -3  -5    5.02    0.32
  -3  -3  -5    5.27    0.47
  -3  -3  -5    4.84    0.27
   3   3   5    4.55    0.58
   3   3   5    5.61    0.44
   3   3   5    5.71    0.39
   3   3   5    5.50    0.29
  -4  -3  -5    4.24    0.31
  -4  -3  -5    4.24    0.20
  -4  -3  -5    4.21    0.27
  -4  -3  -5    3.93    0.34
  -4  -3  -5    4.28    0.29
  -4  -3  -5    4.04    0.26
  -4  -3  -5    4.28    0.25
  -4  -3  -5    4.04    0.17
  -4  -3  -5    4.37    0.20
   4   3   5    4.26    0.27
   4   3   5    4.17    0.35
  -5  -3  -5    3.97    0.17
  -5  -3  -5    3.92    0.16
   5   3   5    3.74    0.17
   5  -4  -5    1.51    0.11
   5  -4  -5    1.33    0.10
   5  -4  -5    1.42    0.11
   5  -4  -5    1.42    0.10
   4  -4  -5    9.60    0.36
   4  -4  -5    9.25    0.35
   4  -4  -5    9.01    0.32
   4  -4  -5    8.09    0.51
   4  -4  -5    8.85    0.36
   4  -4  -5    8.42    0.48
   4  -4  -5    9.25    0.32
   4  -4  -5    8.98    0.35
   4  -4  -5    9.02    0.40
   4  -4  -5    8.81    0.48
   4  -4  -5    9.12    0.33
  -4   4   5    8.71    0.40
  -4   4   5    8.03    0.44
   3  -4  -5    4.61    0.34
   3  -4  -5    4.85    0.33
   3  -4  -5    3.58    0.42
  -3   4   5    4.66    0.34
  -3   4   5    4.49    0.26
   2  -4  -5   13.60    0.60
   2  -4  -5   12.77    0.56
   2  -4  -5   14.08    0.65
  -2   4   5   13.07    0.55
   1  -4  -5    4.77    0.26
   1  -4  -5    4.19    0.22
   1  -4  -5    4.07    0.35
   1  -4  -5    4.17    0.26
  -1   4   5    4.73    0.33
  -1   4   5    4.55    0.21
   0  -4  -5    7.92    0.35
   0  -4  -5    8.15    0.44
   0  -4  -5    7.81    0.35
   0  -4  -5    8.48    0.58
   0  -4  -5    7.78    0.39
   0  -4  -5    8.59    0.49
   0   4   5    7.66    0.38
   0   4   5    8.32    0.56
  -1  -4  -5    3.03    0.22
  -1  -4  -5    3.51    0.31
  -1  -4  -5    2.90    0.23
  -1  -4  -5    2.73    0.30
  -1  -4  -5    3.16    0.40
  -1  -4  -5    2.76    0.21
  -1  -4  -5    2.89    0.20
  -1  -4  -5    2.94    0.33
  -1  -4  -5    3.39    0.32
  -1  -4  -5    3.10    0.22
   1   4   5    3.18    0.32
   1   4   5    2.86    0.26
   1   4   5    3.03    0.38
   1   4   5    2.96    0.17
  -2  -4  -5    1.06    0.23
  -2  -4  -5    0.93    0.21
  -2  -4  -5    1.15    0.19
  -2  -4  -5    0.78    0.13
  -2  -4  -5    0.82    0.21
  -2  -4  -5    1.03    0.24
  -2  -4  -5    0.77    0.11
  -2  -4  -5    1.13    0.21
  -2  -4  -5    1.00    0.29
   2   4   5    1.31    0.25
   2   4   5    0.99    0.16
  -3  -4  -5   51.48    1.78
  -3  -4  -5   50.03    1.63
  -3  -4  -5   50.04    1.90
  -3  -4  -5   46.31    1.70
  -3  -4  -5   50.10    1.67
  -3  -4  -5   47.03    1.86
  -3  -4  -5   48.62    1.67
  -3  -4  -5   47.54    1.88
   3   4   5   48.65    1.59
   3   4   5   47.00    1.71
   3   4   5   44.30    1.95
   3   4   5   49.09    1.80
  -4  -4  -5   12.25    0.54
  -4  -4  -5   11.73    0.57
  -4  -4  -5   13.12    0.44
  -4  -4  -5   12.47    0.51
  -4  -4  -5   12.95    0.45
  -4  -4  -5   12.84    0.43
  -4  -4  -5   12.54    0.55
  -4  -4  -5   13.50    0.51
  -4  -4  -5   12.88    0.48
   4   4   5   12.48    0.53
   4   4   5   13.71    0.63
  -5  -4  -5    2.26    0.14
  -5  -4  -5    2.25    0.12
  -5  -4  -5    2.66    0.12
   5   4   5    2.05    0.12
   5  -5  -5    5.50    0.20
   5  -5  -5    4.99    0.20
   5  -5  -5    5.21    0.20
   4  -5  -5   24.92    1.01
   4  -5  -5   26.82    0.86
   4  -5  -5   26.25    0.85
   4  -5  -5   27.68    0.88
   4  -5  -5   25.66    1.00
   4  -5  -5   26.45    0.88
   4  -5  -5   25.23    0.93
   4  -5  -5   25.92    0.87
  -4   5   5   24.72    0.89
   3  -5  -5   10.95    0.46
   3  -5  -5   11.22    0.41
   3  -5  -5   11.46    0.43
   3  -5  -5   11.66    0.58
   3  -5  -5   11.20    0.43
   3  -5  -5   11.00    0.39
   3  -5  -5   11.47    0.38
   3  -5  -5   11.53    0.55
  -3   5   5   11.08    0.46
   2  -5  -5   37.80    1.34
   2  -5  -5   36.22    1.43
   2  -5  -5   38.01    1.37
  -2   5   5   35.68    1.27
   1  -5  -5   45.07    1.60
   1  -5  -5   50.30    1.64
   1  -5  -5   45.71    1.60
  -1   5   5   52.09    1.72
   0  -5  -5   10.04    0.43
   0  -5  -5   10.37    0.60
   0  -5  -5   10.15    0.43
   0  -5  -5    9.44    0.41
   0  -5  -5   10.11    0.70
   0  -5  -5   10.78    0.56
   0   5   5    8.84    0.69
   0   5   5   10.03    0.37
  -1  -5  -5    3.20    0.35
  -1  -5  -5    4.50    0.44
  -1  -5  -5    4.03    0.36
  -1  -5  -5    3.89    0.25
  -1  -5  -5    3.50    0.26
  -1  -5  -5    4.28    0.28
   1   5   5    3.91    0.22
   1   5   5    4.56    0.33
  -2  -5  -5   68.09    2.31
  -2  -5  -5   72.78    2.57
  -2  -5  -5   73.01    2.37
  -2  -5  -5   72.99    2.39
  -2  -5  -5   70.56    2.45
  -2  -5  -5   71.57    2.52
  -2  -5  -5   73.57    2.37
  -2  -5  -5   69.34    2.65
   2   5   5   70.63    2.37
   2   5   5   69.66    2.47
  -3  -5  -5    7.17    0.26
  -3  -5  -5    7.67    0.32
  -3  -5  -5    5.81    0.24
  -3  -5  -5    6.62    0.42
  -3  -5  -5    7.00    0.27
  -3  -5  -5    7.12    0.34
  -3  -5  -5    7.00    0.25
  -3  -5  -5    7.20    0.39
  -3  -5  -5    6.92    0.38
  -3  -5  -5    7.45    0.34
   3   5   5    7.60    0.36
  -4  -5  -5   18.97    0.60
  -4  -5  -5   18.28    0.66
  -4  -5  -5   18.50    0.59
  -4  -5  -5   18.88    0.63
  -4  -5  -5   17.86    0.69
  -4  -5  -5   16.91    0.67
  -4  -5  -5   16.86    0.61
  -4  -5  -5   15.66    0.72
  -4  -5  -5   18.59    0.59
   4   5   5   16.62    0.64
   4   5   5   17.76    0.75
   4  -6  -5    7.99    0.28
   4  -6  -5    7.93    0.30
   4  -6  -5    8.27    0.31
   4  -6  -5    8.38    0.32
   4  -6  -5    7.95    0.29
   3  -6  -5   18.24    0.59
   3  -6  -5   18.18    0.64
   3  -6  -5   17.98    0.76
   3  -6  -5   17.53    0.61
   3  -6  -5   17.83    0.67
   3  -6  -5   18.18    0.79
   3  -6  -5   18.37    0.60
   3  -6  -5   17.63    0.63
  -3   6   5   17.39    0.66
   2  -6  -5   25.38    0.96
   2  -6  -5   24.51    0.85
   2  -6  -5   24.65    0.98
   2  -6  -5   23.66    1.05
  -2   6   5   24.68    0.95
  -2   6   5   24.80    0.87
   1  -6  -5    8.02    0.44
   1  -6  -5    8.52    0.44
   1  -6  -5    8.39    0.42
  -1   6   5    8.02    0.38
   0  -6  -5    9.61    0.62
   0  -6  -5    9.71    0.44
   0  -6  -5    9.04    0.44
   0  -6  -5    9.18    0.43
   0   6   5    9.24    0.39
  -1  -6  -5    6.07    0.35
  -1  -6  -5    5.95    0.48
  -1  -6  -5    7.14    0.38
  -1  -6  -5    6.11    0.54
  -1  -6  -5    5.67    0.38
   1   6   5    6.42    0.32
  -2  -6  -5   65.21    2.41
  -2  -6  -5   66.22    2.17
  -2  -6  -5   71.69    2.23
  -2  -6  -5   64.92    2.25
  -2  -6  -5   69.70    2.23
  -2  -6  -5   60.95    2.51
  -2  -6  -5   65.18    2.37
  -2  -6  -5   67.82    2.44
   2   6   5   62.19    2.15
   2   6   5   63.40    2.26
  -3  -6  -5    3.82    0.16
  -3  -6  -5    3.53    0.25
  -3  -6  -5    3.72    0.17
  -3  -6  -5    3.93    0.33
  -3  -6  -5    3.80    0.16
  -3  -6  -5    3.88    0.30
  -3  -6  -5    3.58    0.23
  -3  -6  -5    3.76    0.29
  -3  -6  -5    3.97    0.25
   3   6   5    3.59    0.25
   3   6   5    3.68    0.34
  -4  -6  -5    9.63    0.37
  -4  -6  -5    8.47    0.33
  -4  -6  -5    8.53    0.35
  -4  -6  -5    9.51    0.32
  -4  -6  -5    9.13    0.32
  -4  -6  -5    9.28    0.31
   4  -7  -5   15.00    0.48
   4  -7  -5   13.81    0.47
   4  -7  -5   14.05    0.49
   4  -7  -5   13.80    0.49
   4  -7  -5   14.65    0.49
   4  -7  -5   14.58    0.48
   3  -7  -5   12.88    0.48
   3  -7  -5   13.24    0.52
   3  -7  -5   13.30    0.44
   3  -7  -5   13.46    0.64
   3  -7  -5   13.31    0.46
   3  -7  -5   12.78    0.61
   3  -7  -5   13.54    0.45
   3  -7  -5   13.32    0.49
  -3   7   5   12.34    0.50
   2  -7  -5    5.41    0.38
   2  -7  -5    5.00    0.21
   2  -7  -5    5.30    0.26
   2  -7  -5    5.38    0.37
   2  -7  -5    5.09    0.24
   2  -7  -5    5.27    0.19
   2  -7  -5    4.82    0.20
   2  -7  -5    5.14    0.25
  -2   7   5    4.70    0.26
   1  -7  -5    8.63    0.49
   1  -7  -5    9.18    0.48
   1  -7  -5    8.40    0.50
  -1   7   5    7.73    0.39
   0  -7  -5    0.30    0.13
   0  -7  -5    0.51    0.27
   0  -7  -5    0.42    0.14
   0  -7  -5    0.34    0.14
   0   7   5    0.40    0.11
   0   7   5    0.06    0.21
  -1  -7  -5   13.31    0.82
  -1  -7  -5   14.07    0.59
  -1  -7  -5   12.14    0.64
  -1  -7  -5   13.96    0.60
   1   7   5   13.74    0.58
  -2  -7  -5    7.71    0.28
  -2  -7  -5    7.83    0.35
  -2  -7  -5    7.76    0.35
  -2  -7  -5    7.16    0.43
  -2  -7  -5    8.05    0.32
  -2  -7  -5    7.99    0.43
  -2  -7  -5    8.11    0.41
  -2  -7  -5    8.11    0.28
  -2  -7  -5    7.87    0.28
   2   7   5    7.60    0.45
   2   7   5    8.15    0.35
  -3  -7  -5   15.12    0.57
  -3  -7  -5   13.84    0.61
  -3  -7  -5   15.06    0.56
  -3  -7  -5   15.42    0.50
  -3  -7  -5   15.12    0.49
  -3  -7  -5   14.06    0.60
  -3  -7  -5   14.84    0.64
  -3  -7  -5   15.36    0.55
  -3  -7  -5   14.90    0.50
   3   7   5   15.05    0.66
   3   7   5   13.99    0.56
  -4  -7  -5    4.23    0.16
  -4  -7  -5    4.23    0.18
  -4  -7  -5    4.07    0.19
  -4  -7  -5    4.23    0.16
  -4  -7  -5    4.49    0.21
  -4  -7  -5    4.25    0.15
   3  -8  -5    2.15    0.12
   3  -8  -5    2.15    0.15
   3  -8  -5    2.28    0.11
   3  -8  -5    2.12    0.14
   2  -8  -5    3.33    0.15
   2  -8  -5    3.48    0.19
   2  -8  -5    3.26    0.14
   2  -8  -5    3.25    0.19
   2  -8  -5    2.91    0.30
   2  -8  -5    3.62    0.22
   2  -8  -5    3.25    0.15
  -2   8   5    2.94    0.22
   1  -8  -5   10.92    0.37
   1  -8  -5   10.62    0.41
   1  -8  -5   10.43    0.42
   1  -8  -5   11.17    0.37
  -1   8   5   10.91    0.44
   0  -8  -5   46.28    1.45
   0  -8  -5   45.91    1.49
   0  -8  -5   45.22    1.50
   0  -8  -5   46.51    1.45
   0  -8  -5   45.50    1.58
   0  -8  -5   45.03    1.59
  -1  -8  -5   10.50    0.41
  -1  -8  -5   10.04    0.39
  -1  -8  -5   10.04    0.49
  -1  -8  -5   10.28    0.35
  -1  -8  -5   10.17    0.51
  -1  -8  -5   10.19    0.35
  -1  -8  -5   10.28    0.35
  -1  -8  -5   10.09    0.41
   1   8   5   10.12    0.40
  -2  -8  -5    3.57    0.30
  -2  -8  -5    3.38    0.30
  -2  -8  -5    3.12    0.22
  -2  -8  -5    3.37    0.18
  -2  -8  -5    3.29    0.15
  -2  -8  -5    3.59    0.21
  -2  -8  -5    3.48    0.14
  -2  -8  -5    3.31    0.15
   2   8   5    3.38    0.23
  -3  -8  -5    3.78    0.21
  -3  -8  -5    4.13    0.15
  -3  -8  -5    3.99    0.16
  -3  -8  -5    3.89    0.16
  -3  -8  -5    3.87    0.20
   3  -9  -5    0.18    0.03
   3  -9  -5    0.05    0.06
   3  -9  -5    0.15    0.04
   3  -9  -5    0.16    0.06
   3  -9  -5    0.17    0.04
   2  -9  -5    1.20    0.13
   2  -9  -5    1.20    0.09
   2  -9  -5    1.09    0.09
   2  -9  -5    1.16    0.13
   2  -9  -5    1.16    0.08
   1  -9  -5   10.04    0.34
   1  -9  -5    9.78    0.40
   1  -9  -5   10.14    0.35
   1  -9  -5   10.30    0.34
   1  -9  -5   10.20    0.39
  -1   9   5    9.83    0.41
   0  -9  -5   15.71    0.58
   0  -9  -5   15.87    0.67
   0  -9  -5   15.57    0.57
   0  -9  -5   15.77    0.52
   0  -9  -5   16.04    0.52
   0  -9  -5   16.16    0.52
   0  -9  -5   16.09    0.56
   0   9   5   15.78    0.58
  -1  -9  -5   17.95    0.57
  -1  -9  -5   17.45    0.62
  -1  -9  -5   16.47    0.69
  -1  -9  -5   17.86    0.57
  -1  -9  -5   17.92    0.61
  -1  -9  -5   16.83    0.71
  -1  -9  -5   17.52    0.57
  -1  -9  -5   16.66    0.62
   1   9   5   17.90    0.64
  -2  -9  -5   10.47    0.35
  -2  -9  -5   10.99    0.35
  -2  -9  -5   10.25    0.40
  -2  -9  -5   10.36    0.35
  -2  -9  -5   10.19    0.38
  -3  -9  -5    3.30    0.12
  -3  -9  -5    3.31    0.12
  -3  -9  -5    3.09    0.16
  -3  -9  -5    3.25    0.13
   2 -10  -5   10.34    0.37
   2 -10  -5   10.38    0.34
   2 -10  -5   10.12    0.37
   2 -10  -5   10.40    0.34
   1 -10  -5    8.46    0.29
   1 -10  -5    8.77    0.33
   1 -10  -5    8.39    0.29
   0 -10  -5    9.07    0.34
   0 -10  -5    8.79    0.30
   0 -10  -5    9.03    0.30
   0 -10  -5    8.52    0.35
  -1 -10  -5    0.47    0.06
  -1 -10  -5    0.54    0.09
  -1 -10  -5    0.56    0.09
  -1 -10  -5    0.57    0.07
  -2 -10  -5    1.36    0.10
  -2 -10  -5    1.55    0.12
  -2 -10  -5    1.37    0.08
  -2 -10  -5    1.51    0.07
   0 -11  -5    5.17    0.22
   0 -11  -5    5.66    0.19
   0 -11  -5    5.65    0.19
   0 -11  -5    5.44    0.21
   2  12  -6    1.55    0.12
  -2 -12   6    1.55    0.14
   1  12  -6    6.99    0.29
  -1 -12   6    7.15    0.31
   0  12  -6    8.17    0.33
   0 -12   6    8.26    0.32
   0 -12   6    8.95    0.37
  -1  12  -6    7.32    0.28
  -1  12  -6    6.45    0.30
   1 -12   6    7.30    0.28
   1 -12   6    6.83    0.32
  -2  12  -6    2.53    0.16
  -2  12  -6    2.86    0.15
   2 -12   6    2.81    0.18
   2 -12   6    2.57    0.14
   3  11  -6    2.93    0.15
   3  11  -6    3.02    0.15
  -3 -11   6    2.87    0.16
   2  11  -6    2.93    0.17
   2  11  -6    3.05    0.19
  -1 -11   6   12.88    0.44
   0  11  -6    2.25    0.29
   0 -11   6    2.17    0.17
   0 -11   6    2.26    0.15
   0 -11   6    2.33    0.31
  -1  11  -6    6.98    0.49
  -1  11  -6    9.94    0.38
  -1  11  -6    9.90    0.48
   1 -11   6    9.09    0.36
   1 -11   6    8.58    0.45
   1 -11   6    9.03    0.51
   1 -11   6    9.14    0.32
  -2  11  -6    8.41    0.35
  -2  11  -6    8.18    0.33
   2 -11   6    7.55    0.30
  -3  11  -6    2.19    0.14
  -3  11  -6    2.27    0.14
   3 -11   6    1.96    0.11
   3 -11   6    2.06    0.17
   3  10  -6   15.58    0.54
   3  10  -6   14.41    0.52
   2  10  -6    1.76    0.16
   2  10  -6    1.94    0.18
   2  10  -6    1.84    0.24
  -2 -10   6    1.63    0.15
  -2 -10   6    1.91    0.22
   1  10  -6    6.67    0.43
  -1 -10   6    8.23    0.71
  -1 -10   6    6.90    0.32
  -1 -10   6    6.97    0.31
   0  10  -6   27.82    1.08
   0 -10   6   25.77    1.04
   0 -10   6   25.81    0.87
   0 -10   6   24.89    0.87
  -1  10  -6    4.19    0.34
  -1  10  -6    3.96    0.24
  -1  10  -6    4.65    0.33
   1 -10   6    3.97    0.23
   1 -10   6    3.87    0.24
   1 -10   6    3.99    0.39
   1 -10   6    4.60    0.34
  -2  10  -6    5.20    0.37
  -2  10  -6    5.44    0.27
  -2  10  -6    5.09    0.36
  -2  10  -6    5.55    0.29
   2 -10   6    5.26    0.40
   2 -10   6    5.66    0.26
   2 -10   6    5.25    0.26
   2 -10   6    5.64    0.37
  -3  10  -6   13.74    0.50
  -3  10  -6   13.47    0.50
   3 -10   6   12.09    0.43
   4   9  -6    0.90    0.10
   4   9  -6    0.89    0.09
   3   9  -6    2.86    0.19
   3   9  -6    3.26    0.19
   3   9  -6    3.14    0.28
  -3  -9   6    2.92    0.19
  -3  -9   6    3.05    0.25
   2   9  -6    5.92    0.29
   2   9  -6    6.02    0.39
   2   9  -6    6.13    0.30
  -2  -9   6    6.15    0.37
  -2  -9   6    6.35    0.30
   1   9  -6    4.22    0.33
   1   9  -6    3.84    0.31
   1   9  -6    4.27    0.26
  -1  -9   6    4.20    0.31
  -1  -9   6    4.74    0.27
  -1  -9   6    4.71    0.24
  -1  -9   6    4.34    0.18
  -1  -9   6    4.16    0.35
   0   9  -6   12.65    0.60
   0  -9   6   12.96    0.64
  -1   9  -6    1.94    0.27
  -1   9  -6    2.32    0.28
  -1   9  -6    1.84    0.18
   1  -9   6    2.15    0.24
   1  -9   6    2.10    0.12
   1  -9   6    1.85    0.17
   1  -9   6    2.21    0.32
   1  -9   6    2.45    0.29
  -2   9  -6    1.48    0.25
  -2   9  -6    1.43    0.17
  -2   9  -6    1.62    0.26
   2  -9   6    1.33    0.16
   2  -9   6    1.46    0.26
   2  -9   6    1.36    0.22
   2  -9   6    1.64    0.30
  -3   9  -6    0.10    0.10
  -3   9  -6   -0.08    0.13
  -3   9  -6    0.11    0.11
   3  -9   6    0.05    0.09
   3  -9   6   -0.09    0.14
  -4   9  -6    1.79    0.13
  -4   9  -6    1.75    0.12
   4   8  -6    2.36    0.14
   4   8  -6    2.44    0.15
  -4  -8   6    2.47    0.15
  -4  -8   6    2.19    0.15
   3   8  -6    2.35    0.28
   3   8  -6    2.41    0.18
   3   8  -6    2.31    0.19
  -3  -8   6    2.25    0.20
  -3  -8   6    2.19    0.25
   2   8  -6   32.30    1.12
   2   8  -6   32.99    1.25
   2   8  -6   34.53    1.18
  -2  -8   6   29.84    1.42
  -2  -8   6   30.67    0.98
  -2  -8   6   30.93    1.11
  -2  -8   6   29.36    1.02
   1   8  -6    7.41    0.41
   1   8  -6    6.63    0.45
   1   8  -6    7.07    0.42
  -1  -8   6    6.21    0.35
  -1  -8   6    6.43    0.40
   0   8  -6   58.48    2.01
   0  -8   6   54.68    1.91
  -1   8  -6   28.96    1.06
  -1   8  -6   26.04    1.21
  -1   8  -6   28.64    1.04
   1  -8   6   26.86    1.07
   1  -8   6   27.52    1.23
   1  -8   6   27.18    1.00
  -2   8  -6    3.38    0.22
  -2   8  -6    2.97    0.29
  -2   8  -6    3.56    0.32
   2  -8   6    3.61    0.28
   2  -8   6    3.45    0.21
   2  -8   6    3.40    0.34
   2  -8   6    2.98    0.17
   2  -8   6    3.42    0.30
   2  -8   6    2.79    0.51
  -3   8  -6    0.20    0.12
  -3   8  -6   -0.03    0.15
  -3   8  -6    0.15    0.12
   3  -8   6    0.25    0.11
   3  -8   6    0.15    0.16
  -4   8  -6    2.13    0.17
  -4   8  -6    2.45    0.16
   4  -8   6    2.20    0.15
   4   7  -6    8.08    0.33
   4   7  -6    8.00    0.31
  -4  -7   6    7.61    0.30
  -4  -7   6    7.43    0.31
   3   7  -6    1.79    0.17
   3   7  -6    1.74    0.17
   3   7  -6    1.88    0.26
  -3  -7   6    1.86    0.25
  -3  -7   6    1.54    0.14
  -3  -7   6    1.09    0.21
   2   7  -6   29.51    1.12
   2   7  -6   29.67    1.21
  -2  -7   6   28.97    1.26
  -2  -7   6   27.66    1.03
   1   7  -6   31.10    1.24
   1   7  -6   30.86    1.16
   1   7  -6   33.97    1.18
  -1  -7   6   32.19    1.17
  -1  -7   6   30.90    1.29
  -1  -7   6   31.16    1.11
   0   7  -6   21.38    0.88
   0   7  -6   20.03    0.81
   0   7  -6   22.59    0.83
   0  -7   6   20.73    0.90
   0  -7   6   19.93    0.80
   0  -7   6   19.52    0.74
  -1   7  -6   18.71    0.74
  -1   7  -6   19.95    0.77
  -1   7  -6   19.07    0.91
   1  -7   6   18.69    0.74
   1  -7   6   20.41    0.95
   1  -7   6   19.35    0.80
  -2   7  -6   17.77    0.72
  -2   7  -6   17.83    0.72
  -2   7  -6   16.46    0.89
   2  -7   6   16.56    0.70
   2  -7   6   17.92    0.74
   2  -7   6   15.10    0.90
  -3   7  -6   14.83    0.54
  -3   7  -6   13.33    0.54
  -3   7  -6   14.21    0.64
   3  -7   6   13.31    0.46
   3  -7   6   13.31    0.61
   3  -7   6   12.86    0.54
  -4   7  -6    0.46    0.09
  -4   7  -6    0.49    0.11
   4  -7   6    0.61    0.11
  -5  -6   6    0.27    0.07
  -5  -6   6    0.22    0.06
   4   6  -6    2.65    0.15
   4   6  -6    2.45    0.17
  -4  -6   6    2.56    0.14
  -4  -6   6    2.47    0.18
  -4  -6   6    2.61    0.30
  -4  -6   6    2.50    0.20
   3   6  -6   45.04    1.59
   3   6  -6   49.37    1.68
   3   6  -6   47.14    1.51
   3   6  -6   50.54    1.54
   3   6  -6   41.65    1.84
  -3  -6   6   47.12    1.87
  -3  -6   6   47.12    1.64
  -3  -6   6   47.99    1.52
   2   6  -6   16.29    0.68
   2   6  -6   16.60    0.76
   2   6  -6   15.51    0.66
  -2  -6   6   15.00    0.67
  -2  -6   6   16.69    0.65
  -2  -6   6   16.72    0.83
   1   6  -6   33.63    1.24
   1   6  -6   32.32    1.15
   1   6  -6   31.08    1.16
  -1  -6   6   30.53    1.07
  -1  -6   6   30.26    1.11
  -1  -6   6   31.24    1.24
   0   6  -6    0.21    0.19
   0   6  -6    0.60    0.15
   0   6  -6    0.58    0.15
   0   6  -6    0.47    0.15
   0  -6   6    0.51    0.14
   0  -6   6    0.43    0.11
   0  -6   6    0.42    0.21
   0  -6   6    0.27    0.15
  -1   6  -6   44.00    1.52
  -1   6  -6   45.80    1.55
  -1   6  -6   45.14    1.69
   1  -6   6   41.42    1.79
   1  -6   6   43.58    1.64
   1  -6   6   41.48    1.43
   1  -6   6   41.51    1.47
  -2   6  -6    6.52    0.37
  -2   6  -6    7.72    0.55
  -2   6  -6    6.10    0.51
   2  -6   6    6.29    0.37
   2  -6   6    6.23    0.37
   2  -6   6    6.67    0.56
  -3   6  -6    0.58    0.13
  -3   6  -6    0.42    0.15
  -3   6  -6    0.56    0.09
  -3   6  -6    0.43    0.12
   3  -6   6    0.46    0.33
   3  -6   6    0.39    0.18
   3  -6   6    0.69    0.09
  -4   6  -6    0.70    0.16
  -4   6  -6    0.60    0.12
  -4   6  -6    0.61    0.18
  -4   6  -6    0.45    0.10
   4  -6   6    0.60    0.13
   4  -6   6    0.32    0.10
   4  -6   6    0.64    0.07
   4  -6   6    0.66    0.19
  -5   6  -6    1.38    0.11
   5  -6   6    1.25    0.11
   5  -6   6    1.43    0.12
   5   5  -6    5.84    0.25
  -5  -5   6    6.30    0.25
  -5  -5   6    6.18    0.25
   4   5  -6    4.23    0.20
  -4  -5   6    4.18    0.22
  -4  -5   6    4.13    0.19
   3   5  -6   32.29    1.30
   3   5  -6   33.34    1.21
  -3  -5   6   31.48    1.37
  -3  -5   6   32.35    1.15
   2   5  -6   11.15    0.51
   2   5  -6   11.41    0.51
   2   5  -6   12.10    0.59
  -2  -5   6   10.26    0.50
  -2  -5   6   11.26    0.63
  -2  -5   6   11.39    0.47
   1   5  -6   14.44    0.53
   1   5  -6   14.32    0.58
   1   5  -6   14.55    0.64
   1   5  -6   15.07    0.85
   1   5  -6   14.77    0.59
  -1  -5   6   14.10    0.68
  -1  -5   6   14.57    0.55
  -1  -5   6   14.15    0.86
  -1  -5   6   14.67    0.59
  -1  -5   6   13.09    0.51
   0   5  -6   18.32    0.94
   0   5  -6   18.06    0.69
   0   5  -6   18.84    0.64
   0   5  -6   17.92    0.75
   0   5  -6   18.57    0.70
   0  -5   6   16.69    0.91
   0  -5   6   15.10    0.56
   0  -5   6   15.33    0.59
   0  -5   6   17.03    0.73
   0  -5   6   16.68    0.64
  -1   5  -6   68.45    2.62
  -1   5  -6   71.92    2.63
  -1   5  -6   72.27    2.45
  -1   5  -6   69.52    2.26
  -1   5  -6   65.88    2.31
  -1   5  -6   72.78    2.39
  -1   5  -6   71.51    2.42
  -1   5  -6   69.51    2.30
   1  -5   6   61.29    2.12
   1  -5   6   64.55    2.16
   1  -5   6   67.66    2.27
   1  -5   6   66.89    2.20
   1  -5   6   65.05    2.27
   1  -5   6   69.85    2.34
   1  -5   6   67.81    2.49
  -2   5  -6   39.50    1.56
  -2   5  -6   41.05    1.54
  -2   5  -6   38.30    1.38
  -2   5  -6   40.45    1.37
   2  -5   6   36.03    1.32
   2  -5   6   37.40    1.42
   2  -5   6   37.16    1.49
   2  -5   6   36.35    1.28
  -3   5  -6    8.30    0.44
  -3   5  -6    7.82    0.40
  -3   5  -6    8.39    0.61
  -3   5  -6    7.45    0.57
   3  -5   6    8.09    0.50
   3  -5   6    7.97    0.65
   3  -5   6    7.94    0.44
   3  -5   6    8.48    0.60
  -4   5  -6    4.19    0.22
  -4   5  -6    3.89    0.32
  -4   5  -6    3.95    0.31
  -4   5  -6    4.15    0.24
   4  -5   6    3.74    0.19
   4  -5   6    3.89    0.35
   4  -5   6    3.31    0.39
   4  -5   6    3.72    0.23
  -5   5  -6    3.49    0.18
   5  -5   6    3.29    0.17
   5  -5   6    3.13    0.18
   5   4  -6    0.49    0.09
  -5  -4   6    0.52    0.08
  -5  -4   6    0.71    0.10
   4   4  -6   55.98    1.76
   4   4  -6   54.45    1.76
  -4  -4   6   58.22    1.83
  -4  -4   6   56.14    1.84
   3   4  -6   51.27    1.75
   3   4  -6   49.68    1.83
  -3  -4   6   48.94    1.88
  -3  -4   6   49.63    1.67
   2   4  -6   10.20    0.39
   2   4  -6    9.33    0.44
   2   4  -6    9.99    0.51
   2   4  -6   11.74    0.99
   2   4  -6    8.72    0.43
  -2  -4   6    9.69    0.39
  -2  -4   6   10.54    0.58
  -2  -4   6    9.27    0.71
  -2  -4   6    9.12    0.42
   1   4  -6   34.80    1.25
   1   4  -6   31.49    1.52
   1   4  -6   32.23    1.14
   1   4  -6   33.04    1.19
   1   4  -6   33.76    1.26
   1   4  -6   30.95    1.41
   1   4  -6   33.82    1.09
   1   4  -6   30.54    1.13
   1   4  -6   32.09    1.16
   1   4  -6   33.80    1.40
  -1  -4   6   29.63    1.45
  -1  -4   6   32.01    1.06
  -1  -4   6   31.03    1.03
  -1  -4   6   30.17    1.09
  -1  -4   6   33.15    1.41
  -1  -4   6   32.37    1.26
  -1  -4   6   31.76    1.19
  -1  -4   6   29.40    1.10
   0   4  -6    3.01    0.28
   0   4  -6    3.03    0.26
   0   4  -6    3.79    0.39
   0   4  -6    3.17    0.25
   0   4  -6    3.75    0.31
   0   4  -6    3.31    0.30
   0   4  -6    3.70    0.46
   0  -4   6    2.98    0.41
   0  -4   6    3.17    0.39
   0  -4   6    3.05    0.28
   0  -4   6    3.37    0.38
   0  -4   6    2.96    0.22
  -1   4  -6   35.22    1.52
  -1   4  -6   38.72    1.37
  -1   4  -6   36.47    1.36
  -1   4  -6   36.92    1.69
  -1   4  -6   36.35    1.51
  -1   4  -6   35.85    1.35
  -1   4  -6   35.57    1.36
  -1   4  -6   36.56    1.32
  -1   4  -6   35.99    1.20
  -1   4  -6   35.72    1.40
   1  -4   6   33.55    1.23
   1  -4   6   33.40    1.10
   1  -4   6   32.44    1.39
   1  -4   6   32.93    1.42
   1  -4   6   33.53    1.40
   1  -4   6   33.12    1.28
   1  -4   6   33.02    1.57
   1  -4   6   34.11    1.24
   1  -4   6   33.16    1.15
  -2   4  -6   42.72    1.46
  -2   4  -6   43.42    1.63
  -2   4  -6   43.66    1.65
  -2   4  -6   42.83    1.48
  -2   4  -6   43.34    1.42
  -2   4  -6   43.30    1.70
   2  -4   6   41.23    1.60
   2  -4   6   39.34    1.36
   2  -4   6   38.83    2.45
   2  -4   6   52.74    2.34
   2  -4   6   40.66    1.55
   2  -4   6   41.06    1.41
   2  -4   6   40.87    1.47
  -3   4  -6   13.60    0.74
  -3   4  -6   11.99    0.54
  -3   4  -6   12.91    0.56
  -3   4  -6   11.99    0.71
   3  -4   6   12.55    0.64
   3  -4   6   13.28    0.58
   3  -4   6   12.50    0.80
   3  -4   6   12.59    0.74
  -4   4  -6    3.18    0.29
  -4   4  -6    2.52    0.20
  -4   4  -6    2.40    0.14
  -4   4  -6    2.35    0.16
  -4   4  -6    2.24    0.26
   4  -4   6    2.20    0.17
   4  -4   6    2.22    0.20
   4  -4   6    2.24    0.30
   4  -4   6    2.71    0.36
  -5   4  -6    3.21    0.20
  -5   4  -6    3.09    0.17
   5  -4   6    2.86    0.18
   5  -4   6    2.78    0.19
   5   3  -6    2.08    0.16
  -5  -3   6    2.01    0.15
  -5  -3   6    2.32    0.13
   4   3  -6    8.19    0.46
   4   3  -6    7.12    0.27
   4   3  -6    7.51    0.30
  -4  -3   6    7.23    0.45
  -4  -3   6    7.09    0.30
   3   3  -6    8.09    0.37
   3   3  -6    8.46    0.52
   3   3  -6    9.14    0.45
  -3  -3   6    7.99    0.36
  -3  -3   6    7.92    0.60
   2   3  -6   13.25    0.56
   2   3  -6   13.08    0.60
   2   3  -6   14.49    0.62
   2   3  -6   13.42    0.78
   2   3  -6   12.96    0.55
   2   3  -6   13.69    0.56
   2   3  -6   12.19    0.85
   2   3  -6   14.06    0.56
   2   3  -6   12.92    0.55
   2   3  -6   14.33    0.51
   2   3  -6   14.54    0.96
  -2  -3   6   12.58    0.50
  -2  -3   6   12.99    0.68
  -2  -3   6   11.52    0.86
  -2  -3   6   12.00    0.56
  -2  -3   6   13.92    0.74
  -2  -3   6   13.66    0.64
  -2  -3   6   12.64    0.47
  -2  -3   6   13.29    0.81
   1   3  -6   26.13    1.13
   1   3  -6   24.99    0.93
   1   3  -6   25.44    0.94
   1   3  -6   24.25    1.18
   1   3  -6   25.13    0.99
   1   3  -6   22.66    1.18
   1   3  -6   26.47    1.01
  -1  -3   6   24.08    1.17
  -1  -3   6   24.01    0.95
  -1  -3   6   25.02    0.87
  -1  -3   6   24.26    1.14
  -1  -3   6   23.54    1.03
   0   3  -6   38.75    1.63
   0   3  -6   40.33    1.45
   0   3  -6   41.28    1.59
   0   3  -6   41.54    1.41
   0   3  -6   40.05    1.49
   0   3  -6   39.86    1.39
   0   3  -6   40.33    1.44
   0  -3   6   41.10    1.57
   0  -3   6   39.87    1.68
   0  -3   6   39.07    1.32
   0  -3   6   39.78    1.57
   0  -3   6   38.69    1.41
  -1   3  -6   20.78    0.99
  -1   3  -6   21.57    1.13
  -1   3  -6   20.98    0.92
  -1   3  -6   20.40    0.83
  -1   3  -6   20.58    0.86
  -1   3  -6   22.65    0.88
  -1   3  -6   21.42    1.03
  -1   3  -6   21.28    0.88
  -1   3  -6   22.81    0.88
   1  -3   6   19.86    0.94
   1  -3   6   20.27    0.73
   1  -3   6   20.38    1.11
   1  -3   6   20.00    0.81
   1  -3   6   20.02    0.95
   1  -3   6   19.02    0.84
   1  -3   6   20.11    0.93
  -2   3  -6   44.69    1.64
  -2   3  -6   43.06    1.70
  -2   3  -6   43.04    1.44
  -2   3  -6   42.58    1.49
  -2   3  -6   43.77    1.59
  -2   3  -6   46.90    1.67
  -2   3  -6   44.89    1.64
  -2   3  -6   44.95    2.20
  -2   3  -6   42.56    1.57
  -2   3  -6   44.17    1.48
  -2   3  -6   43.62    1.83
   2  -3   6   42.61    1.63
   2  -3   6   41.95    1.56
   2  -3   6   40.33    1.48
   2  -3   6   40.40    1.77
   2  -3   6   42.44    1.45
   2  -3   6   44.05    1.38
   2  -3   6   40.61    1.99
   2  -3   6   42.20    1.43
  -3   3  -6   30.93    1.09
  -3   3  -6   28.96    1.26
  -3   3  -6   29.58    1.27
  -3   3  -6   29.41    1.08
   3  -3   6   28.67    1.34
   3  -3   6   30.65    1.11
   3  -3   6   30.81    1.29
   3  -3   6   29.92    1.17
  -4   3  -6    4.76    0.33
  -4   3  -6    5.27    0.27
  -4   3  -6    5.15    0.22
  -4   3  -6    5.44    0.22
  -4   3  -6    5.00    0.34
   4  -3   6    4.88    0.38
   4  -3   6    5.21    0.24
   4  -3   6    4.43    0.42
  -5   3  -6    1.71    0.17
  -5   3  -6    1.78    0.15
   5  -3   6    1.28    0.23
   5  -3   6    1.77    0.16
   5  -3   6    1.66    0.11
   5   2  -6    2.32    0.16
   5   2  -6    2.44    0.12
   5   2  -6    2.59    0.16
  -5  -2   6    2.29    0.16
  -5  -2   6    2.57    0.14
   4   2  -6    2.96    0.32
   4   2  -6    2.90    0.19
   4   2  -6    2.85    0.17
   4   2  -6    2.78    0.18
  -4  -2   6    2.79    0.30
   3   2  -6   21.11    0.83
   3   2  -6   22.64    0.85
   3   2  -6   20.64    0.93
   3   2  -6   21.70    0.85
   3   2  -6   22.13    0.78
  -3  -2   6   21.55    0.78
  -3  -2   6   21.60    1.05
   2   2  -6   50.04    1.68
   2   2  -6   50.34    1.93
   2   2  -6   46.97    1.67
   2   2  -6   49.17    1.75
   2   2  -6   49.77    1.62
   2   2  -6   51.31    1.82
   2   2  -6   50.56    1.74
   2   2  -6   50.93    1.72
   2   2  -6   50.73    1.68
   2   2  -6   47.44    2.08
   2   2  -6   45.26    2.09
   2   2  -6   51.53    1.69
  -2  -2   6   48.59    1.87
  -2  -2   6   48.79    1.71
  -2  -2   6   48.23    1.79
  -2  -2   6   48.55    1.65
  -2  -2   6   45.89    1.90
  -2  -2   6   45.57    2.01
  -2  -2   6   47.65    1.55
  -2  -2   6   47.29    1.62
   1   2  -6   29.40    1.05
   1   2  -6   28.74    1.29
   1   2  -6   29.93    1.22
   1   2  -6   27.90    1.05
   1   2  -6   29.93    1.13
   1   2  -6   28.90    1.08
   1   2  -6   28.03    1.30
  -1  -2   6   27.33    1.05
  -1  -2   6   28.24    1.24
  -1  -2   6   28.24    0.97
  -1  -2   6   28.98    1.22
  -1  -2   6   27.55    1.15
   0   2  -6    2.89    0.22
   0   2  -6    3.18    0.23
   0   2  -6    3.55    0.35
   0   2  -6    3.39    0.35
   0   2  -6    3.37    0.30
   0   2  -6    3.10    0.26
   0   2  -6    3.44    0.28
   0  -2   6    3.15    0.18
   0  -2   6    3.32    0.42
   0  -2   6    3.39    0.34
   0  -2   6    3.55    0.31
  -1   2  -6   18.47    0.79
  -1   2  -6   21.05    0.82
  -1   2  -6   19.14    0.78
  -1   2  -6   18.29    0.99
  -1   2  -6   20.40    0.93
  -1   2  -6   19.51    0.78
  -1   2  -6   20.66    0.86
  -1   2  -6   19.27    0.95
  -1   2  -6   19.45    0.79
   1  -2   6   17.89    0.88
   1  -2   6   18.42    1.06
   1  -2   6   19.30    0.68
   1  -2   6   19.89    0.88
   1  -2   6   17.92    0.80
   1  -2   6   18.46    0.76
   1  -2   6   19.50    0.92
  -2   2  -6   94.94    3.32
  -2   2  -6  109.27    3.47
  -2   2  -6  108.21    3.35
  -2   2  -6  103.91    3.47
  -2   2  -6  106.57    3.50
  -2   2  -6  107.36    3.52
  -2   2  -6   97.35    3.56
  -2   2  -6  105.44    3.76
  -2   2  -6  102.33    3.90
  -2   2  -6  103.95    3.35
  -2   2  -6  104.18    3.71
  -2   2  -6  106.12    3.31
  -2   2  -6   98.74    3.38
  -2   2  -6  104.14    3.50
   2  -2   6   96.25    3.61
   2  -2   6   99.80    3.49
   2  -2   6  100.53    3.92
   2  -2   6  104.21    3.32
   2  -2   6  100.75    3.59
   2  -2   6  100.45    3.68
   2  -2   6  107.18    3.44
   2  -2   6  102.98    3.25
   2  -2   6  103.46    3.30
  -3   2  -6    2.84    0.24
  -3   2  -6    2.54    0.24
  -3   2  -6    2.60    0.19
  -3   2  -6    3.50    0.40
  -3   2  -6    2.75    0.37
   3  -2   6    2.99    0.40
   3  -2   6    2.64    0.29
   3  -2   6    3.11    0.47
   3  -2   6    2.63    0.29
   3  -2   6    2.74    0.20
  -4   2  -6   11.36    0.53
  -4   2  -6   11.67    0.44
  -4   2  -6   11.09    0.41
  -4   2  -6   10.87    0.45
  -4   2  -6   11.00    0.52
   4  -2   6   10.79    0.53
   4  -2   6   10.44    0.59
  -5   2  -6    0.62    0.10
  -5   2  -6    0.63    0.10
   5  -2   6    0.62    0.07
   5  -2   6    0.36    0.10
   5   1  -6    1.08    0.09
   5   1  -6    0.75    0.12
   5   1  -6    1.03    0.12
  -5  -1   6    0.86    0.13
   4   1  -6    3.62    0.20
   4   1  -6    3.38    0.34
   4   1  -6    3.30    0.20
   4   1  -6    3.55    0.19
   4   1  -6    3.66    0.20
  -4  -1   6    3.33    0.32
   3   1  -6    9.82    0.48
   3   1  -6    9.82    0.41
   3   1  -6   10.02    0.58
   3   1  -6    9.91    0.47
   3   1  -6    9.77    0.47
   3   1  -6    9.54    0.47
   3   1  -6    9.27    0.63
  -3  -1   6   10.13    0.41
  -3  -1   6   10.23    0.69
  -3  -1   6    9.04    0.52
   2   1  -6   46.81    1.65
   2   1  -6   45.07    1.98
   2   1  -6   47.03    1.58
   2   1  -6   46.12    1.71
   2   1  -6   47.64    1.58
   2   1  -6   47.75    1.59
   2   1  -6   45.40    2.00
   2   1  -6   46.57    1.58
   2   1  -6   45.52    1.52
  -2  -1   6   45.34    1.91
  -2  -1   6   45.66    1.72
  -2  -1   6   44.97    1.48
  -2  -1   6   46.63    1.56
  -2  -1   6   44.12    1.78
   1   1  -6    3.73    0.25
   1   1  -6    3.78    0.27
   1   1  -6    4.05    0.35
   1   1  -6    3.37    0.41
   1   1  -6    3.72    0.35
   1   1  -6    3.88    0.26
   1   1  -6    3.59    0.36
  -1  -1   6    2.88    0.33
  -1  -1   6    3.72    0.35
  -1  -1   6    3.05    0.25
  -1  -1   6    3.51    0.35
  -1  -1   6    3.51    0.19
   0   1  -6   56.47    2.05
   0   1  -6   55.64    1.89
   0   1  -6   57.96    1.92
   0   1  -6   52.96    1.98
   0   1  -6   53.95    1.95
   0   1  -6   55.91    1.86
   0   1  -6   54.35    1.86
   0   1  -6   53.75    1.82
   0  -1   6   51.64    1.77
   0  -1   6   48.68    1.62
   0  -1   6   51.29    1.87
  -1   1  -6   19.47    0.90
  -1   1  -6   18.67    0.95
  -1   1  -6   19.93    0.95
  -1   1  -6   20.01    0.76
  -1   1  -6   19.17    0.85
  -1   1  -6   19.45    0.78
  -1   1  -6   19.90    0.79
  -1   1  -6   19.67    0.81
  -1   1  -6   18.39    0.78
   1  -1   6   19.49    0.92
   1  -1   6   20.10    0.86
   1  -1   6   19.92    0.93
   1  -1   6   19.95    1.09
   1  -1   6   18.14    0.82
   1  -1   6   19.03    0.68
  -2   1  -6   29.42    1.43
  -2   1  -6   26.74    1.00
  -2   1  -6   26.26    0.94
  -2   1  -6   27.44    1.10
  -2   1  -6   27.26    1.16
  -2   1  -6   26.39    1.07
  -2   1  -6   26.02    0.91
  -2   1  -6   26.37    1.09
  -2   1  -6   26.79    1.07
  -2   1  -6   27.90    1.10
  -2   1  -6   27.88    0.96
  -2   1  -6   25.94    0.95
  -2   1  -6   28.86    1.28
  -2   1  -6   29.08    0.97
   2  -1   6   25.86    1.13
   2  -1   6   26.14    1.07
   2  -1   6   28.16    0.97
   2  -1   6   26.94    0.90
   2  -1   6   28.36    1.50
   2  -1   6   26.70    1.22
   2  -1   6   25.62    1.27
  -3   1  -6   36.44    1.24
  -3   1  -6   35.63    1.24
  -3   1  -6   32.68    1.36
  -3   1  -6   35.78    1.42
  -3   1  -6   33.52    1.29
  -3   1  -6   34.86    1.21
  -3   1  -6   36.07    1.38
  -3   1  -6   35.61    1.43
   3  -1   6   34.78    1.40
   3  -1   6   34.48    1.16
   3  -1   6   34.21    1.24
   3  -1   6   32.01    1.24
   3  -1   6   33.84    1.48
   3  -1   6   35.18    1.29
  -4   1  -6    2.50    0.21
  -4   1  -6    2.22    0.26
  -4   1  -6    2.29    0.25
  -4   1  -6    2.36    0.18
  -4   1  -6    2.03    0.16
   4  -1   6    1.61    0.31
   4  -1   6    2.31    0.29
  -5   1  -6    7.94    0.27
  -5   1  -6    7.77    0.32
  -5   1  -6    7.42    0.31
   5  -1   6    7.83    0.31
   5  -1   6    6.85    0.27
   5   0  -6    5.69    0.24
   5   0  -6    5.20    0.22
   5   0  -6    5.50    0.22
  -5   0   6    5.58    0.24
   4   0  -6    8.88    0.40
   4   0  -6    9.32    0.35
   4   0  -6    8.75    0.36
   4   0  -6    8.84    0.31
   4   0  -6    8.97    0.50
   4   0  -6    9.00    0.35
  -4   0   6    8.63    0.47
  -4   0   6    8.63    0.41
   3   0  -6    0.32    0.19
   3   0  -6    0.38    0.15
   3   0  -6    0.25    0.13
   3   0  -6    0.50    0.14
   3   0  -6    0.29    0.09
   3   0  -6    0.31    0.19
  -3   0   6    0.11    0.13
  -3   0   6    0.47    0.25
  -3   0   6    0.49    0.10
   2   0  -6   19.89    1.09
   2   0  -6   20.64    0.76
   2   0  -6   20.58    1.13
   2   0  -6   20.30    0.77
   2   0  -6   18.82    0.75
   2   0  -6   19.63    0.68
   2   0  -6   20.33    0.75
   2   0  -6   19.91    0.85
   2   0  -6   19.53    0.81
  -2   0   6   19.33    0.72
  -2   0   6   18.29    0.64
  -2   0   6   18.85    0.87
  -2   0   6   19.13    0.94
  -2   0   6   19.19    1.01
   1   0  -6   11.60    0.48
   1   0  -6   12.73    0.65
   1   0  -6   11.22    0.52
   1   0  -6   11.49    0.58
   1   0  -6   11.90    0.50
   1   0  -6   12.26    0.75
   1   0  -6   12.11    0.63
  -1   0   6   10.84    0.41
  -1   0   6   11.46    0.58
  -1   0   6   11.26    0.60
  -1   0   6   11.07    0.50
  -1   0   6   11.70    0.61
   0   0  -6   36.04    1.31
   0   0  -6   37.36    1.31
   0   0  -6   35.56    1.26
   0   0  -6   36.34    1.35
   0   0  -6   35.33    1.42
   0   0  -6   36.40    1.26
   0   0  -6   33.64    1.16
   0   0  -6   35.15    1.28
   0   0   6   32.15    1.05
   0   0   6   34.67    1.32
   0   0   6   32.41    1.26
   0   0   6   32.90    1.16
  -1   0  -6  112.23    3.58
  -1   0  -6  109.23    3.56
  -1   0  -6  105.04    3.63
  -1   0  -6  103.09    3.49
  -1   0  -6  104.01    3.68
  -1   0  -6  111.04    3.57
  -1   0  -6  113.90    3.78
  -1   0  -6  102.17    3.54
  -1   0  -6  109.02    3.70
  -1   0  -6  111.08    3.80
   1   0   6  101.94    3.49
   1   0   6  106.30    3.63
   1   0   6  105.49    3.79
   1   0   6  104.32    3.49
   1   0   6  102.72    3.32
  -2   0  -6    1.52    0.24
  -2   0  -6    0.98    0.16
  -2   0  -6    1.62    0.24
  -2   0  -6    1.12    0.12
  -2   0  -6    1.31    0.19
  -2   0  -6    1.01    0.16
  -2   0  -6    1.45    0.25
  -2   0  -6    1.16    0.15
  -2   0  -6    1.26    0.29
  -2   0  -6    1.88    0.37
  -2   0  -6    1.19    0.22
  -2   0  -6    0.97    0.17
  -2   0  -6    1.06    0.23
  -2   0  -6    1.59    0.27
  -2   0  -6    1.27    0.30
   2   0   6    1.75    0.35
   2   0   6    1.06    0.27
   2   0   6    0.98    0.20
   2   0   6    1.11    0.39
   2   0   6    1.45    0.39
   2   0   6    1.24    0.12
   2   0   6    1.22    0.18
   2   0   6    1.92    0.36
  -3   0  -6    2.43    0.27
  -3   0  -6    1.81    0.26
  -3   0  -6    1.98    0.21
  -3   0  -6    2.14    0.17
  -3   0  -6    2.26    0.34
  -3   0  -6    1.90    0.31
  -3   0  -6    2.15    0.36
  -3   0  -6    2.22    0.23
  -3   0  -6    1.90    0.34
  -3   0  -6    1.81    0.21
   3   0   6    2.09    0.43
   3   0   6    2.17    0.28
   3   0   6    2.36    0.25
   3   0   6    1.99    0.36
   3   0   6    1.82    0.19
  -4   0  -6    0.57    0.18
  -4   0  -6    0.57    0.14
  -4   0  -6    0.68    0.12
  -4   0  -6    0.74    0.11
  -4   0  -6    0.51    0.09
   4   0   6    0.73    0.23
   4   0   6    0.44    0.19
  -5   0  -6    3.90    0.17
  -5   0  -6    3.60    0.18
   5   0   6    3.93    0.20
   5   0   6    3.65    0.18
   5  -1  -6    3.11    0.17
   5  -1  -6    2.83    0.14
   5  -1  -6    3.08    0.15
   4  -1  -6   12.97    0.54
   4  -1  -6   13.55    0.49
   4  -1  -6   13.82    0.65
   4  -1  -6   12.93    0.48
   4  -1  -6   13.82    0.46
   4  -1  -6   13.99    0.51
   4  -1  -6   13.58    0.48
  -4   1   6   13.76    0.55
  -4   1   6   13.10    0.61
   3  -1  -6    8.95    0.46
   3  -1  -6    7.75    0.42
   3  -1  -6    7.96    0.56
   3  -1  -6    8.27    0.36
   3  -1  -6    7.78    0.53
   3  -1  -6    7.75    0.42
  -3   1   6    7.47    0.59
  -3   1   6    8.02    0.45
  -3   1   6    7.59    0.34
   2  -1  -6    9.67    0.45
   2  -1  -6    8.96    0.74
   2  -1  -6    9.58    0.69
   2  -1  -6    9.81    0.45
   2  -1  -6    9.96    0.51
   2  -1  -6    9.83    0.45
   2  -1  -6    9.80    0.45
   2  -1  -6    9.79    0.51
  -2   1   6    9.98    0.62
  -2   1   6    8.87    0.55
  -2   1   6    9.47    0.65
  -2   1   6    9.35    0.42
   1  -1  -6    6.72    0.41
   1  -1  -6    5.97    0.54
   1  -1  -6    6.01    0.27
   1  -1  -6    6.18    0.41
   1  -1  -6    6.04    0.36
  -1   1   6    5.97    0.23
  -1   1   6    5.71    0.42
  -1   1   6    6.05    0.38
   0  -1  -6   10.13    0.45
   0  -1  -6    9.52    0.58
   0  -1  -6    9.31    0.45
   0  -1  -6    9.37    0.41
   0  -1  -6    9.19    0.53
   0  -1  -6    9.98    0.49
   0  -1  -6    9.29    0.45
   0  -1  -6    9.35    0.52
   0   1   6    8.52    0.36
   0   1   6    9.10    0.53
   0   1   6    8.98    0.52
  -1  -1  -6   40.05    1.52
  -1  -1  -6   40.54    1.44
  -1  -1  -6   37.96    1.42
  -1  -1  -6   38.95    1.49
  -1  -1  -6   40.03    1.62
  -1  -1  -6   39.63    1.45
  -1  -1  -6   39.07    1.33
  -1  -1  -6   39.00    1.56
  -1  -1  -6   39.85    1.43
  -1  -1  -6   40.95    1.48
   1   1   6   38.96    1.41
   1   1   6   39.23    1.57
   1   1   6   38.05    1.68
   1   1   6   36.05    1.24
  -2  -1  -6   32.78    1.20
  -2  -1  -6   34.11    1.16
  -2  -1  -6   32.67    1.13
  -2  -1  -6   31.50    1.13
  -2  -1  -6   33.01    1.25
  -2  -1  -6   30.82    1.32
  -2  -1  -6   34.37    1.29
  -2  -1  -6   31.34    1.08
  -2  -1  -6   34.33    1.29
  -2  -1  -6   33.52    1.13
  -2  -1  -6   33.74    1.28
  -2  -1  -6   32.50    1.54
  -2  -1  -6   33.63    1.51
  -2  -1  -6   32.98    1.28
  -2  -1  -6   30.60    1.44
   2   1   6   29.66    1.36
   2   1   6   28.72    1.45
   2   1   6   32.97    1.21
   2   1   6   32.52    1.33
   2   1   6   30.34    1.43
   2   1   6   29.29    1.56
   2   1   6   33.64    1.11
   2   1   6   30.11    1.03
  -3  -1  -6    5.89    0.50
  -3  -1  -6    6.37    0.33
  -3  -1  -6    6.78    0.36
  -3  -1  -6    5.76    0.34
  -3  -1  -6    6.44    0.38
  -3  -1  -6    6.21    0.51
  -3  -1  -6    5.94    0.30
  -3  -1  -6    6.54    0.48
  -3  -1  -6    6.92    0.42
  -3  -1  -6    7.25    0.52
   3   1   6    6.16    0.39
   3   1   6    6.00    0.44
   3   1   6    6.20    0.61
   3   1   6    6.44    0.40
   3   1   6    6.10    0.50
   3   1   6    6.67    0.31
  -4  -1  -6    6.63    0.38
  -4  -1  -6    6.94    0.48
  -4  -1  -6    7.21    0.34
  -4  -1  -6    6.78    0.31
  -4  -1  -6    6.75    0.28
  -4  -1  -6    6.71    0.29
  -4  -1  -6    6.68    0.25
  -4  -1  -6    5.92    0.40
   4   1   6    5.60    0.41
   4   1   6    6.47    0.33
  -5  -1  -6    3.57    0.17
  -5  -1  -6    3.82    0.17
   5   1   6    3.46    0.16
   5  -2  -6    3.38    0.16
   5  -2  -6    3.55    0.18
   5  -2  -6    3.64    0.17
   5  -2  -6    3.13    0.12
   5  -2  -6    3.26    0.16
   4  -2  -6    2.49    0.17
   4  -2  -6    2.33    0.20
   4  -2  -6    2.15    0.16
   4  -2  -6    2.41    0.27
   4  -2  -6    2.70    0.27
   4  -2  -6    2.46    0.15
   4  -2  -6    2.57    0.31
   4  -2  -6    2.37    0.16
   4  -2  -6    2.52    0.12
   4  -2  -6    2.37    0.14
   4  -2  -6    2.50    0.14
  -4   2   6    2.50    0.22
  -4   2   6    2.76    0.28
   3  -2  -6    2.26    0.35
   3  -2  -6    2.28    0.34
   3  -2  -6    2.14    0.28
   3  -2  -6    2.05    0.24
   3  -2  -6    2.21    0.25
   3  -2  -6    2.31    0.18
  -3   2   6    2.25    0.39
  -3   2   6    1.90    0.23
  -3   2   6    2.21    0.18
  -3   2   6    2.69    0.28
   2  -2  -6   19.03    0.74
   2  -2  -6   18.85    0.73
   2  -2  -6   17.52    0.72
   2  -2  -6   18.14    0.72
   2  -2  -6   19.93    0.80
   2  -2  -6   17.85    1.17
   2  -2  -6   19.47    0.80
  -2   2   6   18.75    0.71
  -2   2   6   18.09    0.88
   1  -2  -6  107.79    3.54
   1  -2  -6  107.01    3.41
   1  -2  -6  102.82    3.76
   1  -2  -6   96.18    3.35
   1  -2  -6  110.31    3.45
   1  -2  -6  103.16    3.39
   1  -2  -6  109.82    3.54
  -1   2   6  107.66    3.39
  -1   2   6   94.26    3.46
   0  -2  -6   27.89    0.94
   0  -2  -6   29.18    1.06
   0  -2  -6   29.57    1.15
   0  -2  -6   28.57    1.07
   0  -2  -6   29.13    1.05
   0  -2  -6   29.76    1.11
   0  -2  -6   28.32    1.15
   0  -2  -6   27.29    1.19
   0  -2  -6   28.51    1.25
   0  -2  -6   29.54    1.09
   0   2   6   29.05    1.28
   0   2   6   26.73    0.89
   0   2   6   27.71    1.17
  -1  -2  -6    4.71    0.38
  -1  -2  -6    4.67    0.24
  -1  -2  -6    5.45    0.47
  -1  -2  -6    4.57    0.23
  -1  -2  -6    4.58    0.43
  -1  -2  -6    5.22    0.35
  -1  -2  -6    5.16    0.35
  -1  -2  -6    4.46    0.36
  -1  -2  -6    4.55    0.28
  -1  -2  -6    4.47    0.26
  -1  -2  -6    4.86    0.25
  -1  -2  -6    4.63    0.35
   1   2   6    5.00    0.47
   1   2   6    4.04    0.32
   1   2   6    3.21    0.32
   1   2   6    5.10    0.20
   1   2   6    5.00    0.46
  -2  -2  -6   33.51    1.19
  -2  -2  -6   34.43    1.34
  -2  -2  -6   35.19    1.35
  -2  -2  -6   34.98    1.31
  -2  -2  -6   34.78    1.35
  -2  -2  -6   33.85    1.18
  -2  -2  -6   34.59    1.21
  -2  -2  -6   33.28    1.26
   2   2   6   33.08    1.17
  -3  -2  -6    7.97    0.43
  -3  -2  -6    7.41    0.45
  -3  -2  -6    7.74    0.54
  -3  -2  -6    6.68    0.55
  -3  -2  -6    7.82    0.35
  -3  -2  -6    8.22    0.58
  -3  -2  -6    8.14    0.41
  -3  -2  -6    7.73    0.39
   3   2   6    7.94    0.45
   3   2   6    7.26    0.65
   3   2   6    8.01    0.51
   3   2   6    7.33    0.35
  -4  -2  -6    3.45    0.17
  -4  -2  -6    3.67    0.18
  -4  -2  -6    3.13    0.27
  -4  -2  -6    3.18    0.23
  -4  -2  -6    3.39    0.25
  -4  -2  -6    3.14    0.29
  -4  -2  -6    3.37    0.22
  -4  -2  -6    3.32    0.15
   4   2   6    2.84    0.23
  -5  -2  -6    7.48    0.26
  -5  -2  -6    6.97    0.28
  -5  -2  -6    6.74    0.24
   5   2   6    6.75    0.25
   5  -3  -6    3.05    0.16
   5  -3  -6    2.96    0.14
   5  -3  -6    2.86    0.14
   5  -3  -6    3.23    0.15
   4  -3  -6   10.70    0.41
   4  -3  -6   10.48    0.38
   4  -3  -6   10.33    0.45
   4  -3  -6    9.93    0.53
   4  -3  -6   11.14    0.37
   4  -3  -6   11.00    0.41
   4  -3  -6   10.39    0.40
   4  -3  -6   10.75    0.55
   4  -3  -6   10.76    0.39
   4  -3  -6   10.70    0.53
   4  -3  -6   11.43    0.37
  -4   3   6   10.21    0.51
  -4   3   6   10.92    0.46
   3  -3  -6    0.50    0.16
   3  -3  -6    0.44    0.10
   3  -3  -6    0.43    0.14
   3  -3  -6    0.95    0.24
   3  -3  -6    0.53    0.19
   3  -3  -6    0.40    0.19
  -3   3   6    0.35    0.14
  -3   3   6    0.34    0.24
  -3   3   6    0.52    0.17
  -3   3   6    0.50    0.10
   2  -3  -6    1.10    0.20
   2  -3  -6    0.90    0.19
   2  -3  -6    0.97    0.18
   2  -3  -6    1.03    0.17
   2  -3  -6    1.01    0.20
   2  -3  -6    1.00    0.18
  -2   3   6    0.92    0.15
  -2   3   6    0.60    0.20
   1  -3  -6   34.04    1.32
   1  -3  -6   35.57    1.22
   1  -3  -6   34.07    1.20
  -1   3   6   35.38    1.31
   0  -3  -6  155.80    5.18
   0  -3  -6  161.30    5.13
   0   3   6  174.53    5.06
   0   3   6  143.98    5.31
  -1  -3  -6   49.95    1.81
  -1  -3  -6   49.93    1.74
  -1  -3  -6   50.61    1.74
  -1  -3  -6   48.89    1.62
  -1  -3  -6   48.81    1.61
  -1  -3  -6   49.01    1.96
  -1  -3  -6   49.40    1.67
  -1  -3  -6   47.61    1.59
  -1  -3  -6   47.22    1.73
  -1  -3  -6   47.98    1.60
  -1  -3  -6   43.71    1.75
  -1  -3  -6   43.64    1.88
   1   3   6   46.40    1.95
   1   3   6   48.86    1.56
   1   3   6   47.97    2.00
   1   3   6   49.42    1.76
  -2  -3  -6   12.25    0.52
  -2  -3  -6   12.42    0.68
  -2  -3  -6   12.41    0.52
  -2  -3  -6   12.08    0.58
  -2  -3  -6   12.46    0.74
  -2  -3  -6   12.72    0.67
  -2  -3  -6   12.41    0.62
  -2  -3  -6   12.38    0.54
   2   3   6   11.92    0.52
  -3  -3  -6   20.78    0.74
  -3  -3  -6   20.09    0.82
  -3  -3  -6   20.71    0.79
  -3  -3  -6   21.10    1.00
  -3  -3  -6   19.41    0.98
  -3  -3  -6   20.40    0.79
  -3  -3  -6   20.61    0.87
  -3  -3  -6   18.32    0.96
   3   3   6   19.29    1.09
   3   3   6   20.28    0.73
   3   3   6   20.42    0.93
   3   3   6   19.65    0.85
  -4  -3  -6    1.86    0.22
  -4  -3  -6    2.09    0.21
  -4  -3  -6    1.63    0.18
  -4  -3  -6    1.90    0.14
  -4  -3  -6    1.91    0.12
  -4  -3  -6    1.94    0.25
  -4  -3  -6    2.06    0.11
  -4  -3  -6    2.02    0.12
  -4  -3  -6    2.13    0.20
   4   3   6    1.79    0.21
  -5  -3  -6    1.24    0.10
  -5  -3  -6    1.51    0.10
   5   3   6    1.35    0.10
   5  -4  -6    1.68    0.10
   5  -4  -6    1.62    0.10
   5  -4  -6    1.78    0.11
   4  -4  -6    2.57    0.16
   4  -4  -6    2.81    0.12
   4  -4  -6    2.75    0.16
   4  -4  -6    2.44    0.19
   4  -4  -6    2.68    0.15
   4  -4  -6    2.66    0.14
   4  -4  -6    2.42    0.28
   4  -4  -6    2.40    0.31
   4  -4  -6    2.22    0.22
  -4   4   6    2.54    0.21
   3  -4  -6   40.81    1.29
   3  -4  -6   39.68    1.47
   3  -4  -6   40.54    1.32
   3  -4  -6   41.22    1.30
   3  -4  -6   39.48    1.45
   3  -4  -6   39.15    1.32
  -3   4   6   40.71    1.34
  -3   4   6   37.58    1.44
   2  -4  -6   12.48    0.62
   2  -4  -6   11.99    0.57
   2  -4  -6   13.06    0.56
  -2   4   6   11.04    0.49
   1  -4  -6   10.86    0.44
   1  -4  -6   11.50    0.50
   1  -4  -6   10.91    0.48
  -1   4   6   10.86    0.41
   0  -4  -6   25.70    1.07
   0  -4  -6   24.86    1.01
   0   4   6   21.21    0.77
  -1  -4  -6    2.95    0.36
  -1  -4  -6    2.54    0.20
  -1  -4  -6    2.80    0.21
  -1  -4  -6    2.94    0.24
  -1  -4  -6    2.61    0.22
  -1  -4  -6    2.27    0.30
  -1  -4  -6    2.53    0.23
  -1  -4  -6    2.49    0.31
   1   4   6    2.22    0.15
  -2  -4  -6   14.01    0.74
  -2  -4  -6   14.24    0.76
  -2  -4  -6   13.86    0.58
  -2  -4  -6   14.55    0.66
  -2  -4  -6   13.73    0.70
  -2  -4  -6   14.54    0.84
  -2  -4  -6   14.74    0.62
  -2  -4  -6   14.47    0.58
   2   4   6   13.30    0.57
   2   4   6   12.90    0.67
  -3  -4  -6   37.84    1.42
  -3  -4  -6   39.89    1.32
  -3  -4  -6   38.52    1.34
  -3  -4  -6   41.72    1.50
  -3  -4  -6   39.86    1.27
  -3  -4  -6   38.34    1.26
  -3  -4  -6   40.35    1.35
  -3  -4  -6   38.09    1.27
  -3  -4  -6   41.56    1.40
  -3  -4  -6   40.39    1.39
   3   4   6   38.18    1.30
  -4  -4  -6   16.43    0.61
  -4  -4  -6   17.51    0.56
  -4  -4  -6   15.95    0.62
  -4  -4  -6   15.24    0.64
  -4  -4  -6   16.04    0.65
  -4  -4  -6   16.78    0.54
  -4  -4  -6   17.11    0.59
  -4  -4  -6   16.81    0.55
  -4  -4  -6   14.66    0.68
   4   4   6   16.29    0.63
   4   4   6   17.10    0.72
   4  -5  -6    1.19    0.10
   4  -5  -6    1.26    0.10
   4  -5  -6    1.20    0.12
   4  -5  -6    1.17    0.08
   4  -5  -6    1.19    0.12
   3  -5  -6   22.03    0.78
   3  -5  -6   23.93    0.92
   3  -5  -6   22.99    0.78
   3  -5  -6   22.13    0.75
   3  -5  -6   22.87    0.94
   3  -5  -6   22.75    0.75
  -3   5   6   21.84    0.79
   2  -5  -6   13.01    0.60
   2  -5  -6   14.14    0.69
   2  -5  -6   14.06    0.64
  -2   5   6   13.34    0.57
   1  -5  -6   28.04    1.02
   1  -5  -6   27.15    1.00
   1  -5  -6   28.14    1.04
  -1   5   6   27.93    0.97
   0  -5  -6    5.03    0.30
   0  -5  -6    5.64    0.31
   0  -5  -6    5.59    0.45
   0  -5  -6    5.18    0.45
  -1  -5  -6   10.17    0.44
  -1  -5  -6    8.31    0.45
  -1  -5  -6    8.95    0.56
  -1  -5  -6    9.56    0.45
  -1  -5  -6   10.05    0.65
   1   5   6    9.26    0.39
  -2  -5  -6   24.65    1.04
  -2  -5  -6   23.07    1.08
  -2  -5  -6   23.74    1.11
  -2  -5  -6   25.45    1.00
  -2  -5  -6   23.29    1.18
  -2  -5  -6   24.52    0.91
  -2  -5  -6   25.60    0.92
  -2  -5  -6   23.54    0.85
  -2  -5  -6   25.91    0.95
   2   5   6   24.98    1.05
   2   5   6   23.25    0.92
  -3  -5  -6    7.73    0.42
  -3  -5  -6    8.34    0.29
  -3  -5  -6    7.93    0.41
  -3  -5  -6    7.84    0.37
  -3  -5  -6    7.84    0.29
  -3  -5  -6    8.31    0.37
  -3  -5  -6    8.01    0.34
  -3  -5  -6    8.44    0.46
  -3  -5  -6    7.69    0.28
   3   5   6    7.45    0.35
  -4  -5  -6   10.97    0.42
  -4  -5  -6   10.92    0.44
  -4  -5  -6   11.55    0.38
  -4  -5  -6   11.33    0.38
  -4  -5  -6   10.84    0.37
   4  -6  -6    9.96    0.34
   4  -6  -6   10.49    0.35
   4  -6  -6   10.34    0.37
   4  -6  -6   10.13    0.35
   4  -6  -6    9.79    0.37
   3  -6  -6    3.36    0.32
   3  -6  -6    3.08    0.19
   3  -6  -6    3.18    0.31
   3  -6  -6    3.55    0.20
   3  -6  -6    3.21    0.16
   3  -6  -6    3.13    0.15
  -3   6   6    3.06    0.21
   2  -6  -6   17.08    0.76
   2  -6  -6   16.76    0.56
   2  -6  -6   16.97    0.61
   2  -6  -6   17.94    0.73
   2  -6  -6   17.11    0.61
   2  -6  -6   16.79    0.57
   1  -6  -6    1.06    0.21
   1  -6  -6    0.86    0.24
   1  -6  -6    1.28    0.21
  -1   6   6    1.45    0.17
   0  -6  -6   34.46    1.18
   0  -6  -6   33.81    1.40
   0  -6  -6   33.19    1.16
   0  -6  -6   30.17    1.17
   0   6   6   32.73    1.10
   0   6   6   31.59    1.33
  -1  -6  -6   80.57    2.53
  -1  -6  -6   75.08    2.80
  -1  -6  -6   80.15    2.55
  -1  -6  -6   75.83    2.71
  -1  -6  -6   69.56    2.57
   1   6   6   73.48    2.42
  -2  -6  -6    5.21    0.35
  -2  -6  -6    5.56    0.36
  -2  -6  -6    5.37    0.27
  -2  -6  -6    5.45    0.20
  -2  -6  -6    5.23    0.28
  -2  -6  -6    5.53    0.21
  -2  -6  -6    5.61    0.29
  -2  -6  -6    5.18    0.20
  -2  -6  -6    5.71    0.34
   2   6   6    4.69    0.25
  -3  -6  -6    9.16    0.48
  -3  -6  -6    9.64    0.45
  -3  -6  -6    9.25    0.38
  -3  -6  -6    9.25    0.32
  -3  -6  -6    9.22    0.33
  -3  -6  -6    9.44    0.40
  -3  -6  -6    9.59    0.33
  -3  -6  -6    9.46    0.40
  -3  -6  -6    8.56    0.44
   3   6   6    8.05    0.47
   3   6   6    8.71    0.38
  -4  -6  -6    0.16    0.04
  -4  -6  -6    0.14    0.07
  -4  -6  -6    0.22    0.08
  -4  -6  -6    0.15    0.05
  -4  -6  -6    0.12    0.06
  -4  -6  -6    0.17    0.05
   4  -7  -6    2.90    0.14
   4  -7  -6    3.04    0.12
   4  -7  -6    3.08    0.14
   4  -7  -6    2.77    0.13
   4  -7  -6    2.99    0.11
   4  -7  -6    2.66    0.11
   3  -7  -6    6.08    0.40
   3  -7  -6    6.67    0.24
   3  -7  -6    6.42    0.27
   3  -7  -6    6.68    0.28
   3  -7  -6    6.51    0.59
   3  -7  -6    6.64    0.24
  -3   7   6    6.02    0.29
   2  -7  -6    8.21    0.29
   2  -7  -6    7.97    0.33
   2  -7  -6    7.96    0.28
   2  -7  -6    8.10    0.29
   2  -7  -6    7.86    0.46
   2  -7  -6    8.19    0.35
   2  -7  -6    8.15    0.45
   2  -7  -6    7.95    0.33
  -2   7   6    7.08    0.33
   1  -7  -6    9.38    0.32
   1  -7  -6    9.25    0.36
   0  -7  -6    0.60    0.11
   0  -7  -6    0.49    0.07
   0  -7  -6    0.19    0.10
   0  -7  -6    0.46    0.14
   0  -7  -6    0.67    0.17
   0  -7  -6    0.60    0.06
  -1  -7  -6    0.72    0.07
  -1  -7  -6    0.96    0.13
  -1  -7  -6    0.87    0.18
  -1  -7  -6    0.62    0.16
  -1  -7  -6    0.75    0.08
  -1  -7  -6    0.95    0.13
  -2  -7  -6    0.17    0.05
  -2  -7  -6    0.21    0.13
  -2  -7  -6    0.04    0.09
  -2  -7  -6    0.09    0.04
  -2  -7  -6    0.13    0.05
  -2  -7  -6    0.04    0.10
  -2  -7  -6    0.30    0.16
   2   7   6    0.16    0.09
  -3  -7  -6    1.84    0.17
  -3  -7  -6    1.81    0.10
  -3  -7  -6    1.92    0.10
  -3  -7  -6    1.79    0.10
  -3  -7  -6    1.47    0.16
   3  -8  -6    0.91    0.07
   3  -8  -6    1.04    0.11
   3  -8  -6    0.87    0.11
   3  -8  -6    0.86    0.06
   3  -8  -6    0.80    0.06
   2  -8  -6    6.38    0.40
   2  -8  -6    6.53    0.31
   2  -8  -6    7.04    0.29
   2  -8  -6    7.10    0.24
   2  -8  -6    7.13    0.24
   2  -8  -6    7.13    0.29
   2  -8  -6    6.96    0.25
  -2   8   6    6.88    0.32
   1  -8  -6   11.11    0.41
   1  -8  -6   10.51    0.36
   1  -8  -6   10.82    0.35
   0  -8  -6    1.62    0.25
   0  -8  -6    1.63    0.09
   0  -8  -6    1.85    0.27
   0  -8  -6    1.72    0.15
   0  -8  -6    1.63    0.17
  -1  -8  -6   25.66    0.79
  -1  -8  -6   25.36    0.79
  -1  -8  -6   25.19    0.83
  -1  -8  -6   25.05    0.79
  -1  -8  -6   22.45    0.92
  -1  -8  -6   24.23    0.85
  -1  -8  -6   24.75    0.95
  -2  -8  -6    0.65    0.16
  -2  -8  -6    0.72    0.16
  -2  -8  -6    0.78    0.12
  -2  -8  -6    0.66    0.07
  -2  -8  -6    0.54    0.10
  -2  -8  -6    0.59    0.07
  -2  -8  -6    0.60    0.07
   2   8   6    0.76    0.11
  -3  -8  -6    8.04    0.32
  -3  -8  -6    8.12    0.28
  -3  -8  -6    8.40    0.28
  -3  -8  -6    8.64    0.28
  -3  -8  -6    8.30    0.32
   2  -9  -6    3.22    0.16
   2  -9  -6    3.25    0.17
   2  -9  -6    3.13    0.13
   2  -9  -6    3.06    0.13
   1  -9  -6    2.97    0.17
   1  -9  -6    2.77    0.12
   1  -9  -6    2.63    0.11
   0  -9  -6    5.00    0.22
   0  -9  -6    4.47    0.17
   0  -9  -6    4.18    0.23
   0  -9  -6    4.76    0.37
   0  -9  -6    4.43    0.17
   0   9   6    4.44    0.29
  -1  -9  -6    0.93    0.14
  -1  -9  -6    0.93    0.07
  -1  -9  -6    1.00    0.12
  -1  -9  -6    1.02    0.07
  -2  -9  -6    2.73    0.17
  -2  -9  -6    2.86    0.12
  -2  -9  -6    2.89    0.11
   1 -10  -6    0.79    0.06
   1 -10  -6    0.75    0.10
   1 -10  -6    0.81    0.06
   0 -10  -6    4.00    0.15
   0 -10  -6    3.92    0.19
   0 -10  -6    4.26    0.15
   0 -10  -6    3.89    0.18
  -1 -10  -6    3.13    0.12
  -1 -10  -6    3.10    0.12
  -1 -10  -6    3.13    0.17
  -1 -10  -6    2.87    0.15
   1  12  -7    1.74    0.14
  -1 -12   7    2.06    0.18
   0  12  -7   12.84    0.46
   0 -12   7   12.58    0.45
  -1  12  -7    7.83    0.31
  -1  12  -7    8.04    0.32
   1 -12   7    8.77    0.37
   1 -12   7    9.02    0.34
   2  11  -7    0.19    0.07
   2  11  -7    0.10    0.07
  -2 -11   7    0.10    0.07
   1  11  -7    2.14    0.18
  -1 -11   7    2.42    0.16
  -1 -11   7    2.12    0.15
   0  11  -7    3.86    0.32
   0  11  -7    4.28    0.23
   0 -11   7    4.32    0.22
   0 -11   7    3.83    0.22
   0 -11   7    4.47    0.36
  -1  11  -7    6.98    0.30
  -1  11  -7    7.12    0.32
   1 -11   7    7.12    0.30
   1 -11   7    6.48    0.27
  -2  11  -7    1.80    0.15
  -2  11  -7    1.57    0.15
   2 -11   7    1.65    0.14
   3  10  -7    5.18    0.22
   3  10  -7    5.64    0.24
  -3 -10   7    4.63    0.18
   2  10  -7    0.94    0.15
   2  10  -7    1.14    0.25
   2  10  -7    0.88    0.14
  -2 -10   7    0.73    0.10
  -2 -10   7    1.17    0.20
   1  10  -7   22.32    0.91
   1  10  -7   23.90    0.80
  -1 -10   7   21.44    0.75
  -1 -10   7   21.40    0.90
  -1 -10   7   22.77    0.76
   0  10  -7    0.80    0.13
   0  10  -7    1.18    0.23
   0 -10   7    0.93    0.13
   0 -10   7    1.27    0.26
   0 -10   7    0.83    0.13
  -1  10  -7    6.16    0.30
  -1  10  -7    5.69    0.39
  -1  10  -7    5.46    0.37
  -1  10  -7    6.05    0.28
   1 -10   7    6.11    0.30
   1 -10   7    5.55    0.37
   1 -10   7    5.98    0.43
   1 -10   7    5.87    0.28
  -2  10  -7    3.18    0.22
  -2  10  -7    3.13    0.27
  -2  10  -7    3.63    0.30
  -2  10  -7    3.11    0.20
   2 -10   7    2.88    0.18
   2 -10   7    3.12    0.34
   2 -10   7    2.93    0.21
   2 -10   7    2.78    0.27
  -3  10  -7   10.34    0.38
  -3  10  -7    9.67    0.37
   3 -10   7    8.63    0.30
   3   9  -7    9.19    0.35
   3   9  -7    9.28    0.37
  -3  -9   7    9.10    0.35
   2   9  -7   10.44    0.42
   2   9  -7   10.39    0.41
   2   9  -7   10.44    0.53
  -2  -9   7   10.11    0.48
  -2  -9   7    9.56    0.34
  -2  -9   7   10.20    0.40
   1   9  -7   53.96    1.86
   1   9  -7   56.62    1.98
   1   9  -7   59.70    1.99
   1   9  -7   58.51    1.86
  -1  -9   7   55.10    1.80
  -1  -9   7   56.03    1.95
  -1  -9   7   54.96    1.88
  -1  -9   7   57.32    1.77
  -1  -9   7   53.97    1.81
   0   9  -7    3.56    0.24
   0   9  -7    3.78    0.33
   0  -9   7    3.30    0.17
   0  -9   7    3.66    0.21
   0  -9   7    3.71    0.26
  -1   9  -7    0.06    0.11
  -1   9  -7   -0.11    0.10
  -1   9  -7    0.25    0.17
  -1   9  -7    0.03    0.13
   1  -9   7   -0.03    0.10
   1  -9   7    0.29    0.14
   1  -9   7    0.07    0.07
   1  -9   7    0.18    0.20
   1  -9   7   -0.06    0.14
  -2   9  -7    7.03    0.33
  -2   9  -7    7.18    0.43
  -2   9  -7    7.61    0.34
  -2   9  -7    6.72    0.41
   2  -9   7    6.97    0.30
   2  -9   7    7.01    0.35
   2  -9   7    6.87    0.41
   2  -9   7    7.04    0.45
  -3   9  -7    1.07    0.15
  -3   9  -7    0.87    0.15
   3  -9   7    1.14    0.16
   4   8  -7    0.47    0.06
   4   8  -7    0.55    0.08
  -4  -8   7    0.53    0.08
   3   8  -7    6.70    0.42
   3   8  -7    7.19    0.29
   3   8  -7    6.63    0.31
  -3  -8   7    6.31    0.30
  -3  -8   7    6.71    0.37
  -3  -8   7    6.37    0.24
   2   8  -7   30.29    1.13
   2   8  -7   29.09    0.98
   2   8  -7   28.79    1.00
  -2  -8   7   27.50    0.89
  -2  -8   7   27.16    1.02
   1   8  -7    2.34    0.32
   1   8  -7    2.37    0.27
   1   8  -7    2.35    0.25
  -1  -8   7    2.47    0.25
  -1  -8   7    2.33    0.29
   0   8  -7   27.97    1.07
   0  -8   7   26.38    1.04
  -1   8  -7    8.51    0.43
  -1   8  -7    7.82    0.59
  -1   8  -7    7.76    0.44
   1  -8   7    7.81    0.63
   1  -8   7    8.02    0.48
   1  -8   7    8.56    0.44
  -2   8  -7   14.84    0.67
  -2   8  -7   15.03    0.58
  -2   8  -7   17.08    0.68
  -2   8  -7   15.47    0.58
   2  -8   7   14.48    0.54
   2  -8   7   14.51    0.64
   2  -8   7   15.06    0.51
   2  -8   7   15.41    0.69
  -3   8  -7    0.52    0.11
  -3   8  -7    0.48    0.11
  -3   8  -7    0.62    0.16
   3  -8   7    0.71    0.18
   3  -8   7    0.62    0.07
   3  -8   7    0.44    0.12
  -4   8  -7    4.81    0.22
  -4   8  -7    4.48    0.18
   4  -8   7    4.46    0.21
   4   7  -7    0.78    0.12
   4   7  -7    0.83    0.09
  -4  -7   7    0.84    0.14
   3   7  -7   31.15    1.06
   3   7  -7   31.42    1.18
   3   7  -7   30.89    1.03
  -3  -7   7   30.51    1.12
  -3  -7   7   30.83    1.00
   2   7  -7   18.56    0.80
   2   7  -7   20.53    0.83
   2   7  -7   20.58    0.91
  -2  -7   7   18.42    0.77
  -2  -7   7   18.38    0.94
  -2  -7   7   17.66    0.72
   1   7  -7   38.05    1.32
   1   7  -7   35.55    1.38
   1   7  -7   34.60    1.30
  -1  -7   7   35.19    1.31
  -1  -7   7   35.86    1.25
  -1  -7   7   36.14    1.45
   0   7  -7   41.42    1.45
   0   7  -7   39.97    1.53
   0   7  -7   41.77    1.46
   0  -7   7   40.32    1.58
   0  -7   7   42.76    1.49
   0  -7   7   40.01    1.40
  -1   7  -7   14.20    0.78
  -1   7  -7   15.53    0.65
  -1   7  -7   14.67    0.62
   1  -7   7   13.53    0.77
   1  -7   7   14.01    0.62
   1  -7   7   13.69    0.58
  -2   7  -7    7.31    0.58
  -2   7  -7    7.63    0.42
  -2   7  -7    6.76    0.43
   2  -7   7    5.92    0.40
   2  -7   7    7.20    0.65
   2  -7   7    6.98    0.41
  -3   7  -7    0.69    0.18
  -3   7  -7    0.81    0.12
  -3   7  -7    0.54    0.12
   3  -7   7    0.39    0.08
   3  -7   7    0.59    0.19
  -4   7  -7    3.73    0.17
  -4   7  -7    3.71    0.21
   4  -7   7    3.31    0.21
   4   6  -7    1.13    0.09
  -4  -6   7    1.25    0.14
  -4  -6   7    1.06    0.12
   3   6  -7   13.12    0.61
   3   6  -7   13.21    0.46
   3   6  -7   12.79    0.46
   3   6  -7   12.89    0.50
  -3  -6   7   12.67    0.45
  -3  -6   7   12.88    0.57
   2   6  -7    6.23    0.38
   2   6  -7    6.45    0.39
   2   6  -7    6.41    0.44
  -2  -6   7    5.61    0.34
  -2  -6   7    5.71    0.38
  -2  -6   7    5.37    0.50
   1   6  -7   14.33    0.61
   1   6  -7   14.11    0.61
   1   6  -7   14.47    0.67
  -1  -6   7   14.60    0.63
  -1  -6   7   14.10    0.74
  -1  -6   7   13.92    0.57
   0   6  -7   53.32    1.90
   0   6  -7   52.80    1.82
   0   6  -7   54.58    1.83
   0  -6   7   49.38    1.65
   0  -6   7   48.24    1.71
   0  -6   7   50.37    1.81
  -1   6  -7   12.48    0.66
  -1   6  -7   12.00    0.53
  -1   6  -7   12.01    0.52
   1  -6   7   10.73    0.48
   1  -6   7   11.05    0.51
   1  -6   7   10.94    0.65
  -2   6  -7   44.49    1.75
  -2   6  -7   43.81    1.54
   2  -6   7   41.10    1.68
   2  -6   7   41.30    1.45
  -3   6  -7    0.89    0.19
  -3   6  -7    0.62    0.13
  -3   6  -7    0.61    0.18
  -3   6  -7    0.51    0.07
  -3   6  -7    0.78    0.12
   3  -6   7    0.49    0.10
   3  -6   7    1.06    0.28
   3  -6   7    0.60    0.20
  -4   6  -7    6.05    0.30
  -4   6  -7    7.25    0.43
  -4   6  -7    6.87    0.26
  -4   6  -7    6.95    0.39
   4  -6   7    5.98    0.39
   4  -6   7    6.21    0.24
   4  -6   7    6.30    0.31
   4  -6   7    6.44    0.29
   5   5  -7    3.76    0.18
  -5  -5   7    4.15    0.20
  -5  -5   7    4.25    0.18
   4   5  -7    0.01    0.05
   4   5  -7    0.08    0.04
  -4  -5   7    0.05    0.07
  -4  -5   7   -0.02    0.09
   3   5  -7   23.96    1.04
   3   5  -7   25.42    0.97
  -3  -5   7   22.70    1.11
  -3  -5   7   24.45    0.90
   2   5  -7   15.79    0.66
   2   5  -7   15.69    0.73
   2   5  -7   14.95    0.65
  -2  -5   7   14.74    0.63
  -2  -5   7   15.18    0.67
  -2  -5   7   15.51    0.81
  -2  -5   7   17.78    0.70
   1   5  -7   88.02    2.90
   1   5  -7   85.68    2.82
   1   5  -7   88.03    2.83
   1   5  -7   81.43    2.75
  -1  -5   7   82.47    2.66
  -1  -5   7   80.91    2.83
  -1  -5   7   83.19    2.71
  -1  -5   7   80.03    2.62
   0   5  -7    5.33    0.25
   0   5  -7    5.15    0.35
   0   5  -7    4.97    0.30
   0   5  -7    5.41    0.50
   0   5  -7    5.33    0.30
   0  -5   7    5.07    0.31
   0  -5   7    4.99    0.38
   0  -5   7    4.52    0.52
   0  -5   7    4.30    0.23
  -1   5  -7    3.02    0.49
  -1   5  -7    2.55    0.20
  -1   5  -7    2.60    0.22
  -1   5  -7    2.55    0.18
  -1   5  -7    2.49    0.32
  -1   5  -7    3.01    0.34
  -1   5  -7    2.67    0.22
  -1   5  -7    2.70    0.28
  -1   5  -7    2.80    0.25
  -1   5  -7    2.43    0.40
  -1   5  -7    3.15    0.24
  -1   5  -7    2.81    0.22
  -1   5  -7    2.24    0.39
   1  -5   7    2.48    0.33
   1  -5   7    2.88    0.23
   1  -5   7    2.69    0.40
   1  -5   7    2.12    0.22
   1  -5   7    2.34    0.17
   1  -5   7    2.34    0.30
   1  -5   7    3.27    0.30
   1  -5   7    2.23    0.41
  -2   5  -7   14.00    0.75
  -2   5  -7   14.22    0.74
  -2   5  -7   13.20    0.58
  -2   5  -7   14.06    0.58
   2  -5   7   11.73    0.67
   2  -5   7   12.57    0.73
   2  -5   7   12.81    0.54
   2  -5   7   12.15    0.60
  -3   5  -7   26.54    0.85
  -3   5  -7   25.60    0.94
  -3   5  -7   22.80    1.14
  -3   5  -7   25.47    0.95
  -3   5  -7   23.43    0.92
  -3   5  -7   25.39    0.84
  -3   5  -7   24.84    1.14
  -3   5  -7   20.95    0.90
   3  -5   7   25.95    0.93
   3  -5   7   24.02    0.99
   3  -5   7   20.61    1.07
   3  -5   7   23.60    1.17
  -4   5  -7    2.86    0.14
  -4   5  -7    3.08    0.28
  -4   5  -7    3.10    0.28
  -4   5  -7    2.77    0.20
   4  -5   7    2.86    0.31
   4  -5   7    2.45    0.20
   4  -5   7    2.31    0.35
   4  -5   7    2.48    0.16
  -5   5  -7    3.82    0.17
  -5   5  -7    3.64    0.18
   5  -5   7    3.39    0.17
   5  -5   7    3.21    0.18
   5   4  -7    6.71    0.27
  -5  -4   7    6.61    0.26
  -5  -4   7    6.66    0.28
  -5  -4   7    6.76    0.24
   4   4  -7    0.27    0.09
   4   4  -7    0.28    0.07
  -4  -4   7    0.46    0.10
  -4  -4   7    0.38    0.08
   3   4  -7   37.72    1.41
  -3  -4   7   36.36    1.28
   2   4  -7    7.72    0.41
   2   4  -7    9.46    0.49
   2   4  -7    8.33    0.43
   2   4  -7    9.45    0.50
   2   4  -7    8.17    0.51
   2   4  -7    9.20    0.37
  -2  -4   7    8.73    0.54
  -2  -4   7    8.70    0.36
  -2  -4   7    8.08    0.56
  -2  -4   7    8.51    0.39
   1   4  -7   74.56    3.24
   1   4  -7   88.85    2.92
   1   4  -7   90.17    3.04
   1   4  -7   90.00    3.24
   1   4  -7   89.53    2.89
   1   4  -7   87.35    2.85
   1   4  -7   94.27    2.99
   1   4  -7   94.31    2.92
   1   4  -7   87.11    2.89
   1   4  -7   91.78    2.96
   1   4  -7   84.97    3.36
   1   4  -7   93.84    3.06
  -1  -4   7   85.85    2.84
  -1  -4   7   80.92    2.64
  -1  -4   7   83.32    2.73
  -1  -4   7   77.28    2.91
  -1  -4   7   86.84    2.68
  -1  -4   7   72.61    3.11
  -1  -4   7   84.21    2.72
  -1  -4   7   89.64    3.13
   0   4  -7   17.68    0.69
   0   4  -7   15.59    0.64
   0   4  -7   16.25    0.78
   0   4  -7   15.13    0.96
   0   4  -7   18.08    0.77
   0   4  -7   17.37    0.64
   0   4  -7   16.84    0.62
   0   4  -7   16.17    0.74
   0   4  -7   16.32    0.58
   0   4  -7   14.18    0.63
   0   4  -7   17.45    0.91
   0   4  -7   16.43    0.70
   0   4  -7   17.12    0.70
   0  -4   7   16.39    0.72
   0  -4   7   15.61    0.56
   0  -4   7   17.21    0.90
   0  -4   7   14.18    0.94
   0  -4   7   16.32    0.64
   0  -4   7   16.24    0.63
   0  -4   7   15.14    0.88
  -1   4  -7   40.34    1.43
  -1   4  -7   37.59    1.43
  -1   4  -7   35.92    1.60
  -1   4  -7   36.29    1.31
  -1   4  -7   34.95    1.26
  -1   4  -7   39.14    1.44
  -1   4  -7   37.84    1.31
  -1   4  -7   37.60    1.27
  -1   4  -7   35.43    1.28
  -1   4  -7   36.65    1.49
  -1   4  -7   38.18    1.24
  -1   4  -7   38.72    1.29
  -1   4  -7   37.72    1.38
  -1   4  -7   34.93    1.74
  -1   4  -7   38.36    1.60
   1  -4   7   35.46    1.14
   1  -4   7   35.03    1.31
   1  -4   7   36.24    1.51
   1  -4   7   33.61    1.46
   1  -4   7   32.16    1.66
   1  -4   7   35.89    1.35
   1  -4   7   35.19    1.30
   1  -4   7   33.10    1.21
   1  -4   7   34.02    1.21
   1  -4   7   32.87    1.18
   1  -4   7   36.28    1.51
  -2   4  -7   17.47    0.69
  -2   4  -7   18.61    0.65
  -2   4  -7   17.38    0.69
  -2   4  -7   17.34    0.85
  -2   4  -7   17.73    0.86
   2  -4   7   16.67    0.66
   2  -4   7   15.53    0.84
   2  -4   7   16.77    0.73
   2  -4   7   16.38    0.60
   2  -4   7   17.85    0.83
  -3   4  -7   49.05    1.62
  -3   4  -7   45.44    1.83
  -3   4  -7   45.08    1.81
  -3   4  -7   45.36    1.61
   3  -4   7   43.87    1.59
   3  -4   7   42.31    1.71
   3  -4   7   39.98    1.75
   3  -4   7   44.77    1.52
  -4   4  -7    1.94    0.13
  -4   4  -7    2.04    0.27
  -4   4  -7    2.06    0.25
  -4   4  -7    2.08    0.18
  -4   4  -7    2.09    0.23
   4  -4   7    1.55    0.33
   4  -4   7    1.87    0.29
   4  -4   7    1.88    0.16
  -5   4  -7    1.84    0.13
  -5   4  -7    1.75    0.14
   5  -4   7    1.58    0.08
   5  -4   7    1.64    0.16
   5  -4   7    1.43    0.14
   5   3  -7    0.88    0.12
  -5  -3   7    0.97    0.11
  -5  -3   7    0.89    0.10
   4   3  -7   10.00    0.42
   4   3  -7   11.74    0.55
   4   3  -7   11.71    0.41
   4   3  -7   11.36    0.43
  -4  -3   7   11.26    0.41
  -4  -3   7   10.74    0.54
   3   3  -7   28.61    1.09
   3   3  -7   30.51    1.10
   3   3  -7   30.24    1.10
   3   3  -7   28.09    1.08
   3   3  -7   27.75    1.18
   3   3  -7   30.35    1.03
  -3  -3   7   28.14    1.31
  -3  -3   7   28.13    0.99
   2   3  -7   12.63    0.52
   2   3  -7   10.94    0.51
   2   3  -7   12.08    0.65
   2   3  -7   12.02    0.59
   2   3  -7   11.28    0.55
   2   3  -7   11.70    0.52
   2   3  -7   11.35    0.50
   2   3  -7   12.17    1.22
   2   3  -7   11.31    0.51
   2   3  -7   11.40    0.45
  -2  -3   7   11.05    0.53
  -2  -3   7   10.65    0.46
  -2  -3   7    9.41    0.71
  -2  -3   7   11.95    0.67
  -2  -3   7   11.43    0.43
  -2  -3   7   11.72    0.62
  -2  -3   7   10.76    0.77
  -2  -3   7   10.70    0.84
   1   3  -7    2.93    0.27
   1   3  -7    2.67    0.27
   1   3  -7    2.44    0.40
   1   3  -7    2.92    0.37
   1   3  -7    2.37    0.19
   1   3  -7    2.78    0.25
   1   3  -7    2.72    0.23
   1   3  -7    2.87    0.33
   1   3  -7    2.75    0.21
   1   3  -7    2.43    0.22
   1   3  -7    2.40    0.23
   1   3  -7    2.50    0.16
   1   3  -7    2.92    0.43
  -1  -3   7    2.16    0.15
  -1  -3   7    2.97    0.41
  -1  -3   7    2.02    0.37
  -1  -3   7    2.45    0.20
  -1  -3   7    2.19    0.31
  -1  -3   7    2.25    0.28
  -1  -3   7    2.18    0.18
   0   3  -7   22.72    0.81
   0   3  -7   20.11    0.88
   0   3  -7   20.86    0.93
   0   3  -7   20.04    1.06
   0   3  -7   22.49    1.05
   0   3  -7   21.18    0.87
   0   3  -7   22.39    0.85
   0   3  -7   20.67    0.76
   0   3  -7   20.30    0.78
   0   3  -7   22.03    0.84
   0   3  -7   21.69    0.72
   0  -3   7   21.06    1.01
   0  -3   7   20.90    0.86
   0  -3   7   20.15    1.02
   0  -3   7   23.74    0.84
   0  -3   7   20.94    0.76
   0  -3   7   19.44    1.12
  -1   3  -7   53.78    2.34
  -1   3  -7   57.38    2.25
  -1   3  -7   56.43    2.02
  -1   3  -7   59.11    1.90
  -1   3  -7   56.16    2.03
  -1   3  -7   58.42    1.95
  -1   3  -7   58.89    1.87
  -1   3  -7   59.30    1.95
  -1   3  -7   57.06    2.01
  -1   3  -7   61.20    1.92
  -1   3  -7   57.10    2.12
  -1   3  -7   56.06    1.89
  -1   3  -7   56.19    2.19
  -1   3  -7   59.25    2.06
   1  -3   7   56.25    1.93
   1  -3   7   55.03    2.11
   1  -3   7   52.99    2.06
   1  -3   7   54.25    1.96
   1  -3   7   50.62    2.07
   1  -3   7   56.42    1.82
   1  -3   7   52.74    2.31
   1  -3   7   56.26    1.76
  -2   3  -7    5.08    0.42
  -2   3  -7    4.76    0.29
  -2   3  -7    4.67    0.32
  -2   3  -7    5.13    0.25
  -2   3  -7    5.03    0.27
  -2   3  -7    5.49    0.44
  -2   3  -7    4.86    0.38
  -2   3  -7    5.10    0.38
  -2   3  -7    5.30    0.29
  -2   3  -7    4.61    0.40
   2  -3   7    4.38    0.46
   2  -3   7    4.34    0.29
   2  -3   7    4.64    0.45
   2  -3   7    5.14    0.24
   2  -3   7    4.61    0.30
   2  -3   7    4.77    0.42
  -3   3  -7   23.94    1.09
  -3   3  -7   23.20    0.89
  -3   3  -7   21.92    1.08
  -3   3  -7   23.85    0.89
   3  -3   7   22.26    0.82
   3  -3   7   22.71    1.16
   3  -3   7   23.22    1.09
   3  -3   7   23.95    0.98
   3  -3   7   23.66    0.90
  -4   3  -7    6.78    0.34
  -4   3  -7    6.70    0.31
  -4   3  -7    7.02    0.41
  -4   3  -7    7.17    0.28
  -4   3  -7    6.89    0.40
   4  -3   7    6.32    0.42
   4  -3   7    6.77    0.48
   4  -3   7    6.22    0.28
  -5   3  -7    6.18    0.26
  -5   3  -7    6.65    0.26
   5  -3   7    6.34    0.27
   5  -3   7    6.29    0.23
   5   2  -7    5.85    0.24
   5   2  -7    5.59    0.23
   5   2  -7    5.48    0.21
  -5  -2   7    6.25    0.25
  -5  -2   7    5.61    0.23
   4   2  -7   13.49    0.47
   4   2  -7   12.57    0.49
   4   2  -7   13.50    0.48
   4   2  -7   13.46    0.63
  -4  -2   7   12.87    0.47
  -4  -2   7   13.29    0.61
   3   2  -7   11.66    0.47
   3   2  -7   10.98    0.53
   3   2  -7   11.67    0.63
   3   2  -7   11.19    0.54
   3   2  -7   11.18    0.53
   3   2  -7   11.39    0.54
   3   2  -7   11.25    0.73
  -3  -2   7   11.04    0.46
  -3  -2   7   10.94    0.66
  -3  -2   7   11.56    0.74
   2   2  -7    7.25    0.38
   2   2  -7    7.94    0.49
   2   2  -7    7.39    0.37
   2   2  -7    7.52    0.44
   2   2  -7    6.94    0.41
   2   2  -7    6.90    0.37
   2   2  -7    7.04    0.74
   2   2  -7    7.60    0.31
   2   2  -7    7.03    0.38
  -2  -2   7    6.52    0.37
  -2  -2   7    6.55    0.44
  -2  -2   7    6.32    0.61
  -2  -2   7    6.39    0.54
  -2  -2   7    6.70    0.29
   1   2  -7   29.90    1.39
   1   2  -7   27.95    1.00
   1   2  -7   28.09    1.30
   1   2  -7   26.60    1.00
   1   2  -7   28.02    1.08
   1   2  -7   28.66    1.24
   1   2  -7   28.08    1.00
   1   2  -7   27.02    0.99
   1   2  -7   29.50    1.06
   1   2  -7   28.54    1.00
   1   2  -7   28.09    1.05
   1   2  -7   26.86    1.13
   1   2  -7   27.94    0.95
  -1  -2   7   26.89    1.22
  -1  -2   7   23.72    1.11
  -1  -2   7   28.11    1.23
  -1  -2   7   26.82    1.04
  -1  -2   7   25.82    0.92
   0   2  -7   37.97    1.38
   0   2  -7   36.96    1.32
   0   2  -7   35.94    1.32
   0   2  -7   38.47    1.32
   0   2  -7   35.08    1.50
   0   2  -7   37.80    1.53
   0   2  -7   34.41    1.41
   0  -2   7   34.04    1.26
   0  -2   7   36.58    1.16
   0  -2   7   31.43    1.53
   0  -2   7   34.00    1.36
   0  -2   7   35.33    1.44
  -1   2  -7    3.09    0.24
  -1   2  -7    3.15    0.28
  -1   2  -7    3.47    0.44
  -1   2  -7    3.76    0.39
  -1   2  -7    3.50    0.27
  -1   2  -7    3.29    0.30
  -1   2  -7    3.37    0.17
  -1   2  -7    3.06    0.20
  -1   2  -7    3.65    0.23
  -1   2  -7    3.03    0.29
  -1   2  -7    3.07    0.31
  -1   2  -7    3.69    0.43
  -1   2  -7    2.80    0.32
  -1   2  -7    3.58    0.29
   1  -2   7    3.30    0.38
   1  -2   7    3.44    0.31
   1  -2   7    2.69    0.32
   1  -2   7    3.15    0.50
   1  -2   7    3.25    0.34
   1  -2   7    3.11    0.21
   1  -2   7    3.67    0.40
  -2   2  -7   30.42    1.19
  -2   2  -7   28.80    1.21
  -2   2  -7   28.48    1.02
  -2   2  -7   30.70    1.21
  -2   2  -7   31.40    1.00
  -2   2  -7   30.50    1.11
  -2   2  -7   27.46    1.20
  -2   2  -7   30.73    1.05
  -2   2  -7   28.97    1.04
  -2   2  -7   29.80    1.17
  -2   2  -7   27.67    1.09
   2  -2   7   29.61    1.19
   2  -2   7   30.57    1.07
   2  -2   7   29.38    1.36
   2  -2   7   28.36    1.05
   2  -2   7   28.31    1.33
   2  -2   7   28.57    0.98
   2  -2   7   29.98    1.25
  -3   2  -7   30.64    1.35
  -3   2  -7   32.45    1.15
  -3   2  -7   32.22    1.15
  -3   2  -7   32.09    1.34
  -3   2  -7   30.80    1.09
   3  -2   7   30.36    1.32
   3  -2   7   30.98    1.07
   3  -2   7   31.02    1.41
   3  -2   7   31.03    1.15
   3  -2   7   31.06    1.21
  -4   2  -7    1.10    0.13
  -4   2  -7    1.02    0.21
  -4   2  -7    0.96    0.16
  -4   2  -7    1.70    0.25
  -4   2  -7    1.29    0.17
   4  -2   7    1.20    0.26
   4  -2   7    0.89    0.20
  -5   2  -7    8.98    0.34
  -5   2  -7    9.59    0.35
   5  -2   7    8.62    0.31
   5  -2   7    8.60    0.34
   5   1  -7    6.26    0.26
   5   1  -7    6.28    0.24
   5   1  -7    6.15    0.23
  -5  -1   7    6.22    0.24
  -5  -1   7    6.20    0.25
   4   1  -7   18.76    0.67
   4   1  -7   18.02    0.65
   4   1  -7   19.82    0.71
   4   1  -7   19.49    0.80
   4   1  -7   19.12    0.65
   4   1  -7   18.80    0.65
   4   1  -7   18.69    0.64
  -4  -1   7   19.46    0.80
  -4  -1   7   18.53    0.72
   3   1  -7   11.77    0.64
   3   1  -7   11.77    0.55
   3   1  -7   11.38    0.54
   3   1  -7   11.27    0.54
   3   1  -7   11.31    0.55
   3   1  -7   11.48    0.47
   3   1  -7   11.11    0.70
  -3  -1   7   10.71    0.56
  -3  -1   7   10.62    0.44
  -3  -1   7   10.06    0.72
   2   1  -7    4.54    0.31
   2   1  -7    4.94    0.30
   2   1  -7    4.97    0.38
   2   1  -7    5.12    0.31
   2   1  -7    4.35    0.29
   2   1  -7    4.78    0.38
   2   1  -7    4.89    0.23
  -2  -1   7    4.59    0.22
  -2  -1   7    4.40    0.49
  -2  -1   7    4.85    0.42
  -2  -1   7    5.32    0.31
  -2  -1   7    4.77    0.46
   1   1  -7   20.68    0.98
   1   1  -7   20.24    0.81
   1   1  -7   20.61    0.77
   1   1  -7   20.64    0.89
   1   1  -7   20.13    0.76
   1   1  -7   19.56    0.99
   1   1  -7   20.15    1.10
   1   1  -7   22.13    0.77
   1   1  -7   20.57    0.82
   1   1  -7   21.03    0.81
   1   1  -7   19.89    0.76
  -1  -1   7   19.42    0.97
  -1  -1   7   19.73    0.93
  -1  -1   7   20.10    0.95
  -1  -1   7   20.06    0.81
  -1  -1   7   19.58    0.70
   0   1  -7   73.78    2.67
   0   1  -7   74.68    2.45
   0   1  -7   71.85    2.44
   0   1  -7   69.76    2.57
   0   1  -7   75.26    2.49
   0   1  -7   76.53    2.51
   0   1  -7   72.36    2.40
   0   1  -7   67.59    2.55
   0  -1   7   65.52    2.11
   0  -1   7   67.99    2.42
   0  -1   7   64.21    2.54
   0  -1   7   64.53    2.28
  -1   1  -7   60.86    2.28
  -1   1  -7   67.65    2.23
  -1   1  -7   65.60    2.17
  -1   1  -7   72.18    2.54
  -1   1  -7   66.78    2.28
  -1   1  -7   65.06    2.44
  -1   1  -7   69.26    2.56
  -1   1  -7   68.28    2.20
  -1   1  -7   70.75    2.35
  -1   1  -7   62.08    2.22
  -1   1  -7   65.18    2.39
  -1   1  -7   66.68    2.31
  -1   1  -7   68.33    2.26
   1  -1   7   59.98    2.57
   1  -1   7   63.33    2.23
   1  -1   7   64.74    2.39
   1  -1   7   62.59    2.37
   1  -1   7   63.32    2.07
   1  -1   7   65.42    2.28
  -2   1  -7    8.61    0.43
  -2   1  -7    7.91    0.51
  -2   1  -7    8.31    0.49
  -2   1  -7    8.39    0.54
  -2   1  -7    7.81    0.33
  -2   1  -7    8.28    0.39
  -2   1  -7    8.50    0.40
  -2   1  -7    8.65    0.51
  -2   1  -7    7.48    0.38
  -2   1  -7    7.56    0.36
  -2   1  -7    7.78    0.44
  -2   1  -7    8.47    0.50
   2  -1   7    8.56    0.67
   2  -1   7    8.51    0.40
   2  -1   7    7.82    0.33
   2  -1   7    7.95    0.52
   2  -1   7    8.04    0.62
   2  -1   7    8.08    0.57
  -3   1  -7    8.94    0.43
  -3   1  -7    8.47    0.55
  -3   1  -7    8.78    0.38
  -3   1  -7    8.95    0.41
  -3   1  -7    8.37    0.56
  -3   1  -7    7.94    0.60
  -3   1  -7    8.56    0.48
  -3   1  -7    8.11    0.43
  -3   1  -7    7.38    0.59
  -3   1  -7    8.30    0.60
   3  -1   7    8.15    0.46
   3  -1   7    8.54    0.59
   3  -1   7    7.67    0.67
   3  -1   7    8.47    0.49
   3  -1   7    8.11    0.36
   3  -1   7    8.41    0.46
  -4   1  -7   26.61    0.90
  -4   1  -7   26.27    1.00
  -4   1  -7   25.61    0.88
  -4   1  -7   27.94    0.91
  -4   1  -7   26.22    0.98
   4  -1   7   23.66    1.00
   4  -1   7   24.82    0.95
  -5   1  -7    7.31    0.29
  -5   1  -7    7.12    0.26
  -5   1  -7    7.36    0.27
   5  -1   7    6.77    0.25
   5  -1   7    6.18    0.27
   5   0  -7    5.60    0.24
   5   0  -7    5.10    0.20
   5   0  -7    5.64    0.21
  -5   0   7    5.17    0.22
   4   0  -7    7.99    0.32
   4   0  -7    7.57    0.36
   4   0  -7    7.68    0.33
   4   0  -7    7.87    0.28
   4   0  -7    7.72    0.47
   4   0  -7    7.94    0.30
   4   0  -7    7.54    0.31
  -4   0   7    7.15    0.43
  -4   0   7    7.74    0.37
   3   0  -7   48.01    1.71
   3   0  -7   45.79    1.89
   3   0  -7   49.99    1.81
   3   0  -7   49.40    1.71
   3   0  -7   48.59    1.70
   3   0  -7   50.44    1.63
   3   0  -7   48.62    1.72
  -3   0   7   47.65    1.96
  -3   0   7   48.12    1.61
  -3   0   7   49.67    1.76
   2   0  -7   12.65    0.54
   2   0  -7   11.85    0.53
   2   0  -7   12.14    0.54
   2   0  -7   11.60    0.53
   2   0  -7   11.85    0.44
   2   0  -7   11.83    0.61
   2   0  -7   12.72    0.61
  -2   0   7   11.13    0.42
  -2   0   7   11.12    0.65
  -2   0   7   12.12    0.50
   1   0  -7    3.62    0.35
   1   0  -7    3.76    0.47
   1   0  -7    3.28    0.23
   1   0  -7    3.72    0.24
   1   0  -7    3.28    0.30
   1   0  -7    3.87    0.48
   1   0  -7    3.19    0.24
   1   0  -7    3.22    0.26
   1   0  -7    3.68    0.34
   1   0  -7    3.53    0.24
   1   0  -7    3.52    0.26
  -1   0   7    2.93    0.17
  -1   0   7    3.52    0.35
  -1   0   7    3.17    0.31
  -1   0   7    2.93    0.34
  -1   0   7    3.15    0.27
   0   0  -7   19.26    0.77
   0   0  -7   19.34    0.79
   0   0  -7   18.02    0.80
   0   0  -7   19.75    0.77
   0   0  -7   18.19    0.87
   0   0  -7   20.00    0.86
   0   0  -7   18.77    0.83
   0   0  -7   18.70    0.68
   0   0  -7   19.19    0.95
   0   0   7   17.99    0.59
   0   0   7   17.17    0.86
   0   0   7   17.56    0.72
   0   0   7   17.25    0.99
  -1   0  -7   66.62    2.23
  -1   0  -7   73.73    2.54
  -1   0  -7   68.76    2.26
  -1   0  -7   68.76    2.38
  -1   0  -7   68.16    2.35
  -1   0  -7   64.86    2.50
  -1   0  -7   70.07    2.30
  -1   0  -7   72.33    2.66
  -1   0  -7   63.22    2.44
  -1   0  -7   67.79    2.29
  -1   0  -7   67.04    2.24
  -1   0  -7   68.06    2.40
  -1   0  -7   70.27    2.30
  -1   0  -7   73.81    2.38
   1   0   7   62.77    2.43
   1   0   7   65.09    2.28
   1   0   7   64.48    2.10
   1   0   7   68.15    2.31
   1   0   7   63.09    2.62
   1   0   7   64.00    2.43
  -2   0  -7    4.21    0.27
  -2   0  -7    4.20    0.26
  -2   0  -7    4.20    0.27
  -2   0  -7    4.04    0.40
  -2   0  -7    4.42    0.38
  -2   0  -7    4.19    0.34
  -2   0  -7    4.18    0.31
  -2   0  -7    4.91    0.37
  -2   0  -7    4.18    0.28
  -2   0  -7    4.47    0.37
  -2   0  -7    4.39    0.39
  -2   0  -7    4.08    0.21
   2   0   7    4.04    0.44
   2   0   7    3.80    0.38
   2   0   7    4.06    0.21
   2   0   7    4.33    0.28
  -3   0  -7   30.50    1.32
  -3   0  -7   30.01    1.07
  -3   0  -7   29.38    1.04
  -3   0  -7   29.32    1.26
  -3   0  -7   29.39    1.09
  -3   0  -7   30.88    1.17
  -3   0  -7   30.41    1.09
  -3   0  -7   29.94    1.27
  -3   0  -7   30.13    1.30
   3   0   7   27.83    1.35
   3   0   7   29.31    1.14
   3   0   7   31.54    1.03
   3   0   7   28.64    1.11
   3   0   7   28.25    1.25
  -4   0  -7   16.08    0.62
  -4   0  -7   16.32    0.57
  -4   0  -7   15.79    0.68
  -4   0  -7   16.28    0.56
  -4   0  -7   15.04    0.53
  -4   0  -7   16.31    0.67
  -4   0  -7   16.92    0.59
   4   0   7   15.36    0.72
   4   0   7   15.65    0.60
   4   0   7   15.06    0.69
  -5   0  -7    3.26    0.14
  -5   0  -7    3.05    0.17
  -5   0  -7    3.22    0.15
   5   0   7    2.85    0.15
   5   0   7    2.96    0.17
   5  -1  -7    5.00    0.21
   5  -1  -7    5.43    0.21
   5  -1  -7    5.37    0.23
  -5   1   7    5.28    0.22
   4  -1  -7    5.76    0.23
   4  -1  -7    5.88    0.26
   4  -1  -7    5.84    0.25
   4  -1  -7    5.85    0.25
   4  -1  -7    5.74    0.27
   4  -1  -7    5.99    0.40
   4  -1  -7    5.74    0.38
   4  -1  -7    5.81    0.22
   4  -1  -7    5.64    0.37
   4  -1  -7    5.97    0.31
   4  -1  -7    5.99    0.23
  -4   1   7    6.02    0.32
  -4   1   7    5.43    0.38
   3  -1  -7    0.26    0.15
   3  -1  -7    0.28    0.10
   3  -1  -7    0.20    0.18
   3  -1  -7    0.37    0.15
   3  -1  -7    0.58    0.21
   3  -1  -7    0.22    0.18
  -3   1   7    0.16    0.08
  -3   1   7    0.47    0.16
  -3   1   7    0.07    0.22
   2  -1  -7   22.70    0.84
   2  -1  -7   21.87    0.92
   2  -1  -7   21.05    0.83
   2  -1  -7   21.86    0.91
   2  -1  -7   21.23    0.84
   2  -1  -7   21.34    0.83
  -2   1   7   19.14    0.75
  -2   1   7   20.15    0.94
   1  -1  -7   24.69    1.02
   1  -1  -7   23.96    0.88
   1  -1  -7   23.79    0.92
   1  -1  -7   23.32    0.86
   1  -1  -7   23.03    1.00
   1  -1  -7   21.45    1.20
   1  -1  -7   23.62    0.86
   1  -1  -7   23.58    0.87
   1  -1  -7   23.94    0.85
  -1   1   7   21.19    0.73
  -1   1   7   20.26    0.98
  -1   1   7   23.49    0.94
   0  -1  -7    7.22    0.48
   0  -1  -7    7.21    0.40
   0  -1  -7    7.59    0.47
   0  -1  -7    6.97    0.36
   0  -1  -7    6.63    0.40
   0  -1  -7    7.24    0.54
   0  -1  -7    7.29    0.36
   0  -1  -7    6.87    0.40
   0   1   7    7.10    0.61
   0   1   7    7.45    0.50
   0   1   7    5.87    0.30
  -1  -1  -7   33.16    1.11
  -1  -1  -7   32.90    1.22
  -1  -1  -7   30.97    1.07
  -1  -1  -7   28.98    1.32
  -1  -1  -7   32.14    1.30
  -1  -1  -7   32.25    1.13
  -1  -1  -7   30.49    1.13
  -1  -1  -7   31.93    1.19
  -1  -1  -7   30.68    1.41
  -1  -1  -7   31.63    1.09
  -1  -1  -7   28.96    1.27
  -1  -1  -7   31.07    1.07
  -1  -1  -7   30.53    1.22
  -1  -1  -7   33.92    1.22
  -1  -1  -7   30.00    1.08
   1   1   7   31.01    1.13
   1   1   7   29.88    1.15
   1   1   7   28.21    1.47
   1   1   7   29.21    0.99
   1   1   7   29.21    1.34
  -2  -1  -7    2.13    0.32
  -2  -1  -7    2.20    0.28
  -2  -1  -7    2.83    0.32
  -2  -1  -7    2.71    0.23
  -2  -1  -7    2.23    0.22
  -2  -1  -7    1.93    0.24
  -2  -1  -7    2.40    0.33
  -2  -1  -7    2.40    0.23
  -2  -1  -7    2.53    0.34
  -2  -1  -7    2.14    0.21
  -2  -1  -7    2.13    0.15
   2   1   7    2.04    0.15
   2   1   7    1.73    0.31
   2   1   7    2.08    0.21
   2   1   7    2.67    0.40
  -3  -1  -7    4.00    0.44
  -3  -1  -7    3.70    0.27
  -3  -1  -7    3.84    0.44
  -3  -1  -7    3.96    0.24
  -3  -1  -7    3.64    0.33
  -3  -1  -7    4.25    0.33
  -3  -1  -7    4.25    0.42
  -3  -1  -7    4.06    0.30
  -3  -1  -7    2.94    0.38
   3   1   7    3.43    0.32
   3   1   7    3.54    0.24
   3   1   7    3.59    0.54
   3   1   7    2.97    0.31
  -4  -1  -7   29.63    0.96
  -4  -1  -7   31.70    1.00
  -4  -1  -7   28.09    1.05
  -4  -1  -7   28.56    1.14
  -4  -1  -7   30.82    0.97
  -4  -1  -7   27.78    1.01
  -4  -1  -7   29.35    0.99
  -4  -1  -7   30.12    0.95
  -4  -1  -7   29.17    1.07
  -4  -1  -7   28.65    1.03
   4   1   7   26.65    0.94
   4   1   7   26.60    1.03
  -5  -1  -7    0.26    0.06
  -5  -1  -7    0.31    0.07
  -5  -1  -7    0.46    0.06
   5   1   7    0.23    0.06
   5  -2  -7    1.22    0.09
   5  -2  -7    1.29    0.09
   5  -2  -7    1.42    0.11
   4  -2  -7    0.32    0.16
   4  -2  -7    0.49    0.09
   4  -2  -7    0.50    0.19
   4  -2  -7    0.44    0.10
   4  -2  -7    0.28    0.09
   4  -2  -7    0.45    0.07
   4  -2  -7    0.36    0.18
   4  -2  -7    0.35    0.07
   4  -2  -7    0.51    0.08
   4  -2  -7    0.35    0.05
   4  -2  -7    0.39    0.09
  -4   2   7    0.57    0.18
  -4   2   7    0.39    0.11
   3  -2  -7    2.53    0.35
   3  -2  -7    2.51    0.27
   3  -2  -7    2.24    0.30
   3  -2  -7    2.25    0.26
   3  -2  -7    2.67    0.19
   3  -2  -7    2.62    0.36
  -3   2   7    2.58    0.26
  -3   2   7    2.36    0.41
  -3   2   7    2.58    0.29
  -3   2   7    2.18    0.18
   2  -2  -7   15.74    0.65
   2  -2  -7   15.04    0.64
   2  -2  -7   15.14    0.73
   2  -2  -7   16.90    0.73
   2  -2  -7   15.45    0.65
   2  -2  -7   15.75    0.67
  -2   2   7   15.60    0.81
  -2   2   7   15.16    0.62
   1  -2  -7   22.10    1.00
   1  -2  -7   22.87    0.85
   1  -2  -7   22.71    0.95
   1  -2  -7   23.28    0.85
   1  -2  -7   23.82    0.87
   1  -2  -7   24.19    0.92
   1  -2  -7   20.89    1.18
   1  -2  -7   24.65    0.86
  -1   2   7   21.13    1.03
  -1   2   7   23.81    0.93
   0  -2  -7   10.49    0.46
   0  -2  -7   11.86    0.53
   0  -2  -7   11.30    0.55
   0  -2  -7   11.76    0.61
   0  -2  -7   11.76    0.55
   0   2   7   10.39    0.39
   0   2   7   11.42    0.78
   0   2   7   11.25    0.70
  -1  -2  -7   57.26    2.03
  -1  -2  -7   55.35    1.96
  -1  -2  -7   55.89    1.81
  -1  -2  -7   54.94    1.83
  -1  -2  -7   54.22    1.81
  -1  -2  -7   53.88    1.88
  -1  -2  -7   56.24    1.82
  -1  -2  -7   51.18    1.99
  -1  -2  -7   56.75    1.95
  -1  -2  -7   56.93    1.97
  -1  -2  -7   54.54    2.20
  -1  -2  -7   49.46    2.09
   1   2   7   54.86    1.76
   1   2   7   55.94    2.21
   1   2   7   52.90    1.92
  -2  -2  -7   38.84    1.52
  -2  -2  -7   39.15    1.42
  -2  -2  -7   39.11    1.51
  -2  -2  -7   37.89    1.51
  -2  -2  -7   38.97    1.36
  -2  -2  -7   38.30    1.33
  -2  -2  -7   37.58    1.45
  -2  -2  -7   38.85    1.34
   2   2   7   36.54    1.29
   2   2   7   37.07    1.57
  -3  -2  -7   33.33    1.40
  -3  -2  -7   31.36    1.28
  -3  -2  -7   34.18    1.20
  -3  -2  -7   33.69    1.22
  -3  -2  -7   33.80    1.40
  -3  -2  -7   32.41    1.41
  -3  -2  -7   33.96    1.19
  -3  -2  -7   33.75    1.15
   3   2   7   33.37    1.24
   3   2   7   33.05    1.33
   3   2   7   29.91    1.48
   3   2   7   33.14    1.12
  -4  -2  -7   16.61    0.66
  -4  -2  -7   15.53    0.66
  -4  -2  -7   17.31    0.57
  -4  -2  -7   16.93    0.56
  -4  -2  -7   17.69    0.55
  -4  -2  -7   17.28    0.60
  -4  -2  -7   15.91    0.64
  -4  -2  -7   15.75    0.62
  -4  -2  -7   16.53    0.54
   4   2   7   14.74    0.67
   4   2   7   15.66    0.59
  -5  -2  -7    4.04    0.18
  -5  -2  -7    4.54    0.17
  -5  -2  -7    3.96    0.17
   5   2   7    3.96    0.16
   5  -3  -7    1.68    0.11
   5  -3  -7    1.63    0.10
   5  -3  -7    1.75    0.09
   4  -3  -7   19.00    0.65
   4  -3  -7   18.88    0.64
   4  -3  -7   19.35    0.66
   4  -3  -7   17.38    0.77
   4  -3  -7   20.07    0.63
   4  -3  -7   18.28    0.78
   4  -3  -7   19.43    0.62
   4  -3  -7   19.36    0.65
   4  -3  -7   18.49    0.78
   4  -3  -7   18.89    0.70
  -4   3   7   16.92    0.73
  -4   3   7   18.94    0.68
   3  -3  -7   14.94    0.54
   3  -3  -7   14.93    0.49
   3  -3  -7   14.84    0.66
   3  -3  -7   13.99    0.50
   3  -3  -7   14.89    0.57
   3  -3  -7   14.70    0.67
   3  -3  -7   15.03    0.54
   3  -3  -7   14.95    0.53
   3  -3  -7   15.07    0.69
   3  -3  -7   14.72    0.51
  -3   3   7   15.08    0.65
  -3   3   7   14.64    0.56
  -3   3   7   16.84    0.89
  -3   3   7   12.28    0.86
   2  -3  -7   23.30    0.97
   2  -3  -7   22.78    0.89
   2  -3  -7   24.04    0.93
  -2   3   7   21.57    0.82
   1  -3  -7    1.17    0.19
   1  -3  -7    1.28    0.17
  -1  -3  -7   42.90    1.47
  -1  -3  -7   41.81    1.54
  -1  -3  -7   43.63    1.63
  -1  -3  -7   46.45    1.72
  -1  -3  -7   43.34    1.62
  -1  -3  -7   43.09    1.48
  -1  -3  -7   44.46    1.47
  -1  -3  -7   42.76    1.49
  -1  -3  -7   45.30    1.64
   1   3   7   43.84    1.43
  -2  -3  -7   36.48    1.39
  -2  -3  -7   38.70    1.34
  -2  -3  -7   37.12    1.30
  -2  -3  -7   37.64    1.43
  -2  -3  -7   35.91    1.48
  -2  -3  -7   38.46    1.32
  -2  -3  -7   38.07    1.50
   2   3   7   35.52    1.26
  -3  -3  -7   24.24    0.97
  -3  -3  -7   22.88    0.87
  -3  -3  -7   23.28    0.76
  -3  -3  -7   23.66    0.91
  -3  -3  -7   22.71    0.75
  -3  -3  -7   21.88    0.82
  -3  -3  -7   23.58    0.81
  -3  -3  -7   22.23    0.83
  -3  -3  -7   23.07    0.88
  -3  -3  -7   23.26    0.75
   3   3   7   22.21    0.80
  -4  -3  -7   18.57    0.73
  -4  -3  -7   19.46    0.64
  -4  -3  -7   19.91    0.63
  -4  -3  -7   18.52    0.69
  -4  -3  -7   18.89    0.70
  -4  -3  -7   19.15    0.67
  -4  -3  -7   18.71    0.62
   4   3   7   18.14    0.67
   4  -4  -7    1.66    0.14
   4  -4  -7    1.96    0.14
   4  -4  -7    1.73    0.09
   4  -4  -7    1.84    0.11
   4  -4  -7    1.74    0.11
  -4   4   7    1.75    0.18
   3  -4  -7   17.22    0.64
   3  -4  -7   16.98    0.61
   3  -4  -7   18.32    0.75
   3  -4  -7   17.44    0.57
   3  -4  -7   17.25    0.61
   3  -4  -7   17.16    0.57
   3  -4  -7   18.26    0.77
   3  -4  -7   16.14    0.58
  -3   4   7   16.77    0.63
   2  -4  -7   22.48    0.88
   2  -4  -7   23.39    0.91
   2  -4  -7   21.46    0.94
  -2   4   7   21.42    0.82
   1  -4  -7    0.10    0.13
   1  -4  -7    0.02    0.10
  -1  -4  -7   10.10    0.50
  -1  -4  -7   10.11    0.44
  -1  -4  -7   10.13    0.45
  -1  -4  -7    9.82    0.46
  -1  -4  -7   10.40    0.59
  -1  -4  -7    9.89    0.46
  -1  -4  -7   10.09    0.67
  -1  -4  -7    9.57    0.57
   1   4   7    9.35    0.38
  -2  -4  -7   18.00    0.70
  -2  -4  -7   17.59    0.88
  -2  -4  -7   15.60    0.95
  -2  -4  -7   17.76    0.69
  -2  -4  -7   17.81    0.77
  -2  -4  -7   16.03    0.84
  -2  -4  -7   17.77    0.73
  -2  -4  -7   17.66    0.81
   2   4   7   17.28    0.81
   2   4   7   15.98    0.68
  -3  -4  -7    5.23    0.33
  -3  -4  -7    5.24    0.20
  -3  -4  -7    5.13    0.28
  -3  -4  -7    4.84    0.20
  -3  -4  -7    4.85    0.32
  -3  -4  -7    5.11    0.28
  -3  -4  -7    5.46    0.41
  -3  -4  -7    5.01    0.19
  -3  -4  -7    4.84    0.26
  -3  -4  -7    5.00    0.36
   3   4   7    4.90    0.27
  -4  -4  -7    1.04    0.15
  -4  -4  -7    0.87    0.14
  -4  -4  -7    0.83    0.09
  -4  -4  -7    0.81    0.07
  -4  -4  -7    0.77    0.09
   4  -5  -7    6.49    0.24
   4  -5  -7    6.81    0.23
   4  -5  -7    6.73    0.24
   4  -5  -7    6.11    0.26
   4  -5  -7    6.24    0.25
   3  -5  -7   19.01    0.79
   3  -5  -7   18.88    0.61
   3  -5  -7   18.68    0.81
   3  -5  -7   19.27    0.65
   3  -5  -7   18.77    0.62
   3  -5  -7   18.88    0.69
   3  -5  -7   17.98    0.66
   3  -5  -7   18.71    0.62
  -3   5   7   19.44    0.71
   2  -5  -7   32.49    1.22
   2  -5  -7   30.83    1.03
   2  -5  -7   31.67    1.07
   2  -5  -7   32.47    1.07
   2  -5  -7   34.76    1.21
   2  -5  -7   31.41    1.03
  -2   5   7   30.52    1.12
   1  -5  -7    4.31    0.34
   1  -5  -7    4.61    0.29
   1  -5  -7    4.07    0.39
  -1   5   7    4.98    0.27
  -1  -5  -7    3.73    0.28
  -1  -5  -7    4.13    0.29
  -1  -5  -7    4.25    0.48
  -1  -5  -7    3.42    0.40
  -1  -5  -7    3.97    0.28
   1   5   7    3.38    0.22
  -2  -5  -7   17.27    0.57
  -2  -5  -7   18.08    0.79
  -2  -5  -7   16.66    0.57
  -2  -5  -7   17.87    0.64
  -2  -5  -7   19.13    0.71
  -2  -5  -7   17.51    0.74
  -2  -5  -7   16.83    0.65
  -2  -5  -7   18.15    0.71
  -3  -5  -7   10.70    0.36
  -3  -5  -7   10.95    0.42
  -3  -5  -7   10.30    0.36
  -3  -5  -7   10.89    0.49
  -3  -5  -7    9.47    0.51
  -3  -5  -7   10.30    0.44
  -3  -5  -7   11.06    0.45
  -3  -5  -7   10.98    0.36
  -3  -5  -7   10.80    0.48
   3   5   7    9.48    0.41
  -4  -5  -7    1.38    0.14
  -4  -5  -7    1.11    0.09
  -4  -5  -7    1.23    0.09
  -4  -5  -7    0.96    0.13
  -4  -5  -7    1.15    0.07
   4  -6  -7    3.46    0.13
   4  -6  -7    3.65    0.16
   4  -6  -7    3.37    0.14
   4  -6  -7    3.75    0.13
   4  -6  -7    3.68    0.17
   3  -6  -7   13.02    0.43
   3  -6  -7   12.23    0.59
   3  -6  -7   12.88    0.43
   3  -6  -7   12.45    0.46
   3  -6  -7   11.86    0.49
   3  -6  -7   13.33    0.42
   3  -6  -7   13.47    0.61
   3  -6  -7   12.65    0.46
  -3   6   7   11.95    0.47
   2  -6  -7   25.88    0.85
   2  -6  -7   23.83    0.99
   2  -6  -7   25.96    0.81
   2  -6  -7   24.62    0.97
   2  -6  -7   24.91    0.81
   2  -6  -7   25.68    0.86
   1  -6  -7   17.34    0.60
   1  -6  -7   16.99    0.55
  -1   6   7   15.95    0.64
  -1  -6  -7   26.78    0.93
  -1  -6  -7   28.34    1.02
  -1  -6  -7   26.45    0.86
  -1  -6  -7   27.34    1.00
  -2  -6  -7    4.40    0.32
  -2  -6  -7    4.28    0.17
  -2  -6  -7    4.51    0.17
  -2  -6  -7    4.03    0.25
  -2  -6  -7    4.71    0.35
  -2  -6  -7    4.09    0.25
  -2  -6  -7    4.52    0.17
  -2  -6  -7    4.56    0.24
  -2  -6  -7    4.24    0.30
   2   6   7    4.43    0.25
  -3  -6  -7    0.99    0.15
  -3  -6  -7    0.93    0.15
  -3  -6  -7    0.89    0.09
  -3  -6  -7    0.84    0.20
  -3  -6  -7    1.13    0.18
  -3  -6  -7    0.80    0.08
  -3  -6  -7    0.98    0.08
  -3  -6  -7    1.22    0.19
  -3  -6  -7    1.11    0.16
   3   6   7    0.99    0.15
  -4  -6  -7    8.05    0.30
  -4  -6  -7    7.51    0.25
  -4  -6  -7    7.25    0.25
  -4  -6  -7    7.58    0.25
  -4  -6  -7    7.03    0.28
  -4  -6  -7    7.26    0.27
   3  -7  -7    2.95    0.11
   3  -7  -7    2.74    0.10
   3  -7  -7    2.84    0.16
   3  -7  -7    2.75    0.16
   3  -7  -7    2.79    0.12
   2  -7  -7   11.83    0.38
   2  -7  -7   11.85    0.39
   2  -7  -7   10.82    0.55
   2  -7  -7   11.26    0.52
   2  -7  -7   11.42    0.43
   2  -7  -7   11.91    0.43
   2  -7  -7   11.04    0.55
   1  -7  -7    5.28    0.25
   1  -7  -7    5.39    0.19
   0  -7  -7   13.13    0.46
   0  -7  -7   12.31    0.41
  -1  -7  -7    9.62    0.47
  -1  -7  -7   10.19    0.34
  -1  -7  -7   10.34    0.40
  -1  -7  -7   10.34    0.50
  -2  -7  -7    4.91    0.33
  -2  -7  -7    5.71    0.20
  -2  -7  -7    5.83    0.27
  -2  -7  -7    5.62    0.20
  -2  -7  -7    5.20    0.37
  -2  -7  -7    5.24    0.19
  -2  -7  -7    5.64    0.27
   2   7   7    5.78    0.29
  -3  -7  -7    0.21    0.04
  -3  -7  -7    0.24    0.04
  -3  -7  -7    0.06    0.08
  -3  -7  -7    0.18    0.04
  -3  -7  -7    0.16    0.08
   3  -8  -7    5.77    0.22
   3  -8  -7    5.42    0.19
   3  -8  -7    5.59    0.22
   3  -8  -7    5.37    0.19
   2  -8  -7    8.53    0.29
   2  -8  -7    8.77    0.33
   2  -8  -7    8.60    0.33
   2  -8  -7    8.58    0.29
   1  -8  -7    1.21    0.14
   1  -8  -7    1.12    0.07
   0  -8  -7    4.13    0.20
   0  -8  -7    4.09    0.15
  -1  -8  -7    2.10    0.09
  -1  -8  -7    1.89    0.17
  -1  -8  -7    1.60    0.23
  -1  -8  -7    1.77    0.22
  -2  -8  -7    0.44    0.05
  -2  -8  -7    0.36    0.09
  -2  -8  -7    0.52    0.06
  -3  -8  -7    0.88    0.10
  -3  -8  -7    0.91    0.05
  -3  -8  -7    0.91    0.05
  -3  -8  -7    0.93    0.10
   2  -9  -7    2.25    0.09
   2  -9  -7    2.41    0.09
   2  -9  -7    2.24    0.13
   1  -9  -7    9.65    0.32
   1  -9  -7   10.26    0.36
   1  -9  -7    9.83    0.33
   0  -9  -7    1.09    0.06
   0  -9  -7    1.00    0.11
   0  -9  -7    1.05    0.06
  -1  -9  -7    0.84    0.05
  -1  -9  -7    0.88    0.13
  -1  -9  -7    0.94    0.10
  -1  -9  -7    0.86    0.06
  -2  -9  -7   15.22    0.49
  -2  -9  -7   15.09    0.52
  -2  -9  -7   14.97    0.48
   0 -10  -7    0.37    0.06
   0 -10  -7    0.46    0.04
   1  12  -8    2.48    0.14
   0  12  -8   22.27    0.74
   0 -12   8   21.91    0.73
  -1  12  -8   14.35    0.49
   1 -12   8   14.39    0.50
   2  11  -8    0.40    0.07
   2  11  -8    0.33    0.07
  -2 -11   8    0.36    0.06
   1  11  -8   21.49    0.73
  -1 -11   8   21.68    0.72
  -1 -11   8   21.20    0.72
   0  11  -8    6.87    0.29
   0 -11   8    6.77    0.29
   0 -11   8    6.82    0.29
  -1  11  -8    1.82    0.16
   1 -11   8    2.33    0.16
   1 -11   8    1.99    0.16
  -2  11  -8    1.06    0.12
  -2  11  -8    0.96    0.12
   2 -11   8    0.82    0.11
   2 -11   8    0.88    0.09
   3  10  -8    1.44    0.08
   3  10  -8    1.69    0.12
  -3 -10   8    1.56    0.11
   2  10  -8   21.33    0.73
   2  10  -8   20.85    0.71
  -2 -10   8   21.14    0.72
   1  10  -8   11.41    0.55
   1  10  -8   10.81    0.43
   1  10  -8   12.02    0.44
  -1 -10   8   11.10    0.42
  -1 -10   8   11.29    0.44
  -1 -10   8   11.31    0.57
   0  10  -8    1.11    0.22
   0  10  -8    1.24    0.16
   0 -10   8    0.95    0.24
   0 -10   8    0.77    0.12
   0 -10   8    1.08    0.19
  -1  10  -8    0.16    0.11
  -1  10  -8    0.33    0.17
   1 -10   8    0.21    0.12
   1 -10   8    0.44    0.20
   1 -10   8    0.22    0.09
  -2  10  -8    3.15    0.20
  -2  10  -8    2.89    0.19
   2 -10   8    2.79    0.20
   2 -10   8    3.05    0.18
  -3  10  -8    0.68    0.08
  -3  10  -8    0.73    0.09
   3 -10   8    0.80    0.09
   3   9  -8    0.62    0.10
   3   9  -8    0.67    0.12
  -3  -9   8    0.80    0.14
   2   9  -8    2.08    0.18
   2   9  -8    2.32    0.16
   2   9  -8    2.28    0.28
  -2  -9   8    2.14    0.13
  -2  -9   8    2.02    0.24
  -2  -9   8    2.17    0.21
   1   9  -8    8.18    0.33
   1   9  -8    7.61    0.34
   1   9  -8    8.51    0.47
   1   9  -8    7.29    0.44
  -1  -9   8    8.07    0.30
  -1  -9   8    7.39    0.45
  -1  -9   8    7.53    0.32
  -1  -9   8    7.70    0.40
   0   9  -8    6.30    0.41
   0   9  -8    6.86    0.31
   0  -9   8    6.80    0.27
   0  -9   8    6.63    0.44
   0  -9   8    6.28    0.29
  -1   9  -8    7.12    0.44
  -1   9  -8    7.12    0.32
   1  -9   8    6.90    0.45
   1  -9   8    6.66    0.45
   1  -9   8    6.98    0.28
   1  -9   8    6.66    0.30
  -2   9  -8    4.02    0.24
  -2   9  -8    4.12    0.23
  -2   9  -8    4.11    0.31
  -2   9  -8    4.30    0.34
   2  -9   8    3.80    0.27
   2  -9   8    3.58    0.21
   2  -9   8    3.65    0.16
   2  -9   8    3.62    0.34
   2  -9   8    3.85    0.32
  -3   9  -8    4.48    0.20
  -3   9  -8    4.87    0.23
   3  -9   8    4.37    0.23
   4   8  -8    3.70    0.17
   4   8  -8    3.39    0.20
  -4  -8   8    3.60    0.18
   3   8  -8    0.06    0.06
   3   8  -8   -0.02    0.08
   3   8  -8    0.12    0.15
  -3  -8   8    0.19    0.10
  -3  -8   8    0.12    0.06
  -3  -8   8    0.16    0.12
   2   8  -8   30.66    1.14
   2   8  -8   29.40    0.98
   2   8  -8   29.29    1.01
   2   8  -8   29.09    1.12
  -2  -8   8   28.51    0.92
  -2  -8   8   29.18    1.04
  -2  -8   8   26.35    1.07
   1   8  -8    9.76    0.51
   1   8  -8    9.65    0.40
   1   8  -8   10.00    0.51
   1   8  -8    9.95    0.38
   1   8  -8    9.60    0.35
  -1  -8   8   10.01    0.54
  -1  -8   8   10.39    0.48
  -1  -8   8    9.65    0.37
  -1  -8   8    9.30    0.66
   0   8  -8   15.30    0.68
   0   8  -8   15.44    0.67
   0  -8   8   15.49    0.70
   0  -8   8   14.54    0.62
  -1   8  -8    0.83    0.11
  -1   8  -8    0.99    0.22
  -1   8  -8    1.08    0.17
   1  -8   8    0.96    0.11
   1  -8   8    0.81    0.12
   1  -8   8    0.76    0.20
  -2   8  -8    3.08    0.20
  -2   8  -8    2.70    0.20
  -2   8  -8    2.98    0.29
   2  -8   8    3.22    0.38
   2  -8   8    3.30    0.19
   2  -8   8    2.97    0.30
  -3   8  -8    1.98    0.27
  -3   8  -8    1.89    0.18
  -3   8  -8    1.93    0.15
   3  -8   8    1.72    0.22
   3  -8   8    2.20    0.27
   3  -8   8    1.85    0.12
  -4   8  -8    0.71    0.09
   4  -8   8    0.58    0.08
   4   7  -8    1.36    0.15
   4   7  -8    1.49    0.12
  -4  -7   8    1.61    0.15
  -4  -7   8    1.31    0.08
   3   7  -8    0.39    0.18
   3   7  -8    0.35    0.07
   3   7  -8    0.32    0.10
  -3  -7   8    0.30    0.14
  -3  -7   8    0.28    0.08
   2   7  -8    1.06    0.14
   2   7  -8    1.23    0.24
   2   7  -8    1.15    0.13
   2   7  -8    1.02    0.13
   2   7  -8    0.90    0.15
   2   7  -8    1.35    0.24
  -2  -7   8    1.10    0.15
  -2  -7   8    1.89    0.52
  -2  -7   8    1.25    0.24
  -2  -7   8    1.25    0.19
   1   7  -8    2.60    0.28
   1   7  -8    2.67    0.27
   1   7  -8    2.96    0.35
  -1  -7   8    2.70    0.39
  -1  -7   8    2.87    0.26
  -1  -7   8    2.94    0.32
   0   7  -8   16.17    0.69
   0   7  -8   15.71    0.76
   0   7  -8   15.58    0.68
   0  -7   8   15.14    0.62
   0  -7   8   15.29    0.69
   0  -7   8   15.86    0.81
  -1   7  -8   31.15    1.16
   1  -7   8   28.08    1.08
  -2   7  -8   28.01    0.96
  -2   7  -8   28.57    0.98
  -2   7  -8   28.79    0.94
  -2   7  -8   29.35    1.07
   2  -7   8   28.62    1.05
   2  -7   8   27.27    0.93
  -3   7  -8    3.10    0.31
  -3   7  -8    3.40    0.18
   3  -7   8    3.12    0.31
   3  -7   8    2.93    0.17
  -4   7  -8    2.41    0.16
   4  -7   8    2.38    0.19
   4   6  -8   16.97    0.59
  -4  -6   8   16.91    0.56
   3   6  -8    9.57    0.39
   3   6  -8    9.03    0.49
   3   6  -8    9.62    0.36
   3   6  -8    9.94    0.34
  -3  -6   8    9.72    0.48
  -3  -6   8    9.94    0.37
   2   6  -8    1.04    0.21
   2   6  -8    1.85    0.28
   2   6  -8    1.68    0.24
  -2  -6   8    0.96    0.27
  -2  -6   8    1.49    0.27
  -2  -6   8    1.61    0.23
   1   6  -8    2.04    0.23
   1   6  -8    2.64    0.25
   1   6  -8    2.52    0.31
  -1  -6   8    2.24    0.37
  -1  -6   8    2.50    0.24
  -1  -6   8    2.21    0.29
   0   6  -8   53.98    1.84
   0   6  -8   52.27    1.93
   0   6  -8   54.95    1.85
   0   6  -8   52.73    1.76
   0  -6   8   51.08    1.78
   0  -6   8   50.94    1.90
   0  -6   8   51.68    1.67
   0  -6   8   50.35    1.71
  -1   6  -8    0.12    0.18
  -1   6  -8    0.30    0.14
  -1   6  -8    0.26    0.14
   1  -6   8    0.03    0.14
  -2   6  -8    5.19    0.50
  -2   6  -8    4.55    0.33
   2  -6   8    4.52    0.34
   2  -6   8    4.70    0.52
  -3   6  -8   27.10    0.93
  -3   6  -8   27.27    0.89
  -3   6  -8   27.35    1.02
  -3   6  -8   27.44    1.02
  -3   6  -8   27.37    0.89
  -3   6  -8   25.38    0.93
   3  -6   8   25.40    0.86
   3  -6   8   25.82    0.98
   3  -6   8   25.72    1.05
  -4   6  -8    6.40    0.31
  -4   6  -8    6.20    0.28
   4  -6   8    5.61    0.22
   4  -6   8    5.58    0.27
   4   5  -8    0.69    0.10
   4   5  -8    0.49    0.10
  -4  -5   8    0.42    0.08
   3   5  -8   10.31    0.51
   3   5  -8   10.54    0.35
   3   5  -8    9.26    0.40
   3   5  -8   10.18    0.41
   3   5  -8   10.65    0.38
  -3  -5   8   10.16    0.48
   2   5  -8    5.36    0.40
   2   5  -8    5.09    0.35
   2   5  -8    5.40    0.35
  -2  -5   8    5.36    0.47
  -2  -5   8    5.12    0.31
  -2  -5   8    4.64    0.26
  -2  -5   8    4.85    0.35
   1   5  -8    1.29    0.20
   1   5  -8    1.77    0.16
   1   5  -8    1.75    0.21
   1   5  -8    1.45    0.26
  -1  -5   8    1.55    0.16
  -1  -5   8    1.85    0.32
  -1  -5   8    1.34    0.21
  -1  -5   8    1.37    0.19
   0   5  -8   51.52    1.77
   0   5  -8   52.48    1.70
   0   5  -8   51.34    1.78
   0   5  -8   53.39    1.94
   0   5  -8   49.95    1.90
   0   5  -8   51.27    1.86
   0   5  -8   52.11    1.84
   0  -5   8   46.43    1.78
   0  -5   8   48.03    1.66
   0  -5   8   47.40    1.66
   0  -5   8   48.42    1.56
  -1   5  -8   10.51    0.48
  -1   5  -8   10.38    0.57
  -1   5  -8    9.82    0.52
  -1   5  -8   10.44    0.49
  -1   5  -8   10.77    0.50
  -1   5  -8   11.53    0.43
  -1   5  -8   10.33    0.46
  -1   5  -8   10.51    0.62
   1  -5   8   10.36    0.59
   1  -5   8    9.87    0.57
   1  -5   8   10.08    0.40
   1  -5   8    9.85    0.48
  -2   5  -8    4.30    0.44
  -2   5  -8    4.26    0.24
  -2   5  -8    3.94    0.45
  -2   5  -8    3.70    0.30
  -2   5  -8    4.39    0.31
   2  -5   8    3.75    0.47
   2  -5   8    4.24    0.38
   2  -5   8    4.16    0.45
   2  -5   8    3.70    0.31
   2  -5   8    3.69    0.23
  -3   5  -8   26.86    0.97
  -3   5  -8   23.95    0.87
  -3   5  -8   24.83    0.87
  -3   5  -8   25.46    0.96
  -3   5  -8   24.76    0.82
  -3   5  -8   24.62    0.83
   3  -5   8   23.53    0.93
   3  -5   8   24.41    1.01
  -4   5  -8    1.08    0.15
  -4   5  -8    1.21    0.09
  -4   5  -8    1.18    0.19
  -4   5  -8    1.06    0.20
  -4   5  -8    0.73    0.16
   4  -5   8    0.69    0.12
   4  -5   8    1.19    0.21
   4  -5   8    0.83    0.29
   4  -5   8    1.26    0.13
   5   4  -8   17.32    0.57
  -5  -4   8   16.97    0.56
  -5  -4   8   16.99    0.55
   4   4  -8    0.04    0.06
   4   4  -8    0.07    0.08
  -4  -4   8    0.08    0.08
   3   4  -8    3.36    0.20
   3   4  -8    2.94    0.30
   3   4  -8    2.81    0.19
  -3  -4   8    2.45    0.28
   2   4  -8    2.56    0.26
   2   4  -8    2.93    0.35
   2   4  -8    2.65    0.36
   2   4  -8    3.07    0.31
   2   4  -8    2.61    0.26
   2   4  -8    2.58    0.24
   2   4  -8    2.72    0.19
   2   4  -8    2.47    0.25
  -2  -4   8    2.49    0.19
  -2  -4   8    2.16    0.22
  -2  -4   8    3.15    0.41
  -2  -4   8    2.63    0.36
   1   4  -8    4.38    0.30
   1   4  -8    4.41    0.28
   1   4  -8    4.79    0.24
   1   4  -8    4.64    0.36
   1   4  -8    4.99    0.31
   1   4  -8    5.01    0.43
   1   4  -8    4.73    0.30
   1   4  -8    5.21    0.41
   1   4  -8    4.65    0.35
  -1  -4   8    4.38    0.30
  -1  -4   8    3.69    0.27
  -1  -4   8    4.46    0.22
  -1  -4   8    3.68    0.52
  -1  -4   8    3.89    0.42
  -1  -4   8    4.19    0.38
  -1  -4   8    4.17    0.26
   0   4  -8    1.86    0.18
   0   4  -8    1.72    0.15
   0   4  -8    1.62    0.23
   0   4  -8    1.93    0.28
   0   4  -8    1.36    0.33
   0   4  -8    2.05    0.29
   0   4  -8    1.53    0.20
   0   4  -8    1.93    0.31
   0   4  -8    1.84    0.20
   0   4  -8    2.08    0.22
   0   4  -8    1.59    0.24
   0  -4   8    2.16    0.40
   0  -4   8    1.51    0.20
   0  -4   8    1.75    0.45
   0  -4   8    1.68    0.27
   0  -4   8    1.63    0.14
   0  -4   8    1.71    0.20
   0  -4   8    1.44    0.33
  -1   4  -8   30.24    1.10
  -1   4  -8   29.53    1.06
  -1   4  -8   28.98    1.00
  -1   4  -8   29.41    1.09
  -1   4  -8   35.19    1.56
  -1   4  -8   27.54    1.20
  -1   4  -8   28.55    1.15
  -1   4  -8   28.45    1.03
  -1   4  -8   29.51    1.22
   1  -4   8   26.62    1.12
   1  -4   8   28.64    1.10
   1  -4   8   26.68    0.91
   1  -4   8   24.90    1.27
   1  -4   8   27.71    1.11
   1  -4   8   26.54    0.98
  -2   4  -8   11.90    0.53
  -2   4  -8   13.04    0.70
  -2   4  -8   11.03    0.68
  -2   4  -8   11.74    0.53
  -2   4  -8   11.14    0.69
  -2   4  -8   13.17    0.48
  -2   4  -8   11.76    0.54
   2  -4   8    9.70    0.67
   2  -4   8   10.56    0.49
   2  -4   8   10.28    0.65
   2  -4   8   11.22    0.57
   2  -4   8   10.83    0.43
  -3   4  -8   51.70    1.71
  -3   4  -8   50.95    1.80
  -3   4  -8   53.11    1.71
  -3   4  -8   54.16    1.79
  -3   4  -8   51.70    1.71
  -3   4  -8   50.31    1.68
   3  -4   8   51.22    1.72
   3  -4   8   41.98    2.34
   3  -4   8   51.61    1.81
  -4   4  -8    1.55    0.12
  -4   4  -8    1.37    0.16
  -4   4  -8    1.26    0.23
  -4   4  -8    0.79    0.16
  -4   4  -8    1.39    0.19
   4  -4   8    1.32    0.15
   4  -4   8    1.58    0.32
   4  -4   8    1.39    0.21
  -5   4  -8    3.44    0.16
  -5   4  -8    3.47    0.16
   5  -4   8    3.02    0.11
   5  -4   8    2.80    0.18
   5   3  -8    3.73    0.16
  -5  -3   8    3.38    0.17
  -5  -3   8    4.01    0.16
   4   3  -8   19.70    0.66
   4   3  -8   20.02    0.67
   4   3  -8   18.90    0.67
   4   3  -8   18.67    0.79
  -4  -3   8   18.96    0.64
  -4  -3   8   18.42    0.77
   3   3  -8   34.89    1.46
   3   3  -8   38.51    1.37
   3   3  -8   38.29    1.38
   3   3  -8   37.81    1.38
   3   3  -8   37.82    1.30
   3   3  -8   39.47    1.38
  -3  -3   8   35.46    1.20
  -3  -3   8   33.56    1.53
   2   3  -8    1.07    0.22
   2   3  -8    1.06    0.18
   2   3  -8    1.06    0.22
   2   3  -8    1.08    0.13
   2   3  -8    1.18    0.24
   2   3  -8    1.12    0.19
   2   3  -8    1.37    0.24
   2   3  -8    0.90    0.18
   2   3  -8    0.79    0.17
  -2  -3   8    1.02    0.14
  -2  -3   8    0.85    0.25
  -2  -3   8    1.03    0.18
  -2  -3   8    0.98    0.23
  -2  -3   8    0.84    0.18
   1   3  -8    5.10    0.44
   1   3  -8    6.29    0.39
   1   3  -8    6.33    0.34
   1   3  -8    6.65    0.34
   1   3  -8    6.37    0.56
   1   3  -8    6.18    0.42
   1   3  -8    6.31    0.34
   1   3  -8    6.26    0.40
   1   3  -8    6.25    0.61
   1   3  -8    6.26    0.27
   1   3  -8    5.36    0.33
   1   3  -8    6.19    0.34
   1   3  -8    5.34    0.59
  -1  -3   8    5.62    0.31
  -1  -3   8    5.36    0.57
  -1  -3   8    5.43    0.55
  -1  -3   8    5.56    0.25
  -1  -3   8    5.49    0.48
  -1  -3   8    5.96    0.43
   0   3  -8   52.55    1.70
   0   3  -8   48.35    1.77
   0   3  -8   50.26    2.13
   0   3  -8   52.10    1.84
   0   3  -8   52.64    1.74
   0   3  -8   54.12    1.76
   0   3  -8   52.17    1.77
   0   3  -8   53.13    1.86
   0   3  -8   52.37    1.91
   0   3  -8   56.37    2.14
   0   3  -8   49.20    1.97
   0   3  -8   54.29    1.88
   0   3  -8   53.94    1.78
   0  -3   8   46.11    1.92
   0  -3   8   48.10    1.57
   0  -3   8   51.43    1.77
   0  -3   8   50.69    1.99
   0  -3   8   42.51    2.08
   0  -3   8   50.66    1.63
   0  -3   8   48.95    1.65
  -1   3  -8   46.26    1.55
  -1   3  -8   46.79    1.64
  -1   3  -8   49.64    1.61
  -1   3  -8   49.36    1.65
  -1   3  -8   43.83    1.82
  -1   3  -8   49.96    1.75
  -1   3  -8   46.39    1.58
  -1   3  -8   46.64    1.78
  -1   3  -8   45.26    1.73
  -1   3  -8   48.10    1.72
  -1   3  -8   46.23    2.08
   1  -3   8   44.56    1.80
   1  -3   8   42.79    1.84
   1  -3   8   45.77    1.65
   1  -3   8   43.97    1.67
   1  -3   8   45.19    1.52
   1  -3   8   44.55    1.46
  -2   3  -8    7.08    0.53
  -2   3  -8    7.70    0.53
  -2   3  -8    7.11    0.47
  -2   3  -8    7.16    0.50
  -2   3  -8    7.10    0.37
  -2   3  -8    7.12    0.41
  -2   3  -8    7.12    0.39
  -2   3  -8    7.08    0.35
  -2   3  -8    7.54    0.33
  -2   3  -8    7.03    0.53
   2  -3   8    6.55    0.53
   2  -3   8    6.23    0.37
   2  -3   8    6.90    0.38
   2  -3   8    6.62    0.30
   2  -3   8    7.44    0.54
  -3   3  -8   -0.13    0.20
  -3   3  -8    0.13    0.20
  -3   3  -8    0.00    0.13
  -3   3  -8    0.02    0.14
  -3   3  -8    0.14    0.10
   3  -3   8   -0.27    0.28
   3  -3   8   -0.10    0.09
   3  -3   8    0.22    0.24
   3  -3   8    0.31    0.23
   3  -3   8    0.01    0.16
  -4   3  -8    3.42    0.18
  -4   3  -8    3.46    0.22
  -4   3  -8    2.96    0.29
  -4   3  -8    3.50    0.31
  -4   3  -8    3.47    0.21
   4  -3   8    3.69    0.38
   4  -3   8    2.76    0.32
   4  -3   8    3.07    0.19
  -5   3  -8    0.69    0.10
  -5   3  -8    0.76    0.09
   5  -3   8    0.73    0.11
   5  -3   8    0.62    0.08
   5   2  -8    1.69    0.09
   5   2  -8    1.45    0.09
   5   2  -8    1.49    0.12
  -5  -2   8    1.56    0.12
  -5  -2   8    1.58    0.11
   4   2  -8    2.43    0.29
   4   2  -8    2.41    0.17
   4   2  -8    2.73    0.16
   4   2  -8    2.40    0.16
  -4  -2   8    2.12    0.29
  -4  -2   8    2.82    0.17
   3   2  -8   32.98    1.17
   3   2  -8   33.06    1.25
   3   2  -8   33.82    1.25
   3   2  -8   33.70    1.47
   3   2  -8   36.00    1.27
   3   2  -8   33.78    1.36
   3   2  -8   33.55    1.25
  -3  -2   8   31.02    1.43
  -3  -2   8   32.69    1.09
  -3  -2   8   29.08    1.23
   2   2  -8    4.44    0.23
   2   2  -8    3.90    0.28
   2   2  -8    4.01    0.38
   2   2  -8    4.09    0.39
   2   2  -8    3.79    0.30
   2   2  -8    3.94    0.29
   2   2  -8    4.19    0.31
  -2  -2   8    3.60    0.30
  -2  -2   8    4.06    0.22
   1   2  -8   13.87    0.56
   1   2  -8   12.82    0.48
   1   2  -8   14.47    0.58
   1   2  -8   13.65    0.62
   1   2  -8   13.06    0.62
   1   2  -8   14.34    0.65
   1   2  -8   12.65    0.56
   1   2  -8   11.79    0.88
   1   2  -8   13.13    0.53
   1   2  -8   13.18    0.83
   1   2  -8   12.79    0.79
   1   2  -8   13.45    0.56
   1   2  -8   13.60    0.72
   1   2  -8   14.37    0.57
  -1  -2   8   11.81    0.44
  -1  -2   8   12.95    0.74
  -1  -2   8   11.95    0.50
  -1  -2   8   13.31    0.64
  -1  -2   8   11.86    0.78
  -1  -2   8   12.29    0.77
   0   2  -8    8.24    0.40
   0   2  -8    9.85    0.68
   0   2  -8    8.82    0.63
   0   2  -8    9.36    0.43
   0   2  -8    8.89    0.34
   0   2  -8    9.61    0.47
   0   2  -8    8.98    0.53
   0   2  -8   10.16    0.50
   0   2  -8    9.24    0.43
   0   2  -8    8.54    0.41
   0   2  -8    8.85    0.41
   0   2  -8    9.51    0.59
   0   2  -8    9.52    0.48
   0   2  -8    9.16    0.39
   0  -2   8    7.83    0.54
   0  -2   8    8.89    0.36
   0  -2   8    7.61    0.32
   0  -2   8    8.84    0.48
   0  -2   8    8.48    0.61
   0  -2   8    8.19    0.71
  -1   2  -8    7.97    0.66
  -1   2  -8    6.99    0.39
  -1   2  -8    6.96    0.44
  -1   2  -8    6.73    0.45
  -1   2  -8    6.46    0.47
  -1   2  -8    7.21    0.36
  -1   2  -8    7.34    0.63
  -1   2  -8    6.65    0.37
  -1   2  -8    7.78    0.44
  -1   2  -8    7.00    0.33
  -1   2  -8    6.25    0.49
  -1   2  -8    7.22    0.29
  -1   2  -8    7.02    0.44
   1  -2   8    7.05    0.50
   1  -2   8    5.98    0.52
   1  -2   8    6.74    0.72
   1  -2   8    6.54    0.27
   1  -2   8    7.21    0.33
   1  -2   8    7.40    0.46
   1  -2   8    6.28    0.46
  -2   2  -8    1.05    0.23
  -2   2  -8    1.26    0.19
  -2   2  -8    1.44    0.20
  -2   2  -8    1.66    0.27
  -2   2  -8    1.49    0.28
  -2   2  -8    1.42    0.22
  -2   2  -8    0.87    0.22
  -2   2  -8    1.47    0.15
  -2   2  -8    1.53    0.28
  -2   2  -8    0.94    0.16
  -2   2  -8    1.09    0.26
   2  -2   8    1.30    0.22
   2  -2   8    1.39    0.21
   2  -2   8    1.27    0.31
   2  -2   8    1.98    0.32
   2  -2   8    0.93    0.13
  -3   2  -8   16.61    0.87
  -3   2  -8   14.37    0.87
  -3   2  -8   16.47    0.69
  -3   2  -8   17.05    0.64
  -3   2  -8   17.51    0.90
  -3   2  -8   16.68    0.70
  -3   2  -8   17.07    0.72
   3  -2   8   15.01    0.68
   3  -2   8   14.38    0.92
   3  -2   8   16.15    0.76
   3  -2   8   15.88    0.60
   3  -2   8   17.06    0.88
  -4   2  -8    3.12    0.18
  -4   2  -8    3.31    0.20
  -4   2  -8    3.34    0.31
  -4   2  -8    2.82    0.28
  -4   2  -8    2.70    0.20
   4  -2   8    2.53    0.31
   4  -2   8    2.81    0.35
  -5   2  -8    2.62    0.15
  -5   2  -8    2.66    0.12
   5  -2   8    2.36    0.15
   5  -2   8    2.44    0.12
   5   1  -8    4.79    0.21
   5   1  -8    4.89    0.20
   5   1  -8    4.99    0.19
  -5  -1   8    4.84    0.20
  -5  -1   8    4.86    0.19
   4   1  -8    0.56    0.07
   4   1  -8    0.71    0.20
   4   1  -8    0.45    0.07
   4   1  -8    0.74    0.11
   4   1  -8    0.62    0.09
   4   1  -8    0.73    0.12
   4   1  -8    0.71    0.13
  -4  -1   8    0.47    0.12
  -4  -1   8    0.55    0.19
   3   1  -8    9.98    0.51
   3   1  -8    9.19    0.65
   3   1  -8   10.55    0.43
   3   1  -8    9.69    0.51
   3   1  -8    9.12    0.49
   3   1  -8   10.11    0.61
   3   1  -8   10.05    0.52
  -3  -1   8    8.65    0.52
  -3  -1   8    8.34    0.70
  -3  -1   8    9.47    0.40
   2   1  -8   10.44    0.57
   2   1  -8    9.45    0.47
   2   1  -8   10.39    0.48
   2   1  -8    8.94    0.46
   2   1  -8    9.55    0.47
   2   1  -8    9.50    0.38
   2   1  -8    9.07    0.55
  -2  -1   8    8.87    0.44
  -2  -1   8    8.35    0.35
  -2  -1   8    8.88    0.60
   1   1  -8    5.75    0.58
   1   1  -8    5.39    0.35
   1   1  -8    5.74    0.49
   1   1  -8    5.48    0.36
   1   1  -8    4.55    0.46
   1   1  -8    5.46    0.30
   1   1  -8    5.63    0.46
   1   1  -8    5.37    0.31
   1   1  -8    5.41    0.32
   1   1  -8    5.49    0.32
   1   1  -8    5.91    0.32
   1   1  -8    4.93    0.27
   1   1  -8    5.10    0.34
  -1  -1   8    4.58    0.25
  -1  -1   8    5.74    0.38
  -1  -1   8    5.28    0.45
  -1  -1   8    4.92    0.49
  -1  -1   8    5.02    0.45
   0   1  -8   60.63    2.30
   0   1  -8   65.17    2.17
   0   1  -8   58.59    2.06
   0   1  -8   61.81    2.14
   0   1  -8   61.97    2.11
   0   1  -8   59.78    2.29
   0   1  -8   60.72    2.06
   0   1  -8   61.81    2.04
   0   1  -8   65.80    2.43
   0   1  -8   64.66    2.24
   0   1  -8   64.04    2.07
   0   1  -8   62.65    2.09
   0   1  -8   63.90    2.09
   0  -1   8   59.17    2.21
   0  -1   8   51.35    2.04
   0  -1   8   59.31    2.42
   0  -1   8   57.76    1.85
  -1   1  -8    6.73    0.40
  -1   1  -8    6.53    0.44
  -1   1  -8    6.24    0.34
  -1   1  -8    6.36    0.49
  -1   1  -8    6.64    0.60
  -1   1  -8    6.46    0.37
  -1   1  -8    6.23    0.36
  -1   1  -8    6.49    0.41
  -1   1  -8    6.74    0.55
  -1   1  -8    6.55    0.31
  -1   1  -8    6.30    0.46
  -1   1  -8    6.61    0.42
   1  -1   8    5.71    0.42
   1  -1   8    6.07    0.29
   1  -1   8    6.47    0.54
   1  -1   8    6.02    0.43
   1  -1   8    6.35    0.46
   1  -1   8    5.31    0.67
  -2   1  -8   27.65    1.24
  -2   1  -8   30.08    1.22
  -2   1  -8   29.54    1.05
  -2   1  -8   30.55    1.13
  -2   1  -8   29.62    1.14
  -2   1  -8   26.76    1.00
  -2   1  -8   29.75    1.23
  -2   1  -8   30.59    1.24
  -2   1  -8   30.31    1.06
  -2   1  -8   31.08    1.24
  -2   1  -8   30.13    1.08
   2  -1   8   27.22    0.94
   2  -1   8   27.31    1.01
   2  -1   8   28.94    1.24
   2  -1   8   26.56    1.16
  -3   1  -8   14.73    0.79
  -3   1  -8   13.02    0.76
  -3   1  -8   15.82    0.59
  -3   1  -8   15.22    0.70
  -3   1  -8   14.09    0.64
  -3   1  -8   15.37    0.61
  -3   1  -8   14.92    0.81
  -3   1  -8   13.83    0.84
  -3   1  -8   15.25    0.63
   3  -1   8   15.73    0.57
   3  -1   8   14.21    0.71
   3  -1   8   12.76    0.64
   3  -1   8   14.31    0.89
   3  -1   8   14.63    0.66
   3  -1   8   14.80    0.82
  -4   1  -8   20.30    0.84
  -4   1  -8   21.90    0.75
  -4   1  -8   22.11    0.83
  -4   1  -8   21.86    0.73
   4  -1   8   18.71    0.77
   4  -1   8   18.66    0.82
  -5   1  -8   10.61    0.34
  -5   1  -8    9.92    0.37
   5  -1   8    9.63    0.35
   5  -1   8    9.81    0.34
   5   0  -8    3.73    0.16
   5   0  -8    3.65    0.15
   5   0  -8    3.92    0.18
  -5   0   8    3.58    0.16
  -5   0   8    3.50    0.16
   4   0  -8   12.88    0.61
   4   0  -8   12.83    0.46
   4   0  -8   12.19    0.51
   4   0  -8   12.18    0.44
   4   0  -8   13.05    0.43
   4   0  -8   11.91    0.67
   4   0  -8   13.08    0.46
   4   0  -8   11.66    0.58
   4   0  -8   12.98    0.48
   4   0  -8   12.56    0.43
   4   0  -8   12.93    0.45
  -4   0   8   12.63    0.58
  -4   0   8   11.64    0.50
   3   0  -8   11.02    0.65
   3   0  -8   10.92    0.54
   3   0  -8   10.48    0.54
   3   0  -8   11.87    0.46
   3   0  -8   11.05    0.56
   3   0  -8   10.67    0.55
   3   0  -8   11.26    0.70
  -3   0   8   11.00    0.77
  -3   0   8   10.61    0.44
  -3   0   8   10.70    0.57
   2   0  -8   25.57    0.96
   2   0  -8   24.64    0.86
   2   0  -8   25.33    1.04
   2   0  -8   24.45    1.06
   2   0  -8   24.80    0.96
   2   0  -8   26.22    0.96
   2   0  -8   24.77    0.95
  -2   0   8   23.52    0.88
  -2   0   8   23.64    0.79
  -2   0   8   22.08    1.08
   1   0  -8   18.38    0.77
   1   0  -8   17.70    0.72
   1   0  -8   17.61    0.70
   1   0  -8   17.35    1.01
   1   0  -8   17.23    0.85
   1   0  -8   18.08    0.70
   1   0  -8   18.01    0.69
   1   0  -8   17.59    0.69
   1   0  -8   14.76    1.07
  -1   0   8   15.97    0.78
  -1   0   8   14.54    0.55
  -1   0   8   15.97    0.84
   0   0  -8   55.89    1.90
   0   0  -8   52.88    1.80
   0   0  -8   52.48    1.82
   0   0  -8   52.87    1.92
   0   0  -8   53.33    1.96
   0   0  -8   55.86    1.98
   0   0  -8   56.36    1.83
   0   0  -8   51.83    2.02
   0   0  -8   54.81    2.16
   0   0  -8   49.49    1.77
   0   0  -8   54.67    1.80
   0   0  -8   55.10    1.88
   0   0   8   50.97    1.90
   0   0   8   48.36    1.53
   0   0   8   46.92    2.08
   0   0   8   42.64    1.68
  -1   0  -8   52.31    1.97
  -1   0  -8   59.53    2.04
  -1   0  -8   56.02    1.93
  -1   0  -8   55.12    1.88
  -1   0  -8   58.08    2.02
  -1   0  -8   55.15    2.04
  -1   0  -8   58.64    1.93
  -1   0  -8   50.21    2.08
  -1   0  -8   57.24    1.93
  -1   0  -8   56.50    1.96
  -1   0  -8   58.42    1.87
   1   0   8   52.44    2.51
   1   0   8   56.62    2.02
   1   0   8   50.55    1.97
   1   0   8   55.70    1.95
   1   0   8   53.99    2.18
   1   0   8   57.31    1.80
  -2   0  -8   12.19    0.65
  -2   0  -8   10.28    0.66
  -2   0  -8   11.60    0.48
  -2   0  -8   11.09    0.57
  -2   0  -8   10.35    0.50
  -2   0  -8   10.92    0.63
  -2   0  -8   11.49    0.64
  -2   0  -8   11.00    0.51
  -2   0  -8   11.52    0.62
  -2   0  -8   11.23    0.43
  -2   0  -8   11.55    0.56
  -2   0  -8   11.39    0.49
   2   0   8   10.74    0.64
   2   0   8   10.70    0.42
   2   0   8   11.70    0.73
   2   0   8   10.89    0.50
  -3   0  -8   16.03    0.86
  -3   0  -8   17.28    0.67
  -3   0  -8   15.80    0.85
  -3   0  -8   17.28    0.64
  -3   0  -8   16.77    0.68
  -3   0  -8   16.29    0.70
  -3   0  -8   16.43    0.76
  -3   0  -8   16.88    0.90
  -3   0  -8   16.73    0.58
  -3   0  -8   14.77    0.87
   3   0   8   15.52    0.67
   3   0   8   15.14    0.57
   3   0   8   14.30    0.91
   3   0   8   15.39    0.72
   3   0   8   13.38    0.79
  -4   0  -8   20.01    0.65
  -4   0  -8   20.28    0.64
  -4   0  -8   17.93    0.72
  -4   0  -8   19.29    0.67
  -4   0  -8   19.95    0.76
  -4   0  -8   20.22    0.67
  -4   0  -8   19.77    0.69
  -4   0  -8   18.49    0.78
   4   0   8   17.45    0.75
   4   0   8   17.85    0.67
   4   0   8   18.78    0.79
  -5   0  -8    1.74    0.12
  -5   0  -8    1.60    0.10
  -5   0  -8    1.63    0.10
   5   0   8    1.40    0.10
   5  -1  -8    2.36    0.12
   5  -1  -8    2.42    0.14
   5  -1  -8    2.30    0.11
  -5   1   8    2.03    0.12
   4  -1  -8    4.14    0.24
   4  -1  -8    4.12    0.16
   4  -1  -8    4.76    0.36
   4  -1  -8    4.11    0.20
   4  -1  -8    4.00    0.18
   4  -1  -8    3.76    0.33
   4  -1  -8    4.21    0.22
   4  -1  -8    4.24    0.19
   4  -1  -8    3.95    0.20
   4  -1  -8    3.69    0.30
  -4   1   8    4.22    0.26
  -4   1   8    4.39    0.33
   3  -1  -8    1.65    0.11
   3  -1  -8    2.13    0.38
   3  -1  -8    1.96    0.25
   3  -1  -8    1.84    0.17
   3  -1  -8    1.19    0.30
   3  -1  -8    1.71    0.17
   3  -1  -8    1.47    0.25
   3  -1  -8    1.80    0.10
   3  -1  -8    2.10    0.29
   3  -1  -8    2.11    0.18
   3  -1  -8    1.57    0.12
  -3   1   8    1.98    0.27
  -3   1   8    1.67    0.36
  -3   1   8    1.70    0.17
   2  -1  -8    7.83    0.47
   2  -1  -8    7.32    0.40
   2  -1  -8    6.91    0.48
   2  -1  -8    7.28    0.41
   2  -1  -8    7.08    0.40
   2  -1  -8    7.56    0.41
  -2   1   8    7.67    0.38
  -2   1   8    6.94    0.54
   1  -1  -8    4.47    0.29
   1  -1  -8    4.86    0.37
   1  -1  -8    4.80    0.28
   1  -1  -8    4.52    0.30
   1  -1  -8    5.07    0.43
   1  -1  -8    4.50    0.29
   1  -1  -8    4.00    0.27
  -1   1   8    4.29    0.20
   0  -1  -8   17.59    0.66
   0  -1  -8   17.32    0.71
   0  -1  -8   19.56    0.87
   0  -1  -8   17.48    0.69
   0  -1  -8   18.19    0.77
   0  -1  -8   18.10    0.78
   0  -1  -8   19.03    0.72
   0  -1  -8   18.74    0.81
   0  -1  -8   17.60    0.75
   0   1   8   16.33    1.05
   0   1   8   16.37    0.68
   0   1   8   18.20    0.92
  -1  -1  -8    2.87    0.21
  -1  -1  -8    2.92    0.37
  -1  -1  -8    2.51    0.27
  -1  -1  -8    2.57    0.23
  -1  -1  -8    2.57    0.24
  -1  -1  -8    2.23    0.33
  -1  -1  -8    2.87    0.30
  -1  -1  -8    3.17    0.33
  -1  -1  -8    2.77    0.20
  -1  -1  -8    2.89    0.23
  -1  -1  -8    2.65    0.22
  -1  -1  -8    2.34    0.30
   1   1   8    2.31    0.31
   1   1   8    2.84    0.38
   1   1   8    2.70    0.18
  -2  -1  -8    7.94    0.41
  -2  -1  -8    7.73    0.49
  -2  -1  -8    8.75    0.40
  -2  -1  -8    7.89    0.46
  -2  -1  -8    8.46    0.54
  -2  -1  -8    7.79    0.41
  -2  -1  -8    7.05    0.52
  -2  -1  -8    7.14    0.38
  -2  -1  -8    7.12    0.55
  -2  -1  -8    7.10    0.32
  -2  -1  -8    8.52    0.56
   2   1   8    7.51    0.39
   2   1   8    7.68    0.32
   2   1   8    8.16    0.64
   2   1   8    6.62    0.52
  -3  -1  -8   27.14    0.99
  -3  -1  -8   26.47    1.08
  -3  -1  -8   26.06    0.95
  -3  -1  -8   27.16    0.89
  -3  -1  -8   27.07    0.92
  -3  -1  -8   26.90    0.87
  -3  -1  -8   27.00    1.00
  -3  -1  -8   26.43    0.86
  -3  -1  -8   26.68    0.95
  -3  -1  -8   27.71    1.04
  -3  -1  -8   27.40    0.88
   3   1   8   27.29    0.96
  -4  -1  -8    3.61    0.16
  -4  -1  -8    3.63    0.15
  -4  -1  -8    3.52    0.22
  -4  -1  -8    3.51    0.28
  -4  -1  -8    3.50    0.24
  -4  -1  -8    3.72    0.22
  -4  -1  -8    2.94    0.31
  -4  -1  -8    3.61    0.26
  -4  -1  -8    3.51    0.18
   4   1   8    3.29    0.23
   4   1   8    3.42    0.33
   4  -2  -8    2.56    0.18
   4  -2  -8    2.68    0.12
   4  -2  -8    2.57    0.29
   4  -2  -8    2.96    0.17
   4  -2  -8    2.67    0.14
   4  -2  -8    2.68    0.13
   4  -2  -8    2.59    0.29
   4  -2  -8    2.58    0.27
   4  -2  -8    2.54    0.19
   4  -2  -8    2.66    0.16
  -4   2   8    2.57    0.26
  -4   2   8    2.14    0.20
   3  -2  -8    5.42    0.37
   3  -2  -8    4.51    0.19
   3  -2  -8    4.54    0.23
   3  -2  -8    4.70    0.18
   3  -2  -8    5.06    0.23
   3  -2  -8    5.17    0.26
   3  -2  -8    4.78    0.20
   3  -2  -8    4.82    0.37
   3  -2  -8    4.68    0.35
   3  -2  -8    4.59    0.24
  -3   2   8    4.44    0.33
  -3   2   8    4.76    0.26
   2  -2  -8   12.39    0.58
   2  -2  -8   11.83    0.56
   2  -2  -8   12.20    0.62
   2  -2  -8   11.71    0.56
   2  -2  -8   11.80    0.64
   2  -2  -8   12.41    0.56
  -2   2   8   10.94    0.70
  -2   2   8   11.84    0.51
   1  -2  -8   21.82    1.01
   1  -2  -8   22.64    0.84
   1  -2  -8   22.32    0.86
   1  -2  -8   20.56    0.83
   1  -2  -8   22.22    0.84
   1  -2  -8   23.61    0.92
   0  -2  -8    6.91    0.67
   0  -2  -8    6.95    0.49
  -1  -2  -8   14.99    0.75
  -1  -2  -8   15.11    0.60
  -1  -2  -8   15.45    0.60
  -1  -2  -8   16.54    0.76
  -1  -2  -8   15.28    0.67
  -1  -2  -8   16.11    0.74
  -1  -2  -8   15.75    0.62
  -1  -2  -8   15.06    0.62
   1   2   8   15.86    0.58
  -2  -2  -8   18.72    0.86
  -2  -2  -8   19.03    0.75
  -2  -2  -8   19.55    0.93
  -2  -2  -8   18.16    0.91
  -2  -2  -8   19.56    0.77
  -2  -2  -8   20.42    0.75
  -2  -2  -8   19.10    0.93
  -2  -2  -8   19.52    0.84
   2   2   8   18.12    0.72
   2   2   8   17.45    0.98
  -3  -2  -8   23.99    0.87
  -3  -2  -8   24.10    0.92
  -3  -2  -8   24.10    0.84
  -3  -2  -8   24.94    1.01
  -3  -2  -8   24.76    0.92
  -3  -2  -8   23.23    0.80
  -3  -2  -8   24.17    0.79
  -3  -2  -8   24.29    0.79
  -3  -2  -8   25.32    0.96
  -3  -2  -8   24.14    0.87
   3   2   8   23.62    0.84
  -4  -2  -8   10.87    0.37
  -4  -2  -8   10.53    0.36
  -4  -2  -8   10.61    0.41
  -4  -2  -8   11.68    0.54
  -4  -2  -8    9.91    0.51
  -4  -2  -8   10.09    0.43
   4   2   8   10.45    0.43
   4   2   8   10.12    0.51
   4  -3  -8   11.15    0.38
   4  -3  -8   11.25    0.39
   4  -3  -8   11.97    0.42
   4  -3  -8   11.54    0.41
   4  -3  -8   10.87    0.39
   4  -3  -8   11.02    0.41
   3  -3  -8   27.12    0.88
   3  -3  -8   29.68    1.06
   3  -3  -8   27.10    0.92
   3  -3  -8   26.57    0.91
   3  -3  -8   26.80    0.87
   3  -3  -8   26.34    1.03
   3  -3  -8   25.86    0.90
   3  -3  -8   26.83    0.87
   3  -3  -8   27.66    1.08
   3  -3  -8   25.77    0.94
  -3   3   8   26.46    0.91
  -3   3   8   25.10    0.99
   2  -3  -8    1.36    0.22
   2  -3  -8    1.27    0.23
   2  -3  -8    0.84    0.18
  -2   3   8    1.20    0.17
   1  -3  -8   58.78    2.03
   1  -3  -8   60.04    2.01
  -1  -3  -8    4.24    0.33
  -1  -3  -8    4.19    0.27
  -1  -3  -8    4.42    0.27
  -1  -3  -8    3.90    0.38
  -1  -3  -8    5.06    0.31
  -1  -3  -8    4.35    0.40
  -1  -3  -8    4.62    0.41
  -1  -3  -8    4.01    0.27
  -1  -3  -8    4.58    0.48
   1   3   8    4.51    0.24
  -2  -3  -8    1.18    0.25
  -2  -3  -8    0.74    0.19
  -2  -3  -8    0.77    0.25
  -2  -3  -8    0.91    0.19
  -2  -3  -8    0.95    0.16
  -2  -3  -8    0.77    0.24
  -2  -3  -8    0.90    0.17
   2   3   8    0.79    0.16
   2   3   8    1.09    0.38
  -3  -3  -8    6.48    0.33
  -3  -3  -8    6.92    0.25
  -3  -3  -8    6.51    0.26
  -3  -3  -8    6.97    0.32
  -3  -3  -8    7.03    0.33
  -3  -3  -8    6.83    0.25
  -3  -3  -8    7.49    0.39
  -3  -3  -8    7.23    0.39
  -3  -3  -8    7.03    0.42
   3   3   8    6.34    0.31
  -4  -3  -8    1.23    0.09
  -4  -3  -8    1.17    0.10
  -4  -3  -8    1.02    0.15
  -4  -3  -8    1.17    0.08
  -4  -3  -8    1.26    0.14
   4  -4  -8    4.81    0.21
   4  -4  -8    4.81    0.21
   4  -4  -8    4.89    0.18
   4  -4  -8    4.55    0.17
   4  -4  -8    4.77    0.18
   3  -4  -8   20.41    0.65
   3  -4  -8   19.55    0.69
   3  -4  -8   19.88    0.65
   3  -4  -8   19.18    0.65
   3  -4  -8   20.16    0.69
   3  -4  -8   20.52    0.85
   3  -4  -8   19.74    0.72
   3  -4  -8   20.32    0.83
  -3   4   8   20.26    0.74
   2  -4  -8   30.92    1.07
   2  -4  -8   31.44    1.02
   2  -4  -8   31.34    1.03
   2  -4  -8   32.77    1.07
   2  -4  -8   34.23    1.20
   2  -4  -8   32.69    1.22
  -2   4   8   29.54    1.07
   1  -4  -8    0.56    0.22
   1  -4  -8    0.65    0.26
  -1  -4  -8    9.81    0.67
  -1  -4  -8    9.61    0.43
  -1  -4  -8    8.24    0.56
  -1  -4  -8    9.81    0.46
  -2  -4  -8    3.11    0.14
  -2  -4  -8    3.33    0.28
  -2  -4  -8    3.84    0.32
  -2  -4  -8    3.67    0.28
  -2  -4  -8    3.33    0.34
  -2  -4  -8    3.26    0.23
  -2  -4  -8    3.44    0.14
  -2  -4  -8    3.59    0.22
  -3  -4  -8    3.73    0.32
  -3  -4  -8    3.55    0.29
  -3  -4  -8    3.15    0.23
  -3  -4  -8    3.17    0.34
  -3  -4  -8    3.57    0.15
  -3  -4  -8    3.55    0.21
  -3  -4  -8    3.66    0.15
  -3  -4  -8    3.55    0.22
  -3  -4  -8    3.67    0.15
  -3  -4  -8    3.27    0.27
   3   4   8    3.39    0.23
  -4  -4  -8    4.70    0.17
  -4  -4  -8    4.59    0.23
  -4  -4  -8    3.88    0.21
  -4  -4  -8    4.40    0.16
  -4  -4  -8    4.18    0.17
   4  -5  -8    1.69    0.09
   4  -5  -8    1.65    0.11
   4  -5  -8    1.83    0.08
   4  -5  -8    1.79    0.08
   4  -5  -8    1.50    0.11
   3  -5  -8   39.32    1.20
   3  -5  -8   36.51    1.37
   3  -5  -8   38.17    1.23
   3  -5  -8   37.11    1.19
   3  -5  -8   35.85    1.26
   3  -5  -8   37.78    1.24
   3  -5  -8   38.74    1.19
   3  -5  -8   36.25    1.35
  -3   5   8   36.01    1.22
   2  -5  -8    0.12    0.08
   2  -5  -8    0.16    0.04
   2  -5  -8    0.30    0.09
   2  -5  -8    0.13    0.16
   2  -5  -8    0.16    0.04
   2  -5  -8    0.15    0.14
  -1  -5  -8    0.41    0.13
  -1  -5  -8    0.47    0.15
  -1  -5  -8    0.60    0.12
  -1  -5  -8    0.57    0.31
  -1  -5  -8    0.44    0.05
  -2  -5  -8    3.12    0.27
  -2  -5  -8    3.04    0.33
  -2  -5  -8    2.82    0.20
  -2  -5  -8    3.49    0.22
  -2  -5  -8    2.94    0.12
  -2  -5  -8    3.39    0.27
  -2  -5  -8    2.91    0.13
  -2  -5  -8    3.37    0.32
  -3  -5  -8    5.53    0.29
  -3  -5  -8    5.30    0.32
  -3  -5  -8    5.83    0.28
  -3  -5  -8    5.29    0.36
  -3  -5  -8    5.93    0.21
  -3  -5  -8    5.56    0.26
  -3  -5  -8    5.70    0.21
  -3  -5  -8    5.89    0.32
  -3  -5  -8    5.80    0.21
   3   5   8    5.22    0.27
  -4  -5  -8    9.39    0.32
  -4  -5  -8    9.67    0.32
  -4  -5  -8   10.79    0.37
  -4  -5  -8    9.60    0.33
  -4  -5  -8    9.90    0.36
   3  -6  -8    0.39    0.08
   3  -6  -8    0.36    0.04
   3  -6  -8    0.44    0.08
   3  -6  -8    0.47    0.05
   2  -6  -8    0.97    0.19
   2  -6  -8    1.16    0.07
   2  -6  -8    1.18    0.21
   2  -6  -8    1.14    0.13
   2  -6  -8    0.96    0.12
   1  -6  -8   15.35    0.50
  -1  -6  -8    3.10    0.27
  -1  -6  -8    3.74    0.22
  -1  -6  -8    3.72    0.14
  -1  -6  -8    3.97    0.32
  -2  -6  -8   12.94    0.57
  -2  -6  -8   11.72    0.46
  -2  -6  -8   12.64    0.40
  -2  -6  -8   11.04    0.52
  -2  -6  -8   12.58    0.40
  -3  -6  -8    0.23    0.03
  -3  -6  -8    0.23    0.04
  -3  -6  -8    0.16    0.09
  -3  -6  -8    0.22    0.08
  -3  -6  -8    0.16    0.04
   3  -7  -8    9.11    0.33
   3  -7  -8    9.30    0.33
   3  -7  -8    9.21    0.30
   3  -7  -8    9.04    0.30
   2  -7  -8    2.45    0.15
   2  -7  -8    2.01    0.15
   2  -7  -8    2.46    0.10
   2  -7  -8    2.51    0.10
   1  -7  -8   21.42    0.68
   1  -7  -8   21.36    0.73
  -1  -7  -8    6.82    0.23
  -1  -7  -8    6.73    0.40
  -1  -7  -8    6.19    0.36
  -1  -7  -8    7.06    0.30
  -2  -7  -8    8.16    0.27
  -2  -7  -8    7.95    0.27
  -2  -7  -8    8.22    0.33
  -3  -7  -8    6.30    0.25
  -3  -7  -8    6.24    0.21
  -3  -7  -8    6.19    0.25
  -3  -7  -8    6.35    0.21
   2  -8  -8    8.36    0.27
   2  -8  -8    8.14    0.30
   2  -8  -8    7.90    0.27
   1  -8  -8    1.89    0.13
  -1  -8  -8    1.32    0.14
  -1  -8  -8    1.09    0.06
  -2  -8  -8    0.96    0.06
  -2  -8  -8    0.93    0.12
  -2  -8  -8    0.99    0.05
   1  -9  -8    0.60    0.04
   1  -9  -8    0.47    0.07
   0  -9  -8    0.26    0.08
  -1  -9  -8    5.91    0.19
  -1  -9  -8    5.25    0.22
   0  12  -9    4.89    0.18
   0 -12   9    4.94    0.21
   2  11  -9    0.26    0.07
  -2 -11   9    0.43    0.06
   1  11  -9   17.74    0.59
  -1 -11   9   17.74    0.60
  -1 -11   9   17.27    0.60
   0  11  -9    2.60    0.16
   0 -11   9    2.78    0.18
   0 -11   9    2.47    0.16
  -1  11  -9    2.62    0.15
   1 -11   9    2.32    0.16
   1 -11   9    2.45    0.17
  -2  11  -9    8.90    0.32
   2 -11   9    7.98    0.30
   2 -11   9    8.58    0.29
   2  10  -9    7.77    0.31
   2  10  -9    7.36    0.27
  -2 -10   9    7.06    0.29
   1  10  -9    7.97    0.31
   1  10  -9    7.99    0.45
   1  10  -9    7.79    0.33
  -1 -10   9    8.57    0.49
  -1 -10   9    7.93    0.33
  -1 -10   9    6.53    0.53
  -1 -10   9    7.69    0.26
  -1 -10   9    7.31    0.31
   0  10  -9   16.41    0.72
   0  10  -9   17.05    0.59
   0 -10   9   16.70    0.59
   0 -10   9   16.24    0.74
   0 -10   9   16.37    0.54
   0 -10   9   16.66    0.60
  -1  10  -9    0.81    0.10
  -1  10  -9    0.94    0.19
   1 -10   9    0.57    0.12
   1 -10   9    0.67    0.08
   1 -10   9    0.65    0.11
   1 -10   9    0.85    0.28
  -2  10  -9    1.69    0.15
  -2  10  -9    1.70    0.12
   2 -10   9    1.61    0.17
   2 -10   9    1.63    0.13
   3   9  -9   10.08    0.38
  -3  -9   9    8.99    0.35
   2   9  -9    2.54    0.15
   2   9  -9    2.92    0.19
   2   9  -9    3.24    0.30
  -2  -9   9    2.83    0.15
  -2  -9   9    2.86    0.21
  -2  -9   9    2.84    0.18
  -2  -9   9    2.62    0.25
   1   9  -9    1.02    0.22
   1   9  -9    1.20    0.25
   1   9  -9    1.15    0.15
   1   9  -9    0.84    0.13
  -1  -9   9    1.16    0.23
  -1  -9   9    0.99    0.15
  -1  -9   9    0.89    0.13
  -1  -9   9    0.90    0.16
   0   9  -9    4.43    0.22
   0   9  -9    4.12    0.35
   0  -9   9    4.22    0.23
   0  -9   9    3.80    0.20
   0  -9   9    5.12    0.39
  -1   9  -9    8.41    0.34
  -1   9  -9    8.66    0.47
   1  -9   9    8.82    0.33
   1  -9   9    8.47    0.51
   1  -9   9    8.80    0.36
  -2   9  -9    2.44    0.17
  -2   9  -9    2.37    0.16
  -2   9  -9    2.24    0.27
   2  -9   9    1.85    0.26
   2  -9   9    2.15    0.22
   2  -9   9    2.21    0.13
   2  -9   9    2.21    0.16
  -3   9  -9    0.26    0.09
   3  -9   9    0.33    0.09
   3   8  -9    0.46    0.09
  -3  -8   9    0.41    0.16
  -3  -8   9    0.50    0.07
   2   8  -9    6.77    0.26
   2   8  -9    7.02    0.44
   2   8  -9    7.26    0.43
   2   8  -9    7.24    0.32
   2   8  -9    7.11    0.27
  -2  -8   9    7.14    0.28
  -2  -8   9    6.36    0.42
  -2  -8   9    6.92    0.39
   1   8  -9    2.01    0.18
   1   8  -9    1.86    0.16
   1   8  -9    2.50    0.30
   1   8  -9    2.04    0.28
   1   8  -9    1.92    0.14
  -1  -8   9    2.07    0.17
  -1  -8   9    2.37    0.25
  -1  -8   9    1.86    0.30
   0   8  -9   15.84    0.69
   0   8  -9   16.08    0.69
   0   8  -9   15.35    0.53
   0   8  -9   15.73    0.54
   0   8  -9   14.04    0.56
   0  -8   9   15.93    0.56
   0  -8   9   15.72    0.72
   0  -8   9   15.71    0.65
   0  -8   9   15.53    0.57
  -1   8  -9   19.87    0.80
  -1   8  -9   19.43    0.66
  -1   8  -9   18.46    0.64
   1  -8   9   18.61    0.62
   1  -8   9   18.45    0.64
   1  -8   9   16.65    0.78
  -2   8  -9   12.87    0.47
  -2   8  -9   13.14    0.45
  -2   8  -9   12.99    0.58
  -2   8  -9   13.83    0.50
   2  -8   9   12.69    0.46
   2  -8   9   12.81    0.57
  -3   8  -9    0.30    0.10
   3  -8   9    0.44    0.12
   3  -8   9    0.34    0.06
   4   7  -9    2.69    0.15
   4   7  -9    2.38    0.19
  -4  -7   9    2.59    0.11
  -4  -7   9    2.74    0.17
   3   7  -9    6.07    0.38
   3   7  -9    6.09    0.23
   3   7  -9    6.33    0.28
   3   7  -9    6.05    0.28
  -3  -7   9    5.80    0.34
  -3  -7   9    5.90    0.25
   2   7  -9    9.04    0.50
   2   7  -9    8.93    0.38
   2   7  -9    8.79    0.35
   2   7  -9    8.88    0.34
   2   7  -9    8.75    0.32
   2   7  -9    9.83    0.50
  -2  -7   9    8.69    0.44
  -2  -7   9    7.91    0.48
  -2  -7   9    8.50    0.33
   1   7  -9    1.16    0.21
   1   7  -9    1.03    0.27
   1   7  -9    1.13    0.24
  -1  -7   9    1.59    0.23
  -1  -7   9    1.43    0.31
  -1  -7   9    1.29    0.27
   0   7  -9   -0.16    0.15
   0   7  -9    0.01    0.16
   0   7  -9    0.07    0.16
   0  -7   9    0.10    0.13
   0  -7   9   -0.06    0.16
   0  -7   9   -0.10    0.18
  -1   7  -9    7.97    0.45
  -1   7  -9    8.14    0.37
   1  -7   9    8.38    0.47
  -2   7  -9    3.22    0.17
  -2   7  -9    3.31    0.18
  -2   7  -9    3.45    0.29
  -2   7  -9    3.17    0.21
   2  -7   9    3.37    0.32
   2  -7   9    3.18    0.20
  -3   7  -9   14.78    0.55
  -3   7  -9   14.03    0.62
  -3   7  -9   15.76    0.58
   3  -7   9   12.78    0.45
   3  -7   9   12.41    0.56
  -4   7  -9    2.47    0.17
  -4   7  -9    2.53    0.15
   4   6  -9    7.02    0.28
  -4  -6   9    6.89    0.26
   3   6  -9    6.39    0.28
   3   6  -9    5.71    0.28
   3   6  -9    6.27    0.38
   3   6  -9    6.02    0.25
  -3  -6   9    5.66    0.35
  -3  -6   9    5.70    0.25
   2   6  -9   14.85    0.50
   2   6  -9   14.81    0.68
   2   6  -9   15.05    0.53
   2   6  -9   15.19    0.57
   2   6  -9   15.49    0.55
   2   6  -9   15.13    0.55
   2   6  -9   15.99    0.69
  -2  -6   9   14.38    0.67
  -2  -6   9   14.04    0.61
  -2  -6   9   13.59    0.93
   1   6  -9   10.09    0.51
   1   6  -9   10.28    0.51
   1   6  -9    9.38    0.42
   1   6  -9    9.69    0.58
  -1  -6   9    9.37    0.45
  -1  -6   9    8.81    0.39
  -1  -6   9    8.88    0.64
  -1  -6   9    9.49    0.52
   0   6  -9    5.24    0.42
   0   6  -9    4.88    0.34
   0   6  -9    4.90    0.35
   0   6  -9    5.27    0.28
   0  -6   9    4.37    0.29
   0  -6   9    3.92    0.24
   0  -6   9    4.53    0.34
   0  -6   9    4.68    0.44
  -1   6  -9    7.60    0.37
  -1   6  -9    7.44    0.50
  -1   6  -9    7.53    0.42
  -1   6  -9    7.52    0.42
   1  -6   9    6.96    0.42
   1  -6   9    7.40    0.35
   1  -6   9    7.25    0.55
  -2   6  -9   24.49    0.94
  -2   6  -9   23.96    0.93
  -2   6  -9   24.03    0.79
  -2   6  -9   24.33    0.86
  -2   6  -9   24.78    0.82
   2  -6   9   24.38    1.00
   2  -6   9   30.51    1.34
  -3   6  -9   15.50    0.55
  -3   6  -9   16.54    0.59
  -3   6  -9   16.52    0.60
  -3   6  -9   15.79    0.59
  -3   6  -9   15.56    0.68
  -3   6  -9   16.51    0.68
   3  -6   9   15.24    0.73
   3  -6   9   14.98    0.67
   3  -6   9   16.07    0.55
  -4   6  -9   13.96    0.50
  -4   6  -9   13.95    0.50
   4  -6   9   12.07    0.46
   4  -6   9   13.26    0.43
   4   5  -9    1.30    0.10
   4   5  -9    0.96    0.12
  -4  -5   9    1.06    0.12
   3   5  -9    7.40    0.42
   3   5  -9    7.62    0.36
   3   5  -9    6.50    0.42
   3   5  -9    6.58    0.30
   3   5  -9    7.06    0.31
   3   5  -9    7.55    0.29
  -3  -5   9    6.71    0.42
  -3  -5   9    5.60    0.34
   2   5  -9   13.19    0.52
   2   5  -9   13.18    0.69
   2   5  -9   12.84    0.59
   2   5  -9   11.88    0.59
  -2  -5   9   11.01    0.70
  -2  -5   9   11.43    0.52
  -2  -5   9   11.88    0.58
  -2  -5   9   11.69    0.48
   1   5  -9    2.70    0.28
   1   5  -9    2.62    0.32
   1   5  -9    2.72    0.20
   1   5  -9    2.93    0.27
  -1  -5   9    2.51    0.25
  -1  -5   9    2.19    0.19
  -1  -5   9    2.98    0.29
  -1  -5   9    2.82    0.40
   0   5  -9   10.22    0.41
   0   5  -9    8.72    0.60
   0   5  -9    9.09    0.48
   0   5  -9    9.73    0.46
   0   5  -9    9.74    0.62
   0   5  -9   10.27    0.49
   0   5  -9   10.44    0.58
   0   5  -9    9.85    0.49
   0  -5   9    9.33    0.47
   0  -5   9    9.09    0.59
   0  -5   9    9.35    0.39
   0  -5   9    9.00    0.47
  -1   5  -9   28.05    1.01
  -1   5  -9   26.13    1.18
  -1   5  -9   25.38    1.11
  -1   5  -9   26.18    0.98
  -1   5  -9   27.40    1.04
  -1   5  -9   28.10    0.95
  -1   5  -9   26.52    1.05
   1  -5   9   24.34    1.08
   1  -5   9   25.55    1.10
   1  -5   9   23.96    0.97
   1  -5   9   25.92    0.87
  -2   5  -9   10.44    0.67
  -2   5  -9   11.18    0.45
  -2   5  -9    9.84    0.70
  -2   5  -9   10.58    0.50
  -2   5  -9   11.09    0.53
   2  -5   9   10.08    0.49
   2  -5   9    9.69    0.66
   2  -5   9    9.70    0.57
   2  -5   9   10.04    0.41
   2  -5   9    9.21    0.68
  -3   5  -9    7.45    0.42
  -3   5  -9    7.44    0.35
  -3   5  -9    7.28    0.43
  -3   5  -9    7.13    0.35
  -3   5  -9    8.15    0.30
  -3   5  -9    7.30    0.33
   3  -5   9    6.96    0.49
   3  -5   9    7.18    0.42
  -4   5  -9    6.62    0.29
  -4   5  -9    7.18    0.25
  -4   5  -9    6.70    0.29
   4  -5   9    5.82    0.24
   4  -5   9    5.91    0.27
   4   4  -9    3.06    0.17
   4   4  -9    3.19    0.16
  -4  -4   9    2.60    0.16
   3   4  -9    6.35    0.48
   3   4  -9    5.91    0.26
   3   4  -9    6.33    0.27
   3   4  -9    5.68    0.26
   3   4  -9    6.28    0.41
  -3  -4   9    5.20    0.29
  -3  -4   9    5.24    0.36
   2   4  -9    5.04    0.34
   2   4  -9    4.43    0.34
   2   4  -9    4.56    0.42
   2   4  -9    4.87    0.33
   2   4  -9    4.30    0.32
   2   4  -9    4.61    0.45
   2   4  -9    4.94    0.40
   2   4  -9    4.53    0.26
  -2  -4   9    3.86    0.36
  -2  -4   9    4.49    0.46
  -2  -4   9    4.22    0.25
  -2  -4   9    4.70    0.31
  -2  -4   9    4.19    0.50
   1   4  -9   16.64    0.70
   1   4  -9   16.38    0.82
   1   4  -9   16.43    0.70
   1   4  -9   17.36    0.61
   1   4  -9   16.44    0.68
   1   4  -9   18.30    0.80
   1   4  -9   15.07    0.82
   1   4  -9   16.15    0.76
   1   4  -9   15.77    0.67
  -1  -4   9   15.20    0.60
  -1  -4   9   15.59    0.78
  -1  -4   9   14.73    0.64
  -1  -4   9   14.27    0.65
  -1  -4   9   15.49    0.56
   0   4  -9   26.38    0.96
   0   4  -9   24.52    0.93
   0   4  -9   24.52    1.10
   0   4  -9   25.09    0.91
   0   4  -9   25.01    0.86
   0   4  -9   22.85    1.06
   0   4  -9   24.27    1.02
   0   4  -9   24.93    0.95
   0   4  -9   23.23    0.91
   0   4  -9   25.52    1.03
   0  -4   9   24.42    0.92
   0  -4   9   23.72    0.92
   0  -4   9   23.82    0.83
   0  -4   9   24.31    1.05
  -1   4  -9    4.73    0.33
  -1   4  -9    4.96    0.25
  -1   4  -9    4.19    0.27
  -1   4  -9    3.81    0.30
  -1   4  -9    4.63    0.39
  -1   4  -9    4.08    0.44
  -1   4  -9    4.91    0.36
   1  -4   9    4.00    0.38
   1  -4   9    4.09    0.42
   1  -4   9    3.91    0.29
   1  -4   9    4.06    0.22
  -2   4  -9    0.04    0.11
  -2   4  -9    0.08    0.17
  -2   4  -9    0.12    0.16
  -2   4  -9    0.02    0.11
  -2   4  -9    0.04    0.09
  -2   4  -9    0.08    0.18
  -2   4  -9    0.02    0.15
  -2   4  -9   -0.15    0.22
   2  -4   9    0.22    0.20
   2  -4   9   -0.08    0.15
   2  -4   9   -0.03    0.25
   2  -4   9    0.09    0.15
   2  -4   9    0.31    0.22
   2  -4   9    0.03    0.09
  -3   4  -9    6.18    0.32
  -3   4  -9    5.56    0.38
  -3   4  -9    5.92    0.27
  -3   4  -9    6.28    0.38
  -3   4  -9    5.84    0.30
  -3   4  -9    6.07    0.29
   3  -4   9    5.43    0.39
   3  -4   9    5.61    0.47
  -4   4  -9    2.14    0.17
  -4   4  -9    2.45    0.14
  -4   4  -9    2.15    0.17
   4  -4   9    1.70    0.14
   4   3  -9    1.19    0.14
   4   3  -9    1.29    0.12
   4   3  -9    1.08    0.32
   4   3  -9    1.23    0.12
  -4  -3   9    1.58    0.24
   3   3  -9    2.05    0.15
   3   3  -9    2.03    0.11
   3   3  -9    2.09    0.26
   3   3  -9    2.29    0.30
   3   3  -9    1.85    0.28
   3   3  -9    2.18    0.29
   3   3  -9    2.07    0.16
   3   3  -9    2.30    0.15
   3   3  -9    2.08    0.17
   3   3  -9    2.08    0.19
  -3  -3   9    1.99    0.20
   2   3  -9   34.99    1.28
   2   3  -9   36.47    1.28
   2   3  -9   34.87    1.36
   2   3  -9   34.51    1.27
   2   3  -9   33.95    1.18
   2   3  -9   33.22    1.43
   2   3  -9   35.26    1.27
   2   3  -9   31.91    1.34
   2   3  -9   36.08    1.27
  -2  -3   9   31.81    1.22
  -2  -3   9   30.91    1.40
  -2  -3   9   31.97    1.13
  -2  -3   9   33.37    1.09
  -2  -3   9   30.18    1.31
   1   3  -9   13.06    0.58
   1   3  -9   13.35    0.57
   1   3  -9   12.44    0.73
   1   3  -9   12.66    0.48
   1   3  -9   12.72    0.67
   1   3  -9   12.41    0.64
   1   3  -9   12.85    0.56
   1   3  -9   12.67    0.56
   1   3  -9   12.46    0.57
   1   3  -9   13.01    0.65
  -1  -3   9   11.79    0.53
  -1  -3   9   11.00    0.44
  -1  -3   9   12.80    0.67
  -1  -3   9   11.42    0.49
   0   3  -9    8.97    0.53
   0   3  -9   10.22    0.46
   0   3  -9    8.37    0.57
   0   3  -9    8.97    0.43
   0   3  -9    9.54    0.52
   0   3  -9    9.13    0.41
   0   3  -9    8.97    0.36
   0   3  -9    8.86    0.45
   0   3  -9    8.58    0.52
   0   3  -9    9.22    0.46
   0  -3   9    8.23    0.33
   0  -3   9    8.90    0.40
   0  -3   9    8.75    0.53
   0  -3   9    7.81    0.41
  -1   3  -9    5.06    0.47
  -1   3  -9    5.91    0.32
  -1   3  -9    6.36    0.39
  -1   3  -9    5.81    0.37
  -1   3  -9    6.36    0.28
  -1   3  -9    6.51    0.45
  -1   3  -9    6.13    0.36
  -1   3  -9    5.69    0.44
   1  -3   9    5.87    0.43
   1  -3   9    5.63    0.26
   1  -3   9    5.84    0.32
   1  -3   9    4.89    0.46
  -2   3  -9   20.65    1.10
  -2   3  -9   24.72    1.09
  -2   3  -9   22.94    1.11
  -2   3  -9   24.22    0.89
  -2   3  -9   24.94    0.91
  -2   3  -9   24.30    0.93
  -2   3  -9   25.67    0.86
  -2   3  -9   23.45    1.06
  -2   3  -9   25.46    0.98
   2  -3   9   22.83    0.90
   2  -3   9   23.28    1.14
   2  -3   9   24.99    0.84
   2  -3   9   22.90    0.91
   2  -3   9   23.94    1.10
  -3   3  -9    1.38    0.18
  -3   3  -9    1.41    0.26
  -3   3  -9    1.33    0.17
  -3   3  -9    1.25    0.10
  -3   3  -9    1.34    0.17
  -3   3  -9    1.43    0.25
  -3   3  -9    1.55    0.21
   3  -3   9    1.01    0.20
   3  -3   9    0.95    0.28
   3  -3   9    0.99    0.18
  -4   3  -9    7.73    0.32
  -4   3  -9    7.84    0.29
  -4   3  -9    6.84    0.40
  -4   3  -9    7.52    0.41
  -4   3  -9    7.19    0.30
   4  -3   9    6.57    0.40
   4  -3   9    7.36    0.32
   4  -3   9    7.28    0.60
   4   2  -9    9.48    0.38
   4   2  -9    9.45    0.35
   4   2  -9    9.63    0.34
   4   2  -9    9.49    0.35
   4   2  -9    9.27    0.49
  -4  -2   9    8.03    0.44
   3   2  -9   26.42    1.04
   3   2  -9   27.82    0.88
   3   2  -9   27.39    1.04
   3   2  -9   26.54    0.87
   3   2  -9   25.43    0.87
   3   2  -9   26.88    0.94
   3   2  -9   25.72    0.91
   3   2  -9   26.04    0.89
   3   2  -9   26.25    1.03
   3   2  -9   26.18    1.03
   3   2  -9   26.64    0.86
  -3  -2   9   25.12    0.90
   2   2  -9   21.62    0.95
   2   2  -9   20.79    0.86
   2   2  -9   21.68    0.77
   2   2  -9   21.49    0.87
   2   2  -9   22.35    1.01
   2   2  -9   22.38    0.87
   2   2  -9   21.40    0.86
  -2  -2   9   20.52    0.72
  -2  -2   9   19.58    0.83
   1   2  -9   20.28    0.82
   1   2  -9   20.36    0.82
   1   2  -9   21.53    0.83
   1   2  -9   21.69    0.73
   1   2  -9   20.70    0.90
   1   2  -9   20.46    0.82
   1   2  -9   20.49    1.00
   1   2  -9   21.83    0.92
   1   2  -9   21.55    0.83
   1   2  -9   22.44    0.91
  -1  -2   9   17.74    0.71
  -1  -2   9   19.55    0.87
  -1  -2   9   18.30    0.64
   0   2  -9   20.58    0.97
   0   2  -9   21.88    0.91
   0   2  -9   22.19    0.79
   0   2  -9   22.17    0.91
   0   2  -9   20.53    0.83
   0   2  -9   21.01    0.80
   0   2  -9   21.87    0.89
   0   2  -9   21.85    0.84
   0   2  -9   19.89    0.72
   0   2  -9   20.83    0.81
   0  -2   9   19.86    0.72
   0  -2   9   20.38    0.87
   0  -2   9   18.24    0.66
  -1   2  -9    6.17    0.39
  -1   2  -9    6.09    0.48
  -1   2  -9    6.27    0.38
  -1   2  -9    6.13    0.35
  -1   2  -9    6.42    0.44
  -1   2  -9    6.76    0.49
  -1   2  -9    6.43    0.33
  -1   2  -9    5.86    0.27
  -1   2  -9    6.88    0.46
   1  -2   9    5.69    0.26
   1  -2   9    6.10    0.32
   1  -2   9    6.26    0.48
  -2   2  -9    7.60    0.45
  -2   2  -9    6.66    0.37
  -2   2  -9    7.58    0.49
  -2   2  -9    7.88    0.53
  -2   2  -9    7.06    0.36
  -2   2  -9    6.82    0.52
  -2   2  -9    7.13    0.41
  -2   2  -9    7.06    0.51
  -2   2  -9    6.34    0.57
  -2   2  -9    6.44    0.51
  -2   2  -9    7.31    0.33
   2  -2   9    6.93    0.40
   2  -2   9    7.12    0.39
   2  -2   9    7.19    0.59
   2  -2   9    6.99    0.32
   2  -2   9    7.03    0.58
  -3   2  -9    6.25    0.37
  -3   2  -9    5.31    0.31
  -3   2  -9    5.63    0.22
  -3   2  -9    5.23    0.30
  -3   2  -9    5.70    0.33
  -3   2  -9    5.52    0.38
  -3   2  -9    5.98    0.26
  -3   2  -9    5.62    0.27
  -3   2  -9    5.74    0.31
  -3   2  -9    5.71    0.41
  -3   2  -9    6.11    0.28
  -3   2  -9    5.42    0.26
   3  -2   9    5.91    0.31
   3  -2   9    5.85    0.47
   3  -2   9    5.48    0.39
  -4   2  -9    2.14    0.15
  -4   2  -9    2.70    0.25
  -4   2  -9    2.35    0.18
  -4   2  -9    2.47    0.15
  -4   2  -9    2.24    0.27
  -4   2  -9    2.43    0.18
   4  -2   9    2.19    0.28
   4  -2   9    2.27    0.31
   4   1  -9    1.83    0.09
   4   1  -9    1.82    0.09
   4   1  -9    1.54    0.16
   4   1  -9    1.63    0.27
   4   1  -9    1.66    0.13
   4   1  -9    1.66    0.12
   4   1  -9    1.63    0.16
  -4  -1   9    1.50    0.19
  -4  -1   9    1.92    0.26
  -4  -1   9    1.77    0.17
   3   1  -9    9.07    0.33
   3   1  -9    8.78    0.49
   3   1  -9    9.24    0.50
   3   1  -9    7.99    0.36
   3   1  -9    9.05    0.50
   3   1  -9    8.85    0.32
   3   1  -9    8.65    0.31
   3   1  -9    8.52    0.48
   3   1  -9    8.93    0.31
   3   1  -9    9.56    0.40
   3   1  -9    9.05    0.35
  -3  -1   9    8.20    0.37
   2   1  -9   14.81    0.74
   2   1  -9   14.30    0.65
   2   1  -9   15.01    0.65
   2   1  -9   14.20    0.64
   2   1  -9   15.00    0.76
   2   1  -9   14.38    0.55
   2   1  -9   14.82    0.66
  -2  -1   9   13.99    0.60
  -2  -1   9   13.05    0.80
  -2  -1   9   12.89    0.50
   1   1  -9    2.98    0.28
   1   1  -9    2.87    0.25
   1   1  -9    3.05    0.24
   1   1  -9    3.32    0.26
   1   1  -9    3.01    0.28
   1   1  -9    2.58    0.33
   1   1  -9    3.41    0.26
   1   1  -9    2.83    0.30
   1   1  -9    3.46    0.39
   1   1  -9    2.74    0.22
  -1  -1   9    2.69    0.20
  -1  -1   9    2.79    0.32
   0   1  -9    3.31    0.29
   0   1  -9    3.15    0.21
   0   1  -9    3.13    0.25
   0   1  -9    2.90    0.30
   0   1  -9    3.10    0.39
   0   1  -9    2.86    0.34
   0   1  -9    2.90    0.25
   0   1  -9    2.55    0.25
   0  -1   9    3.55    0.33
   0  -1   9    2.85    0.19
  -1   1  -9    3.90    0.28
  -1   1  -9    4.07    0.33
  -1   1  -9    3.60    0.36
  -1   1  -9    4.10    0.43
  -1   1  -9    3.11    0.28
  -1   1  -9    4.03    0.26
  -1   1  -9    3.49    0.31
  -1   1  -9    3.40    0.38
   1  -1   9    3.50    0.38
   1  -1   9    2.90    0.22
  -2   1  -9    6.89    0.48
  -2   1  -9    6.75    0.42
  -2   1  -9    6.43    0.49
  -2   1  -9    6.34    0.35
  -2   1  -9    6.81    0.50
  -2   1  -9    6.73    0.31
  -2   1  -9    6.59    0.58
  -2   1  -9    6.04    0.49
  -2   1  -9    7.36    0.41
  -2   1  -9    6.43    0.51
  -2   1  -9    7.26    0.37
   2  -1   9    7.18    0.39
   2  -1   9    7.16    0.41
   2  -1   9    6.37    0.30
   2  -1   9    6.50    0.56
   2  -1   9    6.79    0.59
  -3   1  -9   22.23    0.82
  -3   1  -9   23.77    0.98
  -3   1  -9   23.65    0.77
  -3   1  -9   22.32    0.88
  -3   1  -9   23.15    0.76
  -3   1  -9   23.39    0.76
  -3   1  -9   21.80    0.82
  -3   1  -9   23.22    0.75
  -3   1  -9   22.56    0.80
  -3   1  -9   23.42    0.86
  -3   1  -9   23.23    0.84
  -3   1  -9   22.05    0.91
   3  -1   9   21.96    0.80
   3  -1   9   22.85    0.90
   3  -1   9   22.43    0.97
  -4   1  -9   13.65    0.50
  -4   1  -9   12.90    0.60
  -4   1  -9   13.70    0.46
  -4   1  -9   13.99    0.48
  -4   1  -9   13.17    0.57
  -4   1  -9   13.49    0.45
  -4   1  -9   13.46    0.48
   4  -1   9   11.51    0.54
   4   0  -9    4.32    0.21
   4   0  -9    4.02    0.33
   4   0  -9    4.42    0.18
   4   0  -9    4.64    0.21
   4   0  -9    4.56    0.17
   4   0  -9    4.78    0.24
   4   0  -9    4.28    0.25
   4   0  -9    4.57    0.19
   4   0  -9    4.30    0.35
  -4   0   9    4.43    0.26
  -4   0   9    4.19    0.32
   3   0  -9    4.40    0.20
   3   0  -9    4.84    0.26
   3   0  -9    4.79    0.25
   3   0  -9    4.84    0.23
   3   0  -9    5.07    0.36
   3   0  -9    5.20    0.39
   3   0  -9    4.71    0.19
   3   0  -9    5.57    0.37
   3   0  -9    5.01    0.38
   3   0  -9    4.95    0.20
  -3   0   9    4.61    0.26
   2   0  -9   10.79    0.42
   2   0  -9   10.62    0.53
   2   0  -9   11.35    0.54
   2   0  -9   11.29    0.55
   2   0  -9   10.35    0.54
   2   0  -9   11.35    0.62
   2   0  -9   10.40    0.61
  -2   0   9    9.47    0.46
  -2   0   9    9.57    0.38
  -2   0   9   10.12    0.69
   1   0  -9    8.68    0.61
   1   0  -9    8.77    0.44
   1   0  -9    8.94    0.45
   1   0  -9    8.37    0.52
   1   0  -9    8.08    0.43
   1   0  -9    8.88    0.43
   1   0  -9    8.44    0.45
  -1   0   9    7.00    0.32
   0   0  -9    0.35    0.17
   0   0  -9    0.80    0.25
   0   0  -9    0.63    0.18
   0   0  -9    0.81    0.17
   0   0  -9    0.55    0.15
   0   0  -9    0.55    0.12
   0   0  -9    0.90    0.22
   0   0  -9    0.67    0.12
   0   0   9    0.42    0.08
  -1   0  -9   27.78    1.05
  -1   0  -9   28.49    1.09
  -1   0  -9   30.23    1.22
  -1   0  -9   29.88    1.10
  -1   0  -9   29.30    1.19
  -1   0  -9   25.72    1.19
  -1   0  -9   28.90    1.10
  -1   0  -9   29.38    1.02
   1   0   9   27.67    0.97
   1   0   9   27.31    1.14
  -2   0  -9    7.20    0.59
  -2   0  -9    7.42    0.39
  -2   0  -9    7.98    0.53
  -2   0  -9    7.05    0.32
  -2   0  -9    7.36    0.41
  -2   0  -9    7.29    0.41
  -2   0  -9    8.21    0.58
  -2   0  -9    7.27    0.53
  -2   0  -9    7.88    0.46
  -2   0  -9    7.72    0.39
  -2   0  -9    8.14    0.55
   2   0   9    7.33    0.62
   2   0   9    7.59    0.32
   2   0   9    6.44    0.55
   2   0   9    7.53    0.39
  -3   0  -9   21.17    0.82
  -3   0  -9   21.09    0.78
  -3   0  -9   19.98    0.85
  -3   0  -9   21.73    0.72
  -3   0  -9   23.05    0.84
  -3   0  -9   20.17    0.76
  -3   0  -9   20.71    0.70
  -3   0  -9   21.61    0.92
  -3   0  -9   21.13    0.75
  -3   0  -9   22.50    0.70
  -3   0  -9   21.54    0.71
  -3   0  -9   21.57    0.79
   3   0   9   20.62    0.85
   3   0   9   20.62    0.75
   3   0   9   20.05    0.89
  -4   0  -9   10.28    0.36
  -4   0  -9    9.88    0.34
  -4   0  -9   10.33    0.34
  -4   0  -9    9.62    0.38
  -4   0  -9    8.90    0.36
  -4   0  -9    9.51    0.39
   4   0   9    8.04    0.47
   4  -1  -9    1.61    0.10
   4  -1  -9    1.43    0.15
   4  -1  -9    1.28    0.13
   4  -1  -9    1.44    0.08
   4  -1  -9    1.50    0.10
   4  -1  -9    1.54    0.13
  -4   1   9    1.64    0.19
  -4   1   9    1.02    0.21
   3  -1  -9    1.14    0.13
   3  -1  -9    1.23    0.15
   3  -1  -9    1.10    0.08
   3  -1  -9    1.10    0.20
   3  -1  -9    1.15    0.10
   3  -1  -9    1.37    0.25
   3  -1  -9    1.00    0.14
   3  -1  -9    1.33    0.24
   3  -1  -9    1.15    0.09
  -3   1   9    1.18    0.16
   2  -1  -9   58.66    1.97
   2  -1  -9   58.14    2.08
   2  -1  -9   56.35    1.96
   2  -1  -9   55.17    1.96
   2  -1  -9   55.49    2.05
   2  -1  -9   57.39    1.99
  -2   1   9   51.55    2.06
  -2   1   9   53.60    1.81
   1  -1  -9   35.76    1.39
   1  -1  -9   37.75    1.32
   1  -1  -9   37.27    1.33
   1  -1  -9   36.67    1.33
   1  -1  -9   35.98    1.52
   1  -1  -9   36.77    1.31
   1  -1  -9   37.05    1.32
  -1   1   9   33.48    1.13
   0  -1  -9   20.22    0.88
   0  -1  -9   19.73    0.80
   0  -1  -9   19.28    0.96
   0  -1  -9   20.05    0.75
   0  -1  -9   20.30    0.79
   0  -1  -9   21.42    0.81
   0  -1  -9   20.86    0.92
   0  -1  -9   20.51    0.89
  -1  -1  -9   26.04    0.99
  -1  -1  -9   26.18    0.94
  -1  -1  -9   26.04    1.01
  -1  -1  -9   25.25    0.96
  -1  -1  -9   25.55    1.01
  -1  -1  -9   27.32    1.11
  -1  -1  -9   25.08    1.13
  -1  -1  -9   26.31    1.12
   1   1   9   24.96    0.88
   1   1   9   24.73    1.06
  -2  -1  -9   13.27    0.55
  -2  -1  -9   12.84    0.72
  -2  -1  -9   12.39    0.67
  -2  -1  -9   11.69    0.69
  -2  -1  -9   12.48    0.47
  -2  -1  -9   11.74    0.73
  -2  -1  -9   12.72    0.57
  -2  -1  -9   11.80    0.71
  -2  -1  -9   12.22    0.54
  -2  -1  -9   12.02    0.62
   2   1   9   11.54    0.53
   2   1   9   11.74    0.80
   2   1   9   12.50    0.47
  -3  -1  -9    2.80    0.26
  -3  -1  -9    3.00    0.21
  -3  -1  -9    3.10    0.22
  -3  -1  -9    2.80    0.16
  -3  -1  -9    3.29    0.33
  -3  -1  -9    3.02    0.14
  -3  -1  -9    3.52    0.29
  -3  -1  -9    3.15    0.14
  -3  -1  -9    2.84    0.22
   3   1   9    2.71    0.21
  -4  -1  -9   15.89    0.57
  -4  -1  -9   15.98    0.52
  -4  -1  -9   15.30    0.53
  -4  -1  -9   15.08    0.56
  -4  -1  -9   15.94    0.52
   4  -2  -9    0.74    0.08
   4  -2  -9    0.79    0.08
   4  -2  -9    0.68    0.10
   4  -2  -9    0.73    0.11
   4  -2  -9    0.68    0.06
   4  -2  -9    0.73    0.12
   3  -2  -9    2.54    0.29
   3  -2  -9    2.51    0.18
   3  -2  -9    2.43    0.17
   3  -2  -9    2.25    0.18
   3  -2  -9    2.47    0.11
   3  -2  -9    2.30    0.12
   3  -2  -9    2.41    0.12
   3  -2  -9    2.07    0.30
   3  -2  -9    2.90    0.31
  -3   2   9    2.49    0.19
  -3   2   9    2.56    0.27
   2  -2  -9   70.08    2.29
   2  -2  -9   66.87    2.25
   2  -2  -9   63.50    2.33
   2  -2  -9   65.31    2.33
   2  -2  -9   65.71    2.25
   2  -2  -9   64.05    2.24
  -2   2   9   55.17    2.26
  -2   2   9   63.40    2.03
   1  -2  -9    3.32    0.30
   1  -2  -9    3.05    0.28
   1  -2  -9    3.08    0.26
   1  -2  -9    2.70    0.42
   1  -2  -9    2.99    0.35
   1  -2  -9    3.35    0.27
  -1  -2  -9    7.63    0.43
  -1  -2  -9    7.12    0.36
  -1  -2  -9    6.64    0.49
  -1  -2  -9    6.85    0.38
  -1  -2  -9    7.01    0.52
   1   2   9    6.66    0.31
  -2  -2  -9    0.26    0.15
  -2  -2  -9    0.43    0.20
  -2  -2  -9    0.11    0.14
  -2  -2  -9    0.11    0.19
  -2  -2  -9    0.15    0.12
  -2  -2  -9    0.26    0.20
  -2  -2  -9    0.13    0.12
  -2  -2  -9    0.19    0.21
   2   2   9    0.04    0.11
   2   2   9    0.20    0.28
  -3  -2  -9    1.70    0.12
  -3  -2  -9    1.66    0.30
  -3  -2  -9    1.65    0.18
  -3  -2  -9    1.91    0.24
  -3  -2  -9    1.69    0.25
  -3  -2  -9    2.17    0.18
  -3  -2  -9    1.79    0.10
  -3  -2  -9    1.81    0.29
  -3  -2  -9    1.85    0.18
  -3  -2  -9    1.72    0.11
   3   2   9    2.02    0.19
  -4  -2  -9   12.73    0.42
  -4  -2  -9   12.16    0.45
  -4  -2  -9   12.21    0.41
  -4  -2  -9   12.17    0.42
  -4  -2  -9   12.51    0.47
   4  -3  -9    2.12    0.10
   4  -3  -9    2.21    0.13
   4  -3  -9    2.12    0.10
   4  -3  -9    2.18    0.10
   4  -3  -9    1.87    0.13
   4  -3  -9    2.26    0.15
   3  -3  -9    8.62    0.35
   3  -3  -9    8.98    0.31
   3  -3  -9    9.02    0.31
   3  -3  -9    9.07    0.48
   3  -3  -9    8.76    0.38
   3  -3  -9    8.86    0.49
   3  -3  -9    8.98    0.34
   3  -3  -9    8.82    0.31
  -3   3   9    8.34    0.36
   2  -3  -9   20.13    0.69
   2  -3  -9   19.30    0.63
   2  -3  -9   19.98    0.64
   2  -3  -9   18.88    0.83
   2  -3  -9   20.31    0.81
  -1  -3  -9    8.85    0.50
  -1  -3  -9    7.87    0.55
  -1  -3  -9    8.53    0.41
  -1  -3  -9    9.37    0.60
  -2  -3  -9    2.39    0.31
  -2  -3  -9    2.36    0.24
  -2  -3  -9    2.54    0.11
  -2  -3  -9    2.16    0.11
  -2  -3  -9    2.27    0.28
  -2  -3  -9    2.36    0.21
  -2  -3  -9    2.43    0.19
  -2  -3  -9    2.80    0.26
  -3  -3  -9    9.89    0.34
  -3  -3  -9   10.20    0.52
  -3  -3  -9   10.76    0.55
  -3  -3  -9   10.13    0.40
  -3  -3  -9   10.51    0.42
  -3  -3  -9   10.10    0.35
  -3  -3  -9    9.81    0.46
  -3  -3  -9    9.92    0.35
  -3  -3  -9   10.39    0.42
  -3  -3  -9    9.25    0.46
   3   3   9    9.49    0.40
  -4  -3  -9    3.35    0.19
  -4  -3  -9    3.37    0.13
  -4  -3  -9    3.12    0.13
  -4  -3  -9    3.07    0.18
  -4  -3  -9    3.36    0.13
   4  -4  -9    1.07    0.05
   4  -4  -9    1.24    0.07
   4  -4  -9    1.10    0.09
   4  -4  -9    1.19    0.10
   4  -4  -9    1.10    0.06
   3  -4  -9    8.39    0.28
   3  -4  -9    7.64    0.35
   3  -4  -9    8.51    0.33
   3  -4  -9    8.87    0.46
   3  -4  -9    8.04    0.32
   3  -4  -9    8.47    0.28
   3  -4  -9    8.17    0.29
   3  -4  -9    8.19    0.46
  -3   4   9    7.65    0.34
   2  -4  -9   11.70    0.40
   2  -4  -9   12.50    0.57
   2  -4  -9   12.73    0.46
   2  -4  -9   11.88    0.59
  -2  -4  -9    9.83    0.33
  -2  -4  -9    9.73    0.40
  -2  -4  -9   10.82    0.52
  -2  -4  -9   11.29    0.48
  -2  -4  -9   10.12    0.34
  -2  -4  -9   10.36    0.55
  -2  -4  -9    9.69    0.42
  -2  -4  -9    9.86    0.47
  -3  -4  -9    4.36    0.24
  -3  -4  -9    4.53    0.17
  -3  -4  -9    4.67    0.31
  -3  -4  -9    4.92    0.29
  -3  -4  -9    4.53    0.18
  -3  -4  -9    4.61    0.17
  -3  -4  -9    4.85    0.26
  -3  -4  -9    4.75    0.40
  -3  -4  -9    4.41    0.33
  -3  -4  -9    4.12    0.33
   3   4   9    4.05    0.24
  -4  -4  -9    0.44    0.05
  -4  -4  -9    0.62    0.10
  -4  -4  -9    0.57    0.05
  -4  -4  -9    0.53    0.05
  -4  -4  -9    0.65    0.10
   3  -5  -9    1.13    0.13
   3  -5  -9    1.42    0.08
   3  -5  -9    1.22    0.11
   3  -5  -9    1.18    0.07
   2  -5  -9    0.54    0.17
   2  -5  -9    0.44    0.05
   2  -5  -9    0.41    0.09
   2  -5  -9    0.35    0.15
  -2  -5  -9   10.90    0.57
  -2  -5  -9   11.28    0.44
  -2  -5  -9   12.09    0.51
  -2  -5  -9   10.92    0.50
  -2  -5  -9   12.15    0.46
  -2  -5  -9   11.44    0.38
  -2  -5  -9   11.85    0.55
  -3  -5  -9    1.65    0.15
  -3  -5  -9    1.55    0.08
  -3  -5  -9    1.76    0.16
  -3  -5  -9    1.57    0.08
   3  -6  -9    0.17    0.03
   3  -6  -9    0.19    0.06
   3  -6  -9    0.20    0.06
   3  -6  -9    0.23    0.03
   2  -6  -9    0.55    0.05
   2  -6  -9    0.40    0.08
   2  -6  -9    0.68    0.09
  -2  -6  -9   11.76    0.39
  -2  -6  -9   12.00    0.39
  -2  -6  -9   11.89    0.44
  -3  -6  -9    2.51    0.10
  -3  -6  -9    2.53    0.15
  -3  -6  -9    2.49    0.16
  -3  -6  -9    2.68    0.10
   2  -7  -9    8.01    0.30
  -1  -7  -9    1.26    0.15
  -2  -7  -9    0.27    0.03
  -2  -7  -9    0.24    0.08
  -2  -7  -9    0.21    0.02
  -1 -11  10    2.75    0.15
  -1 -11  10    3.23    0.17
   0 -11  10    4.89    0.24
   0 -11  10    5.86    0.23
   1 -11  10    2.83    0.15
   1 -11  10    2.86    0.17
   2  10 -10    3.50    0.18
   2  10 -10    3.71    0.26
  -2 -10  10    3.38    0.16
  -2 -10  10    3.18    0.18
   1  10 -10    8.64    0.34
  -1 -10  10    8.53    0.30
  -1 -10  10    8.98    0.36
  -1 -10  10    8.93    0.34
   0  10 -10    3.19    0.14
   0 -10  10    3.11    0.15
   0 -10  10    3.09    0.19
   0 -10  10    3.36    0.22
   1 -10  10    2.94    0.13
   1 -10  10    3.15    0.18
   1 -10  10    2.98    0.22
   2 -10  10    6.84    0.29
   3   9 -10    3.71    0.17
   3   9 -10    3.15    0.17
  -3  -9  10    3.46    0.18
   2   9 -10    0.56    0.10
   2   9 -10    0.68    0.11
  -2  -9  10    0.66    0.10
  -2  -9  10    0.56    0.08
   1   9 -10   10.80    0.54
   1   9 -10   10.43    0.36
   1   9 -10   10.48    0.54
   1   9 -10   11.20    0.43
  -1  -9  10   10.48    0.40
  -1  -9  10   10.60    0.48
  -1  -9  10   10.35    0.38
  -1  -9  10   10.01    0.53
   0   9 -10    0.36    0.07
   0   9 -10    0.39    0.18
   0  -9  10    0.63    0.09
   0  -9  10    0.71    0.23
   0  -9  10    0.43    0.11
  -1   9 -10    3.46    0.32
  -1   9 -10    3.80    0.16
   1  -9  10    3.65    0.34
   1  -9  10    3.96    0.20
   1  -9  10    3.91    0.21
  -2   9 -10    0.93    0.20
   2  -9  10    0.77    0.13
   2  -9  10    0.65    0.10
  -3   9 -10    3.08    0.16
  -3   9 -10    2.93    0.18
   3  -9  10    2.94    0.17
   3   8 -10    0.30    0.08
   3   8 -10    0.23    0.08
  -3  -8  10    0.17    0.06
   2   8 -10   20.87    0.86
   2   8 -10   21.33    0.73
   2   8 -10   20.52    0.86
   2   8 -10   21.38    0.69
   2   8 -10   21.23    0.75
  -2  -8  10   20.90    0.78
  -2  -8  10   20.31    0.67
  -2  -8  10   19.04    0.83
   1   8 -10    2.34    0.15
   1   8 -10    2.63    0.15
   1   8 -10    2.34    0.25
   1   8 -10    2.83    0.30
   1   8 -10    2.80    0.20
   1   8 -10    3.30    0.33
  -1  -8  10    2.76    0.19
  -1  -8  10    3.41    0.35
  -1  -8  10    3.01    0.27
   0   8 -10   20.87    0.86
   0   8 -10   21.00    0.75
   0   8 -10   22.12    0.71
   0   8 -10   20.48    0.87
   0   8 -10   21.46    0.70
   0  -8  10   21.18    0.75
   0  -8  10   21.27    0.73
   0  -8  10   22.31    0.83
   0  -8  10   21.40    0.90
  -1   8 -10    9.78    0.34
  -1   8 -10   10.02    0.51
  -1   8 -10    9.59    0.36
   1  -8  10    8.96    0.36
   1  -8  10    9.61    0.35
   1  -8  10    7.97    0.49
  -2   8 -10    2.01    0.11
  -2   8 -10    2.27    0.20
  -2   8 -10    1.56    0.18
   2  -8  10    2.00    0.15
  -3   8 -10    0.69    0.12
  -3   8 -10    0.46    0.10
   3  -8  10    0.68    0.09
   3  -8  10    0.66    0.11
   3   7 -10    5.73    0.22
   3   7 -10    5.61    0.26
   3   7 -10    5.64    0.26
  -3  -7  10    5.31    0.22
   2   7 -10   13.96    0.52
   2   7 -10   15.41    0.68
   2   7 -10   13.77    0.65
   2   7 -10   14.00    0.50
   2   7 -10   14.02    0.51
   2   7 -10   14.26    0.54
  -2  -7  10   13.52    0.64
  -2  -7  10   12.85    0.47
  -2  -7  10   13.24    0.58
   1   7 -10   13.34    0.62
   1   7 -10   12.41    0.48
   1   7 -10   12.88    0.47
   1   7 -10   12.53    0.50
   1   7 -10   12.72    0.49
   1   7 -10   13.80    0.64
  -1  -7  10   13.25    0.58
  -1  -7  10   12.25    0.64
   0   7 -10   32.87    1.12
   0   7 -10   32.76    1.24
   0   7 -10   32.93    1.08
   0   7 -10   32.48    1.22
   0   7 -10   33.32    1.11
   0  -7  10   32.64    1.17
   0  -7  10   32.58    1.25
  -1   7 -10    4.51    0.22
  -1   7 -10    4.49    0.26
  -1   7 -10    4.59    0.35
   1  -7  10    3.78    0.21
   1  -7  10    3.99    0.34
  -2   7 -10    1.53    0.23
  -2   7 -10    1.70    0.20
  -2   7 -10    2.04    0.14
   2  -7  10    1.61    0.17
  -3   7 -10    2.39    0.12
  -3   7 -10    2.45    0.20
  -3   7 -10    2.44    0.17
   3  -7  10    2.16    0.14
   4   6 -10    8.37    0.30
  -4  -6  10    8.17    0.29
   3   6 -10    7.70    0.30
   3   6 -10    7.10    0.30
   3   6 -10    7.32    0.32
   3   6 -10    6.91    0.41
   3   6 -10    8.03    0.29
  -3  -6  10    6.43    0.37
  -3  -6  10    7.33    0.28
   2   6 -10    3.34    0.20
   2   6 -10    3.75    0.21
   2   6 -10    4.20    0.33
   2   6 -10    3.85    0.22
   2   6 -10    3.16    0.20
   2   6 -10    3.42    0.34
  -2  -6  10    4.04    0.37
  -2  -6  10    3.13    0.28
   1   6 -10    0.80    0.26
   1   6 -10    0.51    0.18
   1   6 -10    0.33    0.12
   1   6 -10    0.54    0.15
   1   6 -10    0.98    0.23
   1   6 -10    0.49    0.12
   1   6 -10    0.56    0.15
  -1  -6  10    0.60    0.12
  -1  -6  10    0.16    0.21
  -1  -6  10    0.37    0.15
  -1  -6  10    0.73    0.24
   0   6 -10    8.46    0.47
   0   6 -10    8.47    0.55
   0   6 -10    8.75    0.39
   0   6 -10    8.52    0.47
   0  -6  10    7.23    0.58
   0  -6  10    8.01    0.41
   0  -6  10    8.19    0.47
   0  -6  10    7.61    0.36
  -1   6 -10   21.20    0.76
  -1   6 -10   20.54    0.74
  -1   6 -10   20.02    0.97
  -1   6 -10   20.52    0.79
  -1   6 -10   20.57    1.04
  -1   6 -10   20.53    0.73
  -1   6 -10   21.24    0.86
   1  -6  10   19.26    0.71
   1  -6  10   19.35    0.95
   1  -6  10   19.19    0.80
   1  -6  10   19.75    0.76
  -2   6 -10    2.24    0.16
  -2   6 -10    2.72    0.27
  -2   6 -10    2.32    0.21
  -2   6 -10    2.34    0.29
  -2   6 -10    2.31    0.21
   2  -6  10    2.45    0.30
   2  -6  10    2.18    0.36
  -3   6 -10    5.43    0.35
  -3   6 -10    6.24    0.25
  -3   6 -10    6.08    0.38
  -3   6 -10    6.70    0.30
  -3   6 -10    6.64    0.30
  -3   6 -10    6.25    0.28
   3  -6  10    5.94    0.25
   3  -6  10    5.90    0.37
   3  -6  10    5.60    0.42
  -4   6 -10   14.19    0.50
  -4   6 -10   14.69    0.49
   4  -6  10   12.77    0.41
   4  -6  10   12.02    0.44
   4   5 -10    6.60    0.25
   4   5 -10    6.54    0.24
  -4  -5  10    5.40    0.21
   3   5 -10    4.78    0.37
   3   5 -10    4.62    0.22
   3   5 -10    5.04    0.23
   3   5 -10    5.03    0.23
  -3  -5  10    4.38    0.37
   2   5 -10   25.44    0.83
   2   5 -10   24.63    0.98
   2   5 -10   24.55    0.84
   2   5 -10   26.16    0.89
   2   5 -10   23.85    0.80
   2   5 -10   23.20    0.96
   2   5 -10   24.09    0.86
  -2  -5  10   23.03    0.85
  -2  -5  10   24.27    0.91
  -2  -5  10   24.22    0.97
   1   5 -10    9.55    0.48
   1   5 -10   10.25    0.50
   1   5 -10   10.31    0.61
   1   5 -10    8.87    0.50
   1   5 -10    9.77    0.51
   1   5 -10   10.07    0.89
   1   5 -10    9.60    0.41
  -1  -5  10    9.62    0.64
  -1  -5  10    9.29    0.52
  -1  -5  10    9.25    0.45
  -1  -5  10    9.84    0.41
   0   5 -10   10.05    0.52
   0   5 -10    9.48    0.50
   0   5 -10    9.68    0.67
   0   5 -10    9.83    0.64
   0   5 -10   10.57    0.43
   0   5 -10   10.24    0.51
   0   5 -10   10.46    0.53
   0   5 -10   11.36    0.62
   0  -5  10    8.71    0.63
   0  -5  10    9.17    0.50
   0  -5  10   10.12    0.41
   0  -5  10    9.63    0.50
  -1   5 -10   10.08    0.68
  -1   5 -10   10.07    0.50
  -1   5 -10   10.03    0.48
  -1   5 -10    9.87    0.52
  -1   5 -10    9.24    0.59
  -1   5 -10   10.07    0.56
  -1   5 -10   11.00    0.44
   1  -5  10    9.70    0.64
   1  -5  10   10.27    0.43
   1  -5  10    9.81    0.65
  -2   5 -10   25.22    0.84
  -2   5 -10   25.97    0.93
  -2   5 -10   24.36    0.83
  -2   5 -10   22.95    0.80
  -2   5 -10   23.74    0.86
  -2   5 -10   24.00    0.88
  -2   5 -10   25.84    0.96
   2  -5  10   22.47    0.97
   2  -5  10   22.41    0.87
   2  -5  10   23.00    0.81
  -3   5 -10    0.61    0.11
  -3   5 -10    0.55    0.13
  -3   5 -10    0.65    0.09
  -3   5 -10    0.75    0.12
  -3   5 -10    0.78    0.16
  -3   5 -10    0.82    0.21
   3  -5  10    0.56    0.18
   3  -5  10    0.71    0.22
  -4   5 -10    1.81    0.13
  -4   5 -10    1.65    0.09
  -4   5 -10    1.64    0.13
   4  -5  10    1.57    0.12
   4  -5  10    1.42    0.14
   4   4 -10   10.22    0.37
   4   4 -10   11.63    0.38
  -4  -4  10    9.64    0.35
   3   4 -10   29.82    1.01
   3   4 -10   30.75    1.01
   3   4 -10   32.98    1.07
   3   4 -10   29.71    1.14
   3   4 -10   31.28    1.00
   3   4 -10   29.90    0.98
   3   4 -10   29.76    1.03
   3   4 -10   29.81    1.15
  -3  -4  10   26.60    0.98
  -3  -4  10   28.91    1.07
   2   4 -10    5.05    0.37
   2   4 -10    5.06    0.50
   2   4 -10    5.65    0.46
   2   4 -10    5.21    0.38
   2   4 -10    4.71    0.49
   2   4 -10    5.57    0.24
   2   4 -10    5.69    0.39
   2   4 -10    5.74    0.27
   2   4 -10    5.62    0.25
   2   4 -10    5.01    0.28
   2   4 -10    4.78    0.27
   2   4 -10    5.44    0.37
  -2  -4  10    5.43    0.38
  -2  -4  10    5.32    0.29
  -2  -4  10    4.32    0.51
  -2  -4  10    5.07    0.33
  -2  -4  10    5.35    0.42
  -2  -4  10    4.55    0.47
   1   4 -10    5.32    0.42
   1   4 -10    4.93    0.34
   1   4 -10    4.64    0.34
   1   4 -10    4.44    0.35
   1   4 -10    4.20    0.25
   1   4 -10    4.26    0.42
   1   4 -10    4.34    0.50
   1   4 -10    5.06    0.35
   1   4 -10    4.53    0.43
  -1  -4  10    4.24    0.30
  -1  -4  10    5.06    0.47
  -1  -4  10    5.08    0.26
  -1  -4  10    4.61    0.35
  -1  -4  10    4.88    0.36
   0   4 -10   11.78    0.57
   0   4 -10   11.41    0.68
   0   4 -10   11.74    0.47
   0   4 -10   11.37    0.72
   0   4 -10   11.41    0.54
   0   4 -10   11.84    0.53
   0   4 -10   12.81    0.56
   0   4 -10   11.64    0.64
   0   4 -10   11.99    0.68
   0   4 -10   11.88    0.58
   0  -4  10   11.45    0.69
   0  -4  10   10.19    0.54
   0  -4  10   12.05    0.55
   0  -4  10   12.01    0.45
  -1   4 -10    8.27    0.63
  -1   4 -10    8.12    0.58
  -1   4 -10    9.41    0.44
  -1   4 -10    9.35    0.47
  -1   4 -10    9.61    0.50
  -1   4 -10    9.07    0.39
  -1   4 -10    9.10    0.57
  -1   4 -10    8.99    0.52
   1  -4  10    8.16    0.44
   1  -4  10    9.19    0.38
   1  -4  10    9.64    0.60
   1  -4  10    8.83    0.62
  -2   4 -10   22.92    0.91
  -2   4 -10   21.64    0.73
  -2   4 -10   20.57    1.15
  -2   4 -10   21.80    0.82
  -2   4 -10   20.19    0.76
  -2   4 -10   19.94    0.73
  -2   4 -10   21.78    0.77
  -2   4 -10   21.88    0.78
  -2   4 -10   20.22    0.85
  -2   4 -10   20.81    0.70
  -2   4 -10   22.79    0.83
   2  -4  10   16.17    0.91
   2  -4  10   20.91    0.73
   2  -4  10   22.87    0.93
   2  -4  10   19.89    0.79
  -3   4 -10    5.15    0.35
  -3   4 -10    4.82    0.37
  -3   4 -10    5.44    0.24
  -3   4 -10    5.17    0.29
  -3   4 -10    5.80    0.26
   3  -4  10    5.20    0.46
   3  -4  10    5.43    0.37
  -4   4 -10    1.70    0.12
  -4   4 -10    1.63    0.14
  -4   4 -10    1.88    0.11
   4  -4  10    1.41    0.13
   4   3 -10   13.00    0.42
   4   3 -10   13.42    0.47
   4   3 -10   13.45    0.45
   4   3 -10   11.99    0.44
   3   3 -10   12.82    0.48
   3   3 -10   14.48    0.47
   3   3 -10   14.32    0.64
   3   3 -10   13.30    0.47
   3   3 -10   14.20    0.64
   3   3 -10   13.80    0.52
   3   3 -10   14.38    0.55
   3   3 -10   14.74    0.51
   3   3 -10   12.67    0.62
   3   3 -10   14.39    0.48
  -3  -3  10   12.24    0.50
   2   3 -10   36.94    1.36
   2   3 -10   39.32    1.38
   2   3 -10   37.89    1.36
   2   3 -10   38.35    1.27
   2   3 -10   34.57    1.44
   2   3 -10   35.52    1.53
   2   3 -10   36.55    1.36
  -2  -3  10   34.48    1.11
  -2  -3  10   30.00    1.22
  -2  -3  10   31.95    1.28
  -2  -3  10   30.60    1.43
   1   3 -10    3.30    0.30
   1   3 -10    2.68    0.37
   1   3 -10    3.47    0.29
   1   3 -10    3.77    0.36
   1   3 -10    3.04    0.35
   1   3 -10    3.86    0.44
   1   3 -10    3.71    0.21
   1   3 -10    3.64    0.32
   1   3 -10    3.44    0.28
  -1  -3  10    3.14    0.26
  -1  -3  10    2.73    0.40
  -1  -3  10    3.09    0.20
  -1  -3  10    3.04    0.28
   0   3 -10    8.99    0.64
   0   3 -10   10.26    0.58
   0   3 -10    9.96    0.40
   0   3 -10   10.80    0.46
   0   3 -10    9.82    0.52
   0   3 -10    9.94    0.59
   0   3 -10   10.41    0.61
   0   3 -10   10.21    0.49
   0   3 -10    9.90    0.49
   0   3 -10    9.89    0.50
   0  -3  10    9.28    0.58
   0  -3  10    8.87    0.46
   0  -3  10    9.04    0.36
   0  -3  10    9.28    0.44
  -1   3 -10    3.89    0.36
  -1   3 -10    4.07    0.32
  -1   3 -10    3.77    0.39
  -1   3 -10    3.86    0.30
  -1   3 -10    3.58    0.43
  -1   3 -10    3.90    0.27
  -1   3 -10    3.75    0.23
  -1   3 -10    3.86    0.39
   1  -3  10    3.47    0.38
   1  -3  10    3.56    0.46
   1  -3  10    3.49    0.27
   1  -3  10    3.46    0.21
  -2   3 -10   82.38    2.65
  -2   3 -10   83.75    2.95
  -2   3 -10   82.96    2.78
  -2   3 -10   82.97    2.74
  -2   3 -10   83.79    2.83
  -2   3 -10   78.54    3.00
  -2   3 -10   86.69    2.74
  -2   3 -10   82.12    2.70
   2  -3  10   78.24    2.55
   2  -3  10   74.51    3.09
   2  -3  10   81.00    2.49
   2  -3  10   72.70    2.57
   2  -3  10   75.85    2.72
  -3   3 -10    1.20    0.09
  -3   3 -10    1.16    0.18
  -3   3 -10    1.14    0.14
  -3   3 -10    0.98    0.16
  -3   3 -10    1.38    0.24
  -3   3 -10    1.27    0.15
  -3   3 -10    1.25    0.15
  -3   3 -10    1.39    0.17
   3  -3  10    1.15    0.17
   3  -3  10    1.04    0.26
   3  -3  10    1.44    0.27
  -4   3 -10    6.60    0.29
  -4   3 -10    6.66    0.25
  -4   3 -10    7.27    0.28
  -4   3 -10    7.18    0.27
   4  -3  10    6.61    0.29
   4   2 -10    0.38    0.05
   4   2 -10    0.43    0.07
   4   2 -10    0.54    0.10
   4   2 -10    0.51    0.07
   4   2 -10    0.52    0.08
   3   2 -10   12.88    0.44
   3   2 -10   11.96    0.60
   3   2 -10   12.67    0.42
   3   2 -10   12.59    0.46
   3   2 -10   12.36    0.42
   3   2 -10   12.71    0.61
   3   2 -10   12.74    0.51
   3   2 -10   12.92    0.61
   3   2 -10   12.51    0.43
   3   2 -10   12.47    0.48
   3   2 -10   11.86    0.60
  -3  -2  10   11.03    0.46
   2   2 -10   14.70    0.56
   2   2 -10   14.41    0.75
   2   2 -10   14.91    0.67
   2   2 -10   15.04    0.79
   2   2 -10   15.32    0.68
   2   2 -10   14.67    0.67
   2   2 -10   14.18    0.66
  -2  -2  10   12.84    0.82
  -2  -2  10   12.43    0.61
  -2  -2  10   13.23    0.50
   1   2 -10   16.85    0.73
   1   2 -10   17.48    0.63
   1   2 -10   16.31    0.91
   1   2 -10   18.08    0.82
   1   2 -10   17.74    0.83
   1   2 -10   17.47    0.73
   1   2 -10   17.41    0.73
   1   2 -10   17.77    0.83
   1   2 -10   18.10    0.73
   1   2 -10   18.00    0.74
  -1  -2  10   16.55    0.58
  -1  -2  10   15.86    0.82
  -1  -2  10   15.44    0.65
   0   2 -10   15.03    0.56
   0   2 -10   15.80    0.74
   0   2 -10   15.65    0.77
   0   2 -10   16.35    0.63
   0   2 -10   16.31    0.66
   0   2 -10   14.66    0.83
   0   2 -10   15.93    0.69
   0   2 -10   15.51    0.76
   0   2 -10   14.58    0.67
   0  -2  10   14.91    0.52
   0  -2  10   13.02    0.71
   0  -2  10   15.09    0.75
   0  -2  10   14.27    0.58
  -1   2 -10   31.29    1.36
  -1   2 -10   32.17    1.30
  -1   2 -10   31.03    1.15
  -1   2 -10   29.67    1.05
  -1   2 -10   29.52    1.25
  -1   2 -10   33.02    1.12
  -1   2 -10   31.68    1.20
  -1   2 -10   31.53    1.19
   1  -2  10   28.25    1.00
   1  -2  10   29.87    1.27
   1  -2  10   31.57    1.08
  -2   2 -10    9.11    0.38
  -2   2 -10    8.65    0.62
  -2   2 -10    7.66    0.60
  -2   2 -10    7.99    0.49
  -2   2 -10    7.43    0.63
  -2   2 -10    8.34    0.59
  -2   2 -10    8.48    0.43
  -2   2 -10    9.31    0.43
  -2   2 -10    8.52    0.47
  -2   2 -10    8.16    0.57
   2  -2  10    7.40    0.42
   2  -2  10    7.97    0.35
   2  -2  10    8.54    0.46
   2  -2  10    7.84    0.67
   2  -2  10    7.92    0.65
  -3   2 -10   20.75    0.75
  -3   2 -10   21.81    0.81
  -3   2 -10   19.77    0.84
  -3   2 -10   21.08    0.68
  -3   2 -10   21.48    0.70
  -3   2 -10   20.18    0.69
  -3   2 -10   21.26    0.75
  -3   2 -10   20.53    0.89
  -3   2 -10   20.16    0.76
  -3   2 -10   19.68    0.79
  -3   2 -10   20.90    0.73
  -3   2 -10   20.71    0.68
   3  -2  10   20.03    0.73
   3  -2  10   19.31    0.89
   3  -2  10   21.08    0.82
  -4   2 -10    0.99    0.12
  -4   2 -10    0.70    0.12
  -4   2 -10    0.71    0.11
   4   1 -10    3.86    0.19
   4   1 -10    3.90    0.21
   4   1 -10    4.31    0.18
   4   1 -10    4.24    0.16
   4   1 -10    4.45    0.17
   4   1 -10    3.93    0.19
   3   1 -10   12.49    0.40
   3   1 -10   11.05    0.57
   3   1 -10   11.57    0.47
   3   1 -10   11.33    0.39
   3   1 -10   11.37    0.40
   3   1 -10   10.88    0.57
   3   1 -10   11.58    0.45
   3   1 -10   11.55    0.43
   3   1 -10   10.99    0.57
   3   1 -10   12.11    0.58
  -3  -1  10   10.09    0.43
   2   1 -10    0.49    0.19
   2   1 -10    0.32    0.18
   2   1 -10    0.37    0.10
   2   1 -10    0.56    0.23
   2   1 -10    0.31    0.17
   2   1 -10    0.43    0.18
   2   1 -10    0.56    0.19
  -2  -1  10    0.51    0.14
  -2  -1  10    0.40    0.09
  -2  -1  10    0.64    0.26
   1   1 -10    4.95    0.35
   1   1 -10    4.64    0.53
   1   1 -10    5.41    0.35
   1   1 -10    6.15    0.37
   1   1 -10    5.29    0.35
   1   1 -10    5.83    0.40
   1   1 -10    5.12    0.44
  -1  -1  10    4.49    0.27
   0   1 -10    4.52    0.46
   0   1 -10    4.93    0.37
   0   1 -10    4.79    0.34
   0   1 -10    4.77    0.33
   0   1 -10    4.72    0.29
   0   1 -10    4.88    0.40
   0   1 -10    4.93    0.45
   0   1 -10    4.67    0.32
   0  -1  10    4.52    0.40
   0  -1  10    4.33    0.25
  -1   1 -10    1.93    0.26
  -1   1 -10    2.48    0.37
  -1   1 -10    2.48    0.33
  -1   1 -10    2.61    0.28
  -1   1 -10    2.15    0.32
  -1   1 -10    2.23    0.22
  -1   1 -10    2.11    0.38
  -1   1 -10    2.17    0.29
   1  -1  10    2.21    0.20
   1  -1  10    1.87    0.33
  -2   1 -10    4.82    0.32
  -2   1 -10    5.04    0.39
  -2   1 -10    5.13    0.32
  -2   1 -10    5.50    0.48
  -2   1 -10    4.63    0.46
  -2   1 -10    5.08    0.27
  -2   1 -10    5.56    0.37
  -2   1 -10    5.86    0.51
  -2   1 -10    5.27    0.54
  -2   1 -10    5.29    0.46
   2  -1  10    3.76    0.52
   2  -1  10    4.73    0.33
   2  -1  10    5.19    0.26
   2  -1  10    5.09    0.36
   2  -1  10    4.52    0.54
  -3   1 -10    2.99    0.14
  -3   1 -10    3.01    0.33
  -3   1 -10    2.96    0.26
  -3   1 -10    2.61    0.26
  -3   1 -10    3.13    0.24
  -3   1 -10    3.19    0.17
  -3   1 -10    3.17    0.22
  -3   1 -10    3.04    0.22
  -3   1 -10    3.05    0.33
  -3   1 -10    3.47    0.15
  -3   1 -10    2.60    0.19
   3  -1  10    2.92    0.21
   3  -1  10    3.24    0.33
   3  -1  10    2.40    0.36
  -4   1 -10    4.41    0.19
  -4   1 -10    4.57    0.21
  -4   1 -10    4.43    0.19
  -4   1 -10    3.98    0.17
  -4   1 -10    4.55    0.19
   4   0 -10    3.29    0.14
   4   0 -10    3.15    0.19
   4   0 -10    3.18    0.17
   4   0 -10    3.25    0.13
   4   0 -10    3.23    0.14
   3   0 -10    7.78    0.32
   3   0 -10    7.64    0.46
   3   0 -10    7.52    0.44
   3   0 -10    7.19    0.34
   3   0 -10    7.93    0.46
   3   0 -10    7.60    0.27
   3   0 -10    7.65    0.28
   3   0 -10    7.96    0.28
   3   0 -10    7.99    0.47
   3   0 -10    7.83    0.34
  -3   0  10    7.68    0.35
   2   0 -10   13.48    0.63
   2   0 -10   13.24    0.70
   2   0 -10   12.27    0.68
   2   0 -10   13.78    0.62
   2   0 -10   12.98    0.49
   2   0 -10   11.79    0.60
   2   0 -10   12.92    0.61
  -2   0  10   10.94    0.42
  -2   0  10   10.70    0.52
  -2   0  10   11.35    0.76
   1   0 -10   32.36    1.15
   1   0 -10   30.71    1.13
   1   0 -10   29.94    1.35
   1   0 -10   29.73    1.17
   1   0 -10   30.11    1.14
   1   0 -10   30.32    1.13
   1   0 -10   29.33    1.22
  -1   0  10   26.06    0.93
   0   0 -10   10.35    0.49
   0   0 -10    9.74    0.60
   0   0 -10   10.26    0.69
   0   0 -10   10.95    0.54
   0   0 -10    9.43    0.48
   0   0 -10    9.99    0.45
   0   0 -10   10.10    0.58
   0   0 -10   10.57    0.51
   0   0  10    9.69    0.40
   0   0  10   10.10    0.58
  -1   0 -10   38.00    1.38
  -1   0 -10   38.79    1.53
  -1   0 -10   38.07    1.31
  -1   0 -10   36.60    1.38
  -1   0 -10   38.13    1.40
  -1   0 -10   36.49    1.33
  -1   0 -10   35.73    1.47
  -1   0 -10   34.76    1.52
   1   0  10   33.20    1.38
   1   0  10   34.43    1.18
  -2   0 -10   53.32    2.14
  -2   0 -10   57.05    1.77
  -2   0 -10   56.87    2.00
  -2   0 -10   51.29    1.82
  -2   0 -10   55.94    1.78
  -2   0 -10   55.63    1.83
  -2   0 -10   54.31    2.29
  -2   0 -10   56.58    2.13
  -2   0 -10   57.95    1.93
  -2   0 -10   55.02    1.77
  -2   0 -10   55.09    1.85
  -2   0 -10   55.86    1.83
  -2   0 -10   57.38    1.89
  -2   0 -10   58.68    1.90
   2   0  10   53.57    1.68
   2   0  10   49.75    2.03
   2   0  10   49.32    1.76
  -3   0 -10   11.23    0.55
  -3   0 -10   10.79    0.38
  -3   0 -10   11.13    0.45
  -3   0 -10   10.04    0.50
  -3   0 -10   11.06    0.50
  -3   0 -10   10.93    0.43
  -3   0 -10   11.03    0.37
  -3   0 -10   10.61    0.39
  -3   0 -10   11.35    0.46
  -3   0 -10   10.94    0.45
   3   0  10   10.10    0.52
   3   0  10    9.22    0.54
   3   0  10    9.86    0.41
  -4   0 -10   10.02    0.36
  -4   0 -10   10.78    0.40
  -4   0 -10   10.19    0.35
  -4   0 -10   10.48    0.35
  -4   0 -10   10.24    0.37
  -4   0 -10   10.15    0.39
   4   0  10    9.62    0.37
   4  -1 -10    1.08    0.08
   4  -1 -10    0.99    0.06
   4  -1 -10    1.36    0.12
   4  -1 -10    1.04    0.08
   4  -1 -10    1.01    0.11
   3  -1 -10    5.09    0.37
   3  -1 -10    4.91    0.25
   3  -1 -10    4.90    0.18
   3  -1 -10    5.11    0.37
   3  -1 -10    4.94    0.23
   3  -1 -10    4.72    0.24
   3  -1 -10    5.01    0.35
   3  -1 -10    4.58    0.19
   3  -1 -10    4.70    0.19
  -3   1  10    4.76    0.26
   2  -1 -10   21.87    0.79
   2  -1 -10   21.94    0.73
   2  -1 -10   23.52    0.93
   2  -1 -10   23.17    0.91
   2  -1 -10   21.67    0.73
   2  -1 -10   24.38    0.92
   2  -1 -10   23.06    0.92
   2  -1 -10   22.34    0.77
   1  -1 -10   26.10    1.01
   1  -1 -10   25.88    1.02
   1  -1 -10   28.14    1.03
   1  -1 -10   28.26    1.01
   1  -1 -10   25.14    1.22
   1  -1 -10   24.40    1.09
   1  -1 -10   27.90    1.02
  -1   1  10   23.92    0.85
   0  -1 -10    1.58    0.35
   0  -1 -10    1.23    0.21
   0  -1 -10    1.39    0.27
   0  -1 -10    1.93    0.35
   0  -1 -10    1.20    0.17
   0  -1 -10    1.24    0.23
   0  -1 -10    1.54    0.25
   0   1  10    1.29    0.13
  -1  -1 -10    1.58    0.30
  -1  -1 -10    1.61    0.20
  -1  -1 -10    1.20    0.46
  -1  -1 -10    1.41    0.22
  -1  -1 -10    1.45    0.24
  -1  -1 -10    1.52    0.25
  -1  -1 -10    1.57    0.30
  -1  -1 -10    1.51    0.29
   1   1  10    1.19    0.16
   1   1  10    1.12    0.28
  -2  -1 -10    0.23    0.10
  -2  -1 -10    0.37    0.17
  -2  -1 -10    0.21    0.06
  -2  -1 -10    0.27    0.13
  -2  -1 -10    0.37    0.09
  -2  -1 -10    0.34    0.11
  -2  -1 -10    0.23    0.05
  -2  -1 -10    0.13    0.11
  -2  -1 -10    0.31    0.20
   2   1  10    0.28    0.09
  -3  -1 -10   19.36    0.68
  -3  -1 -10   20.56    0.85
  -3  -1 -10   18.88    0.74
  -3  -1 -10   18.79    0.74
  -3  -1 -10   19.10    0.70
  -3  -1 -10   19.02    0.70
  -3  -1 -10   19.31    0.62
  -3  -1 -10   17.77    0.63
  -3  -1 -10   19.25    0.63
   3   1  10   19.42    0.78
   3   1  10   18.04    0.68
  -4  -1 -10   14.81    0.53
  -4  -1 -10   14.49    0.48
  -4  -1 -10   14.74    0.52
  -4  -1 -10   14.74    0.48
  -4  -1 -10   14.23    0.50
  -4  -1 -10   15.07    0.48
   4  -2 -10    8.85    0.29
   4  -2 -10    8.62    0.29
   4  -2 -10    8.64    0.29
   4  -2 -10    8.21    0.32
   4  -2 -10    8.63    0.33
   3  -2 -10   13.76    0.63
   3  -2 -10   13.14    0.52
   3  -2 -10   14.30    0.51
   3  -2 -10   13.78    0.46
   3  -2 -10   14.29    0.50
   3  -2 -10   13.78    0.64
   3  -2 -10   13.93    0.46
   3  -2 -10   14.05    0.46
   3  -2 -10   13.33    0.62
  -3   2  10   12.78    0.49
  -3   2  10   12.63    0.58
   2  -2 -10   14.83    0.67
   2  -2 -10   15.84    0.67
   2  -2 -10   14.32    0.66
   2  -2 -10   14.92    0.55
   2  -2 -10   14.73    0.48
   2  -2 -10   14.36    0.54
   2  -2 -10   15.60    0.69
   2  -2 -10   15.01    0.49
   1  -2 -10   15.48    0.70
   1  -2 -10   17.26    0.74
  -1  -2 -10   17.51    0.75
  -1  -2 -10   17.27    0.91
  -1  -2 -10   18.15    0.71
  -1  -2 -10   19.81    0.81
  -1  -2 -10   18.68    0.90
   1   2  10   17.61    0.65
  -2  -2 -10    8.67    0.47
  -2  -2 -10    8.27    0.35
  -2  -2 -10    8.57    0.29
  -2  -2 -10    8.36    0.38
  -2  -2 -10    7.88    0.41
  -2  -2 -10    9.21    0.44
  -2  -2 -10    9.34    0.52
  -2  -2 -10    7.78    0.29
  -3  -2 -10    2.85    0.13
  -3  -2 -10    3.13    0.21
  -3  -2 -10    2.77    0.13
  -3  -2 -10    2.95    0.31
  -3  -2 -10    3.10    0.20
  -3  -2 -10    2.87    0.20
  -3  -2 -10    2.80    0.24
  -3  -2 -10    2.74    0.13
  -3  -2 -10    3.21    0.26
   3   2  10    2.68    0.19
  -4  -2 -10    3.51    0.14
  -4  -2 -10    3.75    0.14
  -4  -2 -10    3.67    0.19
  -4  -2 -10    3.47    0.17
  -4  -2 -10    3.43    0.14
  -4  -2 -10    3.64    0.21
   4  -3 -10    2.60    0.12
   4  -3 -10    2.83    0.10
   4  -3 -10    2.58    0.13
   4  -3 -10    2.66    0.15
   4  -3 -10    2.57    0.10
   3  -3 -10    9.22    0.50
   3  -3 -10    9.44    0.47
   3  -3 -10    9.97    0.32
   3  -3 -10   10.27    0.33
   3  -3 -10    9.64    0.49
   3  -3 -10    9.90    0.37
   3  -3 -10    9.83    0.33
  -3   3  10    9.78    0.40
   2  -3 -10   27.98    1.04
   2  -3 -10   27.21    0.91
   2  -3 -10   26.46    1.05
   2  -3 -10   26.66    0.86
  -1  -3 -10    7.96    0.40
  -1  -3 -10    8.09    0.47
  -2  -3 -10    7.18    0.33
  -2  -3 -10    6.87    0.24
  -2  -3 -10    7.58    0.42
  -2  -3 -10    6.75    0.30
  -2  -3 -10    6.79    0.44
  -2  -3 -10    6.55    0.37
  -2  -3 -10    5.86    0.36
  -3  -3 -10    6.33    0.23
  -3  -3 -10    6.61    0.24
  -3  -3 -10    6.81    0.24
  -3  -3 -10    6.53    0.29
  -3  -3 -10    7.38    0.31
   3  -4 -10    5.86    0.25
   3  -4 -10    5.86    0.21
   3  -4 -10    6.07    0.21
   2  -4 -10    4.12    0.15
   2  -4 -10    3.63    0.31
   2  -4 -10    3.87    0.31
   2  -4 -10    3.95    0.20
  -2  -4 -10    8.93    0.36
  -2  -4 -10    7.92    0.46
  -2  -4 -10    8.31    0.34
  -2  -4 -10    8.15    0.40
  -2  -4 -10    8.86    0.45
  -2  -4 -10    7.12    0.39
  -2  -4 -10    8.42    0.28
  -3  -4 -10    1.24    0.14
  -3  -4 -10    1.12    0.07
  -3  -4 -10    1.16    0.07
  -3  -4 -10    1.13    0.14
   3  -5 -10    0.63    0.09
   3  -5 -10    0.73    0.05
   3  -5 -10    0.73    0.05
   2  -5 -10    3.52    0.18
   2  -5 -10    3.59    0.13
  -2  -5 -10    0.13    0.09
  -2  -5 -10    0.11    0.03
  -2  -5 -10    0.09    0.09
  -3  -5 -10    6.84    0.27
  -3  -5 -10    6.68    0.22
  -3  -5 -10    6.46    0.22
  -3  -5 -10    6.72    0.28
  -2  -6 -10    4.53    0.16
  -2  -6 -10    4.61    0.21
   0  11 -11    0.81    0.13
   0 -11  11    0.47    0.08
   0 -11  11    0.49    0.08
   2  10 -11    5.33    0.22
   2  10 -11    4.70    0.21
  -2 -10  11    4.94    0.22
  -2 -10  11    5.20    0.20
   1  10 -11    2.10    0.16
   1  10 -11    1.93    0.14
  -1 -10  11    1.88    0.16
  -1 -10  11    2.21    0.15
  -1 -10  11    2.01    0.10
   0  10 -11    1.23    0.16
   0 -10  11    1.11    0.17
   0 -10  11    1.32    0.13
   0 -10  11    1.29    0.10
  -1  10 -11    1.76    0.16
   1 -10  11    1.70    0.13
   1 -10  11    1.78    0.09
   1 -10  11    1.82    0.17
  -2  10 -11   12.88    0.45
   2 -10  11   12.89    0.46
   2   9 -11    6.43    0.28
   2   9 -11    7.34    0.29
  -2  -9  11    7.06    0.28
  -2  -9  11    7.13    0.26
   1   9 -11    9.56    0.38
   1   9 -11    9.52    0.38
  -1  -9  11    9.16    0.34
  -1  -9  11    9.66    0.37
   0   9 -11    0.68    0.19
   0   9 -11    0.53    0.08
   0   9 -11    0.37    0.08
   0   9 -11    0.48    0.11
   0  -9  11    0.60    0.24
   0  -9  11    0.56    0.08
   0  -9  11    0.32    0.10
  -1   9 -11    9.53    0.38
   1  -9  11    9.87    0.37
   1  -9  11    9.62    0.35
  -2   9 -11    0.88    0.14
   2  -9  11    1.14    0.19
   2  -9  11    0.74    0.09
   3   8 -11    3.17    0.16
   3   8 -11    3.00    0.16
  -3  -8  11    2.96    0.13
   2   8 -11    0.78    0.09
   2   8 -11    0.79    0.13
   2   8 -11    0.71    0.11
  -2  -8  11    0.72    0.09
   1   8 -11    2.64    0.30
   1   8 -11    2.75    0.20
   1   8 -11    2.07    0.28
   1   8 -11    2.32    0.15
   1   8 -11    2.46    0.18
  -1  -8  11    2.29    0.31
  -1  -8  11    2.36    0.24
  -1  -8  11    2.59    0.17
   0   8 -11    9.15    0.38
   0   8 -11    9.41    0.34
   0   8 -11    9.15    0.50
   0   8 -11    8.77    0.48
   0   8 -11    9.37    0.38
   0  -8  11    9.32    0.50
   0  -8  11    9.01    0.44
   0  -8  11    9.09    0.35
   0  -8  11    8.83    0.36
  -1   8 -11    0.20    0.06
  -1   8 -11    0.20    0.16
  -1   8 -11    0.05    0.10
   1  -8  11    0.25    0.09
   1  -8  11    0.28    0.18
   1  -8  11    0.45    0.10
  -2   8 -11    3.83    0.23
  -2   8 -11    3.96    0.16
   2  -8  11    3.43    0.18
  -3   8 -11    1.14    0.11
  -3   8 -11    1.34    0.13
   3  -8  11    1.17    0.17
   3  -8  11    1.25    0.09
   3   7 -11    5.11    0.23
   3   7 -11    5.27    0.20
   3   7 -11    5.13    0.21
   3   7 -11    5.12    0.22
  -3  -7  11    4.80    0.20
   2   7 -11   14.89    0.51
   2   7 -11   14.19    0.65
   2   7 -11   14.50    0.52
   2   7 -11   14.40    0.65
   2   7 -11   14.63    0.52
   2   7 -11   14.15    0.54
  -2  -7  11   13.77    0.48
  -2  -7  11   13.24    0.57
  -2  -7  11   13.24    0.64
   1   7 -11    4.50    0.39
   1   7 -11    4.95    0.23
   1   7 -11    5.01    0.26
   1   7 -11    4.62    0.24
   1   7 -11    5.30    0.26
   1   7 -11    5.51    0.39
  -1  -7  11    5.16    0.34
  -1  -7  11    5.10    0.41
   0   7 -11    2.03    0.16
   0   7 -11    1.75    0.28
   0   7 -11    2.20    0.26
   0   7 -11    1.83    0.17
   0   7 -11    1.73    0.18
   0  -7  11    1.62    0.29
   0  -7  11    1.64    0.24
  -1   7 -11    1.15    0.23
  -1   7 -11    0.92    0.14
  -1   7 -11    0.47    0.11
  -1   7 -11    0.83    0.13
   1  -7  11    0.66    0.17
  -2   7 -11    3.67    0.18
  -2   7 -11    3.64    0.22
   2  -7  11    3.63    0.20
  -3   7 -11    4.05    0.21
  -3   7 -11    4.47    0.20
   3  -7  11    3.35    0.16
   3   6 -11    3.14    0.17
   3   6 -11    3.55    0.17
   3   6 -11    3.27    0.18
   3   6 -11    3.08    0.17
  -3  -6  11    3.03    0.17
   2   6 -11    8.12    0.47
   2   6 -11    9.10    0.37
   2   6 -11    8.93    0.48
   2   6 -11    8.36    0.34
   2   6 -11    8.66    0.33
   2   6 -11    7.75    0.33
  -2  -6  11    7.94    0.41
  -2  -6  11    7.27    0.48
   1   6 -11   11.71    0.58
   1   6 -11   11.52    0.42
   1   6 -11   10.39    0.38
   1   6 -11   11.45    0.42
   1   6 -11   11.52    0.58
   1   6 -11   10.86    0.43
   1   6 -11   10.86    0.45
   1   6 -11   11.84    0.48
  -1  -6  11   10.37    0.45
  -1  -6  11   10.86    0.51
  -1  -6  11   11.25    0.58
   0   6 -11   11.33    0.42
   0   6 -11   10.81    0.38
   0   6 -11   10.75    0.42
   0   6 -11   11.15    0.45
   0   6 -11   10.84    0.57
   0   6 -11   11.39    0.56
   0   6 -11   11.62    0.47
   0  -6  11   10.96    0.57
   0  -6  11   11.12    0.50
   0  -6  11   10.22    0.44
  -1   6 -11   28.22    0.97
  -1   6 -11   27.65    0.93
  -1   6 -11   26.87    0.89
  -1   6 -11   26.08    1.15
  -1   6 -11   27.27    0.95
  -1   6 -11   28.59    1.11
  -1   6 -11   27.85    1.08
  -1   6 -11   26.74    0.91
   1  -6  11   26.33    0.93
   1  -6  11   26.52    0.97
  -2   6 -11    3.69    0.22
  -2   6 -11    3.83    0.19
  -2   6 -11    3.42    0.32
  -2   6 -11    3.45    0.23
   2  -6  11    3.51    0.38
  -3   6 -11   18.75    0.63
  -3   6 -11   18.46    0.64
  -3   6 -11   18.66    0.65
  -3   6 -11   19.63    0.67
   3  -6  11   16.41    0.56
   4   5 -11   10.63    0.35
  -4  -5  11   10.17    0.35
   3   5 -11    0.38    0.09
   3   5 -11    0.44    0.07
   3   5 -11    0.61    0.11
   3   5 -11    0.57    0.19
   2   5 -11    3.77    0.25
   2   5 -11    3.91    0.19
   2   5 -11    4.72    0.36
   2   5 -11    3.52    0.22
   2   5 -11    4.17    0.34
   2   5 -11    3.70    0.16
   2   5 -11    3.66    0.22
   2   5 -11    3.84    0.20
  -2  -5  11    3.96    0.38
  -2  -5  11    3.85    0.25
  -2  -5  11    4.07    0.30
   1   5 -11   26.02    1.00
   1   5 -11   24.18    0.97
   1   5 -11   23.99    0.99
   1   5 -11   27.29    1.02
   1   5 -11   25.17    0.84
   1   5 -11   25.50    0.90
   1   5 -11   24.73    0.85
   1   5 -11   25.81    0.83
   1   5 -11   24.53    0.88
   1   5 -11   24.05    0.81
  -1  -5  11   24.79    0.88
  -1  -5  11   23.76    0.92
  -1  -5  11   25.31    1.00
   0   5 -11    0.24    0.28
   0   5 -11    0.17    0.05
   0   5 -11    0.14    0.10
   0   5 -11    0.33    0.20
   0   5 -11    0.30    0.10
   0   5 -11    0.11    0.10
   0   5 -11    0.23    0.07
   0   5 -11    0.14    0.08
   0   5 -11    0.23    0.18
   0   5 -11    0.31    0.08
   0   5 -11    0.51    0.20
   0   5 -11    0.24    0.11
   0   5 -11   -0.02    0.19
   0  -5  11    0.00    0.20
   0  -5  11    0.04    0.19
   0  -5  11    0.24    0.15
   0  -5  11   -0.08    0.33
   0  -5  11    0.17    0.10
   0  -5  11    0.53    0.16
  -1   5 -11    7.04    0.39
  -1   5 -11    6.80    0.25
  -1   5 -11    6.61    0.33
  -1   5 -11    6.67    0.30
  -1   5 -11    7.05    0.29
  -1   5 -11    7.35    0.44
  -1   5 -11    6.80    0.34
  -1   5 -11    6.82    0.41
  -1   5 -11    7.72    0.49
  -1   5 -11    6.82    0.32
   1  -5  11    5.84    0.30
  -2   5 -11    7.69    0.35
  -2   5 -11    7.61    0.42
  -2   5 -11    7.61    0.39
  -2   5 -11    8.15    0.45
  -2   5 -11    7.98    0.47
  -2   5 -11    7.80    0.36
  -2   5 -11    8.35    0.33
  -2   5 -11    8.42    0.32
  -2   5 -11    8.09    0.29
  -2   5 -11    8.41    0.37
   2  -5  11    7.65    0.52
   2  -5  11    7.85    0.36
  -3   5 -11    0.49    0.12
  -3   5 -11    0.26    0.09
  -3   5 -11    0.25    0.07
  -3   5 -11    0.44    0.08
  -4   5 -11   20.09    0.67
   4  -5  11   17.83    0.59
   4  -5  11   18.57    0.62
   4   4 -11    5.81    0.21
   4   4 -11    5.11    0.21
  -4  -4  11    5.07    0.20
   3   4 -11    1.04    0.15
   3   4 -11    1.20    0.11
   3   4 -11    1.28    0.12
   3   4 -11    1.07    0.08
   3   4 -11    1.06    0.20
   3   4 -11    1.33    0.14
   3   4 -11    1.44    0.26
   3   4 -11    1.29    0.16
   3   4 -11    1.23    0.11
  -3  -4  11    1.29    0.24
  -3  -4  11    1.05    0.17
   2   4 -11   38.83    1.45
   2   4 -11   40.49    1.32
   2   4 -11   37.73    1.29
   2   4 -11   38.55    1.45
   2   4 -11   38.57    1.36
   2   4 -11   39.61    1.29
   2   4 -11   41.17    1.34
   2   4 -11   41.41    1.33
   2   4 -11   40.56    1.29
   2   4 -11   40.77    1.47
   2   4 -11   42.78    1.47
   2   4 -11   40.92    1.28
  -2  -4  11   38.96    1.33
  -2  -4  11   40.23    1.44
  -2  -4  11   38.32    1.37
   1   4 -11    4.01    0.24
   1   4 -11    4.76    0.35
   1   4 -11    4.02    0.29
   1   4 -11    4.10    0.20
   1   4 -11    4.43    0.20
   1   4 -11    3.72    0.51
   1   4 -11    3.32    0.47
   1   4 -11    4.46    0.21
   1   4 -11    4.20    0.17
   1   4 -11    4.58    0.47
   1   4 -11    5.03    0.28
   1   4 -11    3.52    0.36
   1   4 -11    4.70    0.36
   1   4 -11    4.51    0.34
   1   4 -11    4.60    0.25
   1   4 -11    4.35    0.47
  -1  -4  11    3.89    0.47
  -1  -4  11    4.12    0.30
  -1  -4  11    4.27    0.25
  -1  -4  11    4.52    0.36
  -1  -4  11    4.30    0.36
   0   4 -11    2.90    0.34
   0   4 -11    3.31    0.37
   0   4 -11    2.72    0.20
   0   4 -11    2.54    0.29
   0   4 -11    2.83    0.29
   0   4 -11    2.68    0.37
   0   4 -11    2.83    0.30
   0   4 -11    3.17    0.47
   0  -4  11    2.46    0.20
   0  -4  11    2.94    0.30
   0  -4  11    2.52    0.30
   0  -4  11    2.40    0.39
  -1   4 -11    2.08    0.42
  -1   4 -11    2.74    0.35
  -1   4 -11    2.45    0.26
  -1   4 -11    2.78    0.30
  -1   4 -11    2.79    0.21
  -1   4 -11    2.60    0.20
  -1   4 -11    2.34    0.16
  -1   4 -11    2.34    0.16
  -1   4 -11    2.12    0.12
  -1   4 -11    2.45    0.29
  -1   4 -11    2.21    0.14
  -1   4 -11    2.54    0.21
   1  -4  11    2.26    0.27
   1  -4  11    1.99    0.19
   1  -4  11    2.84    0.40
  -2   4 -11    1.65    0.23
  -2   4 -11    1.80    0.27
  -2   4 -11    1.49    0.15
  -2   4 -11    1.66    0.10
  -2   4 -11    1.79    0.15
  -2   4 -11    1.68    0.12
  -2   4 -11    1.59    0.26
  -2   4 -11    1.56    0.20
  -2   4 -11    1.78    0.18
  -2   4 -11    1.41    0.17
   2  -4  11    2.41    0.38
   2  -4  11    1.35    0.18
  -3   4 -11    0.11    0.09
  -3   4 -11    0.23    0.07
  -3   4 -11    0.08    0.06
  -3   4 -11    0.09    0.12
  -3   4 -11    0.28    0.12
  -3   4 -11    0.18    0.09
  -3   4 -11    0.13    0.16
   3  -4  11    0.11    0.15
   3  -4  11    0.44    0.20
  -4   4 -11    3.11    0.13
  -4   4 -11    2.93    0.15
  -4   4 -11    2.88    0.15
   4  -4  11    2.47    0.13
   4  -4  11    2.36    0.15
   4   3 -11    0.34    0.07
   4   3 -11    0.40    0.06
   4   3 -11    0.26    0.05
   4   3 -11    0.42    0.08
   3   3 -11    0.56    0.07
   3   3 -11    0.43    0.07
   3   3 -11    0.76    0.20
   3   3 -11    0.58    0.11
   3   3 -11    0.50    0.09
   3   3 -11    0.99    0.21
   3   3 -11    0.49    0.18
   3   3 -11    0.80    0.14
   3   3 -11    0.47    0.05
  -3  -3  11    0.54    0.10
  -3  -3  11    0.66    0.18
   2   3 -11    3.78    0.35
   2   3 -11    4.40    0.36
   2   3 -11    4.20    0.35
   2   3 -11    4.01    0.17
   2   3 -11    3.75    0.21
   2   3 -11    4.31    0.19
   2   3 -11    4.07    0.16
   2   3 -11    4.03    0.23
   2   3 -11    4.03    0.24
   2   3 -11    4.08    0.16
  -2  -3  11    3.83    0.24
   1   3 -11    0.63    0.22
   1   3 -11    0.21    0.16
   1   3 -11    0.32    0.19
   1   3 -11    0.29    0.09
   1   3 -11    0.21    0.18
   1   3 -11    0.30    0.17
   1   3 -11    0.34    0.18
   1   3 -11    0.33    0.28
   1   3 -11    0.23    0.21
  -1  -3  11    0.33    0.09
  -1  -3  11    0.31    0.18
  -1  -3  11    0.20    0.14
  -1  -3  11   -0.02    0.21
  -1  -3  11    0.42    0.15
   0   3 -11   33.01    1.10
   0   3 -11   32.03    1.17
   0   3 -11   30.04    1.41
   0   3 -11   33.86    1.24
   0   3 -11   30.93    1.33
   0   3 -11   32.75    1.33
   0   3 -11   30.86    1.33
   0   3 -11   31.78    1.19
   0   3 -11   33.24    1.24
   0  -3  11   31.14    1.00
   0  -3  11   29.46    1.10
   0  -3  11   30.33    1.27
   0  -3  11   26.57    1.09
  -1   3 -11    7.38    0.33
  -1   3 -11    7.07    0.60
  -1   3 -11    6.46    0.47
  -1   3 -11    8.01    0.46
  -1   3 -11    6.97    0.42
  -1   3 -11    6.89    0.39
  -1   3 -11    6.51    0.51
  -1   3 -11    6.85    0.53
   1  -3  11    6.16    0.52
   1  -3  11    6.34    0.30
   1  -3  11    6.99    0.38
   1  -3  11    6.51    0.60
  -2   3 -11   34.11    1.09
  -2   3 -11   32.89    1.15
  -2   3 -11   33.55    1.08
  -2   3 -11   33.62    1.14
  -2   3 -11   32.01    1.07
  -2   3 -11   34.12    1.20
  -2   3 -11   33.01    1.28
  -2   3 -11   33.69    1.07
  -2   3 -11   33.93    1.15
  -2   3 -11   32.46    1.23
   2  -3  11   32.42    1.11
  -3   3 -11    1.76    0.20
  -3   3 -11    1.37    0.15
  -3   3 -11    1.68    0.16
  -3   3 -11    1.37    0.16
  -3   3 -11    1.56    0.26
  -3   3 -11    1.69    0.09
  -3   3 -11    1.59    0.17
  -3   3 -11    1.79    0.22
  -3   3 -11    1.70    0.14
  -3   3 -11    1.55    0.10
   3  -3  11    1.36    0.27
   3  -3  11    1.67    0.17
   3  -3  11    1.71    0.27
  -4   3 -11    5.26    0.22
  -4   3 -11    5.60    0.23
  -4   3 -11    6.21    0.22
   4  -3  11    4.65    0.20
   4   2 -11   16.41    0.55
   4   2 -11   16.40    0.53
   4   2 -11   16.69    0.54
   4   2 -11   16.22    0.55
   4   2 -11   16.47    0.57
   4   2 -11   16.32    0.54
   3   2 -11   10.58    0.52
   3   2 -11   10.51    0.38
   3   2 -11   10.09    0.40
   3   2 -11   10.28    0.52
   3   2 -11    9.98    0.34
   3   2 -11   10.35    0.36
   3   2 -11   10.46    0.35
   3   2 -11    9.97    0.42
   3   2 -11    8.55    0.50
   3   2 -11    9.86    0.52
  -3  -2  11    8.18    0.37
   2   2 -11    3.79    0.33
   2   2 -11    3.75    0.22
   2   2 -11    2.93    0.33
   2   2 -11    3.31    0.20
   2   2 -11    3.50    0.15
   2   2 -11    3.12    0.32
   2   2 -11    3.26    0.15
   2   2 -11    3.15    0.22
   2   2 -11    3.31    0.33
   2   2 -11    3.58    0.14
  -2  -2  11    3.05    0.21
   1   2 -11    2.68    0.28
   1   2 -11    3.10    0.19
   1   2 -11    2.91    0.33
   1   2 -11    2.97    0.32
   1   2 -11    3.21    0.31
   1   2 -11    2.90    0.30
   1   2 -11    3.09    0.37
   1   2 -11    2.75    0.38
   1   2 -11    2.96    0.47
   1   2 -11    3.34    0.29
  -1  -2  11    2.60    0.25
  -1  -2  11    2.59    0.26
  -1  -2  11    2.21    0.41
  -1  -2  11    2.89    0.19
   0   2 -11   75.17    2.52
   0   2 -11   80.52    2.75
   0   2 -11   78.49    2.59
   0   2 -11   77.28    2.76
   0   2 -11   79.96    2.78
   0   2 -11   79.46    2.66
   0   2 -11   75.28    2.87
   0   2 -11   77.65    2.62
   0   2 -11   78.29    2.66
   0  -2  11   71.15    2.37
   0  -2  11   70.37    2.29
   0  -2  11   72.25    2.57
  -1   2 -11    6.80    0.50
  -1   2 -11    7.06    0.48
  -1   2 -11    6.91    0.42
  -1   2 -11    6.97    0.39
  -1   2 -11    7.29    0.45
  -1   2 -11    6.04    0.57
  -1   2 -11    7.00    0.32
  -1   2 -11    7.68    0.53
   1  -2  11    6.84    0.36
   1  -2  11    6.61    0.58
   1  -2  11    6.48    0.30
   1  -2  11    6.12    0.50
  -2   2 -11    1.44    0.13
  -2   2 -11    1.25    0.23
  -2   2 -11    1.14    0.19
  -2   2 -11    1.56    0.27
  -2   2 -11    1.19    0.21
  -2   2 -11    1.52    0.18
  -2   2 -11    1.46    0.09
  -2   2 -11    1.36    0.18
  -2   2 -11    1.41    0.11
   2  -2  11    1.18    0.16
  -3   2 -11    9.88    0.47
  -3   2 -11   10.53    0.42
  -3   2 -11   10.71    0.44
  -3   2 -11    9.57    0.51
  -3   2 -11   11.06    0.37
  -3   2 -11    9.16    0.53
  -3   2 -11   10.80    0.38
  -3   2 -11    9.89    0.46
  -3   2 -11   10.59    0.35
  -3   2 -11   10.48    0.44
  -3   2 -11   10.00    0.40
   3  -2  11    9.66    0.40
   3  -2  11    8.91    0.55
   3  -2  11    9.70    0.48
  -4   2 -11    4.00    0.19
  -4   2 -11    4.29    0.18
  -4   2 -11    4.30    0.18
   4   1 -11    2.36    0.10
   4   1 -11    2.35    0.11
   4   1 -11    2.68    0.11
   4   1 -11    2.62    0.13
   4   1 -11    2.37    0.13
   4   1 -11    2.51    0.15
   3   1 -11   10.33    0.38
   3   1 -11    9.71    0.33
   3   1 -11    9.69    0.39
   3   1 -11    9.90    0.34
   3   1 -11   10.05    0.52
   3   1 -11    9.45    0.51
   3   1 -11    9.98    0.34
   3   1 -11    9.25    0.49
   3   1 -11    9.50    0.41
  -3  -1  11    8.96    0.39
   2   1 -11    6.51    0.24
   2   1 -11    6.35    0.24
   2   1 -11    6.70    0.31
   2   1 -11    6.38    0.23
   2   1 -11    6.48    0.41
   2   1 -11    6.84    0.31
   2   1 -11    6.56    0.43
   2   1 -11    6.85    0.43
   2   1 -11    6.33    0.29
   2   1 -11    7.20    0.44
  -2  -1  11    6.06    0.29
   1   1 -11   15.39    0.68
   1   1 -11   15.14    0.78
   1   1 -11   15.15    0.68
   1   1 -11   15.45    0.70
   1   1 -11   15.57    0.75
   1   1 -11   16.32    0.93
   1   1 -11   16.37    0.70
  -1  -1  11   13.34    0.57
   0   1 -11   20.12    0.97
   0   1 -11   20.08    0.90
   0   1 -11   20.85    1.08
   0   1 -11   20.73    0.97
   0   1 -11   21.45    0.88
   0   1 -11   21.03    0.89
   0   1 -11   21.85    0.81
   0   1 -11   22.19    0.86
   0  -1  11   18.98    0.73
   0  -1  11   20.33    0.93
  -1   1 -11   34.20    1.19
  -1   1 -11   30.19    1.42
  -1   1 -11   31.79    1.31
  -1   1 -11   34.63    1.29
  -1   1 -11   33.23    1.12
  -1   1 -11   32.03    1.37
  -1   1 -11   34.47    1.23
  -1   1 -11   34.59    1.28
   1  -1  11   30.30    1.31
   1  -1  11   30.84    1.03
   1  -1  11   29.87    1.09
  -2   1 -11    7.46    0.35
  -2   1 -11    7.41    0.28
  -2   1 -11    7.45    0.45
  -2   1 -11    7.54    0.40
  -2   1 -11    6.99    0.35
  -2   1 -11    7.05    0.47
  -2   1 -11    7.65    0.27
  -2   1 -11    7.51    0.34
  -2   1 -11    8.08    0.27
   2  -1  11    7.20    0.33
  -3   1 -11    1.01    0.16
  -3   1 -11    0.98    0.15
  -3   1 -11    0.95    0.11
  -3   1 -11    0.97    0.15
  -3   1 -11    1.05    0.14
  -3   1 -11    0.87    0.22
  -3   1 -11    0.90    0.09
  -3   1 -11    1.15    0.18
  -3   1 -11    0.51    0.11
  -3   1 -11    1.30    0.23
  -3   1 -11    0.91    0.08
   3  -1  11    0.61    0.21
   3  -1  11    1.00    0.20
   3  -1  11    0.90    0.15
  -4   1 -11    5.77    0.21
  -4   1 -11    5.59    0.22
  -4   1 -11    5.26    0.19
  -4   1 -11    5.64    0.20
  -4   1 -11    5.59    0.23
   4  -1  11    4.81    0.21
   4   0 -11    0.29    0.06
   4   0 -11    0.40    0.05
   4   0 -11    0.28    0.04
   4   0 -11    0.39    0.06
   4   0 -11    0.32    0.06
   4   0 -11    0.51    0.08
   3   0 -11   10.30    0.36
   3   0 -11   10.49    0.53
   3   0 -11   10.56    0.36
   3   0 -11   10.72    0.41
   3   0 -11   10.38    0.36
   3   0 -11   10.39    0.43
   3   0 -11   10.38    0.52
   3   0 -11   10.90    0.40
   3   0 -11   11.27    0.55
  -3   0  11    9.96    0.41
   2   0 -11    8.06    0.33
   2   0 -11    8.62    0.48
   2   0 -11    8.18    0.48
   2   0 -11    8.10    0.35
   2   0 -11    8.05    0.28
   2   0 -11    7.97    0.35
   2   0 -11    7.65    0.46
   2   0 -11    7.87    0.28
   2   0 -11    8.94    0.49
   2   0 -11    7.86    0.28
  -2   0  11    7.70    0.33
   1   0 -11   16.19    0.84
   1   0 -11   16.07    0.66
   1   0 -11   17.46    0.72
   1   0 -11   17.07    1.03
   1   0 -11   16.11    0.54
   1   0 -11   17.13    0.71
   1   0 -11   16.58    0.71
   1   0 -11   16.16    0.94
   1   0 -11   16.68    0.73
   1   0 -11   16.13    0.60
   1   0 -11   16.24    0.54
  -1   0  11   15.47    0.62
   0   0 -11   53.57    2.11
   0   0 -11   55.24    1.90
   0   0 -11   55.08    1.86
   0   0 -11   51.97    1.98
   0   0 -11   54.01    1.82
   0   0 -11   57.00    1.90
   0   0 -11   52.94    1.99
   0   0 -11   48.72    1.87
   0   0  11   48.41    1.57
   0   0  11   45.27    1.78
  -1   0 -11    7.06    0.45
  -1   0 -11    7.17    0.25
  -1   0 -11    7.07    0.33
  -1   0 -11    7.55    0.39
  -1   0 -11    7.08    0.48
  -1   0 -11    6.97    0.33
  -1   0 -11    6.73    0.61
  -1   0 -11    7.70    0.43
  -1   0 -11    6.78    0.25
   1   0  11    6.89    0.35
  -2   0 -11    8.25    0.30
  -2   0 -11    8.98    0.29
  -2   0 -11    8.14    0.36
  -2   0 -11    9.14    0.52
  -2   0 -11    8.20    0.37
  -2   0 -11    8.41    0.30
  -2   0 -11    8.14    0.47
  -2   0 -11    7.74    0.37
  -2   0 -11    8.93    0.44
   2   0  11    8.31    0.36
   2   0  11    8.25    0.52
  -3   0 -11    8.45    0.30
  -3   0 -11    8.56    0.30
  -3   0 -11    8.01    0.41
  -3   0 -11    8.46    0.48
  -3   0 -11    8.47    0.36
  -3   0 -11    8.35    0.29
  -3   0 -11    8.23    0.41
  -3   0 -11    8.42    0.36
  -3   0 -11    8.37    0.34
  -3   0 -11    8.57    0.37
   3   0  11    7.62    0.33
   3   0  11    7.49    0.42
  -4   0 -11    3.86    0.15
  -4   0 -11    3.87    0.15
  -4   0 -11    4.14    0.17
  -4   0 -11    3.91    0.18
  -4   0 -11    3.99    0.19
  -4   0 -11    4.16    0.15
   4  -1 -11    4.11    0.17
   4  -1 -11    4.27    0.19
   4  -1 -11    4.17    0.15
   4  -1 -11    4.00    0.15
   4  -1 -11    4.11    0.14
   3  -1 -11   15.71    0.50
   3  -1 -11   14.72    0.57
   3  -1 -11   15.57    0.51
   3  -1 -11   15.29    0.51
   3  -1 -11   15.04    0.67
   3  -1 -11   15.55    0.55
   3  -1 -11   15.65    0.56
   3  -1 -11   15.95    0.69
  -3   1  11   14.24    0.61
  -3   1  11   13.77    0.53
   2  -1 -11   40.35    1.38
   2  -1 -11   36.44    1.18
   2  -1 -11   37.76    1.39
   2  -1 -11   37.22    1.23
   2  -1 -11   36.84    1.37
   2  -1 -11   38.12    1.25
   2  -1 -11   34.86    1.36
   2  -1 -11   37.59    1.19
   1  -1 -11   19.56    0.72
   1  -1 -11   21.48    0.85
   1  -1 -11   21.15    0.66
   0  -1 -11    0.50    0.05
   0  -1 -11    0.43    0.26
   0  -1 -11    0.89    0.13
   0  -1 -11    1.05    0.24
   0  -1 -11    0.41    0.18
  -1  -1 -11   18.63    0.71
  -1  -1 -11   17.69    0.58
  -1  -1 -11   16.40    0.89
  -1  -1 -11   17.93    0.66
  -1  -1 -11   17.95    0.89
  -1  -1 -11   18.14    0.79
  -2  -1 -11    4.84    0.19
  -2  -1 -11    5.01    0.19
  -2  -1 -11    4.72    0.27
  -2  -1 -11    5.03    0.25
  -2  -1 -11    5.39    0.41
  -2  -1 -11    5.12    0.19
  -2  -1 -11    5.53    0.33
   2   1  11    4.86    0.25
  -3  -1 -11    6.44    0.29
  -3  -1 -11    6.45    0.23
  -3  -1 -11    6.68    0.23
  -3  -1 -11    6.19    0.23
  -3  -1 -11    6.64    0.30
   3  -2 -11    2.54    0.16
   3  -2 -11    2.73    0.11
   3  -2 -11    2.45    0.11
   3  -2 -11    2.48    0.17
   2  -2 -11   44.65    1.49
   2  -2 -11   45.52    1.61
   2  -2 -11   45.42    1.62
   2  -2 -11   46.65    1.48
   2  -2 -11   44.64    1.62
   2  -2 -11   46.33    1.44
   2  -2 -11   44.86    1.61
  -1  -2 -11   25.30    0.81
  -1  -2 -11   26.62    0.95
  -1  -2 -11   24.63    1.03
  -1  -2 -11   25.54    0.90
  -2  -2 -11    2.16    0.24
  -2  -2 -11    2.24    0.11
  -2  -2 -11    2.78    0.31
  -2  -2 -11    2.56    0.20
  -3  -2 -11    1.00    0.07
  -3  -2 -11    0.89    0.06
  -3  -2 -11    0.89    0.13
  -3  -2 -11    0.92    0.07
  -3  -2 -11    1.08    0.14
   3  -3 -11    9.15    0.30
   3  -3 -11    8.85    0.33
   3  -3 -11    9.04    0.30
   2  -3 -11   17.98    0.58
   2  -3 -11   17.95    0.74
   2  -3 -11   17.51    0.74
   2  -3 -11   18.77    0.62
  -2  -3 -11    0.17    0.10
  -2  -3 -11    0.12    0.09
  -2  -3 -11    0.21    0.13
  -2  -3 -11    0.13    0.17
  -2  -3 -11    0.11    0.03
  -3  -3 -11    1.11    0.13
  -3  -3 -11    1.16    0.07
  -3  -3 -11    1.28    0.13
  -3  -3 -11    1.21    0.07
   3  -4 -11    1.51    0.07
   3  -4 -11    1.52    0.06
   3  -4 -11    1.49    0.11
   2  -4 -11    3.89    0.18
  -2  -4 -11   12.04    0.44
  -2  -4 -11   11.51    0.38
  -2  -4 -11   12.12    0.45
  -3  -4 -11    5.42    0.23
  -3  -4 -11    5.28    0.22
  -3  -4 -11    5.39    0.18
  -3  -4 -11    5.28    0.18
  -2  -5 -11    5.08    0.22
   1  10 -12    0.58    0.09
   1  10 -12    0.61    0.11
  -1 -10  12    0.70    0.10
  -1 -10  12    0.64    0.12
  -1 -10  12    0.60    0.06
   0  10 -12    2.35    0.15
   0 -10  12    2.58    0.14
   0 -10  12    2.49    0.11
   0 -10  12    2.46    0.17
  -1  10 -12    1.41    0.13
   1 -10  12    1.69    0.15
   1 -10  12    1.44    0.10
   2   9 -12    2.35    0.13
   2   9 -12    2.56    0.14
  -2  -9  12    2.18    0.11
  -2  -9  12    2.45    0.13
   1   9 -12    6.54    0.27
   1   9 -12    6.75    0.28
  -1  -9  12    6.50    0.25
  -1  -9  12    7.03    0.28
   0   9 -12    3.63    0.19
   0   9 -12    3.30    0.15
   0   9 -12    3.34    0.18
   0  -9  12    3.20    0.16
   0  -9  12    3.27    0.17
  -1   9 -12    4.76    0.23
   1  -9  12    4.90    0.20
   1  -9  12    4.84    0.21
  -2   9 -12    0.78    0.11
   2  -9  12    0.63    0.07
   2  -9  12    1.10    0.20
   2   8 -12    5.54    0.21
   2   8 -12    5.74    0.23
   2   8 -12    5.76    0.25
  -2  -8  12    5.38    0.22
  -2  -8  12    5.73    0.24
   1   8 -12   25.64    0.87
   1   8 -12   24.30    0.84
   1   8 -12   25.94    0.83
  -1  -8  12   25.32    0.85
  -1  -8  12   25.32    0.84
   0   8 -12    2.58    0.30
   0   8 -12    2.56    0.18
   0   8 -12    2.83    0.15
   0   8 -12    2.58    0.19
   0  -8  12    2.18    0.25
   0  -8  12    2.41    0.16
   0  -8  12    2.28    0.17
  -1   8 -12   10.03    0.39
  -1   8 -12   10.34    0.36
   1  -8  12    9.43    0.36
   1  -8  12    9.68    0.36
  -2   8 -12    1.74    0.09
  -2   8 -12    1.61    0.13
   2  -8  12    1.40    0.12
   3   7 -12    1.07    0.08
   3   7 -12    1.11    0.07
   3   7 -12    1.19    0.10
  -3  -7  12    0.94    0.09
   2   7 -12    3.84    0.19
   2   7 -12    3.94    0.18
   2   7 -12    3.98    0.21
   2   7 -12    3.69    0.18
  -2  -7  12    3.56    0.18
   1   7 -12    9.05    0.34
   1   7 -12    8.58    0.48
   1   7 -12    8.32    0.36
   1   7 -12    8.49    0.48
   1   7 -12    8.36    0.34
   1   7 -12    9.42    0.34
  -1  -7  12    8.50    0.49
  -1  -7  12    8.70    0.43
   0   7 -12    3.50    0.19
   0   7 -12    3.78    0.22
   0   7 -12    3.67    0.32
   0   7 -12    3.34    0.20
   0   7 -12    3.70    0.34
   0  -7  12    3.34    0.28
   0  -7  12    3.52    0.33
   0  -7  12    3.34    0.20
  -1   7 -12   10.51    0.38
  -1   7 -12    9.93    0.41
  -1   7 -12    9.59    0.51
  -1   7 -12   10.74    0.39
   1  -7  12    8.74    0.42
  -2   7 -12    0.08    0.06
  -2   7 -12    0.09    0.07
   2  -7  12    0.13    0.08
  -3   7 -12    1.46    0.09
  -3   7 -12    1.55    0.11
   3  -7  12    1.30    0.10
   3   6 -12    1.39    0.11
   3   6 -12    1.62    0.11
   3   6 -12    1.54    0.11
   3   6 -12    1.38    0.08
  -3  -6  12    1.38    0.12
   2   6 -12    3.68    0.19
   2   6 -12    3.36    0.20
   2   6 -12    3.08    0.18
   2   6 -12    3.26    0.17
   2   6 -12    3.28    0.30
   2   6 -12    3.68    0.31
   2   6 -12    3.38    0.17
  -2  -6  12    3.64    0.26
  -2  -6  12    2.98    0.32
   1   6 -12   19.12    0.74
   1   6 -12   21.17    0.69
   1   6 -12   21.34    0.69
   1   6 -12   20.61    0.73
   1   6 -12   20.06    0.67
   1   6 -12   20.56    0.71
   1   6 -12   21.26    0.86
   1   6 -12   19.31    0.70
   1   6 -12   20.77    0.85
  -1  -6  12   20.93    0.77
  -1  -6  12   18.17    0.71
  -1  -6  12   19.70    0.83
   0   6 -12   15.74    0.70
   0   6 -12   15.59    0.53
   0   6 -12   14.42    0.56
   0   6 -12   14.28    0.58
   0   6 -12   15.82    0.54
   0   6 -12   15.02    0.52
   0   6 -12   15.23    0.50
   0   6 -12   14.39    0.68
   0   6 -12   14.55    0.53
   0  -6  12   13.17    0.64
   0  -6  12   13.63    0.54
   0  -6  12   14.22    0.59
  -1   6 -12    2.76    0.21
  -1   6 -12    2.41    0.19
  -1   6 -12    2.37    0.17
  -1   6 -12    2.41    0.20
  -1   6 -12    2.27    0.16
  -1   6 -12    2.35    0.12
  -1   6 -12    2.40    0.28
  -1   6 -12    2.28    0.28
  -1   6 -12    2.23    0.17
   1  -6  12    2.20    0.20
   1  -6  12    2.11    0.24
  -2   6 -12    5.62    0.51
  -2   6 -12    4.58    0.21
  -2   6 -12    4.65    0.25
  -2   6 -12    4.42    0.21
  -3   6 -12    1.09    0.11
  -3   6 -12    1.14    0.09
  -3   6 -12    1.12    0.14
  -3   6 -12    1.12    0.08
   3  -6  12    1.20    0.11
   3   5 -12    0.25    0.08
   3   5 -12    0.26    0.06
   3   5 -12    0.35    0.07
   2   5 -12    5.65    0.21
   2   5 -12    4.50    0.28
   2   5 -12    5.77    0.37
   2   5 -12    5.33    0.24
   2   5 -12    5.47    0.23
   2   5 -12    5.48    0.27
   2   5 -12    5.67    0.39
   2   5 -12    5.59    0.21
   2   5 -12    5.49    0.26
   2   5 -12    5.81    0.26
  -2  -5  12    5.21    0.33
  -2  -5  12    5.35    0.28
  -2  -5  12    5.40    0.41
   1   5 -12   19.69    0.63
   1   5 -12   18.91    0.81
   1   5 -12   18.30    0.62
   1   5 -12   20.14    0.81
   1   5 -12   17.79    0.67
   1   5 -12   18.94    0.62
   1   5 -12   17.90    0.80
   1   5 -12   18.33    0.70
   1   5 -12   18.85    0.65
   1   5 -12   18.77    0.62
   1   5 -12   18.78    0.68
   1   5 -12   18.08    0.78
  -1  -5  12   16.89    0.78
  -1  -5  12   18.31    0.67
  -1  -5  12   18.07    0.72
   0   5 -12   12.72    0.47
   0   5 -12   13.14    0.52
   0   5 -12   13.25    0.63
   0   5 -12   12.95    0.44
   0   5 -12   12.11    0.62
   0   5 -12   12.65    0.60
   0   5 -12   12.76    0.49
   0   5 -12   12.91    0.43
   0   5 -12   12.55    0.45
   0   5 -12   12.63    0.50
   0   5 -12   13.17    0.61
   0  -5  12   12.74    0.49
   0  -5  12   12.13    0.54
   0  -5  12   11.33    0.58
  -1   5 -12    2.94    0.30
  -1   5 -12    2.41    0.12
  -1   5 -12    2.82    0.20
  -1   5 -12    2.33    0.16
  -1   5 -12    2.67    0.35
  -1   5 -12    2.83    0.21
  -1   5 -12    2.49    0.16
  -1   5 -12    2.40    0.21
  -1   5 -12    2.37    0.14
  -1   5 -12    2.51    0.29
   1  -5  12    2.33    0.21
  -2   5 -12    0.02    0.08
  -2   5 -12   -0.12    0.16
  -2   5 -12    0.04    0.06
  -2   5 -12    0.03    0.05
  -2   5 -12    0.02    0.11
  -2   5 -12    0.05    0.15
  -2   5 -12    0.06    0.06
  -2   5 -12    0.18    0.08
  -2   5 -12    0.00    0.09
   2  -5  12   -0.03    0.10
   2  -5  12    0.09    0.20
  -3   5 -12    0.69    0.11
  -3   5 -12    0.59    0.08
  -3   5 -12    0.69    0.09
  -3   5 -12    0.57    0.09
   3   4 -12   26.63    0.87
   3   4 -12   27.46    0.90
   3   4 -12   27.07    0.89
   3   4 -12   26.33    0.88
   3   4 -12   27.01    0.86
   3   4 -12   26.17    0.87
   2   4 -12   12.71    0.49
   2   4 -12   12.93    0.49
   2   4 -12   13.37    0.43
   2   4 -12   12.92    0.61
   2   4 -12   13.03    0.44
   2   4 -12   13.10    0.51
   2   4 -12   12.21    0.60
   2   4 -12   13.26    0.44
   2   4 -12   11.68    0.60
   2   4 -12   12.51    0.47
  -2  -4  12   11.53    0.47
  -2  -4  12   11.36    0.59
   1   4 -12    0.82    0.12
   1   4 -12    1.05    0.22
   1   4 -12    0.73    0.08
   1   4 -12    0.66    0.21
   1   4 -12    1.03    0.23
   1   4 -12    0.74    0.22
   1   4 -12    1.04    0.15
   1   4 -12    0.69    0.12
   1   4 -12    0.67    0.08
   1   4 -12    0.82    0.10
   1   4 -12    0.59    0.11
  -1  -4  12    0.95    0.17
  -1  -4  12    0.94    0.24
  -1  -4  12    1.26    0.19
   0   4 -12    5.95    0.31
   0   4 -12    6.41    0.24
   0   4 -12    6.21    0.25
   0   4 -12    5.93    0.45
   0   4 -12    6.66    0.25
   0   4 -12    6.79    0.26
   0   4 -12    6.26    0.31
   0   4 -12    6.71    0.32
   0   4 -12    6.67    0.43
   0   4 -12    6.27    0.40
   0  -4  12    5.98    0.30
  -1   4 -12   69.57    2.50
  -1   4 -12   73.64    2.43
  -1   4 -12   73.52    2.35
  -1   4 -12   73.56    2.31
  -1   4 -12   72.73    2.36
  -1   4 -12   72.64    2.45
  -1   4 -12   73.40    2.30
  -1   4 -12   70.35    2.28
  -1   4 -12   71.93    2.50
  -1   4 -12   72.52    2.29
  -1   4 -12   73.30    2.37
   1  -4  12   68.17    2.22
  -2   4 -12    1.92    0.27
  -2   4 -12    1.82    0.26
  -2   4 -12    1.78    0.20
  -2   4 -12    1.72    0.10
  -2   4 -12    1.80    0.18
  -2   4 -12    1.88    0.12
  -2   4 -12    1.86    0.18
  -2   4 -12    2.03    0.24
  -2   4 -12    1.79    0.15
   2  -4  12    1.85    0.18
   2  -4  12    2.26    0.38
  -3   4 -12    0.46    0.09
  -3   4 -12    0.61    0.12
  -3   4 -12    0.38    0.08
  -3   4 -12    0.46    0.07
   3   3 -12    5.15    0.20
   3   3 -12    5.05    0.24
   3   3 -12    5.24    0.23
   3   3 -12    5.19    0.19
   3   3 -12    5.15    0.20
   2   3 -12   10.18    0.56
   2   3 -12   12.09    0.40
   2   3 -12   11.69    0.47
   2   3 -12   11.55    0.57
   2   3 -12   11.71    0.39
   2   3 -12   12.16    0.40
   2   3 -12   11.70    0.58
   2   3 -12   11.25    0.43
   2   3 -12   11.82    0.46
  -2  -3  12   10.77    0.55
  -2  -3  12   10.84    0.45
   1   3 -12   18.95    0.69
   1   3 -12   19.57    0.71
   1   3 -12   17.61    0.83
   1   3 -12   20.78    0.82
   1   3 -12   19.38    0.63
   1   3 -12   19.84    0.64
   1   3 -12   18.97    0.64
   1   3 -12   19.05    0.67
   1   3 -12   19.47    0.83
   1   3 -12   19.82    0.81
   1   3 -12   19.51    0.70
  -1  -3  12   18.34    0.77
  -1  -3  12   18.86    0.66
  -1  -3  12   16.77    0.71
   0   3 -12    0.98    0.24
   0   3 -12    0.96    0.17
   0   3 -12    0.76    0.13
   0   3 -12    0.72    0.09
   0   3 -12    0.80    0.08
   0   3 -12    0.76    0.23
   0   3 -12    0.83    0.21
   0   3 -12    0.63    0.12
   0   3 -12    0.82    0.10
   0   3 -12    1.04    0.19
   0  -3  12    0.67    0.11
  -1   3 -12    0.63    0.21
  -1   3 -12    0.52    0.13
  -1   3 -12    0.27    0.05
  -1   3 -12    0.34    0.06
  -1   3 -12    0.52    0.25
  -1   3 -12    0.35    0.07
  -1   3 -12    0.37    0.11
  -1   3 -12    0.52    0.12
  -1   3 -12    0.13    0.18
  -1   3 -12    0.44    0.15
   1  -3  12    0.45    0.10
  -2   3 -12    1.48    0.22
  -2   3 -12    1.33    0.17
  -2   3 -12    1.36    0.11
  -2   3 -12    1.20    0.19
  -2   3 -12    1.36    0.13
  -2   3 -12    1.41    0.26
  -2   3 -12    1.25    0.16
  -2   3 -12    1.19    0.09
  -2   3 -12    1.26    0.23
   2  -3  12    1.23    0.28
   2  -3  12    1.30    0.16
  -3   3 -12    4.14    0.22
  -3   3 -12    3.96    0.16
  -3   3 -12    4.81    0.25
  -3   3 -12    3.91    0.17
  -3   3 -12    4.49    0.19
  -3   3 -12    4.03    0.19
  -3   3 -12    4.39    0.21
   3   2 -12    8.47    0.33
   3   2 -12    8.85    0.30
   3   2 -12    8.76    0.30
   3   2 -12    8.44    0.30
   3   2 -12    8.97    0.35
   2   2 -12    0.71    0.08
   2   2 -12    0.80    0.11
   2   2 -12    0.81    0.23
   2   2 -12    0.75    0.08
   2   2 -12    0.82    0.21
   2   2 -12    0.78    0.07
   2   2 -12    0.77    0.13
   2   2 -12    0.83    0.22
   2   2 -12    0.59    0.11
  -2  -2  12    0.67    0.11
   1   2 -12    4.61    0.36
   1   2 -12    4.85    0.18
   1   2 -12    4.69    0.17
   1   2 -12    4.49    0.25
   1   2 -12    4.05    0.38
   1   2 -12    4.33    0.22
   1   2 -12    4.51    0.36
   1   2 -12    4.28    0.18
   1   2 -12    4.72    0.25
   1   2 -12    4.69    0.35
  -1  -2  12    3.65    0.30
  -1  -2  12    4.38    0.24
  -1  -2  12    4.23    0.33
   0   2 -12    0.30    0.22
   0   2 -12    0.07    0.08
   0   2 -12    0.07    0.09
   0   2 -12    0.23    0.14
   0   2 -12    0.12    0.04
   0   2 -12    0.15    0.05
   0   2 -12    0.16    0.04
   0   2 -12    0.07    0.18
   0   2 -12    0.21    0.12
   0   2 -12    0.13    0.17
   0  -2  12    0.06    0.08
  -1   2 -12   13.53    0.58
  -1   2 -12   13.30    0.68
  -1   2 -12   13.11    0.44
  -1   2 -12   13.46    0.44
  -1   2 -12   12.96    0.64
  -1   2 -12   13.00    0.45
  -1   2 -12   13.12    0.52
  -1   2 -12   12.90    0.51
  -1   2 -12   13.13    0.61
  -1   2 -12   12.36    0.50
   1  -2  12   12.54    0.48
  -2   2 -12    5.85    0.30
  -2   2 -12    6.11    0.24
  -2   2 -12    6.21    0.22
  -2   2 -12    6.01    0.39
  -2   2 -12    5.55    0.29
  -2   2 -12    5.67    0.35
  -2   2 -12    6.07    0.41
  -2   2 -12    6.18    0.31
  -2   2 -12    6.15    0.23
   2  -2  12    5.99    0.47
   2  -2  12    5.54    0.28
  -3   2 -12    3.40    0.22
  -3   2 -12    3.16    0.19
  -3   2 -12    3.25    0.13
  -3   2 -12    3.06    0.15
  -3   2 -12    3.36    0.14
  -3   2 -12    2.85    0.18
   3   1 -12   10.56    0.41
   3   1 -12   10.77    0.40
   3   1 -12   11.54    0.37
   3   1 -12   10.67    0.36
   3   1 -12   10.82    0.37
   2   1 -12    0.68    0.07
   2   1 -12    0.50    0.19
   2   1 -12    0.87    0.21
   2   1 -12    0.71    0.07
   2   1 -12    0.61    0.19
   2   1 -12    0.68    0.06
   2   1 -12    0.53    0.10
   2   1 -12    0.66    0.17
   2   1 -12    0.62    0.11
   2   1 -12    0.72    0.11
  -2  -1  12    0.46    0.10
   1   1 -12   31.34    1.05
   1   1 -12   30.84    1.19
   1   1 -12   31.50    1.08
   1   1 -12   32.15    1.02
   1   1 -12   32.22    1.08
   1   1 -12   31.30    1.02
   1   1 -12   32.16    1.22
   1   1 -12   33.26    1.19
  -1  -1  12   28.90    1.04
   0   1 -12   12.07    0.41
   0   1 -12   11.78    0.48
   0   1 -12   12.00    0.49
   0   1 -12   13.02    0.62
   0   1 -12   13.44    0.64
   0   1 -12   11.72    0.41
   0   1 -12   13.24    0.60
   0   1 -12   12.53    0.55
  -1   1 -12    2.54    0.12
  -1   1 -12    2.43    0.35
  -1   1 -12    2.58    0.11
  -1   1 -12    2.51    0.31
  -1   1 -12    2.27    0.25
  -1   1 -12    2.65    0.30
  -1   1 -12    2.44    0.21
  -1   1 -12    2.04    0.17
  -1   1 -12    2.11    0.20
  -1   1 -12    2.34    0.12
   1  -1  12    2.14    0.17
  -2   1 -12    4.10    0.16
  -2   1 -12    3.66    0.29
  -2   1 -12    3.99    0.34
  -2   1 -12    4.04    0.17
  -2   1 -12    4.24    0.35
  -2   1 -12    4.16    0.23
  -2   1 -12    3.87    0.25
  -2   1 -12    3.92    0.24
  -2   1 -12    3.73    0.17
   2  -1  12    4.22    0.41
   2  -1  12    3.74    0.23
  -3   1 -12    2.87    0.13
  -3   1 -12    2.90    0.12
  -3   1 -12    2.88    0.18
  -3   1 -12    2.73    0.18
  -3   1 -12    3.02    0.14
  -3   1 -12    2.77    0.20
   3   0 -12    0.34    0.08
   3   0 -12    0.17    0.03
   3   0 -12    0.16    0.03
   3   0 -12    0.19    0.04
   3   0 -12    0.23    0.09
   2   0 -12   33.68    1.25
   2   0 -12   34.26    1.07
   2   0 -12   34.02    1.11
   2   0 -12   31.45    1.23
   2   0 -12   33.16    1.12
   2   0 -12   32.85    1.06
   2   0 -12   34.53    1.24
   2   0 -12   33.23    1.07
   2   0 -12   31.94    1.13
   2   0 -12   35.75    1.26
  -2   0  12   29.97    1.02
   1   0 -12    6.99    0.24
   1   0 -12    6.90    0.46
   1   0 -12    7.93    0.33
   1   0 -12    7.65    0.43
   1   0 -12    6.27    0.24
   0   0 -12   10.84    0.55
   0   0 -12   10.30    0.49
   0   0 -12   10.46    0.57
   0   0 -12   10.64    0.35
   0   0 -12   10.27    0.53
   0   0 -12   10.79    0.43
  -1   0 -12    1.53    0.18
  -1   0 -12    1.87    0.32
  -1   0 -12    1.41    0.17
  -1   0 -12    1.44    0.08
  -1   0 -12    1.53    0.27
  -1   0 -12    1.39    0.08
  -1   0 -12    1.82    0.23
  -1   0 -12    1.55    0.28
  -2   0 -12    6.79    0.24
  -2   0 -12    6.83    0.44
  -2   0 -12    6.60    0.32
  -2   0 -12    6.88    0.24
  -2   0 -12    6.70    0.30
  -2   0 -12    7.00    0.42
  -2   0 -12    6.95    0.24
  -2   0 -12    6.37    0.31
  -2   0 -12    6.49    0.36
   2   0  12    6.28    0.29
   2   0  12    5.86    0.44
  -3   0 -12    4.00    0.15
  -3   0 -12    3.59    0.15
  -3   0 -12    3.84    0.27
  -3   0 -12    3.49    0.20
  -3   0 -12    3.83    0.14
  -3   0 -12    3.37    0.19
   3  -1 -12    2.40    0.17
   3  -1 -12    2.51    0.10
   3  -1 -12    2.50    0.10
   3  -1 -12    2.37    0.15
   2  -1 -12    8.04    0.44
   2  -1 -12    8.50    0.44
   2  -1 -12    8.44    0.28
   2  -1 -12    7.15    0.44
   2  -1 -12    8.55    0.34
   2  -1 -12    8.22    0.28
   2  -1 -12    8.37    0.33
   2  -1 -12    8.56    0.45
   1  -1 -12    9.19    0.49
   1  -1 -12    8.60    0.50
   1  -1 -12    8.96    0.37
   1  -1 -12    9.24    0.30
   0  -1 -12    8.55    0.50
   0  -1 -12    9.60    0.49
   0  -1 -12    8.94    0.38
   0  -1 -12    9.27    0.30
  -1  -1 -12    9.51    0.32
  -1  -1 -12    9.33    0.45
  -1  -1 -12   10.10    0.41
  -1  -1 -12    9.42    0.52
  -2  -1 -12    2.52    0.11
  -2  -1 -12    2.34    0.19
  -2  -1 -12    2.74    0.24
  -2  -1 -12    2.46    0.11
  -2  -1 -12    2.41    0.17
   2   1  12    2.28    0.17
  -3  -1 -12    1.96    0.09
  -3  -1 -12    1.92    0.09
  -3  -1 -12    1.81    0.14
  -3  -1 -12    2.10    0.15
   3  -2 -12    0.51    0.05
   3  -2 -12    0.61    0.05
   3  -2 -12    0.52    0.09
   3  -2 -12    0.58    0.08
   2  -2 -12    7.48    0.25
   2  -2 -12    7.25    0.29
   2  -2 -12    7.51    0.31
  -1  -2 -12    8.58    0.55
  -1  -2 -12    8.04    0.35
  -1  -2 -12    7.90    0.26
  -2  -2 -12    6.83    0.23
  -2  -2 -12    6.87    0.31
  -2  -2 -12    6.80    0.23
  -3  -2 -12    0.33    0.03
  -3  -2 -12    0.20    0.07
  -3  -2 -12    0.20    0.07
  -3  -2 -12    0.32    0.04
   3  -3 -12    0.80    0.04
   3  -3 -12    0.77    0.09
   3  -3 -12    0.86    0.05
   2  -3 -12    3.10    0.16
  -2  -3 -12    2.95    0.18
  -2  -3 -12    2.74    0.10
  -2  -3 -12    2.82    0.11
  -2  -4 -12    1.51    0.08
  -2  -4 -12    1.75    0.13
   1   9 -13    0.39    0.06
   1   9 -13    0.33    0.07
  -1  -9  13    0.30    0.07
  -1  -9  13    0.38    0.05
   0   9 -13    2.88    0.16
   0   9 -13    3.06    0.15
   0  -9  13    2.99    0.15
   0  -9  13    2.79    0.14
  -1   9 -13    7.06    0.26
   1  -9  13    6.62    0.24
   2   8 -13    0.36    0.07
  -2  -8  13    0.33    0.06
  -2  -8  13    0.44    0.08
   1   8 -13    0.65    0.11
   1   8 -13    0.54    0.09
   1   8 -13    0.49    0.08
  -1  -8  13    0.58    0.09
  -1  -8  13    0.56    0.08
   0   8 -13    2.03    0.15
   0   8 -13    2.14    0.12
   0   8 -13    1.97    0.13
   0  -8  13    1.90    0.13
   0  -8  13    2.04    0.14
  -1   8 -13    0.56    0.08
  -1   8 -13    0.55    0.09
  -1   8 -13    0.48    0.07
   1  -8  13    0.59    0.08
   2  -8  13    5.22    0.20
   2   7 -13    2.59    0.14
   2   7 -13    2.77    0.16
   2   7 -13    2.83    0.13
  -2  -7  13    2.42    0.14
   1   7 -13    7.78    0.33
   1   7 -13    8.22    0.30
   1   7 -13    7.86    0.30
   1   7 -13    7.76    0.28
   0   7 -13    1.84    0.13
   0   7 -13    1.85    0.15
   0   7 -13    1.90    0.13
   0   7 -13    1.87    0.15
   0  -7  13    1.82    0.15
  -1   7 -13    0.77    0.10
  -1   7 -13    0.91    0.11
  -1   7 -13    0.82    0.12
  -1   7 -13    1.01    0.13
  -2   7 -13    9.77    0.34
  -2   7 -13   10.12    0.36
   2  -7  13    8.79    0.32
  -3  -6  13    0.59    0.08
   2   6 -13   14.28    0.49
   2   6 -13   14.53    0.50
   2   6 -13   14.86    0.50
   2   6 -13   14.03    0.52
   1   6 -13    7.27    0.29
   1   6 -13    7.55    0.30
   1   6 -13    7.49    0.29
   1   6 -13    7.29    0.26
   1   6 -13    8.00    0.33
   1   6 -13    7.32    0.26
   1   6 -13    7.68    0.42
   1   6 -13    7.29    0.51
  -1  -6  13    7.52    0.66
  -1  -6  13    6.40    0.35
   0   6 -13    3.28    0.34
   0   6 -13    2.88    0.21
   0   6 -13    3.15    0.18
   0   6 -13    3.25    0.14
   0   6 -13    3.28    0.20
   0   6 -13    3.46    0.17
   0   6 -13    2.93    0.20
   0   6 -13    3.30    0.15
   0   6 -13    3.14    0.30
   0  -6  13    2.60    0.25
   0  -6  13    3.45    0.22
   0  -6  13    2.50    0.30
  -1   6 -13    6.92    0.25
  -1   6 -13    7.35    0.28
  -1   6 -13    6.95    0.28
  -1   6 -13    7.00    0.31
  -1   6 -13    7.25    0.25
  -1   6 -13    7.10    0.31
   1  -6  13    7.95    0.48
  -2   6 -13    1.20    0.14
  -2   6 -13    1.03    0.11
  -2   6 -13    1.44    0.13
  -2   6 -13    1.38    0.15
   3   5 -13    4.46    0.18
   3   5 -13    4.80    0.19
   3   5 -13    4.82    0.19
   2   5 -13   11.57    0.39
   2   5 -13   11.37    0.40
   2   5 -13   11.75    0.44
   2   5 -13   11.45    0.42
   2   5 -13   12.14    0.44
   2   5 -13   11.59    0.40
   2   5 -13   11.78    0.42
   1   5 -13    9.01    0.52
   1   5 -13   10.97    0.37
   1   5 -13   10.37    0.42
   1   5 -13   10.94    0.38
   1   5 -13   10.52    0.53
   1   5 -13   10.52    0.54
   1   5 -13   10.58    0.53
   1   5 -13   11.12    0.43
   1   5 -13   10.77    0.36
   1   5 -13   11.29    0.40
   1   5 -13    9.99    0.44
  -1  -5  13   10.66    0.47
  -1  -5  13   10.11    0.42
  -1  -5  13    9.48    0.52
   0   5 -13    4.32    0.19
   0   5 -13    4.05    0.24
   0   5 -13    4.30    0.34
   0   5 -13    3.93    0.36
   0   5 -13    3.90    0.23
   0   5 -13    3.96    0.18
   0   5 -13    4.17    0.17
   0   5 -13    3.70    0.24
   0   5 -13    4.12    0.34
   0  -5  13    3.62    0.27
   0  -5  13    3.56    0.23
  -1   5 -13   29.62    1.16
  -1   5 -13   30.36    1.05
  -1   5 -13   30.27    1.06
  -1   5 -13   31.43    0.99
  -1   5 -13   31.09    1.04
  -1   5 -13   29.80    1.12
  -1   5 -13   31.28    1.00
  -1   5 -13   30.88    0.98
   1  -5  13   28.69    1.02
   1  -5  13   28.20    0.98
  -2   5 -13    5.62    0.20
  -2   5 -13    5.53    0.23
  -2   5 -13    5.40    0.27
  -2   5 -13    5.37    0.21
  -2   5 -13    5.47    0.23
  -2   5 -13    5.36    0.26
  -3   5 -13    5.28    0.19
  -3   5 -13    5.18    0.23
  -3   5 -13    4.69    0.20
   3  -5  13    4.18    0.17
   3   4 -13    2.26    0.15
   3   4 -13    2.49    0.13
   3   4 -13    2.40    0.11
   3   4 -13    2.42    0.13
   3   4 -13    2.49    0.10
   3   4 -13    2.42    0.11
   2   4 -13    1.07    0.26
   2   4 -13    0.93    0.10
   2   4 -13    0.58    0.10
   2   4 -13    0.85    0.09
   2   4 -13    0.70    0.11
   2   4 -13    0.80    0.07
  -2  -4  13    0.76    0.15
   1   4 -13   16.10    0.59
   1   4 -13   14.62    0.67
   1   4 -13   13.98    0.69
   1   4 -13   15.33    0.56
   1   4 -13   14.98    0.51
   1   4 -13   14.97    0.69
   1   4 -13   15.58    0.50
   1   4 -13   15.50    0.54
   1   4 -13   15.73    0.57
   1   4 -13   15.76    0.51
   1   4 -13   14.02    0.66
  -1  -4  13   14.97    0.60
  -1  -4  13   12.88    0.65
  -1  -4  13   14.74    0.55
   0   4 -13   18.66    0.61
   0   4 -13   17.29    0.80
   0   4 -13   17.93    0.77
   0   4 -13   18.19    0.80
   0   4 -13   18.72    0.66
   0   4 -13   18.99    0.68
   0   4 -13   18.60    0.60
   0   4 -13   18.26    0.61
   0   4 -13   18.12    0.67
   0  -4  13   17.82    0.70
   0  -4  13   17.40    0.65
  -1   4 -13    5.84    0.24
  -1   4 -13    6.28    0.30
  -1   4 -13    6.00    0.45
  -1   4 -13    6.25    0.23
  -1   4 -13    6.59    0.41
  -1   4 -13    6.14    0.31
  -1   4 -13    6.45    0.39
  -1   4 -13    6.31    0.31
  -1   4 -13    6.16    0.24
   1  -4  13    5.83    0.29
  -2   4 -13    3.38    0.17
  -2   4 -13    3.64    0.16
  -2   4 -13    3.82    0.23
  -2   4 -13    3.46    0.21
  -2   4 -13    3.37    0.14
  -3   4 -13    0.48    0.08
  -3   4 -13    0.25    0.06
  -3   4 -13    0.31    0.10
  -3   4 -13    0.26    0.05
   3   3 -13    4.85    0.21
   3   3 -13    4.86    0.18
   3   3 -13    4.64    0.17
   3   3 -13    4.92    0.18
   3   3 -13    4.54    0.20
   3   3 -13    5.04    0.22
   2   3 -13    3.86    0.15
   2   3 -13    3.58    0.16
   2   3 -13    3.99    0.20
   2   3 -13    3.86    0.21
   2   3 -13    3.87    0.33
   2   3 -13    3.45    0.24
   2   3 -13    4.09    0.16
   2   3 -13    4.16    0.32
  -2  -3  13    2.84    0.50
  -2  -3  13    3.05    0.20
   1   3 -13    5.08    0.20
   1   3 -13    5.24    0.19
   1   3 -13    5.30    0.26
   1   3 -13    5.25    0.37
   1   3 -13    5.04    0.26
   1   3 -13    4.78    0.20
   1   3 -13    4.97    0.24
   1   3 -13    5.26    0.27
   1   3 -13    5.09    0.37
   1   3 -13    4.48    0.37
   1   3 -13    4.93    0.40
  -1  -3  13    4.68    0.25
  -1  -3  13    4.17    0.30
  -1  -3  13    4.35    0.36
   0   3 -13   29.31    1.11
   0   3 -13   27.69    0.90
   0   3 -13   27.58    0.91
   0   3 -13   26.75    1.10
   0   3 -13   27.92    0.90
   0   3 -13   29.16    0.97
   0   3 -13   27.29    0.96
   0   3 -13   27.87    0.97
   0   3 -13   28.15    1.07
   0  -3  13   26.67    0.92
  -1   3 -13    0.00    0.06
  -1   3 -13   -0.02    0.15
  -1   3 -13    0.13    0.17
  -1   3 -13    0.01    0.09
  -1   3 -13   -0.03    0.04
  -1   3 -13    0.11    0.21
  -1   3 -13    0.05    0.11
  -1   3 -13   -0.01    0.13
  -1   3 -13    0.11    0.09
  -1   3 -13    0.04    0.04
   1  -3  13    0.02    0.08
  -2   3 -13   15.05    0.52
  -2   3 -13   15.34    0.50
  -2   3 -13   14.00    0.71
  -2   3 -13   16.35    0.57
  -2   3 -13   15.73    0.51
  -2   3 -13   14.86    0.57
   2  -3  13   13.54    0.58
  -3   3 -13    9.78    0.35
  -3   3 -13    9.04    0.32
  -3   3 -13    9.45    0.35
  -3   3 -13    9.19    0.32
  -3   3 -13    8.71    0.31
  -3   3 -13    8.82    0.31
   3   2 -13    9.13    0.31
   3   2 -13    9.04    0.31
   3   2 -13    8.92    0.35
   3   2 -13    9.15    0.31
   3   2 -13    9.88    0.34
   2   2 -13    6.40    0.29
   2   2 -13    6.58    0.27
   2   2 -13    6.12    0.39
   2   2 -13    6.43    0.22
   2   2 -13    6.28    0.22
   2   2 -13    5.95    0.23
   2   2 -13    5.98    0.30
   2   2 -13    6.10    0.39
  -2  -2  13    7.75    0.57
  -2  -2  13    5.22    0.27
   1   2 -13   26.31    1.02
   1   2 -13   26.40    1.04
   1   2 -13   26.64    0.92
   1   2 -13   26.22    0.85
   1   2 -13   26.30    0.85
   1   2 -13   26.48    0.91
   1   2 -13   26.77    0.85
   1   2 -13   25.78    1.01
   1   2 -13   26.50    0.88
  -1  -2  13   22.52    0.91
  -1  -2  13   23.24    0.80
   0   2 -13    3.86    0.24
   0   2 -13    3.76    0.38
   0   2 -13    3.98    0.15
   0   2 -13    3.54    0.24
   0   2 -13    4.41    0.35
   0   2 -13    4.08    0.16
   0   2 -13    3.62    0.22
   0   2 -13    3.93    0.35
   0   2 -13    4.17    0.16
   0  -2  13    3.53    0.22
  -1   2 -13    3.00    0.13
  -1   2 -13    2.94    0.21
  -1   2 -13    3.08    0.14
  -1   2 -13    3.33    0.39
  -1   2 -13    3.23    0.14
  -1   2 -13    2.91    0.27
  -1   2 -13    2.79    0.21
  -1   2 -13    2.87    0.31
  -1   2 -13    3.32    0.31
  -1   2 -13    3.11    0.20
   1  -2  13    2.56    0.18
  -2   2 -13    4.83    0.19
  -2   2 -13    4.73    0.19
  -2   2 -13    5.01    0.41
  -2   2 -13    4.84    0.25
  -2   2 -13    4.76    0.26
  -2   2 -13    5.08    0.18
   2  -2  13    4.02    0.25
  -3   2 -13    3.31    0.14
  -3   2 -13    3.80    0.19
  -3   2 -13    3.31    0.13
  -3   2 -13    3.44    0.14
  -3   2 -13    3.38    0.18
   3   1 -13    3.50    0.16
   3   1 -13    3.69    0.18
   3   1 -13    3.51    0.13
   3   1 -13    3.52    0.13
   3   1 -13    3.12    0.12
   2   1 -13    8.25    0.34
   2   1 -13    8.29    0.28
   2   1 -13    7.72    0.27
   2   1 -13    8.20    0.32
   2   1 -13    7.99    0.46
   2   1 -13    8.07    0.28
  -2  -1  13    7.67    0.39
   1   1 -13   31.96    1.11
   1   1 -13   33.95    1.23
   1   1 -13   33.35    1.05
   1   1 -13   33.09    1.05
   1   1 -13   32.94    1.11
   1   1 -13   33.66    1.05
   1   1 -13   32.25    1.24
  -1  -1  13   29.16    0.98
   0   1 -13    9.88    0.39
   0   1 -13    8.53    0.52
   0   1 -13    9.39    0.32
   0   1 -13    9.32    0.31
   0   1 -13    9.62    0.40
   0   1 -13    9.51    0.50
   0   1 -13    9.30    0.31
   0   1 -13    9.40    0.46
   0   1 -13    8.75    0.50
  -1   1 -13   16.90    0.74
  -1   1 -13   16.29    0.75
  -1   1 -13   16.85    0.54
  -1   1 -13   14.65    0.59
  -1   1 -13   16.52    0.53
  -1   1 -13   16.76    0.54
  -1   1 -13   16.25    0.66
  -1   1 -13   16.60    0.60
  -1   1 -13   15.92    0.70
  -1   1 -13   17.44    0.62
   1  -1  13   14.84    0.54
  -2   1 -13    0.82    0.07
  -2   1 -13    0.72    0.07
  -2   1 -13    0.76    0.08
  -2   1 -13    0.58    0.12
  -2   1 -13    0.85    0.14
  -3   1 -13    2.09    0.14
  -3   1 -13    2.18    0.09
  -3   1 -13    2.38    0.09
  -3   1 -13    2.25    0.10
  -3   1 -13    2.33    0.15
   3   0 -13    1.89    0.08
   3   0 -13    1.64    0.11
   3   0 -13    1.78    0.14
   3   0 -13    1.91    0.08
   2   0 -13    6.97    0.23
   2   0 -13    6.66    0.27
   2   0 -13    6.49    0.29
   2   0 -13    6.62    0.23
   1   0 -13    5.14    0.38
   1   0 -13    4.84    0.36
   1   0 -13    5.30    0.18
   1   0 -13    5.16    0.26
   0   0 -13    3.79    0.23
   0   0 -13    3.07    0.35
   0   0 -13    3.52    0.32
   0   0 -13    3.99    0.14
  -1   0 -13    2.51    0.11
  -1   0 -13    2.32    0.28
  -1   0 -13    2.58    0.31
  -1   0 -13    2.47    0.19
  -1   0 -13    2.27    0.11
  -1   0 -13    2.64    0.20
  -1   0 -13    2.39    0.29
  -1   0 -13    2.34    0.23
  -2   0 -13   10.88    0.36
  -2   0 -13   10.90    0.36
  -2   0 -13   10.45    0.42
  -2   0 -13   11.11    0.42
  -3   0 -13    0.27    0.03
  -3   0 -13    0.33    0.07
  -3   0 -13    0.35    0.04
   3  -1 -13    1.51    0.12
   3  -1 -13    1.55    0.06
   3  -1 -13    1.51    0.10
   3  -1 -13    1.44    0.07
   2  -1 -13    0.30    0.09
   2  -1 -13    0.25    0.03
   2  -1 -13    0.26    0.07
   2  -1 -13    0.21    0.03
   1  -1 -13   20.68    0.64
   1  -1 -13   17.86    0.83
   1  -1 -13   20.82    0.70
   0  -1 -13   15.21    0.56
  -1  -1 -13    0.32    0.09
  -1  -1 -13    0.45    0.04
  -2  -1 -13   13.20    0.43
  -2  -1 -13   13.35    0.42
  -2  -1 -13   12.61    0.49
   2  -2 -13    0.66    0.04
   2  -2 -13    0.71    0.09
  -2  -2 -13    9.92    0.37
  -2  -2 -13    9.54    0.31
  -2  -2 -13    9.87    0.32
  -2  -3 -13    2.27    0.13
  -2  -3 -13    2.23    0.08
   1   8 -14    1.86    0.12
   1   8 -14    1.76    0.10
   1   8 -14    1.75    0.09
  -1  -8  14    1.70    0.11
  -1  -8  14    1.62    0.11
   0   8 -14    0.08    0.05
   0   8 -14    0.17    0.06
   0   8 -14    0.10    0.04
   0  -8  14    0.03    0.06
   0  -8  14    0.08    0.05
   1   7 -14    6.15    0.25
   1   7 -14    5.38    0.22
   1   7 -14    5.79    0.22
  -1  -7  14    5.48    0.23
   0   7 -14    4.38    0.18
   0   7 -14    4.21    0.18
   0   7 -14    4.15    0.21
   0  -7  14    3.96    0.18
  -1   7 -14    0.35    0.05
  -1   7 -14    0.44    0.07
  -1   7 -14    0.43    0.08
   1  -7  14    0.51    0.08
   2   6 -14    3.02    0.14
   2   6 -14    3.11    0.15
   2   6 -14    2.99    0.13
   2   6 -14    2.92    0.15
   1   6 -14    8.16    0.28
   1   6 -14    7.96    0.30
   1   6 -14    8.32    0.29
   1   6 -14    8.28    0.29
   1   6 -14    7.96    0.33
   1   6 -14    8.22    0.30
   0   6 -14    0.60    0.07
   0   6 -14    0.50    0.11
   0   6 -14    0.47    0.07
   0   6 -14    0.40    0.06
   0   6 -14    0.69    0.12
   0   6 -14    0.51    0.07
   0  -6  14    0.58    0.13
  -1   6 -14    7.44    0.28
  -1   6 -14    7.91    0.27
  -1   6 -14    7.39    0.27
  -1   6 -14    8.08    0.28
  -1   6 -14    7.24    0.31
  -1   6 -14    7.69    0.31
  -2   6 -14    4.04    0.16
  -2   6 -14    4.12    0.17
  -2   6 -14    3.77    0.19
  -2   6 -14    3.83    0.18
   2   5 -14    2.21    0.11
   2   5 -14    2.16    0.15
   2   5 -14    2.07    0.14
   2   5 -14    2.08    0.10
   2   5 -14    1.95    0.09
   2   5 -14    2.16    0.13
   2   5 -14    2.42    0.13
   1   5 -14   22.83    0.77
   1   5 -14   21.99    0.73
   1   5 -14   23.13    0.73
   1   5 -14   22.42    0.77
   1   5 -14   21.53    0.72
   1   5 -14   22.36    0.75
   0   5 -14   23.72    0.76
   0   5 -14   23.36    0.76
   0   5 -14   23.13    0.75
   0   5 -14   24.06    0.80
   0   5 -14   22.25    0.81
  -1   5 -14    7.78    0.27
  -1   5 -14    7.42    0.27
  -1   5 -14    8.05    0.33
  -1   5 -14    7.27    0.28
  -1   5 -14    8.04    0.33
  -2   5 -14    4.99    0.22
  -2   5 -14    4.82    0.18
  -2   5 -14    4.98    0.20
  -2   5 -14    5.34    0.23
  -2   5 -14    5.11    0.20
  -2   5 -14    5.02    0.19
   2   4 -14    0.45    0.05
   2   4 -14    0.40    0.09
   2   4 -14    0.51    0.06
   2   4 -14    0.56    0.08
   2   4 -14    0.43    0.05
   1   4 -14   11.66    0.44
   1   4 -14   11.63    0.39
   1   4 -14   11.10    0.39
   1   4 -14   11.82    0.38
   1   4 -14   11.43    0.44
   1   4 -14   11.12    0.41
   0   4 -14    2.05    0.18
   0   4 -14    2.01    0.12
   0   4 -14    2.17    0.17
   0   4 -14    2.14    0.38
   0   4 -14    2.25    0.10
   0   4 -14    2.13    0.11
   0  -4  14    1.81    0.20
  -1   4 -14    3.68    0.21
  -1   4 -14    3.61    0.14
  -1   4 -14    3.53    0.22
  -1   4 -14    3.57    0.15
  -1   4 -14    3.59    0.16
  -2   4 -14    1.28    0.14
  -2   4 -14    1.31    0.09
  -2   4 -14    1.33    0.13
  -2   4 -14    1.33    0.09
  -2   4 -14    1.34    0.11
  -2   4 -14    1.22    0.07
   2   3 -14    1.31    0.07
   2   3 -14    1.11    0.08
   2   3 -14    1.22    0.14
   2   3 -14    1.19    0.12
   2   3 -14    1.23    0.08
   1   3 -14    3.71    0.15
   1   3 -14    3.80    0.19
   1   3 -14    3.68    0.21
   1   3 -14    3.47    0.21
   1   3 -14    3.59    0.14
   1   3 -14    3.50    0.15
   0   3 -14    3.07    0.13
   0   3 -14    3.02    0.13
   0   3 -14    3.04    0.13
   0   3 -14    3.01    0.21
   0   3 -14    3.01    0.20
   0   3 -14    2.82    0.28
   0  -3  14    2.94    0.31
   0  -3  14    2.53    0.18
  -1   3 -14    0.92    0.14
  -1   3 -14    0.94    0.07
  -1   3 -14    0.82    0.09
  -1   3 -14    0.98    0.16
  -1   3 -14    0.89    0.08
  -2   3 -14    0.22    0.05
  -2   3 -14    0.23    0.04
  -2   3 -14    0.13    0.08
  -2   3 -14    0.10    0.04
  -2   3 -14    0.16    0.10
   2   2 -14   -0.03    0.08
   2   2 -14   -0.03    0.06
   2   2 -14    0.04    0.02
   2   2 -14    0.02    0.03
   2   2 -14    0.02    0.03
   1   2 -14   16.93    0.54
   1   2 -14   16.61    0.54
   1   2 -14   16.73    0.59
   1   2 -14   15.90    0.53
   0   2 -14   29.35    1.15
   0   2 -14   31.92    1.05
   0   2 -14   30.96    1.00
   0   2 -14   32.03    1.00
   0   2 -14   30.98    0.99
   0   2 -14   31.50    1.06
   0  -2  14   32.01    1.14
  -1   2 -14    9.89    0.34
  -1   2 -14   11.08    0.42
  -1   2 -14   10.63    0.35
  -1   2 -14   10.47    0.35
  -1   2 -14   10.61    0.42
  -2   2 -14    0.45    0.05
  -2   2 -14    0.52    0.05
  -2   2 -14    0.44    0.06
  -2   2 -14    0.59    0.10
  -2   2 -14    0.47    0.10
   2   1 -14    4.31    0.21
   2   1 -14    4.25    0.15
   2   1 -14    4.13    0.19
   2   1 -14    4.41    0.15
   1   1 -14    2.70    0.11
   1   1 -14    3.07    0.19
   1   1 -14    2.91    0.11
   0   1 -14    0.14    0.03
   0   1 -14    0.16    0.08
   0   1 -14    0.09    0.10
   0   1 -14    0.12    0.04
  -1   1 -14    2.60    0.11
  -1   1 -14    2.53    0.11
  -1   1 -14    2.67    0.18
  -1   1 -14    2.52    0.19
  -2   1 -14    2.83    0.17
  -2   1 -14    2.79    0.16
  -2   1 -14    2.79    0.11
  -2   1 -14    2.79    0.11
   2   0 -14    3.54    0.13
   2   0 -14    3.70    0.13
   2   0 -14    3.47    0.16
   2   0 -14    3.56    0.19
   1   0 -14    3.69    0.14
   1   0 -14    3.65    0.13
   1   0 -14    3.95    0.20
   0   0 -14    3.87    0.21
   0   0 -14    3.98    0.14
  -1   0 -14    9.90    0.32
  -1   0 -14   10.31    0.39
  -1   0 -14    9.99    0.33
  -1   0 -14    9.57    0.37
  -2   0 -14    9.46    0.31
  -2   0 -14    9.73    0.31
  -2   0 -14    9.43    0.36
   2  -1 -14    0.70    0.10
   2  -1 -14    0.59    0.04
   2  -1 -14    0.62    0.07
   1  -1 -14    3.03    0.18
  -1  -1 -14    7.66    0.31
  -2  -1 -14    7.95    0.30
  -2  -1 -14    7.80    0.26
   1   6 -15    4.49    0.20
   1   6 -15    4.41    0.16
   1   6 -15    4.48    0.17
   1   6 -15    4.58    0.18
  -1  -6  15    4.30    0.18
   0   6 -15    3.98    0.18
   0   6 -15    3.47    0.13
   0   6 -15    3.54    0.15
   0   6 -15    3.65    0.15
   0   6 -15    3.26    0.14
   0   6 -15    3.62    0.17
   1   5 -15    0.29    0.04
   1   5 -15    0.36    0.06
   1   5 -15    0.30    0.07
   1   5 -15    0.22    0.08
   1   5 -15    0.22    0.04
   1   5 -15    0.35    0.05
   0   5 -15    1.03    0.08
   0   5 -15    0.74    0.09
   0   5 -15    1.10    0.12
   0   5 -15    0.89    0.07
   0   5 -15    0.89    0.06
   0   5 -15    0.90    0.13
  -1   5 -15    2.40    0.10
  -1   5 -15    2.82    0.16
  -1   5 -15    2.58    0.13
  -1   5 -15    2.38    0.11
  -1   5 -15    2.53    0.11
  -1   5 -15    2.81    0.16
   1   4 -15    0.41    0.05
   1   4 -15    0.36    0.05
   1   4 -15    0.42    0.06
   1   4 -15    0.42    0.07
   1   4 -15    0.36    0.09
   1   4 -15    0.26    0.04
   0   4 -15    5.32    0.19
   0   4 -15    5.38    0.24
   0   4 -15    5.06    0.19
   0   4 -15    5.10    0.19
   0   4 -15    5.24    0.24
  -1   4 -15    0.56    0.05
  -1   4 -15    0.57    0.09
  -1   4 -15    0.45    0.06
  -1   4 -15    0.62    0.10
  -1   4 -15    0.35    0.04
   1   3 -15    3.52    0.18
   1   3 -15    3.49    0.14
   1   3 -15    3.73    0.14
   0   3 -15    1.23    0.07
   0   3 -15    1.37    0.14
   0   3 -15    1.22    0.13
   0   3 -15    1.30    0.07
  -1   3 -15    0.23    0.09
  -1   3 -15    0.12    0.03
  -1   3 -15    0.12    0.07
  -1   3 -15    0.11    0.03
   1   2 -15    0.27    0.03
   1   2 -15    0.27    0.04
   1   2 -15    0.39    0.09
   0   2 -15    3.88    0.20
   0   2 -15    4.24    0.21
   0   2 -15    4.01    0.15
   0   2 -15    3.99    0.15
  -1   2 -15    3.57    0.18
  -1   2 -15    3.14    0.12
  -1   2 -15    3.36    0.18
  -1   2 -15    3.21    0.12
   1   1 -15    0.92    0.05
   1   1 -15    0.91    0.05
   1   1 -15    0.75    0.12
   0   1 -15    4.48    0.15
   0   1 -15    4.18    0.21
   0   1 -15    4.54    0.16
  -1   1 -15    7.42    0.26
  -1   1 -15    7.92    0.26
  -1   1 -15    7.76    0.30
  -1   1 -15    8.61    0.31
   1   0 -15    0.93    0.11
   1   0 -15    0.98    0.05
   0   0 -15    2.47    0.15
   0   0 -15    2.67    0.10
  -1   0 -15    6.60    0.21
  -1   0 -15    6.06    0.29
  -1   0 -15    6.59    0.26
   0   0   0    0.00    0.00
;
_shelx_hkl_checksum              77485
loop_
_space_group_symop_operation_xyz
'x, y, z'
loop_
_atom_site_label
_atom_site_type_symbol
_atom_site_fract_x
_atom_site_fract_y
_atom_site_fract_z
_atom_site_U_iso_or_equiv
_atom_site_adp_type
_atom_site_occupancy
_atom_site_site_symmetry_order
_atom_site_calc_flag
_atom_site_refinement_flags_posn
_atom_site_refinement_flags_adp
_atom_site_refinement_flags_occupancy
_atom_site_disorder_assembly
_atom_site_disorder_group
O1 O 0.6898(3) 0.49966(16) 0.36853(13) 0.0192(4) Uani 1 1 d . . . . .
O2 O 0.2370(3) 0.63197(16) 0.21241(14) 0.0208(4) Uani 1 1 d . . . . .
O3 O 0.4765(4) 0.76196(16) 0.39499(14) 0.0228(4) Uani 1 1 d . . . . .
O4 O 0.1607(3) 0.04425(17) 0.72373(14) 0.0235(4) Uani 1 1 d . . . . .
O5 O 0.3904(4) 0.21410(18) 0.80594(15) 0.0262(4) Uani 1 1 d . . . . .
O6 O 1.3719(3) 0.90528(16) 0.90907(14) 0.0228(4) Uani 1 1 d . . . . .
N1 N 0.6034(4) 0.39304(19) 0.19553(16) 0.0177(4) Uani 1 1 d . . . . .
N2 N 0.9648(4) 0.43405(19) 0.08779(16) 0.0187(4) Uani 1 1 d . . . . .
N3 N 1.0456(4) 0.2587(2) -0.05265(16) 0.0210(4) Uani 1 1 d . . . . .
N4 N 0.8217(5) 0.0692(2) -0.08182(18) 0.0212(5) Uani 1 1 d . . . . .
N5 N 0.5001(4) 0.19525(19) 0.11238(16) 0.0200(4) Uani 1 1 d . . . . .
N6 N 0.5068(5) -0.0140(2) 0.56720(18) 0.0204(4) Uani 1 1 d . . . . .
N7 N 1.3056(4) 0.9325(2) 1.08044(18) 0.0237(5) Uani 1 1 d . . . . .
C1 C 0.7708(5) 0.3625(2) 0.11314(19) 0.0174(5) Uani 1 1 d . . . . .
C2 C 1.0899(5) 0.3748(2) 0.0042(2) 0.0206(5) Uani 1 1 d . . . . .
H2A H 1.2289 0.4202 -0.0185 0.025 Uiso 1 1 calc R U . . .
C3 C 0.8536(5) 0.1850(2) -0.02624(19) 0.0184(5) Uani 1 1 d . . . . .
C4 C 0.7042(5) 0.2407(2) 0.06188(19) 0.0172(5) Uani 1 1 d . . . . .
C5 C 0.4472(5) 0.2881(2) 0.1901(2) 0.0199(5) Uani 1 1 d . . . . .
H5A H 0.3129 0.2838 0.2387 0.024 Uiso 1 1 calc R U . . .
C6 C 0.5935(5) 0.5135(2) 0.27045(19) 0.0177(5) Uani 1 1 d . . . . .
H6 H 0.7077 0.5754 0.2458 0.021 Uiso 1 1 calc R U . . .
C7 C 0.3140(5) 0.5661(2) 0.28800(19) 0.0171(5) Uani 1 1 d . . . . .
H7 H 0.1854 0.4966 0.2880 0.021 Uiso 1 1 calc R U . . .
C8 C 0.3416(5) 0.6484(2) 0.39663(19) 0.0194(5) Uani 1 1 d . . . . .
H8 H 0.1668 0.6641 0.4313 0.023 Uiso 1 1 calc R U . . .
C9 C 0.5209(5) 0.5700(2) 0.45043(19) 0.0186(5) Uani 1 1 d . . . . .
H9 H 0.6336 0.6269 0.5040 0.022 Uiso 1 1 calc R U . . .
C10 C 0.3795(5) 0.4763(2) 0.50050(19) 0.0197(5) Uani 1 1 d . . . . .
H10A H 0.2744 0.4173 0.4469 0.024 Uiso 1 1 calc R U . . .
H10B H 0.2564 0.5213 0.5534 0.024 Uiso 1 1 calc R U . . .
C11 C 0.5776(5) 0.4024(2) 0.55215(19) 0.0179(5) Uani 1 1 d . . . . .
H11 H 0.7251 0.3755 0.5027 0.021 Uiso 1 1 calc R U . . .
C12 C 0.4549(5) 0.2837(2) 0.5782(2) 0.0197(5) Uani 1 1 d . . . . .
H12A H 0.3136 0.3080 0.6298 0.024 Uiso 1 1 calc R U . . .
H12B H 0.3748 0.2301 0.5146 0.024 Uiso 1 1 calc R U . . .
C13 C 0.6667(5) 0.2107(2) 0.62202(19) 0.0186(5) Uani 1 1 d . . . . .
H13A H 0.7515 0.2678 0.6828 0.022 Uiso 1 1 calc R U . . .
H13B H 0.8041 0.1864 0.5687 0.022 Uiso 1 1 calc R U . . .
C14 C 0.5765(5) 0.0928(2) 0.65566(19) 0.0187(5) Uani 1 1 d . . . . .
H14 H 0.7302 0.0651 0.6930 0.022 Uiso 1 1 calc R U . . .
C15 C 0.3508(5) 0.1150(2) 0.73173(19) 0.0189(5) Uani 1 1 d . . . . .
C16 C 0.6907(5) 0.4830(2) 0.6478(2) 0.0198(5) Uani 1 1 d . . . . .
C17 C 0.7612(5) 0.5437(2) 0.7308(2) 0.0208(5) Uani 1 1 d . . . . .
C18 C 0.8134(5) 0.6139(2) 0.8356(2) 0.0192(5) Uani 1 1 d . . . . .
C19 C 0.6498(5) 0.5928(2) 0.9148(2) 0.0222(5) Uani 1 1 d . . . . .
H19 H 0.5134 0.5313 0.8988 0.027 Uiso 1 1 calc R U . . .
C20 C 0.6852(5) 0.6607(2) 1.0158(2) 0.0235(5) Uani 1 1 d . . . . .
H20 H 0.5728 0.6458 1.0688 0.028 Uiso 1 1 calc R U . . .
C21 C 0.8852(5) 0.7508(2) 1.0401(2) 0.0206(5) Uani 1 1 d . . . . .
H21 H 0.9102 0.7970 1.1097 0.025 Uiso 1 1 calc R U . . .
C22 C 1.0496(5) 0.7732(2) 0.9615(2) 0.0191(5) Uani 1 1 d . . . . .
C23 C 1.0130(5) 0.7044(2) 0.8602(2) 0.0198(5) Uani 1 1 d . . . . .
H23 H 1.1252 0.7192 0.8070 0.024 Uiso 1 1 calc R U . . .
C24 C 1.2551(5) 0.8752(2) 0.9829(2) 0.0189(5) Uani 1 1 d . . . . .
O11 O 1.1757(4) -0.08348(18) 0.29855(15) 0.0267(4) Uani 1 1 d . . . . .
O12 O 1.0175(4) -0.00236(18) 0.45837(14) 0.0280(4) Uani 1 1 d . . . . .
C31 C 1.0355(5) -0.0143(2) 0.3621(2) 0.0211(5) Uani 1 1 d . . . . .
C32 C 0.8606(6) 0.0757(3) 0.3170(2) 0.0286(6) Uani 0.664(16) 1 d D . P A 1
F1 F 0.6339(19) 0.100(2) 0.3676(11) 0.0354(19) Uani 0.664(16) 1 d D . P A 1
F2 F 0.973(3) 0.1884(11) 0.3249(12) 0.056(2) Uani 0.664(16) 1 d D . P A 1
F3 F 0.7898(17) 0.0243(8) 0.2154(4) 0.0535(19) Uani 0.664(16) 1 d D . P A 1
C32A C 0.8606(6) 0.0757(3) 0.3170(2) 0.0286(6) Uani 0.336(16) 1 d D . P A 2
F1A F 0.617(4) 0.093(5) 0.350(2) 0.0354(19) Uani 0.336(16) 1 d D . P A 2
F2A F 0.993(7) 0.189(2) 0.347(3) 0.056(2) Uani 0.336(16) 1 d D . P A 2
F3A F 0.878(3) 0.0670(14) 0.2187(9) 0.0535(19) Uani 0.336(16) 1 d D . P A 2
O1W O 0.5020(5) 0.8106(2) 0.69496(19) 0.0361(5) Uani 1 1 d . . . . .
H1WA H 0.596(11) 0.746(5) 0.691(4) 0.074(15) Uiso 1 1 d . . . . .
H1WB H 0.461(10) 0.841(5) 0.752(4) 0.062(15) Uiso 1 1 d . . . . .
H2 H 0.130(7) 0.582(3) 0.172(3) 0.026(8) Uiso 1 1 d . . . . .
H3 H 0.375(8) 0.796(4) 0.354(3) 0.051(11) Uiso 1 1 d . . . . .
H4A H 0.925(7) 0.040(3) -0.139(3) 0.034(9) Uiso 1 1 d . . . . .
H4B H 0.689(7) 0.020(3) -0.073(2) 0.024(8) Uiso 1 1 d . . . . .
H5 H 0.227(11) 0.227(5) 0.866(4) 0.082(15) Uiso 1 1 d . . . . .
H6A H 0.645(7) -0.028(3) 0.521(3) 0.026(8) Uiso 1 1 d . . . . .
H6B H 0.350(8) -0.004(4) 0.534(3) 0.041(9) Uiso 1 1 d . . . . .
H6C H 0.492(6) -0.090(3) 0.593(3) 0.026(8) Uiso 1 1 d . . . . .
H7A H 1.394(7) 1.006(3) 1.091(3) 0.025(8) Uiso 1 1 d . . . . .
H7B H 1.229(7) 0.915(3) 1.135(3) 0.032(8) Uiso 1 1 d . . . . .
loop_
_atom_site_aniso_label
_atom_site_aniso_U_11
_atom_site_aniso_U_22
_atom_site_aniso_U_33
_atom_site_aniso_U_23
_atom_site_aniso_U_13
_atom_site_aniso_U_12
O1 0.0192(8) 0.0225(9) 0.0149(9) 0.0017(7) 0.0018(6) 0.0047(6)
O2 0.0242(9) 0.0175(8) 0.0206(10) 0.0042(8) -0.0042(7) -0.0010(7)
O3 0.0297(10) 0.0146(8) 0.0229(10) 0.0017(8) -0.0035(7) -0.0011(7)
O4 0.0200(9) 0.0260(9) 0.0233(10) 0.0030(8) 0.0027(7) -0.0020(7)
O5 0.0273(10) 0.0251(9) 0.0227(10) -0.0021(8) 0.0071(7) -0.0021(7)
O6 0.0258(9) 0.0215(9) 0.0201(10) 0.0027(8) 0.0015(7) -0.0049(7)
N1 0.0187(10) 0.0165(10) 0.0171(11) 0.0021(9) 0.0025(8) -0.0002(8)
N2 0.0195(10) 0.0177(10) 0.0180(11) 0.0020(9) 0.0010(8) -0.0008(8)
N3 0.0221(11) 0.0218(11) 0.0181(12) 0.0021(9) 0.0033(8) 0.0003(8)
N4 0.0224(11) 0.0185(10) 0.0203(13) -0.0006(9) 0.0047(9) 0.0012(8)
N5 0.0222(10) 0.0179(10) 0.0197(12) 0.0034(9) 0.0025(8) 0.0002(8)
N6 0.0240(11) 0.0192(10) 0.0172(11) 0.0020(9) 0.0019(9) 0.0025(8)
N7 0.0299(12) 0.0203(12) 0.0190(13) 0.0001(10) 0.0020(9) -0.0054(9)
C1 0.0178(11) 0.0191(12) 0.0149(12) 0.0033(10) -0.0008(8) 0.0037(9)
C2 0.0204(12) 0.0213(12) 0.0194(13) 0.0030(11) 0.0024(9) -0.0032(9)
C3 0.0181(12) 0.0192(12) 0.0182(13) 0.0046(10) -0.0019(9) 0.0023(9)
C4 0.0183(11) 0.0164(11) 0.0166(13) 0.0030(10) -0.0003(8) 0.0009(9)
C5 0.0207(12) 0.0199(12) 0.0184(13) 0.0026(11) 0.0041(9) 0.0010(9)
C6 0.0196(12) 0.0163(11) 0.0161(13) 0.0015(10) 0.0017(9) -0.0004(9)
C7 0.0185(12) 0.0161(11) 0.0166(13) 0.0031(10) 0.0002(9) 0.0002(9)
C8 0.0216(12) 0.0170(12) 0.0189(13) 0.0023(10) 0.0029(9) 0.0008(9)
C9 0.0204(12) 0.0184(12) 0.0156(13) 0.0007(11) 0.0014(9) 0.0014(9)
C10 0.0191(12) 0.0216(12) 0.0174(13) 0.0022(11) 0.0019(9) -0.0006(9)
C11 0.0190(11) 0.0192(12) 0.0146(13) 0.0019(10) 0.0015(9) -0.0022(9)
C12 0.0200(12) 0.0179(11) 0.0199(13) 0.0015(11) 0.0009(9) -0.0013(9)
C13 0.0185(11) 0.0177(11) 0.0185(13) 0.0015(10) 0.0031(9) -0.0012(9)
C14 0.0190(12) 0.0190(12) 0.0172(13) 0.0022(10) 0.0006(9) 0.0009(9)
C15 0.0183(12) 0.0201(12) 0.0183(13) 0.0045(10) 0.0002(9) 0.0026(9)
C16 0.0217(12) 0.0167(12) 0.0209(14) 0.0042(11) 0.0002(9) -0.0025(9)
C17 0.0209(12) 0.0180(12) 0.0239(14) 0.0059(11) -0.0017(9) -0.0011(9)
C18 0.0213(12) 0.0168(12) 0.0192(13) 0.0035(10) -0.0038(9) 0.0006(9)
C19 0.0215(12) 0.0206(13) 0.0252(14) 0.0071(11) -0.0035(10) -0.0039(9)
C20 0.0232(13) 0.0263(13) 0.0236(14) 0.0111(12) 0.0022(9) -0.0010(10)
C21 0.0260(13) 0.0197(12) 0.0159(13) 0.0036(10) 0.0007(9) 0.0030(10)
C22 0.0183(12) 0.0172(11) 0.0219(14) 0.0046(11) -0.0012(9) 0.0026(9)
C23 0.0208(12) 0.0189(12) 0.0201(14) 0.0052(11) 0.0016(9) 0.0014(9)
C24 0.0196(11) 0.0166(11) 0.0201(14) 0.0033(10) 0.0023(9) 0.0032(9)
O11 0.0309(10) 0.0261(9) 0.0231(10) 0.0048(8) 0.0062(7) 0.0085(7)
O12 0.0273(10) 0.0354(11) 0.0197(11) 0.0027(9) -0.0001(7) 0.0078(8)
C31 0.0202(12) 0.0217(12) 0.0200(14) 0.0019(11) 0.0004(9) -0.0004(9)
C32 0.0304(15) 0.0348(15) 0.0195(15) 0.0032(12) 0.0039(10) 0.0096(12)
F1 0.0231(15) 0.048(3) 0.035(5) 0.008(4) -0.001(2) 0.0110(17)
F2 0.038(3) 0.0439(11) 0.101(7) 0.048(3) 0.005(4) 0.0052(12)
F3 0.065(4) 0.065(4) 0.0209(11) -0.010(2) -0.017(2) 0.039(3)
C32A 0.0304(15) 0.0348(15) 0.0195(15) 0.0032(12) 0.0039(10) 0.0096(12)
F1A 0.0231(15) 0.048(3) 0.035(5) 0.008(4) -0.001(2) 0.0110(17)
F2A 0.038(3) 0.0439(11) 0.101(7) 0.048(3) 0.005(4) 0.0052(12)
F3A 0.065(4) 0.065(4) 0.0209(11) -0.010(2) -0.017(2) 0.039(3)
O1W 0.0527(14) 0.0287(11) 0.0296(14) 0.0111(10) 0.0135(10) 0.0154(10)
loop_
_atom_type_symbol
_atom_type_description
_atom_type_scat_dispersion_real
_atom_type_scat_dispersion_imag
_atom_type_scat_source
C C 0.0181 0.0091 'International Tables Vol C Tables 4.2.6.8 and 6.1.1.4'
H H 0.0000 0.0000 'International Tables Vol C Tables 4.2.6.8 and 6.1.1.4'
F F 0.0727 0.0534 'International Tables Vol C Tables 4.2.6.8 and 6.1.1.4'
N N 0.0311 0.0180 'International Tables Vol C Tables 4.2.6.8 and 6.1.1.4'
O O 0.0492 0.0322 'International Tables Vol C Tables 4.2.6.8 and 6.1.1.4'
loop_
_geom_angle_atom_site_label_1
_geom_angle_atom_site_label_2
_geom_angle_atom_site_label_3
_geom_angle
C6 O1 C9 109.24(17)
C7 O2 H2 104(2)
C8 O3 H3 103(3)
C15 O5 H5 112(3)
C1 N1 C5 105.4(2)
C1 N1 C6 126.1(2)
C5 N1 C6 128.5(2)
C2 N2 C1 111.4(2)
C2 N3 C3 120.7(2)
C3 N4 H4A 120(2)
C3 N4 H4B 123(2)
H4A N4 H4B 116(3)
C5 N5 C4 104.1(2)
C14 N6 H6A 109(2)
C14 N6 H6B 114(2)
H6A N6 H6B 111(3)
C14 N6 H6C 108.9(19)
H6A N6 H6C 106(3)
H6B N6 H6C 108(3)
C24 N7 H7A 117(2)
C24 N7 H7B 125(2)
H7A N7 H7B 116(3)
N2 C1 N1 127.3(2)
N2 C1 C4 126.6(2)
N1 C1 C4 106.1(2)
N2 C2 N3 128.2(2)
N2 C2 H2A 115.9
N3 C2 H2A 115.9
N4 C3 N3 119.1(2)
N4 C3 C4 125.3(2)
N3 C3 C4 115.6(2)
N5 C4 C1 110.4(2)
N5 C4 C3 132.1(2)
C1 C4 C3 117.5(2)
N5 C5 N1 114.1(2)
N5 C5 H5A 122.9
N1 C5 H5A 122.9
O1 C6 N1 109.56(19)
O1 C6 C7 106.44(19)
N1 C6 C7 113.56(19)
O1 C6 H6 109.1
N1 C6 H6 109.1
C7 C6 H6 109.1
O2 C7 C8 113.55(19)
O2 C7 C6 112.21(19)
C8 C7 C6 101.34(19)
O2 C7 H7 109.8
C8 C7 H7 109.8
C6 C7 H7 109.8
O3 C8 C7 110.95(19)
O3 C8 C9 108.27(19)
C7 C8 C9 101.94(18)
O3 C8 H8 111.7
C7 C8 H8 111.7
C9 C8 H8 111.7
O1 C9 C10 107.96(18)
O1 C9 C8 105.45(18)
C10 C9 C8 115.4(2)
O1 C9 H9 109.3
C10 C9 H9 109.3
C8 C9 H9 109.3
C9 C10 C11 111.14(19)
C9 C10 H10A 109.4
C11 C10 H10A 109.4
C9 C10 H10B 109.4
C11 C10 H10B 109.4
H10A C10 H10B 108.0
C16 C11 C10 110.3(2)
C16 C11 C12 109.25(19)
C10 C11 C12 113.13(19)
C16 C11 H11 108.0
C10 C11 H11 108.0
C12 C11 H11 108.0
C13 C12 C11 110.10(19)
C13 C12 H12A 109.6
C11 C12 H12A 109.6
C13 C12 H12B 109.6
C11 C12 H12B 109.6
H12A C12 H12B 108.2
C12 C13 C14 116.8(2)
C12 C13 H13A 108.1
C14 C13 H13A 108.1
C12 C13 H13B 108.1
C14 C13 H13B 108.1
H13A C13 H13B 107.3
N6 C14 C15 109.3(2)
N6 C14 C13 113.8(2)
C15 C14 C13 113.6(2)
N6 C14 H14 106.5
C15 C14 H14 106.5
C13 C14 H14 106.5
O4 C15 O5 125.5(2)
O4 C15 C14 122.5(2)
O5 C15 C14 112.0(2)
C17 C16 C11 173.0(3)
C16 C17 C18 172.7(3)
C23 C18 C19 119.1(2)
C23 C18 C17 122.6(2)
C19 C18 C17 118.3(2)
C20 C19 C18 120.6(2)
C20 C19 H19 119.7
C18 C19 H19 119.7
C19 C20 C21 120.2(2)
C19 C20 H20 119.9
C21 C20 H20 119.9
C20 C21 C22 119.8(2)
C20 C21 H21 120.1
C22 C21 H21 120.1
C23 C22 C21 119.6(2)
C23 C22 C24 118.8(2)
C21 C22 C24 121.5(2)
C22 C23 C18 120.7(2)
C22 C23 H23 119.7
C18 C23 H23 119.7
O6 C24 N7 121.6(2)
O6 C24 C22 120.0(2)
N7 C24 C22 118.4(2)
O11 C31 O12 130.5(2)
O11 C31 C32A 115.1(2)
O12 C31 C32A 114.3(2)
O11 C31 C32 115.1(2)
O12 C31 C32 114.3(2)
F1 C32 F2 104.1(11)
F1 C32 F3 105.6(7)
F2 C32 F3 110.3(7)
F1 C32 C31 112.2(9)
F2 C32 C31 113.1(7)
F3 C32 C31 111.1(3)
F3A C32A F1A 112.6(16)
F3A C32A F2A 96.4(15)
F1A C32A F2A 108(2)
F3A C32A C31 115.7(6)
F1A C32A C31 118(2)
F2A C32A C31 103.0(14)
H1WA O1W H1WB 113(5)
loop_
_geom_bond_atom_site_label_1
_geom_bond_atom_site_label_2
_geom_bond_distance
O1 C6 1.417(3)
O1 C9 1.466(3)
O2 C7 1.409(3)
O2 H2 0.86(4)
O3 C8 1.421(3)
O3 H3 0.88(4)
O4 C15 1.220(3)
O5 C15 1.301(3)
O5 H5 1.14(6)
O6 C24 1.252(3)
N1 C1 1.370(3)
N1 C5 1.380(3)
N1 C6 1.462(3)
N2 C2 1.319(3)
N2 C1 1.346(3)
N3 C2 1.339(3)
N3 C3 1.359(3)
N4 C3 1.322(3)
N4 H4A 0.92(4)
N4 H4B 0.88(4)
N5 C5 1.303(3)
N5 C4 1.386(3)
N6 C14 1.492(3)
N6 H6A 0.93(4)
N6 H6B 0.92(4)
N6 H6C 0.97(3)
N7 C24 1.319(4)
N7 H7A 0.90(4)
N7 H7B 0.88(4)
C1 C4 1.391(3)
C2 H2A 0.9500
C3 C4 1.417(3)
C5 H5A 0.9500
C6 C7 1.531(3)
C6 H6 1.0000
C7 C8 1.516(4)
C7 H7 1.0000
C8 C9 1.527(3)
C8 H8 1.0000
C9 C10 1.522(3)
C9 H9 1.0000
C10 C11 1.537(3)
C10 H10A 0.9900
C10 H10B 0.9900
C11 C16 1.474(4)
C11 C12 1.549(3)
C11 H11 1.0000
C12 C13 1.524(3)
C12 H12A 0.9900
C12 H12B 0.9900
C13 C14 1.528(3)
C13 H13A 0.9900
C13 H13B 0.9900
C14 C15 1.516(3)
C14 H14 1.0000
C16 C17 1.195(4)
C17 C18 1.442(4)
C18 C23 1.394(3)
C18 C19 1.401(4)
C19 C20 1.381(4)
C19 H19 0.9500
C20 C21 1.393(4)
C20 H20 0.9500
C21 C22 1.402(4)
C21 H21 0.9500
C22 C23 1.389(4)
C22 C24 1.499(3)
C23 H23 0.9500
O11 C31 1.232(3)
O12 C31 1.253(3)
C31 C32A 1.540(3)
C31 C32 1.540(3)
C32 F1 1.335(9)
C32 F2 1.338(9)
C32 F3 1.374(6)
C32A F3A 1.283(12)
C32A F1A 1.311(18)
C32A F2A 1.378(18)
O1W H1WA 0.85(6)
O1W H1WB 0.79(5)
loop_
_geom_hbond_atom_site_label_D
_geom_hbond_atom_site_label_H
_geom_hbond_atom_site_label_A
_geom_hbond_distance_DH
_geom_hbond_distance_HA
_geom_hbond_distance_DA
_geom_hbond_angle_DHA
_geom_hbond_site_symmetry_A
O2 H2 N2 0.86(4) 1.92(4) 2.757(3) 163(3) 1_455
O3 H3 O11 0.88(4) 1.94(4) 2.784(2) 162(4) 1_465
O3 H3 O2 0.88(4) 2.38(4) 2.766(3) 107(3) .
O5 H5 N3 1.14(6) 1.41(6) 2.542(3) 172(5) 1_456
N4 H4A O4 0.92(4) 2.19(4) 3.070(3) 159(3) 1_654
N4 H4B O6 0.88(4) 2.01(4) 2.876(3) 166(3) 1_444
N6 H6B O12 0.92(4) 1.95(4) 2.861(3) 174(3) 1_455
N6 H6A O12 0.93(4) 2.11(4) 2.991(3) 158(3) .
N6 H6A O3 0.93(4) 2.64(3) 2.948(3) 100(2) 1_545
N6 H6C O1W 0.97(3) 1.91(3) 2.830(3) 156(3) 1_545
N7 H7B O11 0.88(4) 2.18(4) 3.005(3) 157(3) 1_566
N7 H7A N5 0.90(4) 2.10(4) 2.975(3) 165(3) 1_666
O1W H1WB O6 0.79(5) 2.09(5) 2.870(3) 173(5) 1_455
N4 H4A O6 0.92(4) 2.85(4) 3.310(3) 112(3) 1_544
O1W H1WB O4 0.79(5) 2.79(5) 3.052(3) 102(4) 1_565
loop_
_geom_torsion_atom_site_label_1
_geom_torsion_atom_site_label_2
_geom_torsion_atom_site_label_3
_geom_torsion_atom_site_label_4
_geom_torsion
C2 N2 C1 N1 179.2(2)
C2 N2 C1 C4 0.9(3)
C5 N1 C1 N2 -178.1(2)
C6 N1 C1 N2 3.3(4)
C5 N1 C1 C4 0.5(2)
C6 N1 C1 C4 -178.1(2)
C1 N2 C2 N3 -0.5(4)
C3 N3 C2 N2 -0.9(4)
C2 N3 C3 N4 -177.5(2)
C2 N3 C3 C4 1.7(3)
C5 N5 C4 C1 0.6(3)
C5 N5 C4 C3 178.2(2)
N2 C1 C4 N5 177.9(2)
N1 C1 C4 N5 -0.7(2)
N2 C1 C4 C3 -0.1(3)
N1 C1 C4 C3 -178.70(19)
N4 C3 C4 N5 0.5(4)
N3 C3 C4 N5 -178.6(2)
N4 C3 C4 C1 177.9(2)
N3 C3 C4 C1 -1.2(3)
C4 N5 C5 N1 -0.3(3)
C1 N1 C5 N5 -0.2(3)
C6 N1 C5 N5 178.5(2)
C9 O1 C6 N1 -138.04(18)
C9 O1 C6 C7 -14.9(2)
C1 N1 C6 O1 -110.1(2)
C5 N1 C6 O1 71.5(3)
C1 N1 C6 C7 131.0(2)
C5 N1 C6 C7 -47.3(3)
O1 C6 C7 O2 155.32(19)
N1 C6 C7 O2 -84.1(2)
O1 C6 C7 C8 33.9(2)
N1 C6 C7 C8 154.47(19)
O2 C7 C8 O3 -44.0(3)
C6 C7 C8 O3 76.6(2)
O2 C7 C8 C9 -159.06(19)
C6 C7 C8 C9 -38.5(2)
C6 O1 C9 C10 113.7(2)
C6 O1 C9 C8 -10.2(2)
O3 C8 C9 O1 -86.1(2)
C7 C8 C9 O1 30.9(2)
O3 C8 C9 C10 154.9(2)
C7 C8 C9 C10 -88.1(2)
O1 C9 C10 C11 62.3(2)
C8 C9 C10 C11 179.94(19)
C9 C10 C11 C16 72.6(2)
C9 C10 C11 C12 -164.7(2)
C16 C11 C12 C13 -60.6(3)
C10 C11 C12 C13 176.03(19)
C11 C12 C13 C14 177.8(2)
C12 C13 C14 N6 72.3(3)
C12 C13 C14 C15 -53.6(3)
N6 C14 C15 O4 7.7(3)
C13 C14 C15 O4 136.0(2)
N6 C14 C15 O5 -174.33(19)
C13 C14 C15 O5 -46.0(3)
C23 C18 C19 C20 0.1(4)
C17 C18 C19 C20 -177.7(2)
C18 C19 C20 C21 -0.2(4)
C19 C20 C21 C22 0.5(3)
C20 C21 C22 C23 -0.6(3)
C20 C21 C22 C24 175.8(2)
C21 C22 C23 C18 0.4(3)
C24 C22 C23 C18 -176.1(2)
C19 C18 C23 C22 -0.2(3)
C17 C18 C23 C22 177.5(2)
C23 C22 C24 O6 7.0(3)
C21 C22 C24 O6 -169.5(2)
C23 C22 C24 N7 -173.9(2)
C21 C22 C24 N7 9.7(3)
O11 C31 C32 F1 148.7(9)
O12 C31 C32 F1 -33.4(9)
O11 C31 C32 F2 -93.9(9)
O12 C31 C32 F2 84.0(9)
O11 C31 C32 F3 30.7(6)
O12 C31 C32 F3 -151.4(5)
O11 C31 C32A F3A 1.0(9)
O12 C31 C32A F3A 178.9(9)
O11 C31 C32A F1A 139(2)
O12 C31 C32A F1A -43(2)
O11 C31 C32A F2A -102.8(17)
O12 C31 C32A F2A 75.1(17)
