#------------------------------------------------------------------------------
#$Date: 2019-11-12 01:05:43 +0200 (Tue, 12 Nov 2019) $
#$Revision: 227469 $
#$URL: file:///home/coder/svn-repositories/cod/cif/1/55/28/1552836.cif $
#------------------------------------------------------------------------------
#
# This file is available in the Crystallography Open Database (COD),
# http://www.crystallography.net/
#
# All data on this site have been placed in the public domain by the
# contributors.
#
data_1552836
loop_
_publ_author_name
'Gao, Qingqing'
'Qiu, Zijie'
'Elsegood, Mark R. J.'
'Chen, Ming'
'Wang, Jianguo'
'Kwok, Ryan T. K.'
'Lam, Jacky W. Y.'
'Tang, Ben Zhong'
_publ_section_title
;
 Regio- and Stereoselective Polymerization of Diynes with Inorganic
 Comonomer: A Facile Strategy to Conjugated Poly(p-arylene dihalodiene)s
 with Processability and Postfunctionalizability
;
_journal_issue                   9
_journal_name_full               Macromolecules
_journal_page_first              3497
_journal_paper_doi               10.1021/acs.macromol.8b00435
_journal_volume                  51
_journal_year                    2018
_chemical_formula_moiety         'C16 H12 Br2'
_chemical_formula_sum            'C16 H12 Br2'
_chemical_formula_weight         364.08
_space_group_crystal_system      triclinic
_space_group_IT_number           2
_space_group_name_Hall           '-P 1'
_space_group_name_H-M_alt        'P -1'
_atom_sites_solution_hydrogens   geom
_atom_sites_solution_primary     iterative
_audit_creation_method           SHELXL-2014/7
_cell_angle_alpha                73.731(3)
_cell_angle_beta                 85.809(3)
_cell_angle_gamma                80.334(3)
_cell_formula_units_Z            2
_cell_length_a                   8.3044(14)
_cell_length_b                   9.3370(15)
_cell_length_c                   9.3521(16)
_cell_measurement_reflns_used    3366
_cell_measurement_temperature    150(2)
_cell_measurement_theta_max      30.30
_cell_measurement_theta_min      2.30
_cell_volume                     686.0(2)
_computing_cell_refinement       'Bruker SAINT'
_computing_data_collection       'Bruker APEX 2'
_computing_data_reduction        'Bruker SAINT'
_computing_molecular_graphics    'Bruker SHELXTL'
_computing_publication_material  'Bruker SHELXTL'
_computing_structure_refinement  'SHELXL-2014/7 (Sheldrick, 2014)'
_computing_structure_solution    'SHELXS-97 (Sheldrick, 2008)'
_diffrn_ambient_temperature      150(2)
_diffrn_measured_fraction_theta_full 1.000
_diffrn_measured_fraction_theta_max 0.989
_diffrn_measurement_device_type
'Bruker APEX 2 CCD area detector diffractometer'
_diffrn_measurement_method       '\w rotation with narrow frames'
_diffrn_radiation_monochromator  graphite
_diffrn_radiation_type           MoK\a
_diffrn_radiation_wavelength     0.71073
_diffrn_reflns_av_R_equivalents  0.0498
_diffrn_reflns_av_unetI/netI     0.0561
_diffrn_reflns_Laue_measured_fraction_full 1.000
_diffrn_reflns_Laue_measured_fraction_max 0.989
_diffrn_reflns_limit_h_max       11
_diffrn_reflns_limit_h_min       -11
_diffrn_reflns_limit_k_max       13
_diffrn_reflns_limit_k_min       -13
_diffrn_reflns_limit_l_max       13
_diffrn_reflns_limit_l_min       -13
_diffrn_reflns_number            11004
_diffrn_reflns_point_group_measured_fraction_full 1.000
_diffrn_reflns_point_group_measured_fraction_max 0.989
_diffrn_reflns_theta_full        25.242
_diffrn_reflns_theta_max         30.532
_diffrn_reflns_theta_min         2.269
_diffrn_source                   'fine-focus sealed tube'
_exptl_absorpt_coefficient_mu    5.887
_exptl_absorpt_correction_T_max  0.386
_exptl_absorpt_correction_T_min  0.086
_exptl_absorpt_correction_type   multi-scan
_exptl_absorpt_process_details   'SADABS v2012/1, Sheldrick, G.M., (2012)'
_exptl_crystal_colour            colourless
_exptl_crystal_density_diffrn    1.763
_exptl_crystal_density_method    'not measured'
_exptl_crystal_description       block
_exptl_crystal_F_000             356
_exptl_crystal_size_max          0.820
_exptl_crystal_size_mid          0.510
_exptl_crystal_size_min          0.200
_refine_diff_density_max         0.699
_refine_diff_density_min         -0.916
_refine_diff_density_rms         0.099
_refine_ls_extinction_coef       0.0367(18)
_refine_ls_extinction_expression Fc^*^=kFc[1+0.001xFc^2^\l^3^/sin(2\q)]^-1/4^
_refine_ls_extinction_method     'SHELXL-2014/7 (Sheldrick 2014)'
_refine_ls_goodness_of_fit_ref   1.046
_refine_ls_hydrogen_treatment    constr
_refine_ls_matrix_type           full
_refine_ls_number_parameters     164
_refine_ls_number_reflns         4143
_refine_ls_number_restraints     0
_refine_ls_restrained_S_all      1.046
_refine_ls_R_factor_all          0.0506
_refine_ls_R_factor_gt           0.0335
_refine_ls_shift/su_max          0.001
_refine_ls_shift/su_mean         0.000
_refine_ls_structure_factor_coef Fsqd
_refine_ls_weighting_details
'w=1/[\s^2^(Fo^2^)+(0.0281P)^2^] where P=(Fo^2^+2Fc^2^)/3'
_refine_ls_weighting_scheme      calc
_refine_ls_wR_factor_gt          0.0811
_refine_ls_wR_factor_ref         0.0880
_reflns_Friedel_coverage         0.000
_reflns_number_gt                3063
_reflns_number_total             4143
_reflns_threshold_expression     'I > 2\s(I)'
_cod_data_source_file            ma8b00435_si_002.cif
_cod_data_source_block           3
_cod_database_code               1552836
_shelx_shelxl_version_number     2014/7
_shelx_space_group_comment
; 
The symmetry employed for this shelxl refinement is uniquely defined 
by the following loop, which should always be used as a source of 
symmetry information in preference to the above space-group names. 
They are only intended as comments. 
;
_shelx_estimated_absorpt_t_min   0.086
_shelx_estimated_absorpt_t_max   0.386
_shelx_res_file
; 
  
    tang2.res created by SHELXL-2014/7 
  
  
TITL tang2.res in P-1 
  
REM SHELXT solution in P-1 
REM R1 0.172,  Rweak 0.002,  Alpha 0.054,  Orientation as input 
REM Formula found by SHELXT:  C16 Br2 
  
CELL  0.71073   8.3044   9.3370   9.3521   73.731   85.809   80.334 
ZERR    2.000   0.0014   0.0015   0.0016    0.003    0.003    0.003 
LATT  1 
SFAC C H BR 
UNIT 32 24 4 
TEMP -123 
SIZE 0.20 0.51 0.82 
  
ACTA 
CONF 
WPDB -1 
  
L.S. 6 
BOND $H 
LIST 4 
FMAP 2 
PLAN 10 
  
MPLA BR1 C1 C2  C3 C4 BR2 
MPLA C5 > C10 
MPLA BR1 C1 C2  C3 C4 BR2 
MPLA C11 > C16 
  
WGHT    0.028100 
EXTI    0.036676 
FVAR       0.67457 
C1    1    0.326276    0.658183    0.195149    11.00000    0.01860    0.01586 = 
         0.01940   -0.00269   -0.00167   -0.00456 
BR1   3    0.440503    0.800951    0.054929    11.00000    0.02226    0.02377 = 
         0.03784    0.00854    0.00375   -0.00485 
C2    1    0.409379    0.520793    0.260181    11.00000    0.01938    0.01806 = 
         0.02398   -0.00272   -0.00112   -0.00500 
AFIX  43 
H2    2    0.349778    0.452204    0.329525    11.00000   -1.20000 
AFIX   0 
C3    1    0.579088    0.467513    0.235247    11.00000    0.01857    0.01769 = 
         0.02456   -0.00225   -0.00085   -0.00356 
AFIX  43 
H3    2    0.635653    0.532705    0.159105    11.00000   -1.20000 
AFIX   0 
C4    1    0.666546    0.335451    0.307936    11.00000    0.02093    0.01571 = 
         0.01966   -0.00282   -0.00051   -0.00342 
BR2   3    0.564656    0.195472    0.461637    11.00000    0.02149    0.02676 = 
         0.04242    0.01166    0.00590   -0.00312 
C5    1    0.151841    0.710781    0.222796    11.00000    0.01999    0.01533 = 
         0.01450   -0.00246   -0.00383   -0.00294 
C6    1    0.083363    0.862807    0.179021    11.00000    0.02726    0.01515 = 
         0.01861   -0.00304   -0.00083   -0.00378 
AFIX  43 
H6    2    0.150476    0.936015    0.130127    11.00000   -1.20000 
AFIX   0 
C7    1   -0.081158    0.909163    0.205589    11.00000    0.02889    0.01651 = 
         0.02202   -0.00440   -0.00192    0.00357 
AFIX  43 
H7    2   -0.125513    1.013277    0.174219    11.00000   -1.20000 
AFIX   0 
C8    1   -0.180923    0.804440    0.277568    11.00000    0.02093    0.02850 = 
         0.01993   -0.00964   -0.00089    0.00025 
AFIX  43 
H8    2   -0.293563    0.836122    0.295482    11.00000   -1.20000 
AFIX   0 
C9    1   -0.114624    0.652703    0.323266    11.00000    0.02406    0.02399 = 
         0.02125   -0.00646   -0.00105   -0.00749 
AFIX  43 
H9    2   -0.182237    0.580613    0.374002    11.00000   -1.20000 
AFIX   0 
C10   1    0.048830    0.605132    0.295812    11.00000    0.02204    0.01571 = 
         0.01902   -0.00300   -0.00284   -0.00410 
AFIX  43 
H10   2    0.091947    0.500681    0.326322    11.00000   -1.20000 
AFIX   0 
C11   1    0.841488    0.288805    0.278729    11.00000    0.01842    0.01041 = 
         0.01881   -0.00295   -0.00153   -0.00423 
C12   1    0.906607    0.330281    0.132797    11.00000    0.02582    0.01564 = 
         0.01689   -0.00086   -0.00285   -0.00416 
AFIX  43 
H12   2    0.836602    0.385491    0.053445    11.00000   -1.20000 
AFIX   0 
C13   1    1.071449    0.291790    0.103024    11.00000    0.02752    0.02040 = 
         0.01817   -0.00437    0.00357   -0.00515 
AFIX  43 
H13   2    1.113441    0.319501    0.003518    11.00000   -1.20000 
AFIX   0 
C14   1    1.175914    0.212608    0.218398    11.00000    0.01776    0.02017 = 
         0.02719   -0.00690    0.00357   -0.00393 
AFIX  43 
H14   2    1.289426    0.187780    0.198385    11.00000   -1.20000 
AFIX   0 
C15   1    1.112652    0.170291    0.362914    11.00000    0.02240    0.01692 = 
         0.01996   -0.00259   -0.00392   -0.00106 
AFIX  43 
H15   2    1.183477    0.115608    0.441806    11.00000   -1.20000 
AFIX   0 
C16   1    0.947857    0.206697    0.393554    11.00000    0.02404    0.01600 = 
         0.01401   -0.00178   -0.00105   -0.00356 
AFIX  43 
H16   2    0.906324    0.175950    0.492960    11.00000   -1.20000 
AFIX   0 
HKLF 4 
  
REM  tang2.res in P-1 
REM R1 =  0.0335 for    3063 Fo > 4sig(Fo)  and  0.0506 for all    4143 data 
REM    164 parameters refined using      0 restraints 
  
END 
  
WGHT      0.0281      0.0000 
  
REM Highest difference peak  0.699,  deepest hole -0.916,  1-sigma level  0.099 
Q1    1   0.4080  0.7012  0.0444  11.00000  0.05    0.70 
Q2    1   0.4509  0.9195  0.0413  11.00000  0.05    0.67 
Q3    1   0.4740  0.2079  0.4938  11.00000  0.05    0.65 
Q4    1   0.4055  0.8589 -0.0238  11.00000  0.05    0.61 
Q5    1   0.5527  0.0829  0.4757  11.00000  0.05    0.61 
Q6    1   0.5964  0.2932  0.4702  11.00000  0.05    0.60 
Q7    1   0.5371  0.7910  0.0199  11.00000  0.05    0.60 
Q8    1   0.5958  0.1606  0.3912  11.00000  0.05    0.58 
Q9    1   0.6028  0.1398  0.5314  11.00000  0.05    0.56 
Q10   1   0.3590  0.8202  0.1011  11.00000  0.05    0.54 
;
_shelx_res_checksum              58961
_shelx_hkl_file
; 
   1   0   0 1040.70   69.39 
   1   0   0 1065.89   69.49 
   1   0   0 1017.00   69.39 
  -1   0   0  984.60   69.79 
   2   0   0 3650.63  226.08 
   2   0   0 3193.68  225.88 
   2   0   0 3430.86  226.08 
  -2   0   0 3175.28  226.78 
   3   0   0 1467.25   93.39 
   3   0   0 1381.36   93.79 
   3   0   0 1347.47   93.69 
  -3   0   0 1350.26   94.79 
   4   0   0  968.00   60.69 
   4   0   0  880.51   61.29 
   4   0   0  853.71   61.09 
  -4   0   0  887.71   62.69 
   5   0   0  130.29   10.30 
   5   0   0  139.09    9.20 
   5   0   0  126.99   10.00 
  -5   0   0  118.39   12.00 
   6   0   0 1112.89   79.19 
   6   0   0 1249.68   78.29 
   6   0   0 1138.39   78.99 
  -6   0   0 1130.99   80.99 
   7   0   0 1074.49   73.39 
  -7   0   0 1068.29   75.39 
   8   0   0 1556.74  103.59 
  -8   0   0 1510.75  103.69 
  -8   0   0 1476.15  105.59 
   9   0   0  539.85   37.70 
  -9   0   0  506.15   37.80 
  10   0   0  265.27   21.50 
 -10   0   0  268.07   21.90 
  11   0   0   44.10    7.80 
 -11   0   0   32.70    8.30 
 -11   0   1   12.00    7.20 
  11   0  -1   26.00    7.20 
 -10   0   1    4.30    5.60 
  10   0  -1   11.30    5.50 
  -9   0   1    6.80    4.90 
   9   0  -1   -0.70    4.20 
  -8   0   1   -1.30    6.70 
   8   0  -1   -7.10    3.10 
  -7   0   1    6.00    6.10 
   7   0  -1   -4.30    2.70 
   7   0  -1    0.10    2.80 
  -6   0   1    4.10    5.10 
   6   0  -1   -0.40    1.10 
   6   0  -1   -1.60    2.30 
   6   0  -1    0.50    2.40 
  -5   0   1   12.90    5.40 
   5   0  -1    8.80    2.20 
   5   0  -1    8.50    1.30 
   5   0  -1    5.20    2.20 
  -4   0   1   11.20    4.30 
   4   0  -1    4.60    1.70 
   4   0  -1    7.60    1.90 
   4   0  -1    7.90    1.10 
  -3   0   1    2.20    2.90 
   3   0  -1   -1.20    0.60 
   3   0  -1    0.50    1.20 
   3   0  -1   -2.70    1.10 
   2   0  -1    2.80    0.90 
   2   0  -1    2.70    0.60 
   2   0  -1    3.10    1.70 
   2   0  -1    3.40    1.00 
   1   0  -1    3.20    0.80 
   1   0  -1    1.20    0.40 
   1   0  -1    3.10    0.60 
   1   0  -1    0.20    0.80 
   0   0   1    1.00    0.30 
   0   0   1    1.00    0.40 
   0   0  -1    4.10    0.60 
   0   0  -1    1.90    0.50 
   1   0   1    1.70    0.80 
   1   0   1    4.00    1.00 
  -1   0  -1    3.20    1.00 
  -1   0  -1    5.50    1.20 
   2   0   1   30.70    2.50 
   2   0   1   29.80    2.70 
  -2   0  -1   21.00    2.50 
  -2   0  -1   25.90    3.00 
   3   0   1   43.10    3.20 
   3   0   1   41.20    3.80 
  -3   0  -1   39.30    4.30 
   4   0   1    5.00    1.90 
   4   0   1    5.80    1.00 
  -4   0  -1    8.40    2.70 
   5   0   1  105.19    8.40 
   5   0   1  104.59    7.20 
  -5   0  -1   90.89    8.30 
  -5   0  -1  102.69    9.60 
   6   0   1    3.70    1.10 
   6   0   1    5.40    2.80 
  -6   0  -1    5.80    2.70 
  -6   0  -1   -0.20    3.40 
   7   0   1   39.50    5.40 
  -7   0  -1   42.40    5.40 
  -7   0  -1   38.80    6.60 
   8   0   1    2.20    3.60 
  -8   0  -1    3.00    3.90 
  -8   0  -1   -1.80    4.30 
   9   0   1    2.90    4.10 
  -9   0  -1   -3.10    4.40 
  10   0   1   -2.90    4.70 
 -10   0  -1    2.00    5.40 
  11   0   1   29.00    7.00 
 -11   0  -1   22.60    7.10 
 -11   0   2   14.10    7.40 
  11   0  -2   21.20    7.00 
 -10   0   2   30.20    7.40 
  10   0  -2   34.70    7.30 
   9   0  -2  333.17   25.60 
  -8   0   2  452.35   40.00 
   8   0  -2  486.35   34.50 
   8   0  -2  510.25   35.30 
  -7   0   2 1410.66  112.39 
   7   0  -2 1602.84  108.69 
   7   0  -2 1669.63  107.79 
   7   0  -2 1639.54  108.19 
  -6   0   2 1666.63  132.09 
   6   0  -2 1907.41  128.59 
   6   0  -2 2071.49  127.99 
   6   0  -2 1894.21  128.89 
  -5   0   2 1149.39   93.09 
   5   0  -2 1356.76   90.49 
   5   0  -2 1428.86   89.69 
   5   0  -2 1339.77   90.19 
   4   0  -2  243.38   16.50 
   4   0  -2  183.18   13.90 
   4   0  -2  184.78   14.20 
   4   0  -2  195.38   13.50 
   3   0  -2  384.26   26.10 
   3   0  -2  375.06   25.20 
   3   0  -2  346.67   24.90 
   3   0  -2  350.76   24.60 
   2   0  -2  494.75   32.60 
   2   0  -2  517.95   33.00 
   2   0  -2  451.45   33.30 
   2   0  -2  456.05   32.80 
  -1   0   2 1229.08   98.59 
   1   0  -2 1511.75   98.19 
   1   0  -2 1621.94   98.19 
   0   0   2   37.30    2.90 
   0   0   2   34.40    2.80 
   1   0   2 6218.98  463.15 
  -1   0  -2 6961.10  463.55 
  -1   0  -2 7517.95  463.45 
   2   0   2 3502.95  268.27 
   2   0   2 4238.18  268.57 
  -2   0  -2 3981.20  268.77 
  -2   0  -2 4259.17  268.47 
   3   0   2 1954.50  120.59 
   3   0   2 1694.43  120.29 
  -3   0  -2 1704.73  120.89 
  -3   0  -2 1798.72  120.59 
   4   0   2 1813.52  121.59 
   4   0   2 1881.51  121.89 
  -4   0  -2 1699.73  122.19 
  -4   0  -2 1823.12  121.89 
   5   0   2   86.39    5.70 
   5   0   2   66.89    6.70 
  -5   0  -2   72.29    7.30 
  -5   0  -2   60.99    6.50 
   6   0   2  145.29   11.90 
   6   0   2  152.08   10.60 
  -6   0  -2  159.88   12.10 
  -6   0  -2  141.09   12.50 
   7   0   2   95.79    8.80 
  -7   0  -2   73.09    8.30 
  -7   0  -2   98.19    9.50 
   8   0   2  346.47   27.40 
  -8   0  -2  377.16   28.30 
  -8   0  -2  406.46   27.70 
   9   0   2  606.24   44.50 
  -9   0  -2  651.13   44.70 
  10   0   2  297.07   24.30 
 -10   0  -2  336.47   25.10 
  11   0   2  311.17   25.20 
 -11   0  -2  321.37   25.60 
 -11   0   3    9.70    7.40 
  11   0  -3   13.40    7.30 
 -10   0   3    1.70    6.20 
  10   0  -3   10.00    6.00 
  -9   0   3    7.70   10.20 
   9   0  -3   -6.50    4.60 
   9   0  -3    3.00    4.30 
  -8   0   3   -9.20    8.20 
   8   0  -3   -0.70    4.10 
   8   0  -3    7.50    3.80 
  -7   0   3   -0.80    7.20 
   7   0  -3    0.60    3.40 
   7   0  -3    1.70    3.00 
  -6   0   3    3.80    6.30 
   6   0  -3   -1.40    2.20 
   6   0  -3    1.70    3.10 
   6   0  -3    0.40    1.40 
   5   0  -3    5.50    2.80 
   5   0  -3    1.80    2.10 
   5   0  -3    3.10    4.80 
   5   0  -3    2.30    1.30 
   4   0  -3   24.00    2.90 
   4   0  -3   23.80    2.40 
   4   0  -3   27.10    3.70 
   4   0  -3   22.70    4.80 
   3   0  -3   26.30    4.10 
   3   0  -3   25.20    2.50 
   3   0  -3   26.00    2.80 
   3   0  -3   33.50    3.70 
  -2   0   3   61.09    6.10 
   2   0  -3   61.69    4.60 
   2   0  -3   53.19    4.70 
  -1   0   3  104.29    7.70 
  -1   0   3   99.79    8.10 
   1   0  -3  110.59    8.40 
   1   0  -3  115.29    7.80 
   0   0   3   67.19    5.30 
   0   0   3   69.19    5.10 
   0   0  -3   73.59    5.60 
   0   0  -3   73.79    5.80 
   1   0   3   18.90    1.90 
   1   0   3   19.00    2.00 
  -1   0  -3   26.40    2.50 
  -1   0  -3   23.00    2.80 
   2   0   3   11.40    1.80 
   2   0   3   12.20    1.50 
  -2   0  -3   14.50    1.90 
  -2   0  -3   10.10    2.30 
   3   0   3   17.10    1.80 
   3   0   3   13.10    2.30 
  -3   0  -3   16.50    2.80 
  -3   0  -3   13.10    2.10 
   4   0   3  117.59    8.50 
   4   0   3  100.29    7.80 
  -4   0  -3   94.79    8.20 
  -4   0  -3  111.49    8.80 
   5   0   3   27.30    3.80 
   5   0   3   34.10    3.20 
  -5   0  -3   24.80    3.70 
  -5   0  -3   31.10    4.20 
   6   0   3  236.98   17.50 
  -6   0  -3  236.88   18.00 
  -6   0  -3  231.98   17.40 
   7   0   3   13.90    4.00 
  -7   0  -3   11.60    3.80 
  -7   0  -3   19.30    4.30 
   8   0   3   93.19    9.70 
  -8   0  -3  111.29   10.60 
  -8   0  -3  113.69   11.10 
   9   0   3   -2.30    4.30 
  -9   0  -3   -2.40    4.40 
  10   0   3   -0.80    4.80 
 -10   0  -3    4.20    5.20 
  11   0   3   -5.70    5.30 
 -11   0  -3   13.20    6.50 
 -11   0   4  118.39   13.80 
  -9   0   4    1.50   10.20 
   9   0  -4   14.40    4.90 
   9   0  -4   23.30    6.00 
  -8   0   4  145.59   21.70 
   8   0  -4  183.58   14.90 
   8   0  -4  200.48   16.00 
  -7   0   4  696.33   48.80 
   7   0  -4  779.02   50.29 
   7   0  -4  679.43   49.20 
  -6   0   4  677.13   47.60 
   6   0  -4  779.92   51.59 
   6   0  -4  654.13   47.80 
   6   0  -4  717.03   48.70 
   5   0  -4 4129.49  298.27 
   5   0  -4 4179.58  296.17 
   5   0  -4 4898.51  297.07 
   4   0  -4 1738.13  112.29 
   4   0  -4 1577.44  113.69 
  -3   0   4 1350.26   87.59 
  -3   0   4 1142.59   88.79 
   3   0  -4 1401.56   87.59 
   3   0  -4 1262.47   88.69 
  -2   0   4  946.51   62.49 
  -2   0   4  864.71   63.29 
   2   0  -4  946.51   62.39 
   2   0  -4  925.11   63.39 
  -1   0   4  715.93   49.99 
  -1   0   4  658.03   50.29 
   1   0  -4  831.22   49.99 
   0   0   4  907.41   61.99 
   0   0   4  887.41   62.09 
   0   0  -4  957.40   62.39 
   0   0  -4  917.01   62.59 
   1   0   4 1389.26   93.29 
   1   0   4 1346.47   93.19 
  -1   0  -4 1462.85   93.89 
  -1   0  -4 1334.87   93.59 
   2   0   4 1758.42  126.39 
   2   0   4 1889.21  126.59 
  -2   0  -4 1935.51  127.29 
  -2   0  -4 1934.61  126.79 
   3   0   4 3572.54  240.98 
   3   0   4 3278.57  240.68 
  -3   0  -4 3802.62  240.98 
  -3   0  -4 3677.23  241.58 
   4   0   4 1023.00   72.19 
   4   0   4 1093.09   72.69 
  -4   0  -4 1058.59   72.49 
  -4   0  -4 1103.29   73.19 
   5   0   4  851.61   57.99 
   5   0   4  849.52   58.39 
  -5   0  -4  845.92   58.29 
  -5   0  -4  865.71   58.89 
   6   0   4  198.58   15.70 
  -6   0  -4  211.98   16.40 
  -6   0  -4  203.88   15.50 
   7   0   4  104.39   10.30 
  -7   0  -4  125.49   11.20 
  -7   0  -4  106.89   10.40 
   8   0   4  139.29   13.00 
  -8   0  -4  155.08   15.20 
  -8   0  -4  146.19   13.10 
   9   0   4   88.59    9.80 
  -9   0  -4   93.79    9.90 
  10   0   4  188.78   17.50 
 -10   0  -4  214.88   18.20 
  11   0   4   95.79   11.30 
 -11   0  -4  100.69   11.60 
  -9   0   5   26.80   12.70 
   9   0  -5    2.40    4.40 
  -8   0   5    9.00    9.80 
   8   0  -5    6.70    4.10 
   8   0  -5    7.30    5.50 
  -7   0   5   16.40    3.20 
   7   0  -5   19.10    3.90 
   7   0  -5   18.40    5.50 
  -6   0   5   10.80    2.70 
   6   0  -5   22.10    7.10 
   6   0  -5   15.70    5.00 
   6   0  -5   16.20    3.40 
  -5   0   5   12.70    2.50 
   5   0  -5   12.80    4.70 
   5   0  -5   13.20    5.40 
   5   0  -5   12.10    2.90 
  -4   0   5   -2.00    3.70 
  -4   0   5   -1.20    1.70 
   4   0  -5   -4.40    3.30 
   4   0  -5   -0.20    2.00 
  -3   0   5   22.60    2.80 
  -3   0   5   19.10    4.30 
   3   0  -5   23.20    2.80 
   3   0  -5   18.80    4.50 
  -2   0   5   90.29    7.10 
  -2   0   5   82.09    7.70 
   2   0  -5   92.29    8.70 
   2   0  -5   96.79    7.00 
  -1   0   5  127.39   10.50 
  -1   0   5  135.79   10.10 
   1   0  -5  143.39   11.40 
   1   0  -5  150.08   10.10 
   0   0   5  155.98   12.30 
   0   0   5  170.18   12.20 
   0   0  -5  188.48   12.70 
   0   0  -5  177.08   13.30 
   1   0   5  126.39    9.40 
   1   0   5  125.99    9.20 
  -1   0  -5  123.49   10.00 
  -1   0  -5  131.19   10.40 
   2   0   5   49.90    4.30 
   2   0   5   46.80    4.60 
  -2   0  -5   46.80    5.40 
  -2   0  -5   51.39    5.00 
   3   0   5    2.70    1.40 
   3   0   5    5.10    2.20 
  -3   0  -5    4.20    2.80 
  -3   0  -5    7.70    2.30 
   4   0   5    3.50    1.60 
   4   0   5    0.20    2.30 
  -4   0  -5   -0.20    2.70 
  -4   0  -5    4.10    2.30 
   5   0   5   36.10    4.80 
   5   0   5   49.50    4.30 
  -5   0  -5   34.50    5.50 
  -5   0  -5   39.30    4.70 
   6   0   5   47.80    5.80 
  -6   0  -5   44.00    5.50 
  -6   0  -5   50.89    6.50 
   7   0   5   64.49    7.00 
  -7   0  -5   56.09    7.50 
  -7   0  -5   57.09    6.70 
   8   0   5   34.40    6.30 
  -8   0  -5   54.29    6.60 
   9   0   5   43.00    6.80 
  -9   0  -5   38.40    6.70 
  10   0   5    4.80    5.60 
 -10   0  -5   14.40    6.20 
  -9   0   6   19.40   11.50 
   9   0  -6   20.90    5.40 
  -8   0   6   17.30   10.80 
   8   0  -6   36.50    5.60 
  -7   0   6   25.40    4.10 
   7   0  -6   31.00    4.70 
   7   0  -6   30.10    9.00 
  -6   0   6  489.45   34.00 
   6   0  -6  473.95   37.70 
   6   0  -6  496.05   34.10 
  -5   0   6   40.70    8.80 
  -5   0   6   49.70    5.00 
   5   0  -6   56.39    5.30 
   5   0  -6   44.40    7.80 
  -4   0   6 1562.94  103.79 
  -4   0   6 1391.46  105.19 
   4   0  -6 1658.23  103.79 
   4   0  -6 1492.55  105.59 
  -3   0   6 1312.27   86.29 
  -3   0   6 1167.28   86.99 
   3   0  -6 1363.46   86.29 
   3   0  -6 1238.38   87.79 
  -2   0   6  828.12   57.29 
  -2   0   6  816.02   57.69 
   2   0  -6  837.02   58.59 
   2   0  -6  880.81   57.09 
  -1   0   6 1170.98   87.29 
  -1   0   6 1291.57   87.19 
   1   0  -6 1366.66   86.99 
   1   0  -6 1321.47   88.29 
   0   0   6   81.19    6.90 
   0   0   6   85.39    7.10 
   0   0  -6   85.29    8.50 
   0   0  -6   88.79    7.30 
   1   0   6  219.28   16.30 
   1   0   6  225.68   16.40 
  -1   0  -6  252.57   17.20 
  -1   0  -6  235.48   17.60 
   2   0   6  217.08   15.20 
   2   0   6  210.78   14.90 
  -2   0  -6  200.48   16.10 
  -2   0  -6  208.28   16.00 
   3   0   6  418.36   28.80 
   3   0   6  406.66   28.40 
  -3   0  -6  420.16   29.30 
  -3   0  -6  402.66   29.60 
   4   0   6  978.30   66.29 
   4   0   6  968.90   66.69 
  -4   0  -6  948.11   67.49 
  -4   0  -6 1009.40   66.89 
   5   0   6  521.85   36.80 
   5   0   6  529.45   36.20 
  -5   0  -6  502.75   37.60 
  -5   0  -6  546.15   36.80 
   6   0   6  623.74   43.80 
  -6   0  -6  643.04   43.70 
  -6   0  -6  611.94   44.50 
   7   0   6  236.38   19.20 
  -7   0  -6  257.97   19.20 
  -7   0  -6  252.27   20.30 
   8   0   6   65.89    8.20 
  -8   0  -6   74.49    8.30 
   9   0   6   48.70    7.50 
  -9   0  -6   57.09    7.80 
  10   0   6   26.20    6.80 
 -10   0  -6   16.80    6.70 
  -9   0   7    5.40   10.90 
   8   0  -7   22.10    5.50 
  -7   0   7   17.80    4.00 
   7   0  -7   25.90    4.50 
   7   0  -7   14.20    8.60 
  -6   0   7   76.19    7.40 
   6   0  -7   79.79   11.60 
   6   0  -7   84.69    7.60 
  -5   0   7    4.20    2.70 
   5   0  -7    1.20    2.80 
   5   0  -7    0.50    5.40 
  -4   0   7   42.80    4.90 
   4   0  -7   49.40    7.90 
   4   0  -7   47.00    4.80 
  -3   0   7   -1.80    2.20 
   3   0  -7   -1.60    3.90 
   3   0  -7    3.30    2.10 
  -2   0   7   13.10    3.20 
  -2   0   7   17.00    2.90 
   2   0  -7    8.70    4.50 
   2   0  -7   14.20    2.40 
  -1   0   7   67.99    6.10 
  -1   0   7   70.09    6.40 
   1   0  -7   69.29    8.00 
   1   0  -7   65.19    5.80 
   0   0   7  159.28   11.60 
   0   0   7  140.59   11.60 
   0   0  -7  165.58   11.70 
   0   0  -7  155.38   13.30 
   1   0   7  177.28   13.60 
   1   0   7  189.28   13.60 
  -1   0  -7  214.18   14.50 
  -1   0  -7  166.38   14.90 
   2   0   7  132.49   10.30 
   2   0   7  138.99   10.60 
  -2   0  -7  142.29   11.50 
  -2   0  -7  121.49   11.70 
   3   0   7  104.99    9.00 
   3   0   7  105.09    8.50 
  -3   0  -7  119.69   10.50 
  -3   0  -7  100.69   10.20 
   4   0   7   14.70    3.50 
   4   0   7   12.00    2.70 
  -4   0  -7   11.00    4.00 
  -4   0  -7   11.80    4.10 
   5   0   7    1.50    3.30 
   5   0   7    0.50    2.30 
  -5   0  -7    5.10    3.80 
  -5   0  -7    0.70    3.80 
   6   0   7    3.20    3.70 
  -6   0  -7    3.70    4.10 
  -6   0  -7    7.70    4.50 
   7   0   7  101.29   10.40 
  -7   0  -7  114.89   10.70 
  -7   0  -7  103.19   11.40 
   8   0   7   18.50    5.60 
  -8   0  -7   25.90    5.90 
   9   0   7   51.89    8.10 
  -9   0  -7   54.29    8.20 
   8   0  -8  108.29   16.40 
  -7   0   8   76.39    7.70 
   7   0  -8   62.59   12.40 
  -6   0   8   20.60    4.30 
   6   0  -8   14.10    7.80 
  -5   0   8  316.47   23.20 
   5   0  -8  326.67   26.80 
  -4   0   8  239.18   17.80 
   4   0  -8  237.78   21.00 
  -3   0   8  447.46   30.80 
   3   0  -8  425.66   33.10 
  -2   0   8  833.32   57.29 
   2   0  -8  840.12   59.19 
  -1   0   8  274.57   20.60 
   1   0  -8  304.07   22.70 
   0   0   8  328.17   23.20 
   0   0   8  322.47   23.10 
   0   0  -8  330.17   24.90 
   1   0   8  235.18   17.40 
   1   0   8  237.28   17.40 
  -1   0  -8  247.98   19.20 
   2   0   8   75.59    7.50 
   2   0   8   91.39    7.70 
  -2   0  -8  101.79    9.20 
  -2   0  -8   82.99    9.00 
   3   0   8  205.28   14.30 
   3   0   8  175.68   14.70 
  -3   0  -8  225.88   16.40 
  -3   0  -8  169.58   15.80 
   4   0   8  120.59   10.80 
   4   0   8  135.09   10.30 
  -4   0  -8  131.29   12.50 
  -4   0  -8  107.29   12.00 
   5   0   8  306.87   21.50 
   5   0   8  280.47   22.10 
  -5   0  -8  278.17   22.80 
  -5   0  -8  331.97   23.40 
   6   0   8  115.19   11.70 
  -6   0  -8  146.29   12.90 
  -6   0  -8  123.19   12.60 
   7   0   8   15.30    5.30 
  -7   0  -8   17.40    6.00 
  -7   0  -8   22.10    6.40 
   8   0   8   81.19   10.30 
  -8   0  -8  113.69   11.50 
   9   0   8   10.30    6.50 
  -9   0  -8   19.20    7.10 
   8   0  -9   20.60   11.00 
  -7   0   9   28.20    5.40 
   7   0  -9   27.30   10.50 
  -6   0   9   21.60    4.60 
   6   0  -9    1.80    7.70 
  -5   0   9  139.69   11.30 
   5   0  -9  100.89   13.90 
  -4   0   9   11.90    3.70 
   4   0  -9    1.80    6.30 
  -3   0   9   39.30    5.20 
   3   0  -9   47.00    8.50 
  -2   0   9    2.40    3.00 
   2   0  -9   -1.10    5.10 
  -1   0   9    4.70    3.00 
   1   0  -9    8.50    5.40 
   0   0   9   23.80    4.00 
   0   0  -9   31.70    6.40 
   1   0   9   76.19    7.00 
  -1   0  -9   67.59    8.80 
   2   0   9   99.29    8.60 
   2   0   9   99.79   10.40 
  -2   0  -9   78.89    9.70 
   3   0   9   72.09    6.90 
   3   0   9   74.39    7.30 
  -3   0  -9   58.69    8.20 
   4   0   9   71.99    6.90 
   4   0   9   60.69    7.10 
  -4   0  -9   65.09    8.30 
   5   0   9   19.90    5.00 
  -5   0  -9   14.40    5.30 
   6   0   9    6.30    4.60 
  -6   0  -9   -3.80    4.60 
   7   0   9    0.50    5.00 
   8   0   9   15.90    6.20 
  -7   0  10   79.29    8.80 
   7   0 -10   74.59   14.40 
  -6   0  10   92.69    9.70 
   6   0 -10  114.09   15.40 
  -5   0  10   49.30    6.50 
   5   0 -10   45.90   10.20 
  -4   0  10   81.39    8.30 
   4   0 -10   74.09   12.00 
  -3   0  10   44.10    5.90 
   3   0 -10   43.80    9.10 
  -2   0  10  125.89   10.60 
   2   0 -10   91.69   12.60 
  -1   0  10  374.06   27.10 
   1   0 -10  375.26   29.60 
   0   0  10   75.79    7.60 
   0   0 -10   71.89   10.00 
   1   0  10  263.67   19.10 
  -1   0 -10  235.08   21.00 
   2   0  10   80.09    7.90 
  -2   0 -10   82.39   10.10 
   3   0  10  128.29   11.00 
  -3   0 -10  114.89   12.30 
   4   0  10   78.49    7.70 
  -4   0 -10   55.99    8.60 
   5   0  10   29.80    8.10 
  -5   0 -10   12.70    5.60 
   6   0  10   46.50    7.40 
  -6   0 -10   50.09    8.20 
   7   0  10  188.68   17.10 
  -5   0  11   31.00    6.20 
   5   0 -11   39.50   10.60 
  -4   0  11   43.40    6.50 
   4   0 -11   24.60    9.00 
  -3   0  11   46.40    6.70 
   3   0 -11   49.50   10.10 
  -2   0  11   22.20    5.30 
   2   0 -11   25.90    8.10 
  -1   0  11    4.10    4.10 
   1   0 -11    3.90    6.40 
   0   0  11    1.00    3.90 
   0   0 -11   -0.60    5.90 
   1   0  11   17.40    4.40 
  -1   0 -11   12.30    6.50 
   2   0  11   28.10    5.20 
  -2   0 -11   19.60    6.70 
   3   0  11   48.40    6.30 
  -3   0 -11   42.90    8.30 
   4   0  11   35.60    6.10 
  -4   0 -11   29.10    7.30 
  -5   0 -11   30.80    7.20 
  -6   0 -11    5.60    6.00 
  -3   0  12   43.00    7.20 
   3   0 -12   40.90   10.70 
  -2   0  12   31.10    6.30 
   2   0 -12   15.00    8.70 
  -1   0  12   15.50    5.30 
   1   0 -12   14.00    8.30 
   0   0  12  127.99   11.50 
   0   0 -12  107.89   14.10 
   1   0  12    8.30    4.80 
  -1   0 -12    4.80    6.70 
   2   0  12   15.00    5.00 
  -2   0 -12   16.70    7.30 
   3   0  12    7.90    4.80 
  -3   0 -12   -3.00    6.10 
  -4   0 -12   37.70    8.60 
  -3   1 -12   30.60    8.60 
   3  -1  12   41.70    7.00 
  -2   1 -12   17.30    7.90 
   2  -1  12   50.59    7.10 
  -1   1 -12   54.19   10.10 
   1  -1  12   52.49    7.50 
   0   1 -12   -3.00    7.30 
   0  -1  12    6.30    4.80 
   1   1 -12   20.90    8.90 
  -1  -1  12   17.20    5.60 
   2   1 -12   42.30   11.30 
  -2  -1  12   67.99    8.10 
  -3  -1  12  126.69   14.80 
  -5   1 -11   24.20    9.30 
  -4   1 -11    0.70    5.90 
   4  -1  11    8.30    5.00 
  -3   1 -11   -4.40    5.50 
   3  -1  11    7.90    4.70 
  -2   1 -11   61.09    9.70 
   2  -1  11   56.19    7.30 
  -1   1 -11   -2.20    6.10 
   1  -1  11    4.20    4.20 
   0   1 -11  104.09   13.40 
   0  -1  11  128.59   11.10 
   1   1 -11   47.60   10.00 
  -1  -1  11   46.20    6.40 
   2   1 -11   30.60    9.00 
  -2  -1  11   24.90    5.50 
   3   1 -11  108.19   14.50 
  -3  -1  11   87.79    9.60 
   4   1 -11    5.50    8.30 
  -4  -1  11   21.40    5.50 
   5   1 -11   28.80   10.10 
  -5  -1  11   15.50    5.40 
  -5   1 -10   62.79    9.00 
  -4   1 -10   96.29   11.50 
   4  -1  10  115.39   10.30 
  -3   1 -10  115.79   12.70 
   3  -1  10  130.89   11.50 
  -2   1 -10   63.09    9.10 
   2  -1  10   69.79    7.30 
  -1   1 -10   47.00    8.10 
   1  -1  10   43.20    5.80 
   0   1 -10   48.30    8.60 
   0  -1  10   54.19    6.30 
   1   1 -10   14.80    6.90 
  -1  -1  10   12.20    4.10 
   2   1 -10    6.50    6.80 
  -2  -1  10    6.50    3.80 
   3   1 -10   59.19   10.50 
  -3  -1  10   58.09    7.00 
   4   1 -10  169.58   18.90 
  -4  -1  10  189.58   15.30 
   5   1 -10  129.59   17.00 
  -5  -1  10  156.58   13.30 
   6   1 -10  102.79   15.40 
  -6  -1  10   98.89   10.00 
   8  -1   9    0.00    5.60 
   7  -1   9   27.20    6.50 
   6  -1   9   52.09    7.30 
  -5   1  -9   38.20    6.90 
   5  -1   9   52.29    6.30 
   5  -1   9   38.30    6.30 
  -4   1  -9   55.59    7.80 
   4  -1   9   59.49    6.60 
  -3   1  -9   47.60    7.30 
   3  -1   9   48.00    5.80 
  -2   1  -9    1.70    4.50 
   2  -1   9    1.70    3.10 
  -1   1  -9   -1.90    4.60 
   1  -1   9    2.40    3.00 
   0   1  -9   61.19    8.80 
   0  -1   9   64.69    6.50 
   1   1  -9   53.99    8.60 
  -1  -1   9   53.59    6.00 
   2   1  -9   81.99   11.00 
  -2  -1   9   89.49    8.30 
   3   1  -9  116.19   14.10 
  -3  -1   9  130.09   11.00 
   4   1  -9   12.50    7.60 
  -4  -1   9   24.70    4.40 
   5   1  -9   43.20   10.10 
  -5  -1   9   54.49    6.30 
   6   1  -9    3.10    7.60 
  -6  -1   9    6.30    3.90 
   7   1  -9    2.50    9.00 
  -7  -1   9    5.40    4.40 
  -8   1  -8  162.08   15.30 
   8  -1   8  128.19   13.20 
  -7   1  -8   28.00    7.50 
   7  -1   8   31.20    6.10 
  -6   1  -8  155.38   14.10 
  -6   1  -8  133.89   13.80 
   6  -1   8  118.29   12.40 
  -5   1  -8    7.50    4.40 
  -5   1  -8   10.90    5.50 
   5  -1   8    3.90    3.40 
   5  -1   8    5.00    3.90 
  -4   1  -8   93.49   10.40 
  -4   1  -8   86.89    9.30 
   4  -1   8   79.79    8.00 
   4  -1   8   85.49    7.80 
  -3   1  -8  297.07   23.90 
  -3   1  -8  330.77   24.90 
   3  -1   8  300.47   22.80 
   3  -1   8  349.17   23.00 
  -2   1  -8  754.92   55.09 
  -2   1  -8  839.92   55.39 
   2  -1   8  793.62   53.79 
   2  -1   8  757.62   53.99 
  -1   1  -8  862.51   55.49 
  -1   1  -8  767.72   55.79 
   1  -1   8  759.92   54.39 
   0   1  -8  568.94   39.00 
   0   1  -8  533.25   40.40 
   0  -1   8  568.94   38.70 
   1   1  -8  287.37   20.90 
   1   1  -8  295.47   23.40 
  -1  -1   8  301.07   21.20 
   2   1  -8   70.29    6.50 
   2   1  -8   57.59    8.60 
  -2  -1   8   57.79    6.10 
   3   1  -8    3.40    2.70 
   3   1  -8   -2.00    5.50 
  -3  -1   8    3.00    2.80 
   4   1  -8   75.09    7.80 
   4   1  -8   52.99    9.70 
  -4  -1   8   76.19    6.90 
   5   1  -8  356.26   29.70 
  -5  -1   8  364.26   25.90 
   6   1  -8  516.45   42.10 
  -6  -1   8  556.94   38.00 
   7   1  -8  394.06   33.50 
  -7  -1   8  370.76   27.30 
  -9   1  -7   13.20    6.50 
   9  -1   7    0.90    5.70 
  -8   1  -7   10.00    5.90 
   8  -1   7   16.10    5.40 
  -7   1  -7  115.69   11.50 
   7  -1   7  107.69   10.70 
  -6   1  -7   -1.90    4.50 
  -6   1  -7   -1.80    3.80 
   6  -1   7    6.50    4.00 
  -5   1  -7  228.18   18.90 
  -5   1  -7  249.88   19.50 
   5  -1   7  264.87   18.00 
   5  -1   7  225.78   18.30 
  -4   1  -7  145.99   12.90 
  -4   1  -7  126.49   12.10 
   4  -1   7  142.79   10.90 
   4  -1   7  138.89   11.30 
  -3   1  -7   10.00    3.80 
  -3   1  -7    4.70    4.10 
   3  -1   7   12.30    2.80 
   3  -1   7    8.60    3.00 
  -2   1  -7  468.95   32.40 
  -2   1  -7  419.46   31.90 
   2  -1   7  440.26   30.80 
   2  -1   7  450.35   30.90 
  -1   1  -7  140.79   12.20 
  -1   1  -7  143.09   11.80 
   1  -1   7  127.09   10.30 
   1  -1   7  130.99   10.20 
   0   1  -7  118.59   11.50 
   0   1  -7  122.29   10.20 
   0  -1   7  117.29    9.10 
   0  -1   7  118.99    9.50 
   1   1  -7  195.08   16.60 
   1   1  -7  202.78   14.60 
  -1  -1   7  196.28   14.60 
   2   1  -7   50.29    4.90 
   2   1  -7   46.20    7.30 
  -2  -1   7   47.60    5.00 
   3   1  -7   43.70    4.40 
   3   1  -7   39.50    7.30 
  -3  -1   7   34.90    4.20 
   4   1  -7  253.97   18.70 
   4   1  -7  259.37   21.60 
  -4  -1   7  259.17   18.60 
   5   1  -7    6.40    3.20 
   5   1  -7   -2.20    5.40 
  -5  -1   7    1.30    2.60 
   6   1  -7  103.19   13.80 
   6   1  -7  112.89   10.40 
  -6  -1   7  113.99    9.70 
   7   1  -7   -1.30    7.40 
   7   1  -7   -0.80    3.80 
  -7  -1   7    3.40    3.20 
   8   1  -7    5.90    4.50 
  -8  -1   7    2.60   10.10 
   9   1  -7    8.10    5.30 
  -9  -1   7    6.50   11.00 
 -10   1  -6   98.29   11.40 
  10  -1   6   85.89   10.80 
  -9   1  -6  128.49   12.30 
   9  -1   6  106.89   11.90 
  -8   1  -6  238.08   18.70 
   8  -1   6  215.58   18.70 
  -7   1  -6  315.17   22.60 
   7  -1   6  273.87   22.30 
  -6   1  -6   84.59    8.90 
  -6   1  -6   83.69    8.70 
   6  -1   6   80.69    8.30 
  -5   1  -6   88.99    9.00 
  -5   1  -6   91.39    9.60 
   5  -1   6   99.39    8.30 
   5  -1   6   95.89    9.10 
  -4   1  -6   37.70    5.30 
  -4   1  -6   42.30    5.70 
   4  -1   6   40.00    4.30 
   4  -1   6   34.80    4.50 
  -3   1  -6   37.70    5.30 
  -3   1  -6   33.40    4.90 
   3  -1   6   42.20    4.00 
   3  -1   6   29.40    4.00 
  -2   1  -6  237.98   18.80 
  -2   1  -6  237.58   18.40 
   2  -1   6  238.18   17.40 
   2  -1   6  261.47   17.50 
  -1   1  -6 1050.79   71.89 
  -1   1  -6 1080.99   71.89 
   1  -1   6 1024.20   70.89 
   1  -1   6 1031.00   70.79 
   0   1  -6 1540.35  107.49 
   0   1  -6 1631.44  107.09 
   0  -1   6 1565.54  106.19 
   0  -1   6 1564.54  106.49 
   1   1  -6 1418.56   94.29 
   1   1  -6 1415.96   93.09 
  -1  -1   6 1308.77   92.69 
  -1  -1   6 1359.46   92.89 
   2   1  -6  906.71   58.29 
   2   1  -6  860.61   59.79 
  -2  -1   6  790.12   58.19 
  -2  -1   6  871.61   58.29 
   3   1  -6  284.67   21.20 
   3   1  -6  257.97   18.80 
  -3  -1   6  260.47   18.80 
   4   1  -6   17.40    5.20 
   4   1  -6   11.90    3.00 
  -4  -1   6   12.00    2.70 
   5   1  -6    7.00    3.00 
   5   1  -6    7.30    5.30 
  -5  -1   6   12.10    2.70 
   6   1  -6  296.27   24.70 
   6   1  -6  286.97   20.50 
  -6  -1   6  263.17   20.00 
   7   1  -6  369.06   26.60 
   7   1  -6  367.96   31.20 
  -7  -1   6  368.46   26.10 
   8   1  -6  472.35   30.80 
  -8  -1   6  321.37   37.30 
   9   1  -6  648.24   45.80 
  10   1  -6  207.88   18.10 
 -10   1  -5   17.80    6.80 
  10  -1   5   22.70    6.60 
  -9   1  -5   50.99    7.40 
   9  -1   5   41.70    7.20 
  -8   1  -5   -7.80    4.00 
   8  -1   5    1.20    4.40 
  -7   1  -5   40.90    5.80 
   7  -1   5   41.80    6.10 
  -6   1  -5   41.40    5.50 
  -6   1  -5   48.80    6.30 
   6  -1   5   46.80    5.80 
  -5   1  -5   12.00    3.50 
  -5   1  -5    9.60    3.80 
   5  -1   5    4.90    3.20 
   5  -1   5   12.80    2.80 
  -4   1  -5  135.29   12.00 
  -4   1  -5  147.89   12.10 
   4  -1   5  152.18   11.20 
   4  -1   5  156.08   11.60 
  -3   1  -5  294.07   19.60 
  -3   1  -5  256.97   19.60 
   3  -1   5  254.47   18.90 
   3  -1   5  258.97   18.70 
  -2   1  -5   44.30    5.00 
  -2   1  -5   42.80    5.30 
   2  -1   5   44.10    4.10 
   2  -1   5   47.30    4.40 
  -1   1  -5  400.06   28.10 
  -1   1  -5  368.76   28.20 
   1  -1   5  401.46   27.30 
   1  -1   5  406.96   27.20 
   0   1  -5    2.70    2.40 
   0   1  -5   -1.70    1.90 
   0  -1   5    0.40    1.40 
   0  -1   5   -1.00    1.20 
   1   1  -5   29.00    3.30 
   1   1  -5   19.40    4.00 
  -1  -1   5   27.30    2.70 
  -1  -1   5   22.70    2.70 
   2   1  -5   30.40    3.20 
   2   1  -5   28.50    4.70 
  -2  -1   5   25.60    2.90 
  -2  -1   5   23.20    2.90 
   3   1  -5   57.29    7.00 
   3   1  -5   61.79    5.50 
  -3  -1   5   55.69    5.20 
  -3  -1   5   53.49    5.60 
   4   1  -5   46.70    7.30 
   4   1  -5   50.49    5.00 
  -4  -1   5   54.39    4.90 
  -4  -1   5   57.09    6.90 
   5   1  -5   40.00    4.60 
   5   1  -5   35.20    7.20 
  -5  -1   5   43.00    4.20 
   6   1  -5    9.00    3.40 
   6   1  -5   21.70    5.50 
   6   1  -5   19.70    7.30 
  -6  -1   5   15.60    2.80 
   7   1  -5    9.10    3.70 
  -7  -1   5    6.40    8.20 
  -7  -1   5   10.60    2.80 
   8   1  -5   -5.20    3.60 
  -8  -1   5   -6.60    8.20 
   9   1  -5    5.30    4.60 
  -9  -1   5    7.80   10.90 
  10   1  -5   -0.50    5.30 
 -10  -1   5   11.30   12.70 
 -10   1  -4    1.80    6.00 
  10  -1   4   14.60    5.70 
  -9   1  -4   76.99    9.00 
   9  -1   4   70.09    8.70 
  -8   1  -4  322.37   24.10 
   8  -1   4  317.27   24.30 
  -7   1  -4  791.22   53.89 
   7  -1   4  761.32   53.89 
  -6   1  -4 1773.82  117.79 
  -6   1  -4 1704.53  117.49 
   6  -1   4 1697.73  117.49 
   6  -1   4 1746.13  117.19 
  -5   1  -4 1113.49   77.19 
  -5   1  -4 1184.08   77.59 
   5  -1   4 1100.79   76.99 
   5  -1   4 1130.89   77.19 
  -4   1  -4  560.14   38.30 
  -4   1  -4  540.75   37.90 
   4  -1   4  542.05   37.80 
   4  -1   4  548.85   37.60 
  -3   1  -4  157.08   12.10 
  -3   1  -4  149.59   11.80 
   3  -1   4  153.48   11.20 
   3  -1   4  157.88   11.50 
  -2   1  -4  106.19    8.20 
  -2   1  -4   90.99    8.20 
   2  -1   4   92.89    7.40 
   2  -1   4   97.69    7.30 
  -1   1  -4  594.54   43.30 
  -1   1  -4  639.04   43.20 
   1  -1   4  642.14   42.50 
   1  -1   4  624.14   42.50 
   0   1  -4 1940.01  129.19 
   0   1  -4 1899.11  129.09 
   0  -1   4 1944.81  128.29 
   0  -1   4 1845.52  128.49 
   1   1  -4 3397.46  230.18 
   1   1  -4 3639.94  229.78 
  -1  -1   4 3229.08  229.28 
  -1  -1   4 3383.56  229.38 
   2   1  -4 3479.25  211.28 
  -2  -1   4 2660.63  211.08 
  -2  -1   4 3280.37  211.08 
   3   1  -4 2513.65  162.78 
   3   1  -4 2342.97  163.88 
  -3  -1   4 2460.65  162.58 
  -3  -1   4 2332.67  163.58 
   4   1  -4 1004.20   70.39 
   4   1  -4 1025.40   68.79 
  -4  -1   4 1006.20   68.49 
   5   1  -4    5.50    4.70 
   5   1  -4    3.70    2.60 
   5   1  -4   13.40    3.50 
  -5  -1   4    4.60    1.80 
   6   1  -4    0.10    5.70 
   6   1  -4    3.00    3.40 
   6   1  -4    7.00    2.90 
  -6  -1   4   -0.50    1.80 
   7   1  -4  417.86   31.00 
   7   1  -4  517.35   32.00 
  -7  -1   4  346.57   36.20 
   8   1  -4  493.85   31.90 
   8   1  -4  413.86   30.80 
  -8  -1   4  346.57   37.40 
   9   1  -4  336.17   24.00 
  -9  -1   4  259.87   32.10 
  10   1  -4  556.84   36.10 
 -10  -1   4  358.66   43.80 
 -11   1  -3   11.40    6.70 
  11  -1   3    9.70    6.20 
 -10   1  -3   64.39    8.80 
  10  -1   3   57.59    8.50 
  -9   1  -3   44.80    7.00 
   9  -1   3   39.10    6.70 
  -8   1  -3    3.50    4.10 
   8  -1   3    2.30    4.20 
  -7   1  -3  133.39   12.00 
  -7   1  -3  109.49   10.80 
   7  -1   3  120.09   11.10 
  -6   1  -3   66.39    6.50 
  -6   1  -3   47.30    5.80 
   6  -1   3   55.79    5.20 
   6  -1   3   59.69    6.30 
  -5   1  -3   21.30    3.50 
  -5   1  -3   14.30    3.10 
   5  -1   3   19.90    2.80 
   5  -1   3   14.20    3.20 
  -4   1  -3   56.89    5.60 
  -4   1  -3   60.59    5.80 
   4  -1   3   56.29    5.40 
   4  -1   3   60.19    5.30 
  -3   1  -3  199.18   14.50 
   3  -1   3  208.08   14.20 
   3  -1   3  196.58   14.40 
  -2   1  -3    9.90    2.10 
  -2   1  -3    7.10    2.10 
   2  -1   3    9.30    1.80 
   2  -1   3   16.70    1.80 
  -1   1  -3  411.26   31.50 
  -1   1  -3  495.45   31.50 
   1  -1   3  468.75   30.90 
   1  -1   3  432.36   30.90 
   0   1  -3   -1.20    1.30 
   0   1  -3   -0.30    1.40 
   0  -1   3    2.60    0.70 
   0  -1   3    0.30    0.80 
   1   1  -3  174.68   13.10 
   1   1  -3  189.68   12.80 
  -1  -1   3  168.18   12.20 
  -1  -1   3  179.78   12.30 
   2   1  -3    1.30    1.30 
   2   1  -3   -1.50    2.00 
  -2  -1   3    1.50    1.70 
  -2  -1   3   -1.50    0.80 
   3   1  -3    2.60    2.00 
   3   1  -3   -0.50    1.50 
   3   1  -3   -0.70    2.60 
  -3  -1   3    0.00    1.10 
   4   1  -3    8.80    2.50 
   4   1  -3    4.00    3.80 
   4   1  -3    6.90    2.10 
  -4  -1   3    6.70    1.40 
   5   1  -3   28.90    6.10 
   5   1  -3   20.60    3.20 
   5   1  -3   20.10    3.60 
  -5  -1   3   21.10    2.40 
   6   1  -3   41.10    5.20 
   6   1  -3   36.20    4.50 
  -6  -1   3   35.50    8.90 
  -6  -1   3   34.80    3.50 
   7   1  -3    1.10    3.40 
   7   1  -3    0.80    3.10 
  -7  -1   3   -0.50    7.00 
   8   1  -3    6.50    3.90 
   8   1  -3    7.30    4.50 
  -8  -1   3    1.40    9.20 
   9   1  -3    1.60    4.30 
   9   1  -3    2.90    5.10 
  -9  -1   3   -6.70    9.20 
  10   1  -3   11.70    6.30 
  10   1  -3    4.30    4.90 
 -10  -1   3    6.80   11.70 
 -11   1  -2   44.10    8.60 
  11  -1   2   44.90    8.30 
 -10   1  -2   19.00    6.40 
  10  -1   2   30.60    6.60 
  -9   1  -2   27.10    5.80 
   9  -1   2   20.10    5.40 
  -8   1  -2   32.10    5.50 
   8  -1   2   31.10    5.40 
  -7   1  -2  287.77   20.80 
  -7   1  -2  276.17   20.60 
   7  -1   2  263.17   20.60 
  -6   1  -2  681.03   49.20 
  -6   1  -2  692.53   49.40 
   6  -1   2  743.63   48.50 
   6  -1   2  732.43   49.40 
  -5   1  -2 1988.10  133.89 
  -5   1  -2 1927.31  133.59 
   5  -1   2 1990.00  133.29 
   5  -1   2 2000.40  133.69 
  -4   1  -2 2622.04  179.28 
  -4   1  -2 2668.23  179.38 
   4  -1   2 2799.42  179.38 
   4  -1   2 2547.25  179.18 
  -3   1  -2 2027.40  131.89 
  -3   1  -2 1977.30  131.79 
   3  -1   2 2063.49  131.79 
   3  -1   2 1744.33  131.69 
  -2   1  -2 1219.58   81.09 
  -2   1  -2 1277.27   81.29 
   2  -1   2 1068.19   80.99 
   2  -1   2 1237.78   81.09 
  -1   1  -2  170.88   13.00 
  -1   1  -2  195.78   13.00 
   1  -1   2  178.68   12.60 
   1  -1   2  182.08   12.60 
   0   1  -2   96.79    8.20 
   0  -1   2  112.39    7.40 
   0  -1   2  100.89    7.60 
  -1  -1   2  887.21   59.79 
   2   1  -2 3049.99  177.98 
   2   1  -2 2611.54  178.08 
   2   1  -2 2409.26  178.58 
  -2  -1   2 2505.45  177.78 
   3   1  -2 3458.25  236.48 
   3   1  -2 3469.65  235.38 
   3   1  -2 3719.53  235.38 
  -3  -1   2 3349.56  235.08 
   4   1  -2 3761.82  249.38 
   4   1  -2 3636.14  249.38 
   4   1  -2 3820.92  251.17 
  -4  -1   2 3612.74  248.98 
   5   1  -2 2677.13  169.68 
   5   1  -2 2628.94  169.58 
  -5  -1   2 2562.74  169.08 
  -5  -1   2 2126.49  172.38 
   6   1  -2  531.95   35.40 
   6   1  -2  495.75   35.20 
  -6  -1   2  455.65   39.50 
  -6  -1   2  516.95   34.50 
   7   1  -2   70.49    7.20 
   7   1  -2   65.69    6.70 
  -7  -1   2   77.69   13.10 
   8   1  -2   83.19    8.20 
   8   1  -2   73.19    7.70 
  -8  -1   2   55.29   13.00 
   9   1  -2  427.76   30.30 
   9   1  -2  397.86   29.50 
  -9  -1   2  377.86   36.80 
  10   1  -2  371.16   26.80 
  10   1  -2  313.57   25.50 
  11   1  -2  345.17   25.80 
 -11  -1   2  273.27   25.30 
 -11   1  -1   15.40    7.00 
  11  -1   1   13.30    6.20 
 -10   1  -1   -3.40    5.20 
  10  -1   1   -5.10    4.80 
  -9   1  -1   25.50    5.70 
   9  -1   1   23.50    5.60 
  -8   1  -1   71.49    8.10 
   8  -1   1   86.79    8.80 
  -7   1  -1   -2.90    3.10 
  -7   1  -1    2.10    3.20 
   7  -1   1   -2.20    3.00 
  -6   1  -1  191.48   16.00 
  -6   1  -1  211.98   15.70 
   6  -1   1  223.28   14.50 
   6  -1   1  195.58   15.70 
  -5   1  -1   30.80    4.30 
  -5   1  -1   33.90    4.10 
   5  -1   1   40.50    3.30 
   5  -1   1   30.60    4.20 
  -4   1  -1   58.69    5.60 
  -4   1  -1   55.49    5.40 
   4  -1   1   55.59    5.40 
   4  -1   1   64.09    4.90 
  -3   1  -1   24.00    2.80 
  -3   1  -1   17.10    2.60 
   3  -1   1   20.80    2.70 
   3  -1   1   26.60    2.70 
  -2   1  -1   70.79    5.80 
  -2   1  -1   82.69    5.80 
   2  -1   1   78.19    5.80 
   2  -1   1   78.79    5.90 
  -1   1  -1    5.60    1.40 
   1  -1   1    2.70    1.20 
   0   1  -1   46.50    4.40 
   1   1  -1   55.89    4.80 
   2   1  -1    8.00    1.30 
   2   1  -1   13.20    2.50 
   2   1  -1   10.30    1.20 
  -2  -1   1    9.30    1.00 
   3   1  -1    3.30    1.30 
   3   1  -1    0.80    1.40 
  -3  -1   1    2.50    3.00 
  -3  -1   1    1.70    0.80 
   4   1  -1   82.49    6.20 
   4   1  -1   73.49    6.30 
  -4  -1   1   73.39    5.50 
  -4  -1   1   71.89    9.00 
   5   1  -1   53.09    5.00 
   5   1  -1   52.89    5.20 
  -5  -1   1   55.79    4.20 
  -5  -1   1   48.60    8.60 
   6   1  -1   87.39    8.00 
   6   1  -1   91.59    8.30 
  -6  -1   1  100.49   13.10 
  -6  -1   1   97.09    6.80 
   7   1  -1   24.20    4.20 
   7   1  -1   22.10    4.00 
  -7  -1   1   24.30    8.20 
   8   1  -1   39.90    5.70 
   8   1  -1   37.90    5.40 
  -8  -1   1   38.90   10.10 
   9   1  -1    7.90    4.50 
   9   1  -1    1.40    4.00 
  -9  -1   1   13.00    9.40 
  10   1  -1   -3.20    4.80 
  11   1  -1   22.20    7.20 
 -11  -1   1   13.40    7.10 
 -11   1   0  600.54   45.70 
  11  -1   0  653.03   46.00 
 -10   1   0  420.86   32.10 
  10  -1   0  431.16   32.00 
  -9   1   0  183.18   16.10 
   9  -1   0  180.98   15.70 
  -8   1   0   94.79    9.80 
   8  -1   0  107.49   10.00 
  -7   1   0   77.89    8.30 
  -7   1   0   98.29   10.10 
   7  -1   0   89.69    8.70 
  -6   1   0  406.96   26.80 
  -6   1   0  334.77   27.40 
   6  -1   0  341.57   26.50 
   6  -1   0  400.26   25.60 
  -5   1   0 1499.35  111.69 
  -5   1   0 1683.13  111.19 
   5  -1   0 1648.04  111.19 
   5  -1   0 1723.43  110.49 
  -4   1   0 2343.87  167.48 
  -4   1   0 2471.45  166.98 
   4  -1   0 2460.15  166.98 
   4  -1   0 2620.54  166.58 
  -3   1   0 5303.27  337.47 
  -3   1   0 4663.73  337.77 
   3  -1   0 4840.42  337.17 
   3  -1   0 5270.97  337.57 
  -2   1   0 4539.35  289.97 
  -2   1   0 3905.61  290.07 
   2  -1   0 4478.65  289.97 
   2  -1   0 4331.87  289.87 
  -1   1   0 1944.71  124.29 
   1  -1   0 1847.72  124.29 
   1  -1   0 1750.82  124.29 
   0   1   0   61.49    5.10 
   0  -1   0   68.59    5.00 
   0  -1   0   50.59    4.90 
   1   1   0  788.02   52.79 
   1   1   0  821.92   52.69 
  -1  -1   0  768.62   53.49 
  -1  -1   0  734.23   52.69 
   2   1   0 2290.67  144.99 
   2   1   0 2102.59  145.09 
  -2  -1   0 2227.78  144.79 
  -2  -1   0 1986.50  146.09 
   3   1   0 2425.16  161.58 
   3   1   0 2544.65  161.58 
  -3  -1   0 2415.56  161.18 
  -3  -1   0 2200.48  162.98 
   4   1   0 1684.93  115.09 
   4   1   0 1778.92  115.19 
  -4  -1   0 1643.14  117.09 
   5   1   0 2331.37  147.49 
   5   1   0 2140.59  147.39 
  -5  -1   0 2065.49  149.69 
   6   1   0 1500.25  102.19 
   6   1   0 1542.85  102.29 
  -6  -1   0 1472.55  104.89 
   7   1   0  734.73   50.69 
   7   1   0  734.23   50.89 
  -7  -1   0  741.73   54.19 
   8   1   0   64.29    7.10 
   8   1   0   81.99    7.80 
  -8  -1   0   61.89   10.90 
   9   1   0    1.00    4.00 
  -9  -1   0   -2.20    6.90 
  10   1   0  151.58   14.10 
 -10  -1   0  137.19   13.80 
  11   1   0  168.98   15.90 
 -11  -1   0  147.99   15.10 
 -11   1   1   -2.00    6.40 
  11  -1  -1    7.00    6.20 
 -10   1   1   -1.00    5.60 
  10  -1  -1    1.70    5.20 
  -9   1   1    0.60    4.90 
   9  -1  -1   -0.30    4.30 
  -8   1   1    9.60    4.50 
   8  -1  -1    5.20    4.00 
  -7   1   1    3.80    3.50 
  -7   1   1    8.60    5.30 
   7  -1  -1    3.00    3.30 
   7  -1  -1    5.20    2.70 
  -6   1   1    4.90    3.10 
  -6   1   1   -1.20    4.30 
   6  -1  -1    5.70    2.80 
   6  -1  -1    8.40    1.60 
  -5   1   1    4.40    3.90 
   5  -1  -1   -1.50    1.00 
   5  -1  -1    0.10    2.10 
  -4   1   1    1.20    3.10 
   4  -1  -1    1.50    1.50 
   4  -1  -1    2.30    0.90 
   4  -1  -1   -1.30    1.60 
  -3   1   1    1.70    2.60 
   3  -1  -1    2.50    1.30 
   3  -1  -1    2.40    1.60 
   3  -1  -1    1.60    0.80 
   2  -1  -1    1.60    1.50 
   2  -1  -1    0.50    0.60 
   2  -1  -1   -0.60    0.80 
   2  -1  -1    0.70    1.20 
  -1   1   1    4.80    0.80 
   1  -1  -1    4.20    0.80 
   1  -1  -1    7.50    1.20 
   1  -1  -1    4.60    0.70 
   0   1   1    1.20    0.60 
   0   1   1    1.70    0.40 
   0  -1  -1    1.30    0.30 
   0  -1  -1    3.50    0.60 
   1   1   1    6.40    1.20 
  -1  -1  -1   10.90    1.70 
   2   1   1   40.10    3.50 
   2   1   1   37.50    3.40 
  -2  -1  -1   46.10    4.50 
   3   1   1   23.40    2.40 
   3   1   1   22.90    2.30 
  -3  -1  -1   22.70    3.50 
   4   1   1   23.10    2.70 
   4   1   1   26.00    2.90 
  -4  -1  -1   23.90    4.20 
   5   1   1    9.00    2.30 
   5   1   1    9.90    2.40 
  -5  -1  -1   11.80    4.10 
   6   1   1    2.10    2.50 
   6   1   1   -1.70    2.20 
  -6  -1  -1    5.00    4.40 
   7   1   1    6.80    3.00 
   7   1   1    0.60    2.90 
  -7  -1  -1    6.90    5.30 
   8   1   1   14.90    4.20 
  -8  -1  -1   21.10    6.90 
   9   1   1   18.40    4.90 
  -9  -1  -1   15.80    5.40 
  -9  -1  -1   23.90    7.70 
  10   1   1   16.00    5.30 
 -10  -1  -1   17.60    5.90 
  11   1   1   15.50    6.30 
 -11  -1  -1   15.20    6.90 
 -11   1   2   26.90    8.30 
  11  -1  -2   53.69    9.10 
 -10   1   2  532.25   40.50 
  10  -1  -2  574.14   40.80 
  -9   1   2  757.42   54.89 
   9  -1  -2  796.82   54.99 
  -8   1   2  526.15   37.40 
   8  -1  -2  513.55   37.40 
  -7   1   2  526.05   37.90 
  -7   1   2  482.35   41.10 
   7  -1  -2  576.64   36.50 
   7  -1  -2  520.05   37.90 
  -6   1   2    6.70    6.10 
   6  -1  -2    6.60    3.10 
   6  -1  -2    9.20    1.70 
   6  -1  -2    1.00    2.50 
  -5   1   2   71.69   10.00 
   5  -1  -2   78.99    7.20 
   5  -1  -2   75.79    5.70 
   5  -1  -2   68.59    6.40 
   4  -1  -2 1094.69   75.39 
   4  -1  -2 1135.79   75.19 
   4  -1  -2 1112.49   75.89 
   3  -1  -2 1443.16   97.09 
   3  -1  -2 1526.65   98.19 
   3  -1  -2 1434.16   97.69 
   3  -1  -2 1370.56   97.19 
   2  -1  -2 3925.91  269.67 
   2  -1  -2 4213.98  269.67 
   2  -1  -2 3896.71  270.17 
  -1   1   2 5370.76  388.76 
   1  -1  -2 5867.11  388.06 
   1  -1  -2 6403.56  388.06 
   1  -1  -2 5450.85  388.26 
   0   1   2 4602.24  351.76 
   0  -1  -2 5544.75  351.46 
   0  -1  -2 5551.24  351.76 
   1   1   2 3027.70  204.38 
  -1  -1  -2 3126.49  204.08 
  -1  -1  -2 3274.17  204.08 
  -1  -1  -2 2716.83  204.48 
   2   1   2  381.76   26.00 
   2   1   2  380.06   26.20 
   2   1   2  400.46   26.30 
  -2  -1  -2  370.66   26.70 
   3   1   2  368.06   25.70 
   3   1   2  387.16   25.80 
   3   1   2  378.46   25.30 
  -3  -1  -2  358.16   26.40 
   4   1   2 1825.02  123.19 
   4   1   2 1891.51  123.29 
  -4  -1  -2 1759.22  124.19 
   5   1   2 1682.93  110.99 
   5   1   2 1649.54  111.09 
  -5  -1  -2 1588.34  112.19 
   6   1   2 1570.34  105.49 
  -6  -1  -2 1537.85  106.79 
   7   1   2 1235.78   83.89 
  -7  -1  -2 1225.88   83.99 
  -7  -1  -2 1224.48   85.49 
   8   1   2  719.23   50.69 
  -8  -1  -2  728.23   50.89 
  -8  -1  -2  739.43   52.59 
   9   1   2  167.88   15.00 
  -9  -1  -2  177.78   15.70 
  -9  -1  -2  191.38   17.70 
  10   1   2   47.70    7.20 
 -10  -1  -2   41.80    7.50 
  11   1   2   41.30    7.50 
 -11  -1  -2   35.00    7.90 
 -11   1   3   29.10    8.20 
  11  -1  -3   17.90    6.80 
 -10   1   3   -3.20    5.80 
  10  -1  -3    6.30    5.90 
  -9   1   3    1.60    5.10 
   9  -1  -3    1.80    4.60 
  -8   1   3    5.10    9.50 
  -8   1   3    4.60    4.60 
   8  -1  -3    4.20    4.30 
  -7   1   3   -5.20    7.20 
   7  -1  -3    0.30    1.70 
   7  -1  -3   -1.80    3.40 
   7  -1  -3    0.90    2.90 
  -6   1   3    2.50    6.30 
   6  -1  -3    3.90    3.20 
   6  -1  -3    0.60    2.40 
   6  -1  -3   -1.60    1.50 
   5  -1  -3   36.60    4.20 
   5  -1  -3   69.69    8.50 
   5  -1  -3   49.00    5.40 
   5  -1  -3   41.20    3.90 
   4  -1  -3   14.00    4.00 
   4  -1  -3   12.20    3.00 
   4  -1  -3    8.20    2.00 
   4  -1  -3   15.30    1.90 
   3  -1  -3  127.29   10.00 
   3  -1  -3  119.89   10.20 
   3  -1  -3  125.49    9.00 
   3  -1  -3  122.19    8.80 
   2  -1  -3    1.50    1.70 
   2  -1  -3    3.30    1.10 
   2  -1  -3    3.50    1.10 
  -1   1   3  231.78   19.40 
   1  -1  -3  280.27   18.60 
   1  -1  -3  283.97   18.50 
   0   1   3  796.82   62.89 
   0  -1  -3  927.51   62.99 
   0  -1  -3  918.61   62.49 
   0  -1  -3 1048.50   62.39 
   1   1   3 2085.09  150.58 
  -1  -1  -3 2174.08  150.88 
  -1  -1  -3 2438.36  150.18 
   2   1   3  265.67   18.60 
   2   1   3  264.37   18.30 
  -2  -1  -3  262.97   18.50 
  -2  -1  -3  285.87   19.20 
   3   1   3  477.15   31.70 
   3   1   3  453.95   31.20 
  -3  -1  -3  451.85   32.20 
  -3  -1  -3  459.85   31.60 
   4   1   3  157.48   12.10 
   4   1   3  165.08   11.30 
  -4  -1  -3  172.98   12.90 
  -4  -1  -3  159.08   11.90 
   5   1   3   27.50    3.60 
  -5  -1  -3   28.70    4.60 
  -5  -1  -3   24.80    3.50 
   6   1   3  243.48   17.60 
  -6  -1  -3  236.48   18.60 
  -6  -1  -3  233.38   17.60 
   7   1   3  129.59   11.70 
  -7  -1  -3  154.68   13.30 
  -7  -1  -3  144.09   12.10 
   8   1   3    4.80    3.80 
  -8  -1  -3    8.70    4.90 
  -8  -1  -3    4.90    4.10 
   9   1   3   55.29    7.00 
  -9  -1  -3   55.59    8.60 
  -9  -1  -3   34.60    6.70 
  10   1   3   29.20    6.30 
 -10  -1  -3   29.80    6.80 
  11   1   3   -0.20    5.30 
 -11  -1  -3    3.20    6.10 
 -10   1   4  229.98   20.30 
  10  -1  -4  217.68   20.10 
  -9   1   4  329.87   27.70 
   9  -1  -4  395.96   28.10 
  -8   1   4  662.33   62.09 
   8  -1  -4  925.11   57.89 
   7  -1  -4  805.52   55.89 
   7  -1  -4  825.92   55.29 
   7  -1  -4  807.12   56.79 
   6  -1  -4  651.53   42.60 
   6  -1  -4  533.65   38.30 
   6  -1  -4  522.95   37.80 
   6  -1  -4  561.34   39.30 
   5  -1  -4  201.08   14.80 
   5  -1  -4  177.68   12.90 
   5  -1  -4  182.18   16.60 
   5  -1  -4  175.78   13.40 
   4  -1  -4  159.88   12.10 
   4  -1  -4  207.08   14.00 
   4  -1  -4  181.08   14.40 
   4  -1  -4  162.08   12.40 
  -3   1   4  920.11   70.39 
   3  -1  -4 1061.69   68.69 
   3  -1  -4 1080.29   68.79 
   3  -1  -4  977.60   69.79 
  -2   1   4 1363.86  103.69 
   2  -1  -4 1570.24  102.39 
   2  -1  -4 1422.96  103.09 
   2  -1  -4 1685.13  102.29 
  -1   1   4 1881.01  145.09 
   1  -1  -4 2120.39  145.09 
   1  -1  -4 2204.68  144.39 
   1  -1  -4 2353.36  144.29 
   0   1   4 1821.62  135.79 
   0  -1  -4 2083.69  135.39 
   0  -1  -4 2125.59  136.09 
   1   1   4 1786.62  120.79 
   1   1   4 1765.12  121.19 
  -1  -1  -4 1803.72  120.89 
  -1  -1  -4 1822.72  121.59 
   2   1   4 1079.59   72.39 
   2   1   4 1034.00   72.09 
  -2  -1  -4 1062.69   72.99 
  -2  -1  -4 1099.79   72.19 
   3   1   4  298.87   20.50 
   3   1   4  303.67   21.00 
  -3  -1  -4  298.47   21.70 
  -3  -1  -4  300.77   20.80 
   4   1   4    9.20    2.40 
   4   1   4    5.90    1.30 
  -4  -1  -4    4.80    2.90 
  -4  -1  -4    4.60    2.00 
   5   1   4  365.76   25.50 
   5   1   4  370.26   24.80 
  -5  -1  -4  361.16   26.20 
  -5  -1  -4  345.47   25.30 
   6   1   4  547.25   39.40 
  -6  -1  -4  574.74   40.30 
  -6  -1  -4  580.34   39.50 
   7   1   4  449.16   32.50 
  -7  -1  -4  452.95   32.50 
  -7  -1  -4  473.85   33.60 
   8   1   4  320.47   25.60 
  -8  -1  -4  361.86   25.70 
  -8  -1  -4  368.16   26.90 
   9   1   4  266.77   21.80 
  -9  -1  -4  295.87   22.30 
  -9  -1  -4  297.87   23.80 
  10   1   4   60.99    8.50 
 -10  -1  -4   68.99    8.60 
  11   1   4   63.99    9.00 
 -11  -1  -4   67.09    9.50 
 -10   1   5    4.00    6.80 
  -9   1   5    3.40    5.80 
   9  -1  -5    2.80    5.80 
  -8   1   5   -2.60    8.80 
   8  -1  -5   -0.20    3.70 
   8  -1  -5   -5.30    4.80 
   7  -1  -5    1.30    3.20 
   7  -1  -5    7.10    4.70 
   7  -1  -5   -1.80    2.00 
   6  -1  -5   46.90    4.60 
   6  -1  -5   59.89    7.40 
   6  -1  -5   60.99    9.50 
   6  -1  -5   50.09    5.40 
   5  -1  -5    5.30    1.90 
   5  -1  -5    1.30    2.30 
   5  -1  -5   10.70    4.50 
   5  -1  -5    8.20    4.90 
  -4   1   5  230.88   20.40 
   4  -1  -5  253.97   20.00 
   4  -1  -5  257.17   17.90 
   4  -1  -5  258.47   17.70 
  -3   1   5   10.10    4.00 
   3  -1  -5   13.80    3.80 
   3  -1  -5   16.10    2.20 
   3  -1  -5   15.40    2.20 
  -2   1   5   45.80    5.90 
   2  -1  -5   49.40    4.30 
   2  -1  -5   55.99    4.50 
   2  -1  -5   51.59    5.70 
  -1   1   5  215.78   16.90 
   1  -1  -5  234.88   15.80 
   1  -1  -5  224.68   16.00 
   1  -1  -5  245.68   17.20 
   0   1   5  163.08   13.10 
   0   1   5  155.78   12.40 
   0  -1  -5  203.98   12.30 
   0  -1  -5  165.68   13.30 
   1   1   5  227.38   17.10 
   1   1   5  235.78   16.70 
  -1  -1  -5  255.37   17.00 
  -1  -1  -5  241.48   17.70 
   2   1   5  470.45   32.30 
   2   1   5  471.75   32.00 
  -2  -1  -5  470.55   33.10 
  -2  -1  -5  461.45   32.20 
   3   1   5    2.70    1.30 
   3   1   5    4.60    2.10 
  -3  -1  -5    6.70    2.90 
  -3  -1  -5    4.20    1.70 
   4   1   5  161.68   11.30 
   4   1   5  159.18   12.10 
  -4  -1  -5  148.69   12.90 
  -4  -1  -5  162.68   11.80 
   5   1   5  245.38   17.50 
   5   1   5  233.48   16.60 
  -5  -1  -5  235.18   17.20 
  -5  -1  -5  234.18   18.40 
   6   1   5    5.60    3.20 
  -6  -1  -5    3.70    3.70 
  -6  -1  -5   10.30    3.20 
   7   1   5  120.69   11.10 
  -7  -1  -5  128.39   10.90 
  -7  -1  -5  125.09   12.50 
   8   1   5    3.80    4.00 
  -8  -1  -5   -4.70    3.80 
  -8  -1  -5   -3.80    4.60 
   9   1   5   -1.40    4.30 
  -9  -1  -5    2.00    4.50 
  10   1   5   13.20    5.60 
 -10  -1  -5   10.80    5.80 
  11   1   5   30.20    8.20 
 -11  -1  -5   30.90    7.80 
  -9   1   6  228.98   20.30 
   8  -1  -6  225.48   17.60 
  -7   1   6  574.94   42.10 
   7  -1  -6  666.53   47.40 
   7  -1  -6  610.54   42.30 
   6  -1  -6  994.80   67.19 
   6  -1  -6  971.00   70.39 
  -5   1   6  433.86   39.70 
   5  -1  -6  587.04   37.00 
   5  -1  -6  542.65   39.60 
  -4   1   6  642.14   52.89 
   4  -1  -6  722.43   52.39 
   4  -1  -6  815.52   50.49 
  -3   1   6   50.49    7.60 
   3  -1  -6   69.19    8.00 
   3  -1  -6   74.19    5.80 
  -2   1   6  198.18   14.50 
  -2   1   6  177.18   15.40 
   2  -1  -6  214.38   14.10 
   2  -1  -6  195.98   15.80 
  -1   1   6  878.11   58.79 
  -1   1   6  758.42   59.29 
   1  -1  -6  926.61   58.39 
   1  -1  -6  880.11   59.79 
   0   1   6 1612.24  111.79 
   0   1   6 1533.35  112.19 
   0  -1  -6 1886.61  111.59 
   0  -1  -6 1571.24  112.59 
   1   1   6 1542.45  109.59 
   1   1   6 1585.54  109.19 
  -1  -1  -6 1789.12  109.59 
  -1  -1  -6 1554.84  110.19 
   2   1   6 1247.98   86.89 
   2   1   6 1276.17   86.59 
  -2  -1  -6 1228.58   87.69 
  -2  -1  -6 1372.06   87.09 
   3   1   6  827.12   55.59 
   3   1   6  817.42   55.99 
  -3  -1  -6  780.52   56.89 
  -3  -1  -6  845.22   55.99 
   4   1   6  290.87   19.70 
   4   1   6  279.37   20.40 
  -4  -1  -6  297.37   20.10 
  -4  -1  -6  252.77   21.20 
   5   1   6   68.29    7.20 
   5   1   6   76.19    6.20 
  -5  -1  -6   75.19    6.90 
  -5  -1  -6   75.89    8.40 
   6   1   6   60.79    6.90 
  -6  -1  -6   68.99    8.20 
  -6  -1  -6   64.79    6.70 
   7   1   6  216.98   17.70 
  -7  -1  -6  230.18   18.90 
  -7  -1  -6  233.18   17.60 
   8   1   6  378.36   29.40 
  -8  -1  -6  415.96   29.30 
  -8  -1  -6  406.36   30.60 
   9   1   6  117.09   12.20 
  -9  -1  -6  147.69   13.20 
  10   1   6  158.78   15.50 
 -10  -1  -6  160.78   15.00 
  -7   1   7   12.10    3.80 
   7  -1  -7    6.80    8.10 
  -6   1   7   -0.20    3.00 
   6  -1  -7    9.70    6.80 
   6  -1  -7    7.30    3.30 
  -5   1   7    3.80    2.80 
   5  -1  -7    2.70    2.60 
   5  -1  -7    0.50    5.10 
  -4   1   7   73.79    9.50 
  -4   1   7   94.19    8.10 
   4  -1  -7   89.29   10.40 
   4  -1  -7   88.39    7.50 
  -3   1   7   38.10    5.80 
  -3   1   7   40.10    4.60 
   3  -1  -7   43.50    4.10 
   3  -1  -7   35.80    6.40 
  -2   1   7  131.99   10.60 
  -2   1   7  134.09   12.00 
   2  -1  -7  142.59   12.40 
   2  -1  -7  141.59   10.10 
  -1   1   7  153.48   13.20 
  -1   1   7  155.28   12.20 
   1  -1  -7  168.28   11.60 
   1  -1  -7  180.08   14.00 
   0   1   7    5.70    2.30 
   0   1   7   11.80    3.10 
   0  -1  -7   10.70    1.70 
   0  -1  -7    8.00    3.60 
   1   1   7   76.59    7.10 
   1   1   7   85.49    7.70 
  -1  -1  -7  104.29    7.50 
  -1  -1  -7   83.59    8.70 
   2   1   7   65.29    6.40 
   2   1   7   62.59    5.80 
  -2  -1  -7   58.29    7.10 
  -2  -1  -7   70.69    6.50 
   3   1   7    0.40    1.90 
   3   1   7    2.70    2.70 
  -3  -1  -7    1.00    3.30 
  -3  -1  -7    6.30    2.80 
   4   1   7  101.29    9.70 
   4   1   7  121.79    8.90 
  -4  -1  -7  128.09   10.20 
  -4  -1  -7  101.49   10.90 
   5   1   7  100.89    8.10 
   5   1   7  102.19    9.60 
  -5  -1  -7  103.89    9.30 
  -5  -1  -7   91.39   10.40 
   6   1   7   35.80    5.60 
  -6  -1  -7   40.80    5.30 
  -6  -1  -7   41.30    6.90 
   7   1   7   69.79    7.80 
  -7  -1  -7   59.59    8.90 
  -7  -1  -7   69.59    7.40 
   8   1   7    2.70    4.70 
  -8  -1  -7   -1.70    4.40 
  -8  -1  -7   -1.60    5.40 
   9   1   7    1.20    5.20 
  -9  -1  -7    9.20    5.50 
  10   1   7   -1.40    5.60 
 -10  -1  -7    2.00    5.80 
   8  -1  -8  179.08   21.60 
  -7   1   8  147.19   13.50 
   7  -1  -8  196.98   19.80 
  -6   1   8  264.87   19.70 
   6  -1  -8  259.17   23.70 
  -5   1   8  335.67   23.10 
   5  -1  -8  290.37   25.80 
  -4   1   8  163.58   12.90 
   4  -1  -8  165.48   16.00 
  -3   1   8  217.78   15.80 
   3  -1  -8  199.28   18.10 
  -2   1   8  105.49   10.70 
  -2   1   8  115.09    9.80 
   2  -1  -8  139.09   12.50 
  -1   1   8    1.10    3.10 
  -1   1   8    2.60    2.50 
   1  -1  -8   -3.10    3.70 
   0   1   8  103.29    8.20 
   0   1   8   88.39    8.70 
   0  -1  -8   94.69   10.00 
   1   1   8  347.07   24.60 
   1   1   8  347.37   24.30 
  -1  -1  -8  337.07   25.60 
   2   1   8  448.76   29.90 
   2   1   8  431.16   30.20 
  -2  -1  -8  400.66   31.20 
   3   1   8  326.47   21.50 
   3   1   8  300.97   22.00 
  -3  -1  -8  273.87   23.00 
   4   1   8  242.98   15.90 
   4   1   8  207.08   16.70 
  -4  -1  -8  194.48   17.70 
   5   1   8   75.69    7.20 
   5   1   8   67.39    7.50 
  -5  -1  -8   65.09    8.50 
   6   1   8   71.79    8.20 
  -6  -1  -8   76.39    9.50 
  -6  -1  -8   96.89   10.80 
   7   1   8   28.60    5.70 
  -7  -1  -8   31.50    8.70 
  -7  -1  -8   21.20    6.60 
   8   1   8   -2.80    4.90 
  -8  -1  -8    7.20    6.30 
   9   1   8   45.10    8.10 
   8  -1  -9    9.30   10.50 
  -7   1   9   14.60    4.80 
   7  -1  -9    3.60    9.20 
  -6   1   9   54.79    6.80 
   6  -1  -9   67.19   11.50 
  -5   1   9   54.69    6.40 
   5  -1  -9   49.90    9.70 
  -4   1   9   45.70    5.70 
   4  -1  -9   36.70    8.50 
  -3   1   9  150.68   13.00 
   3  -1  -9  175.68   16.30 
  -2   1   9   20.80    3.80 
   2  -1  -9   11.00    5.60 
  -1   1   9   73.09    6.80 
   1  -1  -9   58.69    8.50 
   0   1   9  246.08   18.90 
   0   1   9  262.47   18.60 
   0  -1  -9  245.48   20.30 
   1   1   9    1.50    3.10 
   1   1   9   -0.50    2.50 
  -1  -1  -9   -2.20    4.10 
   2   1   9  165.58   13.20 
   2   1   9  174.78   12.90 
  -2  -1  -9  153.08   14.70 
   3   1   9   15.70    4.10 
   3   1   9   18.10    3.40 
  -3  -1  -9   13.20    5.00 
   4   1   9    1.60    2.80 
   4   1   9    0.70    3.70 
  -4  -1  -9   -0.40    4.30 
   5   1   9   20.70    5.00 
  -5  -1  -9   26.10    6.00 
   6   1   9   55.59    7.20 
  -6  -1  -9   52.79    8.40 
   7   1   9   40.10    6.80 
  -7  -1  -9   43.30    8.10 
   8   1   9   10.60    6.00 
  -7   1  10   23.70    5.70 
   7  -1 -10   30.80   11.00 
  -6   1  10   93.59    9.30 
   6  -1 -10   81.09   13.20 
  -5   1  10  173.48   14.20 
   5  -1 -10  146.69   17.10 
  -4   1  10  349.17   25.30 
   4  -1 -10  332.77   28.60 
  -3   1  10  134.29   11.80 
   3  -1 -10  128.29   14.30 
  -2   1  10   96.09    9.10 
   2  -1 -10   96.39   11.70 
  -1   1  10   44.40    5.70 
   1  -1 -10   47.90    8.00 
   0   1  10    1.90    3.20 
   0  -1 -10   -3.60    4.80 
   1   1  10    8.80    3.60 
  -1  -1 -10    7.10    5.30 
   2   1  10  106.39    9.10 
  -2  -1 -10   91.89   10.70 
   3   1  10  219.38   17.70 
   3   1  10  255.07   17.30 
  -3  -1 -10  201.28   18.90 
   4   1  10  140.09   13.00 
   4   1  10  159.98   12.30 
  -4  -1 -10  130.79   14.40 
   5   1  10   88.79    9.20 
  -5  -1 -10   80.59   10.10 
   6   1  10   24.20    5.90 
  -6  -1 -10   15.50    6.40 
   7   1  10    9.90    5.60 
  -7  -1 -10    4.50    6.00 
  -5   1  11   23.80    5.70 
   5  -1 -11   11.00    8.40 
  -4   1  11    6.20    4.50 
   4  -1 -11   -7.20    6.90 
  -3   1  11   -0.40    4.10 
   3  -1 -11    4.70    6.80 
  -2   1  11   12.90    4.40 
   2  -1 -11   16.30    7.00 
  -1   1  11   29.90    5.50 
   1  -1 -11   36.10    8.00 
   0   1  11   48.10    6.20 
   0  -1 -11   40.80    8.20 
   1   1  11   51.39    6.30 
  -1  -1 -11   34.80    7.50 
   2   1  11   27.00    5.10 
  -2  -1 -11   27.50    7.20 
   3   1  11    4.10    3.90 
  -3  -1 -11    4.90    5.50 
   4   1  11    6.00    4.20 
  -4  -1 -11    3.70    5.60 
  -5  -1 -11   -1.70    5.40 
   6   1  11    4.80    6.00 
  -6  -1 -11    7.30    6.40 
  -4   1  12    3.00    5.10 
   4  -1 -12   11.00    8.90 
  -3   1  12  144.59   12.10 
   3  -1 -12   93.09   14.30 
  -2   1  12   41.60    6.70 
   2  -1 -12   41.60   10.00 
  -1   1  12   27.70    5.80 
   1  -1 -12   17.00    7.70 
   0   1  12   14.20    5.20 
   0  -1 -12    6.00    6.50 
   1   1  12    1.80    4.40 
  -1  -1 -12    4.90    6.30 
   2   1  12    9.10    4.80 
  -2  -1 -12    7.20    6.20 
   3   1  12    1.20    4.40 
  -3  -1 -12    4.00    6.20 
  -4  -1 -12   25.30    7.50 
  -5  -1 -12   24.80    7.80 
   0   1  13   16.00    5.80 
   1   1  13   20.10    5.80 
  -1  -1 -13   25.90   14.50 
  -1   2 -12  164.58   18.60 
   1  -2  12  191.48   16.50 
   0   2 -12   75.59   12.30 
   0  -2  12   84.29    9.60 
   1   2 -12   46.70   11.10 
  -1  -2  12   49.30    8.80 
   4  -2  11   22.00    6.30 
  -3   2 -11   29.60    7.80 
   3  -2  11   27.20    6.00 
  -2   2 -11   41.90    9.00 
   2  -2  11   63.19    7.80 
  -1   2 -11   31.20    8.60 
   1  -2  11   41.40    6.50 
   0   2 -11   24.20    8.60 
   0  -2  11   24.30    5.50 
   1   2 -11    3.20    7.40 
  -1  -2  11    5.20    4.60 
   2   2 -11    0.40    7.70 
  -2  -2  11    1.40    4.50 
   3   2 -11   31.60   10.30 
  -3  -2  11   29.20    5.90 
   4   2 -11    0.70    9.00 
  -4  -2  11    9.90    5.20 
  -4   2 -10  108.39   12.40 
   4  -2  10  121.49   11.30 
  -3   2 -10   -1.20    5.50 
   3  -2  10    3.40    4.20 
  -2   2 -10    5.80    5.90 
   2  -2  10    7.30    4.30 
  -1   2 -10    2.40    5.80 
   1  -2  10    2.00    3.70 
   0   2 -10   37.40    8.30 
   0  -2  10   34.40    5.40 
   1   2 -10  257.47   22.80 
  -1  -2  10  248.78   19.40 
   2   2 -10  181.78   18.70 
  -2  -2  10  175.68   14.90 
   3   2 -10  299.87   27.20 
  -3  -2  10  307.17   22.80 
   4   2 -10  256.47   23.90 
  -4  -2  10  231.38   18.80 
   5   2 -10   18.90    9.60 
  -5  -2  10   18.60    5.10 
   6   2 -10   18.90   10.20 
  -6  -2  10   -1.30    4.70 
   5  -2   9    6.70    4.40 
  -4   2  -9    8.20    5.20 
   4  -2   9   14.30    4.30 
  -3   2  -9   32.50    6.70 
   3  -2   9   47.10    5.80 
  -2   2  -9   90.59   10.40 
   2  -2   9   89.19    8.80 
  -1   2  -9  108.79   12.10 
   1  -2   9  121.79   10.60 
   0   2  -9   87.59   11.10 
   0  -2   9  104.79    9.30 
   1   2  -9   57.19    9.40 
  -1  -2   9   63.19    6.60 
   2   2  -9   20.60    7.50 
  -2  -2   9   18.60    4.20 
   3   2  -9    2.50    6.60 
  -3  -2   9    0.50    3.40 
   4   2  -9   17.90    7.90 
  -4  -2   9   14.70    4.20 
   5   2  -9   27.10    9.30 
  -5  -2   9   23.30    4.90 
   6   2  -9   51.59   11.90 
  -6  -2   9   34.90    5.90 
   7   2  -9   26.40   11.10 
  -7  -2   9   21.70    5.40 
  -8   2  -8   48.80    9.50 
   8  -2   8   31.80    7.30 
  -7   2  -8   -0.70    6.70 
   7  -2   8   16.00    5.60 
  -6   2  -8  357.96   26.40 
   6  -2   8  285.67   23.50 
  -5   2  -8  448.36   30.70 
   5  -2   8  340.87   27.40 
   5  -2   8  383.56   27.70 
  -4   2  -8  298.57   23.60 
  -4   2  -8  253.57   21.40 
   4  -2   8  287.57   20.70 
  -3   2  -8  484.15   36.80 
  -3   2  -8  553.14   38.20 
   3  -2   8  503.15   35.80 
  -2   2  -8  156.98   13.90 
  -2   2  -8  131.69   12.80 
   2  -2   8  127.69   11.20 
  -1   2  -8   54.19    7.20 
  -1   2  -8   54.79    7.70 
   1  -2   8   45.30    5.50 
   0   2  -8    4.90    4.70 
   0   2  -8    1.00    3.30 
   0  -2   8   -1.90    2.60 
   1   2  -8  123.29   10.60 
   1   2  -8  132.49   13.70 
  -1  -2   8  131.39   10.60 
   2   2  -8  563.84   38.70 
   2   2  -8  555.84   41.30 
  -2  -2   8  548.55   38.70 
   3   2  -8  325.57   25.70 
   3   2  -8  294.47   22.00 
  -3  -2   8  305.37   22.10 
   4   2  -8  733.93   52.29 
   4   2  -8  691.23   49.00 
  -4  -2   8  709.63   49.00 
   5   2  -8  325.67   28.10 
   5   2  -8  342.07   24.00 
  -5  -2   8  314.97   23.70 
   6   2  -8  189.18   20.70 
   6   2  -8  196.18   15.80 
  -6  -2   8  195.08   15.40 
   7   2  -8    5.10    8.70 
  -7  -2   8    5.00    3.90 
  -9   2  -7   34.90    8.20 
   9  -2   7   30.80    7.50 
  -8   2  -7   12.80    6.90 
   8  -2   7   13.90    6.00 
  -7   2  -7  143.99   14.60 
   7  -2   7  139.79   13.50 
  -6   2  -7    8.90    5.70 
   6  -2   7    1.80    4.20 
  -5   2  -7   69.39    9.10 
  -5   2  -7   54.89    7.20 
   5  -2   7   71.99    7.10 
   5  -2   7   62.49    6.90 
  -4   2  -7    2.00    4.60 
  -4   2  -7    5.00    3.70 
   4  -2   7    9.50    3.20 
   4  -2   7    9.10    3.40 
  -3   2  -7    6.90    4.80 
  -3   2  -7   13.50    4.20 
   3  -2   7   10.60    3.00 
   3  -2   7    8.20    3.20 
  -2   2  -7   32.30    6.00 
  -2   2  -7   34.80    5.50 
   2  -2   7   29.40    3.90 
   2  -2   7   35.00    4.30 
  -1   2  -7  124.39   11.50 
  -1   2  -7  115.89   11.40 
   1  -2   7  114.69    9.60 
   0   2  -7  168.38   15.40 
   0   2  -7  178.08   14.70 
   0  -2   7  187.68   13.50 
   1   2  -7  142.69   11.50 
   1   2  -7  139.89   13.70 
  -1  -2   7  141.39   11.00 
   2   2  -7   86.19   10.30 
   2   2  -7   89.29    8.20 
  -2  -2   7   95.89    8.10 
   3   2  -7   46.70    5.20 
   3   2  -7   60.19    8.60 
  -3  -2   7   46.60    5.10 
   4   2  -7   -1.10    2.80 
   4   2  -7   -3.80    5.00 
  -4  -2   7    1.70    2.60 
   5   2  -7    7.20    6.50 
   5   2  -7   -2.10    3.20 
  -5  -2   7   -2.40    2.60 
   6   2  -7   41.70    9.80 
   6   2  -7   48.00    5.90 
  -6  -2   7   50.49    5.60 
   7   2  -7   29.90    5.60 
   7   2  -7   35.10    9.70 
  -7  -2   7   33.20    4.80 
   8   2  -7   23.40    5.50 
  -8  -2   7   10.30   12.00 
   9   2  -7   16.80    5.70 
  -9  -2   7   11.70   12.00 
  -9   2  -6  132.39   13.90 
   9  -2   6  129.29   13.20 
  -8   2  -6   26.00    6.60 
   8  -2   6   22.00    6.10 
  -7   2  -6    5.70    4.90 
   7  -2   6    4.70    4.60 
  -6   2  -6    0.20    4.40 
   6  -2   6    1.30    3.80 
  -5   2  -6  131.99   12.50 
  -5   2  -6  126.39   11.50 
   5  -2   6  123.59   11.40 
   5  -2   6  153.68   11.30 
  -4   2  -6  723.13   51.09 
  -4   2  -6  750.72   51.89 
   4  -2   6  768.22   50.69 
   4  -2   6  706.33   50.59 
  -3   2  -6  838.32   57.69 
  -3   2  -6  877.61   58.69 
   3  -2   6  803.22   57.09 
   3  -2   6  831.82   57.09 
  -2   2  -6 1491.15   99.59 
  -2   2  -6 1514.95  100.29 
   2  -2   6 1431.26   98.69 
   2  -2   6 1403.96   98.49 
  -1   2  -6 1735.43  115.39 
  -1   2  -6 1742.33  115.79 
   1  -2   6 1687.83  114.39 
   1  -2   6 1617.54  114.09 
   0   2  -6  140.49   11.50 
   0   2  -6  131.59   11.00 
   0  -2   6  115.79    9.30 
   0  -2   6  125.79    9.70 
   1   2  -6    3.40    2.50 
   1   2  -6    4.60    3.90 
  -1  -2   6   -0.90    2.00 
   2   2  -6   18.10    3.10 
   2   2  -6   22.50    5.40 
  -2  -2   6   20.90    3.10 
   3   2  -6  770.12   52.39 
   3   2  -6  767.72   54.29 
  -3  -2   6  753.92   52.19 
   4   2  -6  873.21   61.49 
   4   2  -6  852.61   59.09 
  -4  -2   6  865.91   58.89 
   5   2  -6  848.62   58.19 
   5   2  -6  824.22   60.79 
  -5  -2   6  862.51   57.89 
   6   2  -6 1378.56   93.59 
   6   2  -6 1342.67   96.89 
  -6  -2   6 1391.96   93.19 
   7   2  -6  643.54   45.80 
  -7  -2   6  664.13   45.20 
   8   2  -6   66.79    7.70 
  -8  -2   6   60.19   15.10 
   9   2  -6    7.90    5.00 
  -9  -2   6   -3.90   10.40 
 -10  -2   6   37.80   15.20 
 -10   2  -5    6.00    6.50 
  10  -2   5    4.50    6.10 
  -9   2  -5    6.40    5.80 
   9  -2   5   13.30    6.00 
  -8   2  -5   69.79    8.90 
   8  -2   5   84.39    9.30 
  -7   2  -5   20.30    5.10 
   7  -2   5   13.90    5.00 
  -6   2  -5  268.67   21.80 
   6  -2   5  314.37   21.10 
   6  -2   5  272.57   21.40 
  -5   2  -5   50.99    6.60 
  -5   2  -5   56.99    6.10 
   5  -2   5   62.99    6.30 
   5  -2   5   51.09    6.00 
  -4   2  -5   87.29    9.10 
  -4   2  -5  104.49    9.00 
   4  -2   5  100.49    8.30 
   4  -2   5   92.79    8.40 
  -3   2  -5   46.50    5.40 
  -3   2  -5   47.70    6.10 
   3  -2   5   48.40    4.80 
   3  -2   5   44.60    4.70 
  -2   2  -5    3.00    2.60 
  -2   2  -5    3.70    3.20 
   2  -2   5    0.80    1.90 
   2  -2   5    3.00    1.90 
  -1   2  -5   25.60    3.90 
  -1   2  -5   14.00    3.80 
   1  -2   5   23.00    2.60 
   1  -2   5   21.10    2.80 
   0   2  -5  102.59    9.00 
   0   2  -5   87.99    8.90 
   0  -2   5   99.39    7.00 
   0  -2   5   92.29    7.60 
   1   2  -5  156.28   12.40 
   1   2  -5  154.08   13.20 
  -1  -2   5  163.38   11.70 
   2   2  -5  133.19   12.30 
   2   2  -5  147.69   10.70 
  -2  -2   5  130.79   10.20 
   3   2  -5   78.89    9.00 
   3   2  -5   88.09    7.50 
  -3  -2   5   81.09    6.80 
   4   2  -5   33.60    6.30 
   4   2  -5   34.30    4.30 
  -4  -2   5   38.10    3.80 
   5   2  -5    6.90    3.00 
   5   2  -5   15.20    6.10 
  -5  -2   5    3.80    2.20 
   6   2  -5   -4.60    5.40 
   6   2  -5   -0.20    3.10 
  -6  -2   5    1.10    2.30 
   7   2  -5    1.60    3.60 
  -7  -2   5   -6.90    7.40 
   8   2  -5    5.70    4.20 
  -8  -2   5    4.70    9.00 
   9   2  -5   12.80    5.10 
  -9  -2   5    4.50   11.50 
  10   2  -5    9.50    5.60 
 -10  -2   5    3.10   11.80 
 -10   2  -4  281.97   22.70 
  10  -2   4  255.37   22.50 
  -9   2  -4  234.88   20.00 
   9  -2   4  249.88   20.10 
  -8   2  -4  416.36   30.90 
   8  -2   4  427.16   31.10 
  -7   2  -4  262.97   20.80 
   7  -2   4  284.17   21.00 
  -6   2  -4   66.99    7.20 
   6  -2   4   52.09    7.10 
   6  -2   4   92.49    7.10 
  -5   2  -4   27.00    4.00 
  -5   2  -4   17.20    3.90 
   5  -2   4   24.10    3.60 
   5  -2   4   18.30    3.80 
  -4   2  -4  430.96   29.60 
  -4   2  -4  423.06   29.90 
   4  -2   4  416.06   29.40 
   4  -2   4  408.36   29.40 
  -3   2  -4 1728.33  112.69 
  -3   2  -4 1661.03  113.09 
   3  -2   4 1675.93  112.39 
   3  -2   4 1583.94  112.39 
  -2   2  -4  698.53   48.80 
  -2   2  -4  716.13   48.20 
   2  -2   4  717.13   47.80 
   2  -2   4  670.63   47.80 
  -1   2  -4 3088.99  199.78 
  -1   2  -4 2928.31  200.28 
   1  -2   4 2889.21  199.18 
   1  -2   4 2930.61  198.98 
   0   2  -4 1769.42  122.29 
   0   2  -4 1819.02  122.09 
   0  -2   4 1810.92  120.99 
   0  -2   4 1790.12  121.29 
   1   2  -4 2121.69  144.89 
   1   2  -4 2176.48  145.19 
  -1  -2   4 2122.39  144.19 
   2   2  -4   80.79    8.60 
   2   2  -4   90.39    7.40 
  -2  -2   4   87.19    6.80 
   3   2  -4    0.20    2.00 
   3   2  -4   -2.40    3.10 
   4   2  -4  373.36   26.40 
   4   2  -4  364.56   28.20 
  -4  -2   4  384.76   25.90 
   5   2  -4 1941.31  132.49 
   5   2  -4 1948.61  130.19 
  -5  -2   4 1883.21  129.69 
   6   2  -4  164.58   14.30 
   6   2  -4  230.08   15.20 
  -6  -2   4  177.48   13.40 
   7   2  -4 1413.76   93.79 
  -7  -2   4 1313.07   98.99 
   8   2  -4  645.64   43.20 
  -8  -2   4  546.75   49.60 
   9   2  -4  204.08   15.80 
  -9  -2   4  141.89   23.00 
  10   2  -4  152.88   13.20 
 -10  -2   4   83.39   20.20 
 -10   2  -3    6.20    6.20 
  10  -2   3   10.60    5.80 
  -9   2  -3    2.40    5.10 
   9  -2   3    2.00    4.80 
  -8   2  -3    4.20    4.70 
   8  -2   3    5.40    4.40 
  -7   2  -3   16.30    4.50 
   7  -2   3   19.20    4.60 
  -6   2  -3   30.80    4.80 
   6  -2   3   33.40    3.90 
   6  -2   3   31.40    5.00 
  -5   2  -3  117.09   10.20 
  -5   2  -3  124.99   10.40 
   5  -2   3  148.99   10.20 
   5  -2   3  116.09   10.40 
  -4   2  -3   96.89    8.40 
  -4   2  -3   97.89    8.30 
   4  -2   3   89.09    8.10 
   4  -2   3  104.49    8.20 
  -3   2  -3   77.29    7.30 
  -3   2  -3   80.79    6.80 
   3  -2   3   80.39    6.70 
   3  -2   3   85.39    6.80 
  -2   2  -3   77.59    6.20 
  -2   2  -3   71.59    6.90 
   2  -2   3   69.89    5.90 
   2  -2   3   71.19    5.90 
  -1   2  -3    1.60    2.10 
  -1   2  -3    1.50    1.70 
   1  -2   3    0.40    1.20 
   1  -2   3   -0.90    1.20 
   0   2  -3    1.40    2.00 
   0   2  -3    2.90    1.80 
   0  -2   3    3.80    1.20 
   0  -2   3    2.70    0.90 
   1   2  -3   49.50    5.10 
   1   2  -3   48.80    5.30 
  -1  -2   3   53.39    4.20 
   2   2  -3   66.59    6.80 
   2   2  -3   65.09    5.80 
  -2  -2   3   68.29    5.20 
   3   2  -3   65.19    7.40 
   3   2  -3   70.89    6.10 
  -3  -2   3   67.79    5.40 
   4   2  -3   38.20    6.40 
   4   2  -3   56.49    4.80 
   4   2  -3   37.80    4.50 
  -4  -2   3   44.30    4.00 
   5   2  -3   11.50    3.00 
   5   2  -3   12.50    3.10 
  -5  -2   3   13.40    2.00 
   6   2  -3   -1.60    2.80 
   6   2  -3    6.20    3.00 
  -6  -2   3    0.00    1.60 
  -6  -2   3   10.00    6.90 
   7   2  -3    0.50    3.20 
   7   2  -3   -3.70    3.40 
  -7  -2   3   10.50    8.00 
   8   2  -3    2.50    3.80 
   8   2  -3    7.60    4.60 
  -8  -2   3   -2.20    8.90 
   9   2  -3    3.70    4.20 
  -9  -2   3   -2.90   10.00 
  10   2  -3   11.80    5.40 
 -10  -2   3    2.30   11.60 
  11   2  -3    2.10    5.70 
 -11   2  -2   11.40    7.60 
  11  -2   2   20.10    8.90 
 -10   2  -2   44.20    7.90 
  10  -2   2   41.90    7.60 
  -9   2  -2  387.96   29.30 
   9  -2   2  394.16   29.30 
  -8   2  -2  647.54   43.70 
   8  -2   2  586.74   43.60 
  -7   2  -2  733.13   49.70 
   7  -2   2  691.93   49.60 
  -6   2  -2 2295.77  158.08 
   6  -2   2 2282.47  158.18 
   6  -2   2 2431.16  157.68 
  -5   2  -2  124.29   10.50 
  -5   2  -2  126.59   10.10 
   5  -2   2  118.89   10.60 
   5  -2   2  145.99   10.00 
  -4   2  -2   55.69    5.20 
  -4   2  -2   44.00    5.10 
   4  -2   2   61.99    5.40 
   4  -2   2   54.59    5.30 
  -3   2  -2  172.88   13.70 
  -3   2  -2  205.38   13.70 
   3  -2   2  190.38   13.80 
   3  -2   2  185.08   13.70 
  -2   2  -2 4464.35  278.97 
  -2   2  -2 4428.26  279.37 
   2  -2   2 3546.85  279.07 
   2  -2   2 4157.28  278.97 
  -1   2  -2 1786.12  121.29 
  -1   2  -2 1891.31  120.79 
   1  -2   2 1639.94  120.69 
   1  -2   2 1840.32  120.59 
   0   2  -2 5530.45  369.56 
   0   2  -2 6147.98  370.06 
   0  -2   2 5638.84  368.96 
   0  -2   2 4669.73  369.06 
   1   2  -2 3006.20  212.08 
   1   2  -2 3421.56  212.28 
  -1  -2   2 3019.60  211.48 
   2   2  -2 5181.38  381.86 
   2   2  -2 6005.60  381.26 
  -2  -2   2 5822.22  380.96 
   3   2  -2  534.25   34.20 
   3   2  -2  484.75   35.80 
   3   2  -2  480.85   34.60 
  -3  -2   2  501.65   34.10 
   4   2  -2   18.10    2.50 
   4   2  -2   16.10    2.80 
  -4  -2   2   17.20    2.00 
   5   2  -2  160.08   12.10 
   5   2  -2  171.98   11.90 
  -5  -2   2  126.39   15.30 
  -5  -2   2  155.88   11.20 
   6   2  -2 2321.37  159.58 
   6   2  -2 2471.25  159.58 
  -6  -2   2 2421.16  158.88 
  -6  -2   2 2189.28  163.38 
   7   2  -2  798.82   54.89 
   7   2  -2  855.91   55.09 
  -7  -2   2  688.53   59.69 
   8   2  -2 1015.30   70.59 
   8   2  -2 1122.49   70.89 
  -8  -2   2  890.91   75.99 
   9   2  -2  843.32   55.09 
   9   2  -2  772.22   54.59 
  -9  -2   2  691.73   61.39 
  10   2  -2  259.47   19.90 
  10   2  -2  226.38   18.80 
 -10  -2   2  175.68   25.90 
  11   2  -2   71.59    9.50 
 -11   2  -1   78.39   10.60 
  11  -2   1   69.19   10.50 
 -10   2  -1    6.50    6.00 
  10  -2   1    6.40    5.50 
  -9   2  -1   19.80    5.90 
   9  -2   1   17.10    5.40 
  -8   2  -1   19.00    4.90 
   8  -2   1   19.40    4.80 
  -7   2  -1   18.00    4.20 
   7  -2   1   16.20    4.20 
  -6   2  -1    4.10    2.90 
  -6   2  -1    8.00    2.90 
   6  -2   1    5.80    1.80 
   6  -2   1    3.10    2.90 
  -5   2  -1   48.00    4.90 
  -5   2  -1   36.50    4.70 
   5  -2   1   52.99    4.50 
   5  -2   1   48.30    5.10 
  -4   2  -1   34.10    4.00 
  -4   2  -1   41.50    4.00 
   4  -2   1   40.00    4.30 
   4  -2   1   49.60    4.20 
  -3   2  -1   81.39    6.00 
  -3   2  -1   71.09    6.40 
   3  -2   1   70.79    6.40 
   3  -2   1   78.29    6.50 
  -2   2  -1   30.00    2.70 
  -2   2  -1   25.30    2.90 
   2  -2   1   27.00    2.90 
   2  -2   1   28.30    3.20 
  -1   2  -1   32.80    2.80 
  -1   2  -1   33.60    3.50 
   1  -2   1   36.30    3.30 
   1  -2   1   32.50    3.00 
   0   2  -1    7.30    1.60 
   0   2  -1   15.10    2.30 
   0  -2   1    9.30    1.50 
   0  -2   1    9.10    1.40 
  -1  -2   1    0.50    1.00 
   2   2  -1    1.30    0.80 
   2   2  -1    4.00    2.20 
   2   2  -1    1.30    1.30 
  -2  -2   1    2.50    0.90 
   3   2  -1    0.50    1.00 
   3   2  -1   -0.30    1.30 
  -3  -2   1    1.00    0.70 
  -3  -2   1    2.40    2.70 
   4   2  -1    6.70    1.70 
   4   2  -1    4.70    2.00 
  -4  -2   1    7.20    1.10 
  -4  -2   1   10.30    4.10 
   5   2  -1    4.40    2.00 
   5   2  -1    2.00    2.20 
  -5  -2   1    5.30    1.20 
  -5  -2   1    5.20    5.10 
   6   2  -1   40.60    4.60 
   6   2  -1   35.90    4.50 
  -6  -2   1   36.70    8.80 
   7   2  -1   39.00    5.00 
   7   2  -1   35.40    4.90 
  -7  -2   1   39.40    9.90 
   8   2  -1    4.20    3.60 
   8   2  -1    8.30    3.70 
  -8  -2   1   15.70    9.20 
   9   2  -1    1.00    4.30 
   9   2  -1    2.30    4.10 
  -9  -2   1    3.20    9.90 
  10   2  -1    2.50    4.90 
  10   2  -1    3.30    5.00 
 -10  -2   1    4.10   10.00 
  11   2  -1   38.90    7.80 
 -11   2   0    0.30    6.60 
  11  -2   0    1.00    6.40 
 -10   2   0   45.30    8.10 
  10  -2   0   51.19    8.30 
  -9   2   0  127.19   12.40 
   9  -2   0  136.79   13.30 
  -8   2   0  669.83   45.60 
   8  -2   0  622.14   45.60 
  -7   2   0  721.93   51.29 
   7  -2   0  763.72   50.49 
   7  -2   0  724.73   51.39 
  -6   2   0  956.10   67.09 
  -6   2   0  988.00   67.09 
   6  -2   0 1019.00   66.29 
   6  -2   0  949.51   67.09 
  -5   2   0 1479.65  102.39 
  -5   2   0 1462.45  102.39 
   5  -2   0 1597.04  101.89 
   5  -2   0 1498.45  102.49 
  -4   2   0 1270.77   91.89 
  -4   2   0 1379.36   91.99 
   4  -2   0 1347.47   92.09 
   4  -2   0 1435.66   91.69 
  -3   2   0   14.80    1.80 
  -3   2   0   12.50    2.10 
   3  -2   0   20.70    2.30 
  -2   2   0    3.60    1.30 
   2  -2   0    2.10    1.40 
   2  -2   0    3.60    1.30 
  -1   2   0 1004.50   67.59 
   1  -2   0  991.00   67.59 
   0   2   0 6719.63  433.16 
   0   2   0 6807.72  433.36 
   0  -2   0 5818.32  433.06 
   1   2   0  480.35   32.70 
  -1  -2   0  474.45   32.80 
  -1  -2   0  481.15   33.60 
   2   2   0 3664.53  228.18 
   2   2   0 3752.42  228.48 
  -2  -2   0 3023.20  228.08 
  -2  -2   0 3124.79  229.48 
   3   2   0 4027.40  255.77 
  -3  -2   0 3713.83  255.27 
  -3  -2   0 3657.43  257.37 
   4   2   0  863.61   59.69 
   4   2   0  926.31   59.59 
  -4  -2   0  816.52   61.79 
  -4  -2   0  887.31   59.09 
   5   2   0  822.72   54.29 
   5   2   0  791.62   54.39 
  -5  -2   0  760.52   57.09 
   6   2   0   15.90    3.10 
   6   2   0   13.50    3.00 
  -6  -2   0   26.50    6.90 
   7   2   0  483.85   33.50 
   7   2   0  460.65   33.30 
  -7  -2   0  493.55   38.10 
   8   2   0  717.33   49.80 
   8   2   0  702.83   49.70 
  -8  -2   0  736.43   54.49 
   9   2   0  521.55   38.40 
   9   2   0  534.55   38.40 
  -9  -2   0  583.54   44.20 
  10   2   0  615.34   43.20 
  10   2   0  596.94   43.40 
 -10  -2   0  604.54   49.80 
  11   2   0  260.87   20.50 
 -11  -2   0  211.38   21.10 
 -11   2   1    9.50    7.00 
  11  -2  -1   -1.90    6.10 
 -10   2   1   16.10    6.40 
  10  -2  -1   14.50    6.10 
  -9   2   1   -2.60    4.70 
   9  -2  -1    0.70    4.60 
  -8   2   1   -1.20    4.00 
   8  -2  -1    0.40    4.00 
  -7   2   1    6.40    3.60 
   7  -2  -1    6.40    2.00 
   7  -2  -1   13.60    4.10 
  -6   2   1    6.00    3.60 
  -6   2   1   -1.90    2.60 
   6  -2  -1   -0.30    1.50 
   6  -2  -1   -3.30    2.70 
  -5   2   1    1.90    3.10 
  -5   2   1   -0.30    2.20 
   5  -2  -1    1.10    1.30 
   5  -2  -1    1.20    2.50 
  -4   2   1    0.90    2.60 
  -4   2   1    0.80    1.70 
   4  -2  -1    3.60    2.20 
   4  -2  -1    3.80    1.10 
  -3   2   1   -0.90    1.20 
  -3   2   1    0.20    1.90 
   3  -2  -1    0.20    0.90 
   3  -2  -1   -0.90    1.60 
  -2   2   1    1.90    1.10 
   2  -2  -1    6.00    1.80 
   2  -2  -1    1.20    1.40 
   2  -2  -1    2.10    1.00 
  -1   2   1   13.10    1.40 
   1  -2  -1    4.90    0.90 
   1  -2  -1    4.00    1.00 
   1  -2  -1    5.10    1.60 
   0   2   1   15.40    2.10 
   0   2   1   14.30    2.20 
   0  -2  -1   25.00    2.00 
   0  -2  -1   19.00    2.00 
   1   2   1    4.90    1.00 
   1   2   1    2.40    0.90 
  -1  -2  -1    4.50    0.80 
  -1  -2  -1    4.90    1.50 
   2   2   1   13.00    1.80 
   2   2   1   13.10    1.80 
  -2  -2  -1   13.80    3.10 
   3   2   1    3.20    1.40 
   3   2   1    1.70    1.20 
  -3  -2  -1    1.30    2.30 
   4   2   1   34.90    3.50 
  -4  -2  -1   36.00    5.70 
   5   2   1   20.00    2.90 
   5   2   1   21.30    3.00 
  -5  -2  -1   23.80    5.50 
   6   2   1   96.49    8.30 
   6   2   1   91.19    8.10 
  -6  -2  -1  106.79   12.00 
   7   2   1    7.00    3.20 
   7   2   1    7.40    3.30 
  -7  -2  -1   17.40    6.60 
   8   2   1   43.60    5.80 
   8   2   1   39.80    5.60 
  -8  -2  -1   52.99   10.50 
   9   2   1    5.50    4.30 
   9   2   1    8.00    4.30 
  -9  -2  -1    6.10    7.70 
  10   2   1    1.60    4.50 
 -10  -2  -1    9.70    5.50 
 -10  -2  -1    1.60    7.70 
  11   2   1    4.30    5.40 
 -11  -2  -1   -3.20    6.00 
 -11   2   2  430.46   34.70 
  11  -2  -2  468.65   34.90 
 -10   2   2   54.19    9.10 
  10  -2  -2   72.89    9.50 
  -9   2   2    0.40    5.10 
   9  -2  -2    7.70    5.00 
  -8   2   2   39.30    6.50 
   8  -2  -2   53.79    6.90 
  -7   2   2 1071.59   76.59 
   7  -2  -2 1105.19   76.89 
   7  -2  -2 1161.38   75.49 
  -6   2   2 1049.79   72.39 
  -6   2   2  987.60   74.39 
   6  -2  -2 1085.19   71.59 
   6  -2  -2 1091.99   72.69 
  -5   2   2 2542.85  170.58 
  -5   2   2 2386.56  172.48 
   5  -2  -2 2599.74  170.08 
   5  -2  -2 2558.74  170.98 
  -4   2   2 1287.47   88.39 
   4  -2  -2 1312.17   88.79 
   4  -2  -2 1315.37   88.09 
  -3   2   2 4531.35  295.27 
   3  -2  -2 4359.76  295.57 
   3  -2  -2 4282.47  295.07 
  -2   2   2  474.65   34.40 
   2  -2  -2  523.05   35.10 
   2  -2  -2  517.15   34.70 
   2  -2  -2  513.85   34.40 
  -1   2   2    1.80    1.00 
  -1   2   2    5.50    2.10 
   1  -2  -2    1.20    0.90 
   1  -2  -2    3.90    1.20 
   0   2   2   29.60    2.80 
   0   2   2   21.20    3.20 
   0  -2  -2   31.50    2.60 
   0  -2  -2   36.80    3.10 
   1   2   2 9999.00  610.94 
   1   2   2 9128.89  611.44 
  -1  -2  -2 8178.88  610.94 
   2   2   2 2941.41  185.88 
   2   2   2 2829.12  185.68 
  -2  -2  -2 2374.56  186.28 
  -2  -2  -2 2891.01  185.48 
   3   2   2 2846.02  180.58 
   3   2   2 2756.42  180.48 
  -3  -2  -2 2428.06  181.38 
   4   2   2 2604.14  171.98 
   4   2   2 2660.83  172.18 
  -4  -2  -2 2383.66  173.28 
   5   2   2  648.34   43.00 
   5   2   2  612.04   42.90 
  -5  -2  -2  616.04   44.80 
   6   2   2  136.89   10.40 
   6   2   2  122.49   10.40 
  -6  -2  -2  133.59   13.30 
   7   2   2  145.79   11.80 
   7   2   2  137.09   11.80 
  -7  -2  -2  163.68   15.00 
   8   2   2  170.48   14.20 
   8   2   2  166.58   14.20 
  -8  -2  -2  202.08   18.30 
   9   2   2  328.47   25.00 
  -9  -2  -2  334.77   25.50 
  -9  -2  -2  352.96   29.00 
  10   2   2  245.78   20.40 
 -10  -2  -2  260.97   24.70 
 -10  -2  -2  256.77   20.80 
  11   2   2  320.07   26.10 
 -11  -2  -2  356.36   26.90 
 -10   2   3    3.50    6.10 
  10  -2  -3   -2.60    5.10 
  -9   2   3    4.40    5.20 
   9  -2  -3    5.10    5.10 
  -8   2   3    6.90    4.60 
   8  -2  -3    1.40    4.20 
  -7   2   3    7.90    3.90 
   7  -2  -3    7.00    2.20 
   7  -2  -3    1.60    3.70 
  -6   2   3   -3.30    5.40 
  -6   2   3    2.40    3.00 
   6  -2  -3   -0.70    1.60 
   6  -2  -3   -3.90    3.00 
  -5   2   3    8.50    2.70 
   5  -2  -3    9.40    1.90 
   5  -2  -3    8.30    3.10 
   5  -2  -3    9.40    5.70 
  -4   2   3    9.50    2.40 
   4  -2  -3    5.90    2.90 
   4  -2  -3   10.90    1.80 
   4  -2  -3   25.20    4.60 
  -3   2   3    6.70    1.70 
   3  -2  -3    6.50    2.60 
   3  -2  -3    4.70    1.30 
   3  -2  -3    5.30    2.60 
  -2   2   3   34.80    3.30 
   2  -2  -3   41.50    4.10 
   2  -2  -3   41.30    3.30 
  -1   2   3   62.19    4.50 
  -1   2   3   52.89    6.20 
   1  -2  -3   65.99    5.30 
   1  -2  -3   63.09    4.70 
   0   2   3   22.30    3.10 
   0  -2  -3   28.70    2.50 
   0  -2  -3   27.70    3.20 
   1   2   3   56.79    5.00 
   1   2   3   53.49    3.90 
  -1  -2  -3   53.19    5.00 
  -1  -2  -3   51.79    4.10 
   2   2   3   43.50    3.80 
   2   2   3   36.70    3.20 
  -2  -2  -3   39.60    3.00 
  -2  -2  -3   43.50    4.50 
   3   2   3   -1.60    0.60 
   3   2   3    1.30    1.40 
   3   2   3    0.40    1.20 
  -3  -2  -3   -1.20    2.00 
   4   2   3    0.10    1.60 
   4   2   3   -2.60    1.60 
  -4  -2  -3    1.00    2.50 
   5   2   3    4.30    2.10 
   5   2   3   -0.70    2.10 
  -5  -2  -3    1.10    3.10 
   6   2   3   78.89    7.30 
   6   2   3   79.99    7.50 
  -6  -2  -3   83.39    9.30 
   7   2   3   16.70    3.60 
  -7  -2  -3   18.80    5.60 
   8   2   3   63.69    7.30 
  -8  -2  -3   68.69    9.80 
  -8  -2  -3   79.69    8.00 
   9   2   3    8.30    4.30 
  -9  -2  -3    3.40    4.60 
  -9  -2  -3   17.70    7.00 
  10   2   3   -4.40    4.40 
 -10  -2  -3    5.30    5.50 
 -10  -2  -3   12.90    7.70 
  11   2   3    7.90    5.70 
 -11  -2  -3   10.70    6.50 
 -10   2   4  284.57   24.00 
  10  -2  -4  287.57   23.80 
  -9   2   4  164.68   15.40 
   9  -2  -4  150.38   15.00 
  -8   2   4   16.40    5.80 
   8  -2  -4   28.10    6.00 
  -7   2   4    2.60    4.10 
  -7   2   4   -4.60    8.40 
   7  -2  -4    3.20    2.20 
   7  -2  -4    5.20    4.10 
  -6   2   4  331.57   24.70 
   6  -2  -4  351.66   25.30 
   6  -2  -4  341.37   23.70 
   5  -2  -4 1312.27   91.89 
   5  -2  -4 1494.15   93.39 
   5  -2  -4 1251.97   90.69 
   4  -2  -4 1422.86   99.59 
   4  -2  -4 1609.74   99.59 
   4  -2  -4 1352.66   98.19 
   4  -2  -4 1457.55   98.29 
  -3   2   4 1005.70   73.49 
   3  -2  -4 1073.79   71.59 
   3  -2  -4 1012.90   72.39 
   3  -2  -4 1121.09   71.49 
  -2   2   4 2203.98  165.38 
   2  -2  -4 2485.15  163.68 
   2  -2  -4 2295.77  164.28 
   2  -2  -4 2705.63  163.48 
  -1   2   4  537.25   42.50 
   1  -2  -4  643.44   41.40 
   1  -2  -4  632.94   42.00 
   0   2   4  439.56   32.70 
   0  -2  -4  465.85   31.80 
   0  -2  -4  494.75   32.60 
   1   2   4  904.81   63.19 
  -1  -2  -4  912.21   63.29 
  -1  -2  -4  955.10   62.39 
   2   2   4  814.62   57.79 
  -2  -2  -4  845.92   57.19 
  -2  -2  -4  826.12   58.19 
  -2  -2  -4  899.31   57.29 
   3   2   4 1846.82  123.99 
   3   2   4 1851.41  124.49 
  -3  -2  -4 1893.21  124.19 
  -3  -2  -4 1776.32  125.19 
   4   2   4 1086.69   74.39 
   4   2   4 1145.69   75.09 
  -4  -2  -4 1113.69   74.89 
  -4  -2  -4 1074.29   75.89 
   5   2   4 1890.31  127.89 
  -5  -2  -4 1925.71  127.79 
  -5  -2  -4 1849.91  128.89 
   6   2   4  927.51   65.99 
  -6  -2  -4  978.60   65.99 
  -6  -2  -4  995.20   67.49 
   7   2   4   85.59    8.30 
  -7  -2  -4   84.69    8.20 
  -7  -2  -4   99.79   10.70 
   8   2   4  224.88   17.80 
  -8  -2  -4  233.08   19.90 
  -8  -2  -4  227.98   18.10 
   9   2   4    3.80    4.20 
  -9  -2  -4   -0.60    4.60 
  -9  -2  -4    3.30    6.00 
  10   2   4   69.89    8.70 
 -10  -2  -4   84.79    9.70 
 -10  -2  -4   67.09   11.30 
  11   2   4   57.39    8.80 
 -11  -2  -4   83.69   10.30 
 -10   2   5    3.70    6.90 
  10  -2  -5   -1.60    6.20 
  -9   2   5    6.90    5.90 
   9  -2  -5    6.80    5.70 
  -8   2   5    0.30    4.80 
   8  -2  -5    6.20    5.00 
  -7   2   5    6.80    4.30 
  -7   2   5   -3.90    7.80 
   7  -2  -5   -0.30    4.40 
   7  -2  -5   -2.40    2.10 
   6  -2  -5   67.39    8.20 
   6  -2  -5   86.29   11.00 
   6  -2  -5   63.99    6.10 
   5  -2  -5    4.10    4.60 
   5  -2  -5    4.90    4.00 
   5  -2  -5    2.20    2.20 
   5  -2  -5   -0.20    1.80 
  -4   2   5   52.79    8.10 
   4  -2  -5   65.69    5.60 
   4  -2  -5   59.39    5.50 
   4  -2  -5   70.19    7.90 
  -3   2   5   13.50    4.60 
   3  -2  -5   13.40    2.10 
   3  -2  -5   15.00    2.10 
   3  -2  -5   11.70    3.50 
  -2   2   5    0.70    3.10 
   2  -2  -5    0.50    1.30 
   2  -2  -5    2.50    1.10 
   2  -2  -5    2.50    2.40 
  -1   2   5   29.30    4.60 
   1  -2  -5   42.80    4.60 
   1  -2  -5   34.10    3.20 
   0   2   5  163.88   13.10 
   0  -2  -5  171.58   11.90 
   0  -2  -5  166.98   13.00 
   1   2   5  159.28   12.60 
  -1  -2  -5  165.78   11.60 
   2   2   5  134.19   10.10 
   2   2   5  125.39   10.80 
  -2  -2  -5  129.39   11.50 
  -2  -2  -5  160.88   10.00 
   3   2   5  151.28   10.40 
   3   2   5  141.19   11.10 
  -3  -2  -5  141.79   12.00 
  -3  -2  -5  147.29   10.60 
   4   2   5   23.60    2.30 
   4   2   5   18.70    3.30 
  -4  -2  -5   27.50    4.60 
  -4  -2  -5   18.10    2.80 
   5   2   5    4.00    2.80 
   5   2   5    7.60    1.40 
  -5  -2  -5    4.40    2.40 
  -5  -2  -5    1.70    3.50 
   6   2   5    5.00    2.90 
  -6  -2  -5    0.50    2.60 
  -6  -2  -5   -1.20    3.70 
   7   2   5   98.79    9.80 
  -7  -2  -5   96.19    9.60 
  -7  -2  -5  115.09   11.50 
   8   2   5   17.30    4.60 
  -8  -2  -5   25.90    5.00 
  -8  -2  -5   17.60    6.20 
   9   2   5   82.99    9.10 
  -9  -2  -5   91.39    9.40 
  -9  -2  -5   90.59   11.20 
  10   2   5   28.50    6.30 
 -10  -2  -5   29.10    6.70 
  11   2   5    5.00    5.50 
 -11  -2  -5    8.10    6.40 
   9  -2  -6  249.38   22.50 
  -8   2   6  385.36   29.20 
   8  -2  -6  330.97   25.40 
  -7   2   6   50.59    7.20 
   7  -2  -6   57.39    5.50 
   7  -2  -6   77.69   12.50 
  -6   2   6   -3.80    5.00 
   6  -2  -6   -1.10    2.20 
   6  -2  -6   -0.20    6.10 
  -5   2   6    2.10    5.30 
   5  -2  -6    7.30    2.50 
   5  -2  -6   -1.70    4.70 
   5  -2  -6    8.60    2.30 
  -4   2   6 1078.09   86.99 
   4  -2  -6 1212.08   86.09 
   4  -2  -6 1372.16   84.29 
   4  -2  -6 1261.87   84.29 
  -3   2   6 1180.08   92.89 
   3  -2  -6 1358.06   90.69 
   3  -2  -6 1278.17   91.99 
   3  -2  -6 1494.65   90.49 
  -2   2   6  922.31   68.69 
   2  -2  -6 1057.59   66.59 
   2  -2  -6  975.50   66.89 
   2  -2  -6  970.30   68.09 
  -1   2   6 1667.03  117.19 
   1  -2  -6 1761.72  116.89 
   1  -2  -6 1721.73  115.89 
   0   2   6  462.55   32.80 
   0  -2  -6  452.75   31.50 
   0  -2  -6  468.85   32.60 
   1   2   6   38.70    3.80 
   1   2   6   40.30    4.90 
  -1  -2  -6   38.30    4.90 
   2   2   6  324.77   23.80 
   2   2   6  328.37   23.20 
  -2  -2  -6  361.66   23.30 
  -2  -2  -6  318.27   24.50 
   3   2   6  209.78   14.70 
   3   2   6  204.98   15.40 
  -3  -2  -6  224.48   14.90 
  -3  -2  -6  187.68   16.30 
   4   2   6  559.94   39.30 
   4   2   6  569.34   38.60 
  -4  -2  -6  581.94   38.90 
  -4  -2  -6  548.45   40.30 
   5   2   6  282.47   19.70 
   5   2   6  274.57   20.70 
  -5  -2  -6  303.07   20.40 
  -5  -2  -6  269.77   21.90 
   6   2   6  764.72   54.79 
  -6  -2  -6  777.12   55.89 
  -6  -2  -6  831.22   54.49 
   7   2   6  217.98   17.30 
  -7  -2  -6  203.88   18.70 
  -7  -2  -6  236.98   17.10 
   8   2   6   92.29    9.90 
  -8  -2  -6  112.79   10.60 
  -8  -2  -6  114.69   12.20 
   9   2   6    5.90    4.70 
  -9  -2  -6    4.00    6.00 
  -9  -2  -6   11.10    5.10 
  10   2   6   19.20    5.90 
 -10  -2  -6   18.80    6.40 
   7  -2  -7   14.90    9.70 
  -6   2   7   13.20    7.00 
   6  -2  -7   23.60    7.50 
   6  -2  -7   13.60    3.10 
  -5   2   7   47.00    9.10 
   5  -2  -7   50.29    5.00 
   5  -2  -7   56.29    8.40 
  -4   2   7   39.90    7.70 
   4  -2  -7   30.50    6.40 
   4  -2  -7   36.40    3.90 
  -3   2   7   36.10    6.80 
   3  -2  -7   46.50    6.40 
   3  -2  -7   34.30    3.90 
  -2   2   7    1.30    3.70 
   2  -2  -7    2.40    3.60 
   2  -2  -7    2.90    1.90 
  -1   2   7    3.20    3.40 
   1  -2  -7    1.30    3.30 
   0   2   7   31.90    3.70 
   0   2   7   30.10    4.80 
   0  -2  -7   29.80    4.80 
   1   2   7   77.19    7.60 
   1   2   7   73.39    6.40 
  -1  -2  -7   71.19    7.80 
   2   2   7  116.69    9.20 
   2   2   7  123.39   10.10 
  -2  -2  -7  109.59   10.90 
  -2  -2  -7  127.29    9.70 
   3   2   7   96.19    7.60 
   3   2   7   94.29    8.50 
  -3  -2  -7   80.79    9.30 
  -3  -2  -7  105.49    8.30 
   4   2   7   72.19    6.30 
   4   2   7   74.29    7.30 
  -4  -2  -7   89.19    7.20 
  -4  -2  -7   60.29    8.20 
   5   2   7   42.00    5.50 
   5   2   7   47.90    4.90 
  -5  -2  -7   35.90    6.60 
  -5  -2  -7   43.30    4.90 
   6   2   7   -1.50    3.60 
  -6  -2  -7    3.00    3.30 
  -6  -2  -7    0.60    4.50 
   7   2   7    0.90    3.80 
  -7  -2  -7   -3.20    3.70 
  -7  -2  -7   -5.00    4.60 
   8   2   7    5.90    4.50 
  -8  -2  -7   10.40    4.60 
  -8  -2  -7    6.00    5.80 
   9   2   7    6.40    5.00 
  -9  -2  -7   11.50    6.80 
  -9  -2  -7    7.90    5.30 
  10   2   7   26.60    6.60 
 -10  -2  -7   28.80    7.20 
  -7   2   8  234.88   19.10 
   7  -2  -8  278.57   25.60 
  -6   2   8   65.89    7.20 
   6  -2  -8   65.29   10.70 
  -5   2   8   22.20    4.40 
   5  -2  -8   34.40    7.60 
  -4   2   8   30.20    4.50 
  -4   2   8   27.50    7.30 
   4  -2  -8   36.90    7.20 
  -3   2   8   52.39    7.80 
  -3   2   8   52.79    5.70 
   3  -2  -8   51.59    7.60 
  -2   2   8  541.85   38.70 
  -2   2   8  538.05   37.00 
   2  -2  -8  516.15   38.40 
  -1   2   8  461.75   33.30 
  -1   2   8  453.25   31.90 
   1  -2  -8  455.25   33.30 
   0   2   8  700.23   47.10 
   0   2   8  693.13   48.20 
   0  -2  -8  661.93   48.30 
   1   2   8 1235.88   79.59 
   1   2   8 1150.68   80.19 
  -1  -2  -8 1120.49   80.69 
   2   2   8   20.20    3.30 
   2   2   8   29.00    4.40 
  -2  -2  -8   21.70    4.80 
   3   2   8  308.17   22.10 
   3   2   8  301.07   21.30 
  -3  -2  -8  292.87   23.20 
   4   2   8   -5.60    3.10 
   4   2   8    1.10    2.20 
  -4  -2  -8    4.20    4.10 
   5   2   8  110.99   10.40 
  -5  -2  -8  105.69   11.70 
   6   2   8   21.30    5.20 
  -6  -2  -8   21.20    6.10 
   7   2   8  294.17   22.80 
  -7  -2  -8  299.27   24.30 
   8   2   8  108.49   11.60 
  -8  -2  -8  142.29   14.40 
   9   2   8  155.68   14.60 
  -9  -2  -8  123.59   15.10 
  -7   2   9    0.90    4.30 
   7  -2  -9    6.00    9.20 
  -6   2   9    3.80    4.10 
   6  -2  -9    7.90    7.20 
  -5   2   9   62.19    7.20 
   5  -2  -9   78.29   11.00 
  -4   2   9   11.00    3.90 
   4  -2  -9    9.20    6.00 
  -3   2   9   86.29    8.10 
   3  -2  -9   85.29   10.50 
  -2   2   9   23.60    5.80 
  -2   2   9   30.40    4.40 
   2  -2  -9   23.10    6.10 
  -1   2   9   11.90    3.30 
  -1   2   9    4.40    4.20 
   1  -2  -9    9.50    4.90 
   0   2   9   -1.40    2.60 
   0   2   9   -3.80    3.60 
   0  -2  -9    0.30    4.40 
   1   2   9   15.30    4.30 
   1   2   9   28.80    3.90 
  -1  -2  -9   15.50    4.80 
   2   2   9   50.89    5.50 
   2   2   9   57.09    6.50 
  -2  -2  -9   54.99    7.50 
   3   2   9   70.89    7.80 
   3   2   9   84.79    7.20 
  -3  -2  -9   73.69    9.10 
   4   2   9   67.09    8.00 
   4   2   9   88.09    7.50 
  -4  -2  -9   66.89    9.00 
   5   2   9   53.39    6.60 
  -5  -2  -9   35.30    7.30 
   6   2   9   25.10    5.60 
  -6  -2  -9   22.70    6.50 
   7   2   9    8.40    4.90 
  -7  -2  -9    4.30    5.80 
   8   2   9   -3.10    5.00 
  -8  -2  -9   -2.20    6.40 
   9   2   9    4.30    5.80 
  -7   2  10   88.39    9.70 
   7  -2 -10   98.19   15.20 
  -6   2  10  150.18   14.00 
   6  -2 -10  165.38   18.20 
  -5   2  10   23.80    5.30 
   5  -2 -10   45.40    9.30 
  -4   2  10   12.80    4.20 
   4  -2 -10    4.10    6.20 
  -3   2  10   -0.10    3.50 
   3  -2 -10   -6.70    5.40 
  -2   2  10   10.90    3.80 
   2  -2 -10    7.90    5.70 
  -1   2  10  153.18   12.60 
   1  -2 -10  143.19   14.80 
   0   2  10   58.39    9.60 
   0   2  10   51.09    5.80 
   0  -2 -10   40.10    7.60 
   1   2  10  155.48   13.60 
   1   2  10  160.38   12.70 
  -1  -2 -10  151.48   14.60 
   2   2  10  284.17   19.50 
   2   2  10  257.57   20.00 
  -2  -2 -10  239.28   21.10 
   3   2  10   14.80    4.70 
   3   2  10   14.70    3.70 
  -3  -2 -10   17.30    5.70 
   4   2  10    0.80    4.40 
   4   2  10    3.70    3.20 
  -4  -2 -10   -1.80    4.60 
   5   2  10    8.70    5.10 
  -5  -2 -10   20.00    6.20 
   6   2  10   10.80    5.30 
  -6  -2 -10   16.10    6.50 
   7   2  10   11.50    5.70 
  -7  -2 -10    1.20    6.20 
   8   2  10   -2.90    5.70 
  -8  -2 -10    3.60    6.90 
  -5   2  11    6.00    4.70 
   5  -2 -11   -1.00    7.30 
  -4   2  11   56.79    7.00 
   4  -2 -11   32.30    9.40 
  -3   2  11   21.10    5.00 
   3  -2 -11   25.00    7.90 
  -2   2  11   32.90    5.70 
   2  -2 -11   35.10    8.10 
  -1   2  11   18.10    4.60 
   1  -2 -11   18.80    6.50 
   0   2  11   15.00    4.30 
   0  -2 -11    8.70    5.90 
   1   2  11    5.40    3.80 
  -1  -2 -11    4.60    5.50 
   2   2  11    8.30    4.00 
  -2  -2 -11   -2.60    4.90 
   3   2  11   12.10    4.10 
   3   2  11   11.70    5.10 
  -3  -2 -11    8.30    5.70 
   4   2  11   17.70    4.50 
   4   2  11   16.20    5.50 
  -4  -2 -11    9.40    5.90 
   5   2  11   32.40    6.50 
  -5  -2 -11   20.10    6.60 
   6   2  11   16.40    5.90 
  -6  -2 -11    7.50    6.30 
   7   2  11   17.10    6.60 
  -7  -2 -11    6.90    6.70 
  -4   2  12  248.28   20.10 
   4  -2 -12  237.18   24.30 
  -3   2  12   36.70    6.30 
   3  -2 -12   12.40    8.10 
  -2   2  12   36.80    6.30 
   2  -2 -12   34.50    8.90 
  -1   2  12    3.60    4.40 
   1  -2 -12    6.40    6.90 
   0   2  12   81.29    8.40 
   0  -2 -12   68.69   10.70 
   1   2  12   -0.20    4.40 
  -1  -2 -12    0.40    5.50 
   2   2  12  125.19   11.10 
  -2  -2 -12  105.29   13.00 
   3   2  12   23.60    5.30 
  -3  -2 -12   23.80    7.20 
  -4  -2 -12  115.49   13.10 
  -5  -2 -12    4.30    6.20 
  -1   2  13   22.10    5.90 
   1  -2 -13    5.90    8.90 
   0   2  13   17.10    5.70 
   0  -2 -13   10.20    7.30 
   1   2  13    6.00    5.00 
  -1  -2 -13    0.80    6.60 
   2   2  13   -3.20    4.70 
  -2  -2 -13   -1.10    6.20 
   3  -3  11   53.69    8.30 
  -2   3 -11    8.20    7.20 
   2  -3  11    2.00    5.30 
  -1   3 -11   24.20    8.50 
   1  -3  11   24.30    6.10 
   0   3 -11  105.39   14.60 
   0  -3  11  130.39   12.10 
   1   3 -11   14.20    8.60 
  -1  -3  11    3.60    5.10 
   2   3 -11   46.70   11.30 
  -2  -3  11   42.70    7.10 
   3   3 -11  101.49   15.30 
  -3  -3  11   98.99   10.40 
   4  -3  10    8.70    5.40 
  -3   3 -10   49.50    9.70 
   3  -3  10   61.19    7.80 
  -2   3 -10  118.59   14.00 
   2  -3  10  160.18   13.20 
  -1   3 -10  194.68   19.30 
   1  -3  10  207.08   16.90 
   0   3 -10  332.77   28.80 
   0  -3  10  360.96   26.00 
   1   3 -10  179.38   18.80 
  -1  -3  10  187.18   15.70 
   2   3 -10   49.80   10.70 
  -2  -3  10   50.79    6.70 
   3   3 -10   13.60    8.40 
  -3  -3  10    4.60    4.30 
   4   3 -10   70.29   12.80 
  -4  -3  10   72.19    8.10 
   5   3 -10  101.59   15.60 
  -5  -3  10   85.49    9.30 
  -6   3  -9   -0.90    8.70 
  -5   3  -9  129.99   15.90 
   5  -3   9  130.19   12.90 
  -4   3  -9   97.69   13.60 
   4  -3   9  106.09   10.50 
  -3   3  -9   36.20    8.40 
  -3   3  -9   29.10    6.70 
   3  -3   9   32.00    5.80 
  -2   3  -9  174.18   15.80 
  -2   3  -9  125.19   13.90 
   2  -3   9  147.49   12.90 
  -1   3  -9   13.90    6.20 
  -1   3  -9   20.30    6.10 
   1  -3   9   16.10    4.50 
   0   3  -9   68.69    9.30 
   0   3  -9   52.79    9.40 
   0  -3   9   70.99    7.50 
   1   3  -9   76.39   11.20 
  -1  -3   9   87.59    8.40 
   2   3  -9   41.90    9.10 
  -2  -3   9   34.70    5.40 
   3   3  -9   58.19   10.80 
  -3  -3   9   56.99    6.60 
   4   3  -9  180.88   19.00 
  -4  -3   9  164.98   14.20 
   5   3  -9   21.60    9.10 
  -5  -3   9    9.10    4.20 
   6   3  -9   58.69   12.60 
  -6  -3   9   43.50    6.50 
   7   3  -9   21.30   10.40 
  -7  -3   9    1.60    5.40 
  -7   3  -8   94.49   13.30 
  -6   3  -8  225.98   21.80 
  -5   3  -8   46.60    9.50 
   5  -3   8   53.09    7.20 
  -4   3  -8   -9.70    5.50 
   4  -3   8   -1.80    3.70 
  -3   3  -8   24.60    5.80 
  -3   3  -8   23.10    7.30 
   3  -3   8   30.20    5.10 
  -2   3  -8  125.49   12.90 
  -2   3  -8  100.89   11.30 
   2  -3   8  120.69   10.50 
  -1   3  -8  240.68   19.50 
  -1   3  -8  212.48   19.30 
   1  -3   8  239.78   17.70 
   0   3  -8  320.17   25.90 
   0   3  -8  339.87   24.80 
   0  -3   8  318.87   23.70 
   1   3  -8  516.95   37.30 
   1   3  -8  486.95   35.00 
  -1  -3   8  483.15   34.70 
   2   3  -8  439.06   31.50 
   2   3  -8  448.76   34.50 
  -2  -3   8  447.76   31.50 
   3   3  -8  313.47   23.20 
   3   3  -8  338.07   26.70 
  -3  -3   8  308.27   23.10 
   4   3  -8   30.40    4.80 
   4   3  -8   33.60    8.70 
  -4  -3   8   25.50    4.60 
   5   3  -8    4.80    7.70 
   5   3  -8    9.80    4.20 
  -5  -3   8    5.70    3.60 
   6   3  -8  178.88   19.60 
   6   3  -8  157.98   14.00 
  -6  -3   8  158.98   13.50 
   7   3  -8   99.39   15.80 
   7   3  -8  102.59   10.50 
  -7  -3   8  122.69   11.40 
  -8  -3   8  239.48   29.90 
  -8   3  -7   21.10    8.00 
   8  -3   7   16.10    6.30 
  -7   3  -7   -0.20    6.30 
   7  -3   7    3.70    5.00 
  -6   3  -7    5.30    6.00 
   6  -3   7    1.30    4.50 
  -5   3  -7   79.69   10.30 
   5  -3   7   61.89    7.40 
   5  -3   7   61.99    7.30 
  -4   3  -7   55.19    9.20 
   4  -3   7   66.89    7.40 
   4  -3   7   70.59    7.80 
  -3   3  -7  112.09   12.20 
  -3   3  -7  102.19   10.70 
   3  -3   7  117.29   10.10 
  -2   3  -7  230.98   18.70 
  -2   3  -7  250.97   20.20 
   2  -3   7  235.08   17.70 
  -1   3  -7   27.00    5.70 
  -1   3  -7   28.50    5.70 
   1  -3   7   31.80    4.40 
   0   3  -7   94.29   10.40 
   0   3  -7  101.19   10.00 
   0  -3   7   92.59    8.50 
   1   3  -7   -1.20    4.50 
   1   3  -7    2.90    3.10 
  -1  -3   7    3.20    2.80 
   2   3  -7   12.50    5.90 
   2   3  -7   12.70    3.20 
  -2  -3   7    2.50    2.70 
   3   3  -7   27.10    4.40 
   3   3  -7   21.60    6.80 
  -3  -3   7   28.20    4.10 
   4   3  -7   96.89    8.60 
   4   3  -7   91.49   11.90 
  -4  -3   7   86.89    8.30 
   5   3  -7   49.30    6.20 
   5   3  -7   46.60    9.60 
  -5  -3   7   52.19    5.60 
   6   3  -7   69.69   12.10 
   6   3  -7   59.89    7.30 
  -6  -3   7   72.59    6.90 
   7   3  -7   10.30    4.80 
   7   3  -7    4.00    8.40 
   8   3  -7    3.50    4.90 
  -8  -3   7  -11.20   10.10 
   9   3  -7    9.10    5.60 
  -9  -3   7   -7.30   11.20 
  -9   3  -6   24.70    7.90 
   9  -3   6   -1.60    5.90 
  -8   3  -6  128.49   14.00 
   8  -3   6  123.39   12.60 
  -7   3  -6  312.97   25.20 
   7  -3   6  302.57   23.60 
  -6   3  -6  324.07   26.30 
   6  -3   6  384.66   25.10 
   6  -3   6  301.67   24.80 
  -5   3  -6  742.53   53.19 
   5  -3   6  780.22   51.99 
   5  -3   6  712.83   51.59 
  -4   3  -6  586.74   41.70 
  -4   3  -6  603.14   43.30 
   4  -3   6  573.84   41.40 
   4  -3   6  620.44   41.60 
  -3   3  -6  136.59   12.70 
  -3   3  -6  114.89   10.60 
   3  -3   6  127.99   10.20 
   3  -3   6  107.99    9.70 
  -2   3  -6    5.70    3.50 
  -2   3  -6    6.40    4.30 
   2  -3   6    5.20    2.70 
   2  -3   6    3.10    2.30 
  -1   3  -6  401.96   29.10 
  -1   3  -6  395.36   29.80 
   1  -3   6  400.06   28.10 
   0   3  -6  944.81   65.69 
   0   3  -6  941.71   65.79 
   0  -3   6  948.31   64.49 
   1   3  -6 1274.97   86.69 
   1   3  -6 1280.37   87.49 
  -1  -3   6 1242.48   85.89 
   2   3  -6 1295.27   88.39 
   2   3  -6 1285.87   89.89 
  -2  -3   6 1308.27   87.99 
   3   3  -6 1000.30   69.39 
   3   3  -6  980.80   67.49 
  -3  -3   6  978.30   67.09 
   4   3  -6  685.23   49.99 
   4   3  -6  678.53   47.50 
  -4  -3   6  693.23   47.10 
   5   3  -6  175.88   14.10 
   5   3  -6  167.68   17.60 
  -5  -3   6  174.68   13.20 
   6   3  -6   -0.50    3.60 
   6   3  -6    1.70    6.30 
  -6  -3   6    2.00    2.70 
   7   3  -6  216.98   17.00 
  -7  -3   6  198.18   23.70 
   8   3  -6  270.37   21.10 
  -8  -3   6  252.27   29.60 
   9   3  -6  413.66   29.70 
  -9  -3   6  354.66   39.00 
  -9   3  -5   66.49    9.70 
   9  -3   5   61.69    9.20 
  -8   3  -5    5.50    5.90 
   8  -3   5    9.00    5.40 
  -7   3  -5  141.49   13.20 
   7  -3   5  128.49   12.80 
  -6   3  -5   24.10    6.10 
   6  -3   5   42.90    5.80 
   6  -3   5   33.90    5.00 
  -5   3  -5   35.70    6.50 
   5  -3   5   44.60    5.40 
   5  -3   5   41.40    5.50 
  -4   3  -5  101.89   10.00 
  -4   3  -5   78.29    8.00 
   4  -3   5   79.69    7.80 
   4  -3   5   92.09    8.10 
  -3   3  -5  148.89   12.00 
  -3   3  -5  145.79   13.70 
   3  -3   5  152.38   11.70 
   3  -3   5  144.19   11.60 
  -2   3  -5   29.00    4.40 
  -2   3  -5   27.10    5.40 
   2  -3   5   27.40    3.70 
   2  -3   5   30.40    3.50 
  -1   3  -5  477.25   37.30 
  -1   3  -5  534.35   36.70 
   1  -3   5  516.65   35.40 
   1  -3   5  535.15   35.90 
   0   3  -5   28.10    4.90 
   0   3  -5   20.40    4.50 
   0  -3   5   33.30    3.70 
   1   3  -5  156.58   13.20 
   1   3  -5  143.29   12.40 
  -1  -3   5  150.38   11.30 
   2   3  -5    1.20    2.50 
   2   3  -5    4.40    4.00 
  -2  -3   5    6.50    2.10 
   3   3  -5    0.30    2.50 
   3   3  -5    1.70    4.30 
  -3  -3   5    3.30    2.00 
   4   3  -5   20.30    3.80 
   4   3  -5   13.50    5.60 
  -4  -3   5   22.20    3.00 
   5   3  -5   21.30    4.00 
   5   3  -5   21.70    6.50 
  -5  -3   5   14.60    2.90 
   6   3  -5  103.19    9.70 
   6   3  -5   96.79   12.90 
  -6  -3   5   98.19    8.40 
   7   3  -5   16.90    4.70 
  -7  -3   5   15.30    9.70 
   8   3  -5   31.60    5.90 
  -8  -3   5   33.20   12.10 
   9   3  -5    1.50    5.10 
  -9  -3   5   14.30   12.10 
  10   3  -5   11.60    5.80 
 -10  -3   5   -7.70   12.30 
 -10   3  -4  100.69   11.40 
  10  -3   4   64.79   10.40 
  -9   3  -4    2.40    5.80 
   9  -3   4   10.30    5.80 
  -8   3  -4   19.00    5.90 
   8  -3   4   17.20    5.70 
  -7   3  -4  112.89   11.10 
   7  -3   4  108.29   10.70 
  -6   3  -4  630.84   46.70 
   6  -3   4  623.54   46.30 
   6  -3   4  735.93   46.20 
  -5   3  -4  386.16   30.50 
   5  -3   4  425.26   30.10 
   5  -3   4  454.15   30.10 
  -4   3  -4 1071.89   71.09 
  -4   3  -4 1006.30   71.99 
   4  -3   4 1077.09   71.49 
   4  -3   4 1013.80   71.19 
  -3   3  -4 1378.76   94.49 
  -3   3  -4 1421.76   93.49 
   3  -3   4 1333.07   93.29 
   3  -3   4 1372.86   93.59 
  -2   3  -4  855.41   56.29 
  -2   3  -4  811.82   57.29 
   2  -3   4  805.02   55.79 
   2  -3   4  803.72   55.99 
  -1   3  -4  339.97   25.50 
  -1   3  -4  347.17   24.50 
   1  -3   4  335.07   23.70 
   1  -3   4  350.26   24.00 
   0   3  -4   40.00    5.50 
   0   3  -4   48.30    5.40 
   0  -3   4   45.10    4.20 
   0  -3   4   41.00    3.70 
   1   3  -4  827.92   57.59 
   1   3  -4  815.82   57.69 
  -1  -3   4  849.52   56.59 
   2   3  -4 1553.84  102.59 
   2   3  -4 1460.95  103.29 
  -2  -3   4 1511.95  101.99 
   3   3  -4 2156.08  139.09 
   3   3  -4 1926.41  140.09 
  -3  -3   4 2071.99  138.49 
   4   3  -4 1698.23  113.49 
   4   3  -4 1637.94  115.19 
  -4  -3   4 1675.63  112.89 
   5   3  -4  985.10   69.79 
   5   3  -4  972.10   67.39 
  -5  -3   4  993.80   66.79 
   6   3  -4  962.00   66.69 
  -6  -3   4  920.91   70.79 
  -6  -3   4 1005.50   65.89 
   7   3  -4   76.19    8.10 
  -7  -3   4   81.99   13.80 
   8   3  -4   12.90    4.60 
  -8  -3   4    5.40    9.40 
   9   3  -4  123.09   11.20 
  -9  -3   4   93.09   18.70 
  10   3  -4  489.35   33.80 
 -10  -3   4  373.96   42.20 
 -10   3  -3   18.40    6.90 
  10  -3   3    8.60    6.30 
  -9   3  -3    7.40    5.70 
   9  -3   3   18.10    6.10 
  -8   3  -3   57.89    7.70 
   8  -3   3   58.99    7.80 
  -7   3  -3   50.79    6.40 
   7  -3   3   35.80    6.20 
  -6   3  -3   83.59    8.80 
   6  -3   3   92.09    8.90 
   6  -3   3  101.69    8.30 
  -5   3  -3    4.20    3.40 
   5  -3   3    7.10    3.20 
   5  -3   3    5.50    2.70 
  -4   3  -3   13.60    3.90 
  -4   3  -3   19.40    2.90 
   4  -3   3   21.80    3.60 
   4  -3   3   20.90    3.40 
  -3   3  -3   25.40    4.30 
  -3   3  -3   24.30    3.10 
   3  -3   3   24.00    3.40 
   3  -3   3   25.30    3.70 
  -2   3  -3   58.89    5.50 
  -2   3  -3   57.09    6.50 
   2  -3   3   59.49    5.30 
   2  -3   3   59.69    5.50 
  -1   3  -3   59.99    7.00 
  -1   3  -3   55.49    5.70 
   1  -3   3   63.49    5.20 
   1  -3   3   73.39    5.70 
   0   3  -3  142.29   11.20 
   0   3  -3  155.28   12.20 
   0  -3   3  144.49   10.60 
   0  -3   3  142.19   10.20 
   1   3  -3  153.68   12.00 
   1   3  -3  138.19   11.80 
  -1  -3   3  150.08   10.80 
   2   3  -3   26.80    4.50 
   2   3  -3   37.40    4.10 
  -2  -3   3   31.50    3.20 
   3   3  -3    4.00    3.50 
   3   3  -3    5.90    2.40 
  -3  -3   3    5.50    1.60 
   4   3  -3   13.70    2.50 
   4   3  -3    5.60    2.80 
   4   3  -3    3.80    4.20 
  -4  -3   3   10.90    2.00 
   5   3  -3   24.50    4.00 
   5   3  -3   36.50    4.10 
  -5  -3   3   21.40    7.10 
  -5  -3   3   25.50    3.00 
   6   3  -3   10.00    3.50 
   6   3  -3   16.60    3.50 
  -6  -3   3    9.80    2.20 
  -6  -3   3   10.10    7.00 
   7   3  -3    6.60    3.70 
  -7  -3   3   15.30    8.70 
   8   3  -3    1.20    4.00 
  -8  -3   3   11.80    9.50 
   9   3  -3   -3.50    4.40 
  -9  -3   3   -3.50   10.20 
  10   3  -3   12.10    5.60 
 -10  -3   3   -1.10   10.50 
  11   3  -3    8.00    6.50 
 -11  -3   3   18.20   13.30 
 -10   3  -2  190.68   18.50 
  10  -3   2  213.88   18.90 
  -9   3  -2  395.76   30.20 
   9  -3   2  399.06   30.20 
  -8   3  -2  100.19   10.30 
   8  -3   2  111.39   10.90 
  -7   3  -2   30.20    5.20 
   7  -3   2   27.20    5.20 
  -6   3  -2  114.19   10.50 
   6  -3   2  118.19   10.70 
   6  -3   2  118.59    9.50 
  -5   3  -2 1877.11  126.89 
   5  -3   2 1882.61  126.69 
   5  -3   2 1855.71  126.89 
  -4   3  -2 1801.72  116.49 
  -4   3  -2 1688.93  117.09 
   4  -3   2 1718.13  117.09 
   4  -3   2 1692.63  116.99 
  -3   3  -2 2225.88  147.59 
  -3   3  -2 2318.57  146.89 
   3  -3   2 2055.49  147.39 
   3  -3   2 2108.79  147.19 
  -2   3  -2 2429.36  158.28 
  -2   3  -2 2444.56  157.48 
   2  -3   2 2258.47  157.48 
   2  -3   2 2212.88  157.78 
  -1   3  -2 1225.18   80.59 
  -1   3  -2 1174.78   81.39 
   1  -3   2 1176.28   80.59 
   1  -3   2 1176.98   80.39 
   0   3  -2  599.74   42.70 
   0   3  -2  622.64   42.00 
   0  -3   2  576.74   41.40 
   0  -3   2  639.34   41.70 
   1   3  -2    2.20    2.20 
   1   3  -2    2.10    2.20 
  -1  -3   2    0.50    1.30 
   2   3  -2  965.40   62.09 
   2   3  -2  837.22   62.59 
  -2  -3   2  917.31   61.49 
   3   3  -2 2228.38  137.69 
   3   3  -2 2022.60  138.39 
   3   3  -2 1867.91  139.29 
  -3  -3   2 2046.50  137.89 
   4   3  -2 3042.30  188.48 
   4   3  -2 2665.03  188.88 
  -4  -3   2 2614.44  191.08 
  -4  -3   2 2845.42  188.38 
   5   3  -2 2270.37  161.58 
   5   3  -2 2558.94  161.28 
  -5  -3   2 2320.77  164.58 
  -5  -3   2 2399.66  160.98 
   6   3  -2  714.63   51.99 
   6   3  -2  800.22   51.79 
  -6  -3   2  752.02   51.19 
  -6  -3   2  742.73   56.39 
   7   3  -2  701.93   51.89 
   7   3  -2  812.42   51.89 
  -7  -3   2  717.73   57.19 
   8   3  -2  109.09    9.80 
   8   3  -2  100.29    9.80 
  -8  -3   2   87.09   16.20 
   9   3  -2    0.70    4.50 
  -9  -3   2    1.60    9.80 
  10   3  -2   14.30    5.70 
 -10  -3   2   21.40   12.20 
  11   3  -2  144.19   13.80 
 -11  -3   2  120.79   21.80 
 -10   3  -1    1.60    5.90 
  10  -3   1    4.40    5.60 
  -9   3  -1   21.70    6.30 
   9  -3   1   31.10    6.60 
  -8   3  -1   18.60    5.50 
   8  -3   1   41.00    6.20 
  -7   3  -1    7.30    4.00 
   7  -3   1   13.10    4.30 
   7  -3   1    6.90    2.30 
  -6   3  -1  114.89   10.10 
   6  -3   1  113.09    8.80 
   6  -3   1  104.69   10.10 
  -5   3  -1   12.80    3.20 
   5  -3   1    9.50    3.00 
   5  -3   1    8.70    2.50 
  -4   3  -1   16.90    3.20 
  -4   3  -1   31.30    2.90 
   4  -3   1   24.80    3.30 
   4  -3   1   19.10    3.40 
  -3   3  -1   10.40    2.50 
   3  -3   1    5.60    2.20 
   3  -3   1   12.80    2.50 
  -2   3  -1   -0.10    1.90 
   2  -3   1    1.00    1.70 
   2  -3   1    1.80    1.80 
  -1   3  -1   65.89    5.40 
  -1   3  -1   64.59    6.50 
   1  -3   1   72.79    5.90 
   1  -3   1   71.39    5.70 
   0   3  -1   12.40    2.20 
   0   3  -1   13.40    2.70 
   0  -3   1    9.60    1.60 
   0  -3   1   13.70    2.00 
   1   3  -1  190.98   13.40 
   1   3  -1  182.78   14.30 
  -1  -3   1  204.58   13.70 
   2   3  -1   16.90    1.80 
   2   3  -1   16.60    2.80 
  -2  -3   1   17.40    4.00 
  -2  -3   1   20.20    2.20 
   3   3  -1  102.09    8.30 
   3   3  -1  105.89    7.40 
  -3  -3   1   97.39    7.40 
  -3  -3   1  100.09   10.10 
   4   3  -1    0.30    1.40 
   4   3  -1    1.20    2.00 
  -4  -3   1   -9.50    3.10 
  -4  -3   1    1.50    1.10 
   5   3  -1   33.10    3.70 
   5   3  -1   26.10    4.00 
  -5  -3   1   38.50    3.20 
  -5  -3   1   35.40    7.80 
   6   3  -1   43.80    4.40 
   6   3  -1   28.60    4.40 
  -6  -3   1   42.00    9.20 
   7   3  -1   85.79    8.30 
   7   3  -1   85.39    8.40 
  -7  -3   1   89.29   13.80 
   8   3  -1   29.50    5.10 
   8   3  -1   39.20    5.60 
  -8  -3   1   38.10   11.60 
   9   3  -1   -1.30    4.10 
   9   3  -1    4.30    4.40 
  -9  -3   1    3.50    9.70 
  10   3  -1    2.30    5.10 
  10   3  -1    1.30    4.90 
 -10  -3   1   15.50   11.40 
  11   3  -1   22.10    6.80 
 -11  -3   1   25.80   13.90 
 -10   3   0  222.08   20.20 
  10  -3   0  240.18   20.30 
  -9   3   0  251.17   20.90 
   9  -3   0  261.47   21.10 
  -8   3   0  537.75   39.00 
   8  -3   0  552.94   39.30 
  -7   3   0  376.36   29.20 
   7  -3   0  421.96   28.10 
   7  -3   0  413.06   29.70 
  -6   3   0  118.19   10.40 
   6  -3   0  125.59    9.20 
   6  -3   0  109.59   10.60 
  -5   3   0   22.40    3.40 
   5  -3   0    8.60    3.20 
   5  -3   0   11.90    2.40 
  -4   3   0  799.72   56.09 
   4  -3   0  875.71   55.99 
   4  -3   0  787.52   56.29 
  -3   3   0 2329.67  155.78 
   3  -3   0 2328.57  155.88 
   3  -3   0 2270.17  155.88 
  -2   3   0 3753.02  229.08 
   2  -3   0 3408.76  228.98 
   2  -3   0 3036.70  228.88 
  -1   3   0 4537.15  266.37 
   1  -3   0 3421.46  265.97 
   1  -3   0 3904.21  265.97 
   0   3   0 3258.67  209.98 
   0   3   0 3146.19  210.28 
   0  -3   0 2730.03  209.78 
   0  -3   0 3324.27  210.08 
   1   3   0 2063.99  142.89 
  -1  -3   0 1981.60  142.99 
  -1  -3   0 2328.37  143.89 
   2   3   0  696.63   46.60 
   2   3   0  706.33   47.10 
  -2  -3   0  661.03   46.80 
  -2  -3   0  685.03   48.20 
   3   3   0   13.60    2.40 
   3   3   0   10.00    1.60 
  -3  -3   0   35.50    5.40 
  -3  -3   0   11.10    1.70 
   4   3   0  690.13   44.50 
   4   3   0  649.14   44.80 
  -4  -3   0  629.44   44.20 
  -4  -3   0  640.04   47.10 
   5   3   0 2177.78  137.99 
   5   3   0 2092.49  138.29 
  -5  -3   0 1921.21  137.49 
  -5  -3   0 1983.10  140.99 
   6   3   0 2762.82  177.28 
   6   3   0 2647.94  177.48 
  -6  -3   0 2437.46  180.68 
   7   3   0 1323.67   92.99 
   7   3   0 1409.76   92.99 
  -7  -3   0 1362.86   97.29 
   8   3   0  831.22   59.39 
   8   3   0  866.71   59.39 
  -8  -3   0  897.51   65.19 
   9   3   0  254.67   19.70 
   9   3   0  252.17   19.70 
  -9  -3   0  241.88   27.10 
  10   3   0    9.90    5.30 
  10   3   0    6.70    4.90 
 -10  -3   0    7.10   10.70 
  11   3   0   12.10    6.00 
  11   3   0   -7.00    5.50 
 -11  -3   0   -5.50   11.70 
 -10   3   1    1.80    6.20 
  10  -3  -1   -6.60    5.50 
  -9   3   1   -1.90    5.20 
   9  -3  -1    0.90    5.00 
  -8   3   1    2.80    4.50 
   8  -3  -1   -0.30    4.20 
  -7   3   1    7.60    3.90 
   7  -3  -1    5.20    2.10 
   7  -3  -1    6.80    4.00 
  -6   3   1   20.10    3.90 
   6  -3  -1   20.30    2.70 
   6  -3  -1   21.40    4.50 
  -5   3   1   -0.80    2.30 
   5  -3  -1    4.00    1.70 
   5  -3  -1   -0.70    2.60 
  -4   3   1   72.59    6.90 
  -4   3   1   80.29    6.60 
   4  -3  -1   88.39    6.50 
   4  -3  -1   78.39    7.60 
  -3   3   1   48.60    4.80 
   3  -3  -1   52.59    5.10 
   3  -3  -1   49.40    4.50 
  -2   3   1   10.30    1.90 
   2  -3  -1    9.30    1.80 
   2  -3  -1   10.40    2.30 
  -1   3   1  195.08   16.00 
   1  -3  -1  259.47   16.00 
   1  -3  -1  245.18   15.50 
   1  -3  -1  189.38   16.10 
   0   3   1  882.51   61.49 
   0   3   1  814.62   61.39 
   0  -3  -1  897.51   61.09 
   0  -3  -1 1002.90   61.19 
   1   3   1 1537.75  110.09 
   1   3   1 1701.83  110.39 
  -1  -3  -1 1735.03  109.99 
  -1  -3  -1 1545.45  110.49 
   2   3   1  527.65   36.30 
   2   3   1  547.75   36.40 
  -2  -3  -1  468.55   37.30 
  -2  -3  -1  571.94   36.30 
   3   3   1  307.17   21.50 
   3   3   1  298.37   21.70 
  -3  -3  -1  297.07   23.40 
  -3  -3  -1  331.17   21.40 
   4   3   1   45.60    4.30 
   4   3   1   39.90    4.10 
  -4  -3  -1   45.90    7.10 
   5   3   1   64.19    6.00 
   5   3   1   65.19    6.40 
  -5  -3  -1   73.49    9.50 
   6   3   1  126.89   10.30 
   6   3   1  128.79   10.00 
  -6  -3  -1  112.79   13.40 
   7   3   1  136.29   11.30 
   7   3   1  136.99   11.50 
  -7  -3  -1  152.88   16.80 
   8   3   1   30.40    4.90 
   8   3   1   31.80    5.10 
  -8  -3  -1   35.70    9.60 
   9   3   1   51.19    6.50 
   9   3   1   45.00    6.70 
  -9  -3  -1   51.69   12.40 
  10   3   1   13.30    5.20 
  10   3   1   12.30    5.40 
 -10  -3  -1    0.60    9.70 
  11   3   1    9.40    5.60 
 -11  -3  -1    7.00   11.00 
 -10   3   2  519.65   38.20 
  10  -3  -2  505.95   38.40 
  -9   3   2  533.45   37.60 
   9  -3  -2  497.85   37.80 
  -8   3   2  566.24   39.60 
   8  -3  -2  538.85   39.70 
  -7   3   2  843.92   59.69 
   7  -3  -2  839.32   60.09 
   7  -3  -2  902.51   58.79 
  -6   3   2  340.97   25.60 
   6  -3  -2  387.86   24.80 
   6  -3  -2  331.07   25.90 
  -5   3   2  213.68   17.30 
  -5   3   2  203.88   15.90 
   5  -3  -2  230.28   15.40 
   5  -3  -2  215.08   16.50 
  -4   3   2    1.00    2.00 
  -4   3   2    8.00    3.90 
   4  -3  -2    4.10    1.60 
   4  -3  -2   15.80    3.00 
  -3   3   2  313.97   22.00 
   3  -3  -2  314.07   21.80 
   3  -3  -2  317.87   22.50 
  -2   3   2 2278.17  148.59 
   2  -3  -2 2155.08  149.09 
   2  -3  -2 2227.28  148.49 
   2  -3  -2 2159.18  148.49 
  -1   3   2 3413.16  232.88 
  -1   3   2 3445.06  231.88 
   1  -3  -2 3250.37  231.78 
   1  -3  -2 3674.63  231.88 
   0   3   2 3105.19  204.08 
   0   3   2 3050.29  203.68 
   0  -3  -2 2826.62  203.48 
   0  -3  -2 3106.39  203.28 
   1   3   2 2262.37  134.59 
   1   3   2 1976.00  134.99 
  -1  -3  -2 1989.50  134.29 
  -1  -3  -2 1754.12  134.89 
   2   3   2  937.11   63.09 
   2   3   2  947.71   63.39 
  -2  -3  -2  896.21   64.09 
  -2  -3  -2  946.41   62.89 
   3   3   2  247.18   17.60 
   3   3   2  264.57   17.70 
  -3  -3  -2  251.97   19.20 
  -3  -3  -2  247.48   17.10 
   4   3   2   -0.60    1.70 
   4   3   2    1.00    1.60 
  -4  -3  -2   -0.70    3.10 
   5   3   2   72.69    6.20 
   5   3   2   62.99    6.00 
  -5  -3  -2   60.99    8.80 
   6   3   2  329.37   23.20 
   6   3   2  313.77   23.10 
  -6  -3  -2  346.17   26.50 
   7   3   2 1051.69   73.69 
   7   3   2 1064.29   73.69 
  -7  -3  -2 1139.69   77.19 
   8   3   2  654.03   45.40 
   8   3   2  642.94   45.30 
  -8  -3  -2  652.53   49.20 
   9   3   2  518.95   36.60 
   9   3   2  490.45   36.40 
  -9  -3  -2  538.75   41.20 
  10   3   2  230.88   19.30 
 -10  -3  -2  252.77   25.70 
  11   3   2   13.40    5.80 
 -11  -3  -2    8.60   10.40 
 -11  -3  -2   14.30    6.80 
 -10   3   3    1.10    6.20 
  10  -3  -3    0.60    5.80 
  -9   3   3    1.90    5.20 
   9  -3  -3   -2.10    4.70 
  -8   3   3    0.00    4.40 
   8  -3  -3    4.10    4.30 
  -7   3   3    4.60    3.80 
   7  -3  -3    2.10    2.20 
   7  -3  -3   -0.30    3.60 
  -6   3   3    0.60    3.00 
   6  -3  -3    1.20    1.80 
   6  -3  -3   -4.10    3.10 
  -5   3   3    2.20    2.40 
   5  -3  -3   -1.20    1.50 
   5  -3  -3   -2.90    2.60 
  -4   3   3   10.50    2.50 
   4  -3  -3   11.40    2.00 
   4  -3  -3   11.50    3.30 
   4  -3  -3   16.90    4.40 
  -3   3   3    1.00    1.60 
   3  -3  -3    5.70    1.50 
   3  -3  -3   10.30    2.60 
   3  -3  -3    1.40    2.50 
  -2   3   3   18.70    4.00 
  -2   3   3   21.20    2.30 
   2  -3  -3   19.80    2.20 
   2  -3  -3   15.30    2.40 
  -1   3   3   16.70    3.50 
  -1   3   3   19.20    2.20 
   1  -3  -3   20.80    2.20 
   1  -3  -3   22.90    2.60 
   0   3   3    2.40    1.90 
   0   3   3    0.80    1.20 
   0  -3  -3    0.40    1.30 
   0  -3  -3   -1.50    0.80 
   1   3   3    1.20    1.60 
   1   3   3    1.50    0.80 
  -1  -3  -3    1.00    0.80 
  -1  -3  -3    2.20    1.60 
   2   3   3    2.20    1.10 
   2   3   3    1.70    1.50 
  -2  -3  -3   -1.10    1.70 
  -2  -3  -3    1.90    0.80 
   3   3   3   51.19    4.40 
   3   3   3   55.19    4.80 
  -3  -3  -3   51.89    3.80 
  -3  -3  -3   48.90    6.10 
   4   3   3   81.89    6.80 
   4   3   3   81.69    6.70 
  -4  -3  -3   92.89    9.30 
   5   3   3   79.19    6.60 
   5   3   3   67.59    6.40 
  -5  -3  -3   68.49    8.80 
   6   3   3   85.89    8.10 
   6   3   3   80.99    7.80 
  -6  -3  -3  119.49   11.80 
   7   3   3   12.50    3.50 
   7   3   3   13.70    3.50 
  -7  -3  -3   16.40    6.40 
   8   3   3    4.10    3.50 
   8   3   3    8.60    3.80 
  -8  -3  -3    8.70    6.60 
   9   3   3   -2.50    3.80 
  -9  -3  -3    3.30    7.00 
  10   3   3    6.70    4.60 
 -10  -3  -3    2.60    8.00 
 -10  -3  -3   10.30    5.60 
  11   3   3   11.20    5.70 
 -11  -3  -3   10.30    9.40 
 -11  -3  -3   11.90    6.90 
 -10   3   4   42.10    8.70 
  10  -3  -4   56.09    9.10 
  -9   3   4  129.39   13.50 
   9  -3  -4  158.28   14.60 
  -8   3   4  497.65   35.90 
   8  -3  -4  492.95   36.30 
  -7   3   4  649.24   47.00 
   7  -3  -4  707.83   46.00 
   7  -3  -4  646.74   47.60 
  -6   3   4 1292.67   87.69 
   6  -3  -4 1323.07   88.49 
   6  -3  -4 1245.08   86.99 
  -5   3   4  793.72   56.59 
   5  -3  -4  850.41   57.59 
   5  -3  -4  838.92   56.19 
  -4   3   4  546.35   41.10 
   4  -3  -4  578.14   40.90 
   4  -3  -4  632.24   42.40 
   4  -3  -4  664.13   42.50 
  -3   3   4  108.79   10.90 
  -3   3   4  105.29    8.30 
   3  -3  -4  106.69    8.20 
   3  -3  -4  119.39    9.50 
  -2   3   4    3.30    3.50 
  -2   3   4    7.40    1.50 
   2  -3  -4    5.50    2.10 
   2  -3  -4    4.00    1.40 
  -1   3   4  566.74   39.20 
  -1   3   4  523.55   40.80 
   1  -3  -4  595.34   39.40 
   1  -3  -4  616.14   39.90 
   0   3   4 1949.01  144.29 
   0  -3  -4 2197.78  143.29 
   0  -3  -4 2227.38  143.99 
   1   3   4 3147.29  219.38 
  -1  -3  -4 3171.18  219.28 
  -1  -3  -4 3422.06  218.48 
   2   3   4 3288.47  214.28 
   2   3   4 3161.28  213.28 
  -2  -3  -4 3230.68  213.28 
  -2  -3  -4 3014.80  214.38 
   3   3   4 1584.94  108.69 
   3   3   4 1679.13  109.29 
  -3  -3  -4 1581.34  109.99 
  -3  -3  -4 1609.54  108.49 
   4   3   4  463.95   32.80 
   4   3   4  490.45   32.40 
   4   3   4  475.25   33.10 
  -4  -3  -4  482.35   34.50 
   5   3   4    3.90    2.30 
   5   3   4    2.70    2.40 
  -5  -3  -4    8.60    4.10 
   6   3   4   88.89    8.00 
   6   3   4   90.09    8.50 
  -6  -3  -4  107.39   10.90 
   7   3   4   65.89    6.90 
  -7  -3  -4   74.99    9.80 
   8   3   4  479.55   35.00 
  -8  -3  -4  488.25   35.30 
  -8  -3  -4  522.65   38.00 
   9   3   4  310.17   24.30 
  -9  -3  -4  355.16   28.00 
  -9  -3  -4  323.27   24.70 
  10   3   4  215.98   18.90 
 -10  -3  -4  272.47   23.60 
 -10  -3  -4  230.28   19.70 
  11   3   4  190.88   18.30 
 -11  -3  -4  274.87   30.50 
 -11  -3  -4  238.18   19.90 
 -10   3   5   -1.70    6.90 
  10  -3  -5    4.60    6.20 
  -9   3   5    6.00    5.80 
   9  -3  -5   -0.70    5.70 
  -8   3   5    8.30    5.30 
   8  -3  -5    9.40    5.60 
   8  -3  -5   13.00    3.30 
  -7   3   5   -4.40    3.70 
   7  -3  -5    6.90    2.60 
   7  -3  -5    2.80    4.90 
  -6   3   5   19.40    4.30 
   6  -3  -5   23.40    5.50 
   6  -3  -5   15.90    3.00 
   6  -3  -5   34.90    8.50 
  -5   3   5   49.40    5.60 
   5  -3  -5   65.59    8.40 
   5  -3  -5   55.79    5.10 
  -4   3   5  249.08   21.90 
  -4   3   5  256.47   19.10 
   4  -3  -5  296.57   20.90 
   4  -3  -5  273.67   18.90 
  -3   3   5   38.00    6.70 
  -3   3   5   29.10    3.20 
   3  -3  -5   34.40    3.30 
   3  -3  -5   23.10    4.20 
  -2   3   5  209.28   17.70 
  -2   3   5  215.38   14.80 
   2  -3  -5  206.98   15.90 
   2  -3  -5  218.28   15.10 
  -1   3   5  159.58   13.40 
   1  -3  -5  160.58   12.20 
   1  -3  -5  156.18   11.30 
   0   3   5   82.59    8.20 
   0  -3  -5   77.59    6.00 
   0  -3  -5   72.49    7.20 
   1   3   5  507.45   37.90 
  -1  -3  -5  543.95   37.80 
  -1  -3  -5  555.94   36.60 
   2   3   5  489.25   35.60 
  -2  -3  -5  544.95   34.40 
  -2  -3  -5  504.35   34.50 
  -2  -3  -5  474.35   35.70 
   3   3   5   64.39    6.40 
  -3  -3  -5   68.29    5.50 
  -3  -3  -5   70.69    7.40 
   4   3   5  165.68   11.60 
   4   3   5  161.88   12.60 
  -4  -3  -5  162.58   12.10 
  -4  -3  -5  172.28   14.00 
   5   3   5   93.99    8.30 
  -5  -3  -5   89.99    7.80 
  -5  -3  -5   86.99    9.60 
   6   3   5    6.50    3.40 
  -6  -3  -5   12.50    5.00 
  -6  -3  -5    8.50    3.10 
   7   3   5  133.19   11.90 
  -7  -3  -5  148.49   11.90 
  -7  -3  -5  138.69   14.30 
   8   3   5    2.00    3.60 
  -8  -3  -5    1.10    5.70 
  -8  -3  -5   -3.20    3.80 
   9   3   5   -0.50    4.10 
  -9  -3  -5    6.50    6.80 
  -9  -3  -5    7.80    4.80 
  10   3   5   -5.50    4.50 
 -10  -3  -5    1.60    5.40 
 -10  -3  -5   -3.90    6.90 
  11   3   5    5.20    5.40 
 -11  -3  -5   -5.30    5.90 
   8  -3  -6   19.40    3.80 
  -7   3   6  242.28   23.40 
   7  -3  -6  263.97   18.70 
  -6   3   6  380.46   35.10 
   6  -3  -6  581.44   36.80 
   6  -3  -6  446.16   31.90 
  -5   3   6  586.54   50.79 
  -5   3   6  693.63   48.40 
   5  -3  -6  814.22   50.59 
   5  -3  -6  688.83   47.70 
  -4   3   6  646.94   50.69 
  -4   3   6  685.93   47.70 
   4  -3  -6  722.43   49.30 
   4  -3  -6  709.03   47.50 
  -3   3   6  295.07   24.40 
  -3   3   6  293.67   21.20 
   3  -3  -6  304.27   22.50 
   3  -3  -6  309.27   21.10 
  -2   3   6   19.60    5.20 
   2  -3  -6   21.10    4.00 
   2  -3  -6   18.40    2.60 
  -1   3   6    3.00    3.30 
   1  -3  -6   -1.00    2.40 
   1  -3  -6    1.00    1.60 
   0   3   6   52.59    6.60 
   0  -3  -6   56.29    6.10 
   0  -3  -6   51.99    4.60 
   1   3   6  247.78   18.80 
  -1  -3  -6  240.78   17.10 
  -1  -3  -6  250.37   18.50 
   2   3   6  573.54   39.40 
  -2  -3  -6  553.54   39.60 
  -2  -3  -6  555.74   38.10 
   3   3   6  877.41   59.59 
   3   3   6  857.71   60.39 
  -3  -3  -6  804.52   60.99 
  -3  -3  -6  956.20   59.49 
   4   3   6  764.42   51.49 
   4   3   6  751.22   52.39 
  -4  -3  -6  711.93   53.29 
  -4  -3  -6  799.82   51.79 
   5   3   6  463.45   33.80 
  -5  -3  -6  455.95   35.00 
  -5  -3  -6  512.85   33.30 
   6   3   6   53.39    6.60 
  -6  -3  -6   64.59    8.80 
  -6  -3  -6   75.79    6.70 
   7   3   6   -1.00    3.40 
  -7  -3  -6    3.30    3.50 
  -7  -3  -6    1.90    5.10 
   8   3   6    8.00    4.30 
  -8  -3  -6    8.90    4.30 
  -8  -3  -6    7.00    6.10 
   9   3   6   20.30    5.50 
  -9  -3  -6   19.80    5.60 
  -9  -3  -6   27.10    8.20 
  10   3   6   71.49    9.60 
 -10  -3  -6  107.79   14.20 
 -10  -3  -6  104.59   10.80 
  -8   3   7    9.90    8.30 
   8  -3  -7   -1.60    3.20 
  -7   3   7   12.60    8.20 
   7  -3  -7   10.10    3.20 
  -6   3   7   27.50    8.80 
   6  -3  -7   54.19    9.60 
   6  -3  -7   35.20    4.40 
  -5   3   7   34.60    8.40 
   5  -3  -7   24.10    6.70 
   5  -3  -7   28.40    3.80 
  -4   3   7   51.49    9.30 
   4  -3  -7   49.60    7.40 
   4  -3  -7   49.60    4.90 
  -3   3   7  135.09   14.80 
   3  -3  -7  155.58   13.00 
   3  -3  -7  143.69   11.00 
  -2   3   7    3.10    4.30 
   2  -3  -7    3.40    1.90 
   2  -3  -7    3.50    3.40 
  -1   3   7   86.69   10.00 
   1  -3  -7   90.29    9.00 
   1  -3  -7   92.59    7.30 
   0   3   7  205.28   17.30 
   0  -3  -7  212.88   16.50 
   0  -3  -7  213.98   15.10 
   1   3   7   -0.60    3.30 
  -1  -3  -7    5.50    3.10 
  -1  -3  -7    2.90    1.70 
   2   3   7  252.07   17.30 
   2   3   7  250.57   18.50 
  -2  -3  -7  219.78   18.70 
   3   3   7   15.80    3.70 
   3   3   7   15.80    2.50 
  -3  -3  -7    8.70    4.20 
   4   3   7   -0.30    1.70 
   4   3   7    5.80    3.20 
  -4  -3  -7   -2.90    3.60 
  -4  -3  -7   -1.60    2.70 
   5   3   7   20.30    4.40 
  -5  -3  -7   28.80    3.80 
  -5  -3  -7   19.70    5.60 
   6   3   7   69.59    7.90 
  -6  -3  -7   71.79    9.50 
  -6  -3  -7   86.79    7.50 
   7   3   7   48.00    6.90 
  -7  -3  -7   62.29    6.60 
  -7  -3  -7   46.40    8.50 
   8   3   7   30.20    6.00 
  -8  -3  -7   48.20    6.40 
  -8  -3  -7   44.50    8.90 
   9   3   7   33.90    6.70 
  -9  -3  -7   60.09    7.80 
  -9  -3  -7   49.30    9.70 
  10   3   7    9.00    5.50 
 -10  -3  -7    6.50    7.50 
 -10  -3  -7    1.90    5.80 
   7  -3  -8    1.20    3.20 
  -6   3   8   88.69   14.20 
   6  -3  -8  113.49    9.90 
   6  -3  -8  144.59   15.00 
  -5   3   8  180.28   20.10 
   5  -3  -8  215.38   15.80 
   5  -3  -8  232.98   19.50 
  -4   3   8  446.36   36.70 
   4  -3  -8  508.65   35.80 
   4  -3  -8  474.55   33.20 
  -3   3   8  559.74   43.00 
   3  -3  -8  601.04   42.10 
   3  -3  -8  583.64   40.10 
  -2   3   8  538.15   40.00 
   2  -3  -8  519.85   37.20 
   2  -3  -8  567.24   39.00 
  -1   3   8   91.19   10.50 
   1  -3  -8   97.99    7.80 
   1  -3  -8   90.79    9.60 
   0   3   8    6.50    4.30 
   0  -3  -8    5.40    3.70 
   1   3   8   78.49    7.00 
   1   3   8   72.89    8.50 
  -1  -3  -8   69.29    8.20 
   2   3   8  171.28   14.10 
   2   3   8  171.08   12.40 
  -2  -3  -8  149.19   14.10 
   3   3   8  293.17   21.00 
   3   3   8  298.67   19.90 
  -3  -3  -8  236.28   21.60 
   4   3   8  293.87   19.60 
   4   3   8  275.77   20.80 
  -4  -3  -8  246.98   21.90 
   5   3   8  226.78   17.40 
  -5  -3  -8  203.88   18.60 
   6   3   8  213.18   17.70 
  -6  -3  -8  231.08   19.80 
   7   3   8   19.70    5.30 
  -7  -3  -8   17.80    6.70 
   8   3   8   -1.50    4.40 
  -8  -3  -8    7.20    6.50 
   9   3   8   42.90    7.40 
  -9  -3  -8   53.19   10.40 
  -7   3   9   13.10    5.10 
  -6   3   9   26.80    5.50 
   6  -3  -9   32.80    9.00 
   5  -3  -9    1.30    6.00 
  -4   3   9   15.50    7.10 
   4  -3  -9   26.20    6.70 
  -3   3   9   13.00    6.50 
   3  -3  -9    3.20    4.80 
  -2   3   9   12.20    5.60 
  -2   3   9    2.20    3.10 
   2  -3  -9   -2.40    4.30 
  -1   3   9   44.10    7.70 
  -1   3   9   43.50    5.20 
   1  -3  -9   42.60    6.90 
   0   3   9  101.19    8.60 
   0   3   9   84.89   10.20 
   0  -3  -9   93.09    9.90 
   1   3   9   41.50    6.80 
   1   3   9   46.70    5.00 
  -1  -3  -9   40.30    6.50 
   2   3   9   58.89    7.40 
   2   3   9   62.59    6.10 
  -2  -3  -9   66.49    8.30 
   3   3   9   14.80    4.50 
   3   3   9   17.10    3.30 
  -3  -3  -9   10.90    4.90 
   4   3   9    4.70    2.80 
   4   3   9    3.10    3.90 
  -4  -3  -9   -2.30    4.40 
   5   3   9   -2.70    4.10 
  -5  -3  -9    0.60    5.00 
   6   3   9   11.70    4.90 
  -6  -3  -9   -5.90    5.70 
   7   3   9   14.20    5.50 
  -7  -3  -9   14.20    7.30 
   8   3   9   -3.50    5.00 
  -8  -3  -9   -3.10    6.50 
   9   3   9   20.00    6.50 
  -9  -3  -9    8.90    7.90 
  -7   3  10   -1.50    4.80 
  -6   3  10    0.20    4.40 
   6  -3 -10   -1.30    8.00 
  -5   3  10   26.00    5.40 
   5  -3 -10   26.50    8.10 
  -4   3  10   27.20    5.40 
   4  -3 -10   33.90    7.90 
  -3   3  10   43.10    6.10 
   3  -3 -10   48.50    8.40 
  -2   3  10   97.89    9.20 
  -2   3  10  134.19   14.00 
   2  -3 -10   92.09   11.20 
  -1   3  10  224.58   16.50 
  -1   3  10  214.48   18.70 
   1  -3 -10  197.18   18.20 
   0   3  10  140.09   10.80 
   0   3  10  125.99   12.50 
   0  -3 -10   98.19   11.80 
   1   3  10   35.50    6.70 
   1   3  10   50.69    5.60 
  -1  -3 -10   36.20    6.70 
   2   3  10   -3.00    3.00 
   2   3  10    0.50    4.20 
  -2  -3 -10   -1.30    4.50 
   3   3  10   11.50    3.50 
   3   3  10    7.30    4.50 
  -3  -3 -10   12.10    5.40 
   4   3  10   21.80    5.60 
   4   3  10   27.50    4.50 
  -4  -3 -10   25.50    6.50 
   5   3  10   29.90    6.40 
  -5  -3 -10   40.00    7.90 
   6   3  10   18.20    6.00 
  -6  -3 -10   12.40    6.30 
   7   3  10   64.19    8.80 
  -7  -3 -10   75.29   11.00 
   8   3  10   40.00    8.10 
  -8  -3 -10   63.39   10.50 
  -5   3  11   45.80    6.90 
   5  -3 -11   43.90   10.20 
  -4   3  11    6.10    4.70 
   4  -3 -11    5.70    6.70 
  -3   3  11   20.60    5.20 
   3  -3 -11   17.30    7.20 
  -2   3  11   -0.10    3.80 
   2  -3 -11   -0.40    5.40 
  -1   3  11   -0.10    3.70 
   1  -3 -11    2.00    5.30 
   0   3  11   17.60    4.60 
   0  -3 -11   12.00    6.00 
   1   3  11   28.40    4.90 
   1   3  11   30.00    6.20 
  -1  -3 -11   19.10    6.30 
   2   3  11   77.09    8.80 
   2   3  11   80.29    7.60 
  -2  -3 -11   51.19    8.60 
   3   3  11   17.10    4.30 
   3   3  11    7.70    5.20 
  -3  -3 -11    6.80    5.60 
   4   3  11   52.29    7.80 
  -4  -3 -11   56.29    8.80 
   5   3  11    6.50    5.40 
  -5  -3 -11    1.60    5.90 
   6   3  11   -6.80    5.30 
  -6  -3 -11    4.80    6.10 
   7   3  11    5.50    6.00 
  -7  -3 -11   -6.60    6.40 
  -4   3  12   12.00    5.40 
   4  -3 -12   -1.80    7.20 
  -3   3  12   89.99    9.30 
   3  -3 -12   67.59   11.40 
  -2   3  12   16.50    5.20 
   2  -3 -12    3.60    6.60 
  -1   3  12   35.90    5.90 
   1  -3 -12   18.70    7.20 
   0   3  12   44.00    6.20 
   0  -3 -12   34.40    7.90 
   1   3  12   21.90    5.10 
  -1  -3 -12   24.50    7.40 
   2   3  12   22.20    5.00 
  -2  -3 -12    5.20    6.10 
   3   3  12    3.70    4.40 
  -3  -3 -12    5.50    6.00 
   4   3  12   19.00    6.40 
  -4  -3 -12   15.20    7.00 
   5   3  12   12.10    6.20 
  -5  -3 -12    4.00    6.10 
  -1   3  13    2.40    4.90 
   1  -3 -13   -2.60    6.60 
   0   3  13   -5.60    4.50 
   0  -3 -13   -5.20    6.40 
   1   3  13    6.30    5.10 
  -1  -3 -13    7.70    6.40 
   2   3  13   12.40    5.30 
  -2  -3 -13   -3.40    6.40 
   3   3  13   24.60    6.00 
  -3  -3 -13    9.80    8.00 
   1  -4  11   56.09    8.80 
   0   4 -11   57.99   11.70 
   0  -4  11   62.29    8.90 
   1   4 -11   29.70   10.30 
  -1  -4  11   35.20    7.70 
   4  -4  10  195.78   18.20 
   3  -4  10   41.30    7.60 
   2  -4  10   91.69   10.40 
  -1   4 -10   51.29    9.50 
   1  -4  10   38.10    6.80 
   0   4 -10   24.20    8.60 
   0  -4  10   21.90    5.60 
   1   4 -10  124.99   15.20 
  -1  -4  10  111.29   11.30 
   2   4 -10   95.39   13.70 
  -2  -4  10   90.29    9.80 
   3   4 -10  182.68   20.50 
  -3  -4  10  197.78   16.70 
   4   4 -10  189.48   21.90 
  -4  -4  10  200.48   17.10 
  -5   4  -9   67.39   12.50 
   5  -4   9   62.89    9.40 
  -4   4  -9    2.00    8.00 
   4  -4   9   -0.80    4.90 
  -3   4  -9  -11.60    6.50 
   3  -4   9    9.40    4.80 
  -2   4  -9   27.70    7.90 
  -2   4  -9   12.70    6.50 
   2  -4   9   13.30    5.10 
  -1   4  -9   82.99   10.70 
  -1   4  -9   67.99   10.30 
   1  -4   9   72.39    8.30 
   0   4  -9   87.59   11.70 
   0   4  -9   94.59   10.40 
   0  -4   9   77.99    8.80 
   1   4  -9  123.59   13.90 
   1   4  -9   95.69   10.00 
  -1  -4   9  104.99   10.10 
   2   4  -9   80.09   12.10 
   2   4  -9   98.39    8.90 
  -2  -4   9   69.69    8.40 
   3   4  -9   41.30   10.10 
   3   4  -9   32.80    6.40 
  -3  -4   9   40.70    6.20 
   4   4  -9    1.40    8.30 
  -4  -4   9    2.60    4.20 
   5   4  -9    7.20    9.50 
  -5  -4   9   -3.00    4.20 
   6   4  -9   36.80   11.90 
  -6  -4   9   29.00    5.90 
  -7   4  -8   59.69   12.10 
  -6   4  -8   39.00   10.30 
  -5   4  -8   96.39   13.30 
   5  -4   8   87.89   10.40 
  -4   4  -8   98.69   13.80 
   4  -4   8  128.19   11.80 
  -3   4  -8  507.95   37.90 
   3  -4   8  469.75   35.00 
  -2   4  -8  368.86   27.60 
  -2   4  -8  294.67   25.90 
   2  -4   8  354.36   25.00 
  -1   4  -8  154.88   15.80 
  -1   4  -8  178.28   16.30 
   1  -4   8  168.08   13.90 
   0   4  -8  635.64   46.80 
   0   4  -8  635.34   47.60 
   0  -4   8  682.63   45.80 
   1   4  -8   16.50    7.10 
   1   4  -8    4.30    4.10 
  -1  -4   8   17.40    4.30 
   2   4  -8   39.70    8.60 
   2   4  -8   42.90    5.80 
  -2  -4   8   39.80    5.70 
   3   4  -8  128.79   14.50 
   3   4  -8  111.49   10.70 
  -3  -4   8  100.79    9.80 
   4   4  -8  657.63   46.10 
   4   4  -8  643.54   49.80 
  -4  -4   8  664.73   45.90 
   5   4  -8  468.95   37.10 
   5   4  -8  411.66   31.80 
  -5  -4   8  454.85   31.60 
   6   4  -8  417.66   34.70 
   6   4  -8  365.56   28.80 
  -6  -4   8  405.66   28.50 
   7   4  -8  119.79   11.70 
  -7   4  -7   51.49   10.50 
  -6   4  -7   76.39   11.80 
  -5   4  -7   91.49   12.50 
   5  -4   7   97.89   10.10 
  -4   4  -7   73.69   11.60 
   4  -4   7  109.79   10.00 
  -3   4  -7   13.90    6.10 
   3  -4   7   25.00    4.90 
  -2   4  -7   -0.90    5.00 
  -2   4  -7    2.50    4.30 
   2  -4   7   -1.00    3.30 
  -1   4  -7    6.00    4.80 
  -1   4  -7    7.20    4.80 
   1  -4   7    8.20    3.50 
   0   4  -7   93.29   10.70 
   0   4  -7   96.19   10.20 
   0  -4   7   90.89    8.50 
   1   4  -7   99.09    9.40 
   1   4  -7   83.29   10.60 
  -1  -4   7   83.19    8.10 
   2   4  -7  135.09   13.80 
   2   4  -7  116.89   11.10 
  -2  -4   7  131.29   11.10 
   3   4  -7  116.19   10.60 
   3   4  -7  124.19   13.60 
  -3  -4   7  114.19   10.40 
   4   4  -7   58.89    6.90 
   4   4  -7   66.59   10.50 
  -4  -4   7   56.99    6.30 
   5   4  -7   11.30    7.70 
   5   4  -7   20.90    4.60 
  -5  -4   7   12.60    3.90 
   6   4  -7   -1.80    7.60 
   6   4  -7   -5.20    3.80 
  -6  -4   7    3.00    3.50 
   7   4  -7   -0.10    4.70 
  -7  -4   7   11.20   10.80 
   8   4  -7    6.20    5.10 
  -8  -4   7   11.90   13.10 
  -8   4  -6   93.59   12.40 
   8  -4   6   77.09   10.10 
  -7   4  -6   91.19   11.80 
   7  -4   6   77.99    9.60 
  -6   4  -6   55.89    9.40 
   6  -4   6   47.80    7.10 
   6  -4   6   63.09    7.40 
  -5   4  -6   -1.10    5.80 
   5  -4   6   -3.20    3.40 
   5  -4   6    1.30    3.90 
  -4   4  -6  374.06   30.10 
   4  -4   6  358.66   27.20 
   4  -4   6  406.06   27.80 
  -3   4  -6  369.36   30.20 
   3  -4   6  399.46   28.10 
  -2   4  -6  771.32   53.99 
  -2   4  -6  713.73   52.39 
   2  -4   6  771.22   51.99 
  -1   4  -6 1651.83  114.39 
  -1   4  -6 1701.23  115.29 
   1  -4   6 1665.73  113.59 
   0   4  -6   41.70    6.70 
   0   4  -6   44.30    6.90 
   0  -4   6   47.60    5.30 
   1   4  -6  994.70   71.39 
   1   4  -6 1056.49   72.29 
  -1  -4   6 1043.80   70.59 
   2   4  -6   81.89   10.00 
   2   4  -6   78.49    8.00 
  -2  -4   6   86.59    7.70 
   3   4  -6   10.30    5.80 
   3   4  -6   17.90    4.00 
  -3  -4   6   14.90    3.40 
   4   4  -6   20.00    6.80 
   4   4  -6   26.80    4.60 
  -4  -4   6   24.20    3.90 
   5   4  -6  705.23   50.39 
   5   4  -6  716.63   53.59 
  -5  -4   6  745.43   49.90 
   6   4  -6  483.65   40.30 
   6   4  -6  507.75   36.80 
  -6  -4   6  540.75   36.10 
   7   4  -6  700.83   50.19 
  -7  -4   6  744.23   57.29 
   8   4  -6  157.18   15.00 
  -8  -4   6  168.08   23.00 
   9   4  -6  222.18   18.90 
  -9  -4   6  202.68   28.10 
  -9   4  -5   -1.60    6.80 
   9  -4   5   -4.50    5.80 
  -8   4  -5   -0.20    6.10 
   8  -4   5    0.50    5.40 
  -7   4  -5    4.30    5.90 
   7  -4   5    1.70    4.70 
  -6   4  -5  120.69   13.00 
   6  -4   5  133.69   11.40 
   6  -4   5  112.59   11.20 
  -5   4  -5   62.19    8.60 
   5  -4   5   50.99    6.50 
   5  -4   5   50.79    6.50 
  -4   4  -5  157.58   14.90 
   4  -4   5  141.79   12.40 
   4  -4   5  156.08   12.90 
  -3   4  -5  128.89   13.20 
  -3   4  -5  131.69   11.30 
   3  -4   5  128.89   10.80 
   3  -4   5  139.99   11.40 
  -2   4  -5   41.20    7.20 
  -2   4  -5   52.59    6.30 
   2  -4   5   64.19    6.20 
   2  -4   5   53.89    5.30 
  -1   4  -5    4.40    4.00 
  -1   4  -5    7.00    3.70 
   1  -4   5    2.60    2.70 
   0   4  -5   -7.60    3.20 
   0   4  -5    3.20    3.60 
   0  -4   5   -1.20    2.20 
   1   4  -5   62.29    7.00 
   1   4  -5   45.20    7.10 
  -1  -4   5   65.59    5.90 
   2   4  -5   92.29    9.90 
   2   4  -5   79.99    8.00 
  -2  -4   5   80.69    7.60 
   3   4  -5   82.29    8.20 
   3   4  -5   91.99   10.50 
  -3  -4   5   93.49    7.90 
   4   4  -5   70.79    7.60 
   4   4  -5   85.29   10.50 
  -4  -4   5   83.19    7.30 
   5   4  -5   55.19    6.30 
   5   4  -5   42.90    9.00 
  -5  -4   5   54.59    5.40 
   6   4  -5    5.50    4.00 
  -6  -4   5    2.60    7.70 
  -6  -4   5   -1.80    2.70 
   7   4  -5    8.30    4.50 
  -7  -4   5   10.90    9.70 
   8   4  -5    8.10    5.00 
  -8  -4   5    3.30   10.00 
   9   4  -5    7.00    5.50 
  -9  -4   5    6.50   11.30 
  10   4  -5    0.80    5.90 
 -10  -4   5    0.40   12.30 
  -9   4  -4  113.29   13.80 
   9  -4   4  139.99   13.60 
  -8   4  -4  473.65   34.60 
   8  -4   4  441.16   34.00 
  -7   4  -4  343.87   27.60 
   7  -4   4  366.06   27.00 
  -6   4  -4  319.77   25.50 
   6  -4   4  355.56   23.90 
   6  -4   4  297.57   24.20 
  -5   4  -4  447.36   32.90 
   5  -4   4  406.66   31.50 
   5  -4   4  482.25   31.70 
  -4   4  -4  133.89   12.70 
   4  -4   4  131.69   11.30 
   4  -4   4  126.49   11.00 
  -3   4  -4  121.09   10.20 
  -3   4  -4  134.39   12.70 
   3  -4   4  120.89   10.20 
   3  -4   4  132.09   10.80 
  -2   4  -4  501.35   34.20 
  -2   4  -4  497.75   35.80 
   2  -4   4  500.25   34.20 
   2  -4   4  458.95   33.70 
  -1   4  -4 1854.01  124.79 
  -1   4  -4 1781.22  125.89 
   1  -4   4 1875.01  124.49 
   1  -4   4 1831.62  123.99 
   0   4  -4 3820.22  242.38 
   0   4  -4 3665.43  241.68 
   0  -4   4 3403.96  240.78 
   0  -4   4 3438.56  240.88 
   1   4  -4 1712.93  115.69 
   1   4  -4 1685.03  115.59 
  -1  -4   4 1682.83  114.59 
   2   4  -4 1213.78   84.39 
   2   4  -4 1190.98   85.09 
  -2  -4   4 1291.17   83.79 
   3   4  -4  887.61   60.69 
   3   4  -4  844.72   61.99 
  -3  -4   4  908.01   60.19 
   4   4  -4   17.00    5.70 
   4   4  -4   17.60    4.00 
  -4  -4   4   20.80    3.10 
   5   4  -4   97.49    9.30 
  -5  -4   4  105.29    8.50 
   6   4  -4  269.77   21.40 
  -6  -4   4  295.67   26.50 
  -6  -4   4  291.67   20.40 
   7   4  -4 1140.29   80.49 
  -7  -4   4 1218.28   85.89 
   8   4  -4 1006.90   71.89 
  -8  -4   4 1097.99   78.79 
   9   4  -4  437.76   32.20 
  -9  -4   4  428.56   41.10 
  10   4  -4  315.17   24.80 
 -10  -4   4  290.57   33.60 
 -10   4  -3   12.60   12.80 
  -9   4  -3   45.90    8.50 
   9  -4   3   38.40    7.80 
  -8   4  -3    4.60    5.80 
   8  -4   3    2.90    5.00 
  -7   4  -3    0.20    4.80 
   7  -4   3    2.10    4.30 
  -6   4  -3   -1.60    4.10 
   6  -4   3   -3.80    3.60 
   6  -4   3    0.70    2.60 
  -5   4  -3  121.39   12.20 
   5  -4   3  138.69   10.90 
   5  -4   3  122.49   11.30 
  -4   4  -3   56.49    7.00 
   4  -4   3   61.89    6.20 
   4  -4   3   48.10    5.80 
  -3   4  -3  116.49   11.20 
  -3   4  -3  112.49    9.00 
   3  -4   3  130.89    9.90 
   3  -4   3  102.09    9.30 
  -2   4  -3  151.48   13.70 
  -2   4  -3  156.58   11.80 
   2  -4   3  160.88   12.10 
   2  -4   3  145.99   11.60 
  -1   4  -3   60.09    7.20 
  -1   4  -3   62.29    6.10 
   1  -4   3   53.19    5.50 
   1  -4   3   57.29    5.40 
   0   4  -3   25.40    4.00 
   0   4  -3   27.50    4.70 
   0  -4   3   26.10    2.90 
   0  -4   3   29.30    3.50 
   1   4  -3   -1.30    2.50 
   1   4  -3    4.00    2.90 
  -1  -4   3    0.00    1.70 
   2   4  -3   11.30    3.10 
   2   4  -3    6.10    3.50 
  -2  -4   3    3.40    1.90 
   3   4  -3   33.00    5.70 
   3   4  -3   29.80    4.20 
  -3  -4   3   34.40    3.60 
   4   4  -3   29.50    6.20 
   4   4  -3   32.50    4.60 
  -4  -4   3   31.40    3.60 
   5   4  -3    7.60    3.40 
  -5  -4   3    8.00    2.30 
  -5  -4   3    7.10    6.20 
   6   4  -3   54.99    6.80 
  -6  -4   3   64.99    5.70 
  -6  -4   3   61.19   11.10 
   7   4  -3   -2.20    3.70 
  -7  -4   3  -11.40    6.90 
   8   4  -3   21.40    5.30 
  -8  -4   3   13.50   10.20 
   9   4  -3    3.50    5.10 
  -9  -4   3    0.10   10.50 
  10   4  -3    5.50    5.70 
 -10  -4   3   14.80   12.40 
 -11  -4   3   11.10   13.40 
 -10   4  -2    6.20    6.80 
  10  -4   2    7.10    6.70 
  -9   4  -2  150.68   14.60 
   9  -4   2  156.78   15.00 
  -8   4  -2  238.48   20.10 
   8  -4   2  256.17   20.50 
  -7   4  -2  492.65   36.60 
   7  -4   2  519.15   36.80 
   7  -4   2  511.85   35.70 
  -6   4  -2 1580.44  109.19 
   6  -4   2 1632.24  109.19 
   6  -4   2 1583.54  108.59 
  -5   4  -2  115.89   10.30 
   5  -4   2   98.39    9.30 
   5  -4   2  113.49   10.00 
  -4   4  -2  893.41   61.29 
   4  -4   2  842.62   60.69 
   4  -4   2  922.71   60.79 
  -3   4  -2  274.47   20.70 
  -3   4  -2  274.47   19.00 
   3  -4   2  279.37   20.00 
   3  -4   2  261.07   19.60 
  -2   4  -2  186.88   13.50 
  -2   4  -2  155.98   14.90 
   2  -4   2  179.88   13.80 
   2  -4   2  218.18   14.30 
  -1   4  -2   12.00    3.50 
  -1   4  -2   13.50    2.60 
   1  -4   2   14.30    2.70 
   1  -4   2   12.10    2.40 
   0   4  -2 2010.70  129.49 
   0   4  -2 1972.10  128.59 
   0  -4   2 1673.23  127.89 
   0  -4   2 1964.20  128.29 
   1   4  -2 2308.67  152.68 
   1   4  -2 2198.28  153.88 
   1   4  -2 2405.96  154.28 
  -1  -4   2 2170.88  153.18 
   2   4  -2 3792.82  276.17 
   2   4  -2 4485.85  275.97 
  -2  -4   2 3993.40  275.07 
   3   4  -2 1102.39   71.69 
  -3  -4   2 1009.40   73.19 
  -3  -4   2 1027.00   70.99 
   4   4  -2 1424.46   89.69 
   4   4  -2 1290.37   90.49 
  -4  -4   2 1299.37   92.89 
  -4  -4   2 1285.07   89.79 
   5   4  -2  398.76   25.40 
   5   4  -2  347.47   26.10 
  -5  -4   2  346.27   25.20 
  -5  -4   2  350.46   29.40 
   6   4  -2   77.49    6.80 
   6   4  -2   55.49    7.00 
  -6  -4   2   69.39   11.70 
   7   4  -2    4.10    3.90 
  -7  -4   2   -1.40    7.20 
   8   4  -2  377.86   27.50 
  -8  -4   2  353.56   33.60 
   9   4  -2  710.53   49.70 
  -9  -4   2  683.73   56.49 
  10   4  -2  389.86   30.20 
 -10  -4   2  428.36   39.30 
  11   4  -2  369.76   28.70 
 -11  -4   2  359.96   39.60 
 -10   4  -1   28.80    7.60 
  10  -4   1   20.10    7.20 
  -9   4  -1   14.40    5.90 
   9  -4   1   14.50    6.30 
  -8   4  -1   27.70    6.00 
   8  -4   1   33.60    6.60 
  -7   4  -1    7.60    4.20 
   7  -4   1   16.10    4.90 
   7  -4   1    7.90    2.80 
  -6   4  -1    1.70    3.40 
   6  -4   1    4.60    2.40 
   6  -4   1   -3.30    3.40 
  -5   4  -1    8.60    3.40 
   5  -4   1    6.50    3.50 
   5  -4   1    5.60    2.60 
  -4   4  -1   43.80    5.50 
   4  -4   1   41.00    5.20 
   4  -4   1   48.70    5.00 
  -3   4  -1   32.20    4.60 
   3  -4   1   34.00    4.10 
   3  -4   1   26.40    3.90 
  -2   4  -1   32.80    4.50 
   2  -4   1   21.00    3.20 
   2  -4   1   20.10    3.30 
  -1   4  -1   74.89    7.60 
  -1   4  -1   62.89    5.90 
   1  -4   1   85.69    6.60 
   1  -4   1   70.99    6.10 
   0   4  -1   12.90    2.30 
   0   4  -1   17.30    3.40 
   0  -4   1   15.30    2.70 
   1   4  -1   16.50    3.30 
   1   4  -1    8.80    1.50 
  -1  -4   1    9.20    2.80 
  -1  -4   1    7.00    1.90 
   2   4  -1   -1.20    0.80 
   2   4  -1    5.50    2.40 
  -2  -4   1   -0.30    1.30 
  -2  -4   1   -2.80    2.60 
   3   4  -1   -0.10    1.10 
   3   4  -1    2.00    2.30 
  -3  -4   1    0.60    3.40 
  -3  -4   1    1.20    1.50 
   4   4  -1    3.40    2.70 
   4   4  -1    2.70    1.50 
  -4  -4   1    0.30    1.50 
  -4  -4   1   -0.40    4.00 
   5   4  -1   -1.20    1.90 
   5   4  -1    0.00    2.80 
  -5  -4   1    2.20    1.50 
  -5  -4   1    3.00    5.40 
   6   4  -1    1.70    2.40 
   6   4  -1    1.20    3.20 
  -6  -4   1   -0.90    5.80 
   7   4  -1   23.30    3.90 
   7   4  -1   14.90    4.30 
  -7  -4   1   20.50    8.70 
   8   4  -1    1.50    3.60 
   8   4  -1    2.60    4.20 
  -8  -4   1    6.50    9.00 
   9   4  -1   -1.30    4.60 
  -9  -4   1   11.30   10.10 
  10   4  -1    0.50    5.20 
 -10  -4   1    4.10   11.00 
  11   4  -1    6.40    6.20 
 -11  -4   1   -3.10   12.20 
 -10   4   0   49.90    8.70 
  10  -4   0   46.90    8.80 
  -9   4   0   72.69    9.60 
   9  -4   0   91.79   10.50 
  -8   4   0   42.70    6.90 
   8  -4   0   46.60    7.30 
  -7   4   0  316.47   24.20 
   7  -4   0  332.77   22.90 
   7  -4   0  313.27   24.40 
  -6   4   0  551.74   39.70 
   6  -4   0  577.04   39.10 
   6  -4   0  566.24   40.10 
  -5   4   0 3582.14  237.38 
   5  -4   0 3396.16  237.08 
   5  -4   0 3579.54  237.68 
  -4   4   0 1302.77   88.79 
   4  -4   0 1373.36   88.79 
   4  -4   0 1240.18   88.89 
  -3   4   0 1823.92  119.79 
   3  -4   0 1764.92  119.59 
   3  -4   0 1711.43  119.69 
  -2   4   0 1134.39   73.59 
   2  -4   0 1084.49   73.19 
   2  -4   0 1010.40   72.99 
  -1   4   0  221.68   16.90 
   1  -4   0  214.98   16.20 
   1  -4   0  192.28   16.00 
   1  -4   0  247.78   15.70 
   0   4   0  116.49   10.00 
   0   4   0  116.39   10.60 
   0  -4   0  140.89   10.10 
   0  -4   0  137.29   10.20 
   1   4   0 1007.70   69.49 
   1   4   0 1020.10   70.39 
  -1  -4   0  998.70   69.79 
  -1  -4   0 1080.29   70.49 
   2   4   0 2729.93  184.78 
   2   4   0 2925.31  185.48 
  -2  -4   0 2888.41  186.48 
  -2  -4   0 2453.45  184.98 
   3   4   0 5185.38  357.86 
   3   4   0 5497.95  358.56 
  -3  -4   0 5301.37  360.06 
   4   4   0 1933.41  126.59 
   4   4   0 1928.11  126.09 
  -4  -4   0 1867.41  128.69 
  -4  -4   0 1748.33  126.09 
   5   4   0 1861.81  121.59 
   5   4   0 1874.51  122.09 
  -5  -4   0 1677.43  121.39 
  -5  -4   0 1791.22  124.79 
   6   4   0  354.06   24.50 
   6   4   0  348.77   25.10 
  -6  -4   0  328.77   28.80 
   7   4   0   41.00    5.40 
   7   4   0   33.40    4.70 
  -7  -4   0   37.60    9.70 
   8   4   0   72.29    7.30 
   8   4   0   64.69    7.70 
  -8  -4   0   70.49   13.80 
   9   4   0  160.38   13.20 
   9   4   0  128.19   12.60 
  -9  -4   0  137.09   19.60 
  10   4   0  374.56   29.20 
  10   4   0  393.06   29.20 
 -10  -4   0  412.06   38.50 
  11   4   0  276.47   22.20 
 -11  -4   0  226.58   30.10 
 -10   4   1    9.10    6.70 
  10  -4  -1   15.70    6.80 
  -9   4   1   17.10    6.20 
   9  -4  -1    0.60    5.10 
  -8   4   1    9.00    5.00 
   8  -4  -1   12.50    5.20 
  -7   4   1    6.90    4.00 
   7  -4  -1    7.70    4.40 
   7  -4  -1    3.50    2.40 
  -6   4   1   12.70    3.90 
   6  -4  -1   11.40    4.20 
   6  -4  -1   18.10    2.80 
  -5   4   1   22.00    3.70 
   5  -4  -1   16.00    2.70 
   5  -4  -1   12.50    3.70 
  -4   4   1   27.40    3.70 
   4  -4  -1   24.70    4.20 
   4  -4  -1   33.40    3.60 
  -3   4   1   10.80    2.70 
   3  -4  -1   11.20    2.80 
   3  -4  -1   12.30    2.50 
  -2   4   1    3.50    2.20 
   2  -4  -1    0.10    1.70 
   2  -4  -1    3.60    2.20 
  -1   4   1    7.80    2.40 
   1  -4  -1    8.50    1.20 
   1  -4  -1    8.40    2.10 
   0   4   1    8.80    2.60 
   0   4   1    5.00    2.10 
   0  -4  -1    8.10    1.90 
   0  -4  -1    7.00    2.00 
   1   4   1    2.50    1.60 
   1   4   1   -1.30    2.00 
  -1  -4  -1    0.40    1.60 
  -1  -4  -1    0.30    2.00 
   2   4   1    2.00    1.40 
   2   4   1    4.00    2.00 
  -2  -4  -1    2.80    2.70 
  -2  -4  -1    4.70    1.70 
   3   4   1    9.20    2.30 
   3   4   1    6.30    1.60 
  -3  -4  -1    6.70    3.60 
  -3  -4  -1    5.10    1.80 
   4   4   1    3.30    1.60 
   4   4   1    3.60    2.40 
  -4  -4  -1    5.60    4.00 
  -4  -4  -1    4.90    1.70 
   5   4   1   -0.30    2.50 
   5   4   1   -1.60    1.70 
  -5  -4  -1   -2.30    4.20 
   6   4   1   32.50    4.70 
   6   4   1   39.10    4.30 
  -6  -4  -1   37.60    7.90 
   7   4   1   13.20    4.10 
   7   4   1   19.90    3.60 
  -7  -4  -1   14.50    7.30 
   8   4   1   60.69    6.90 
   8   4   1   63.09    7.30 
  -8  -4  -1   84.99   13.40 
   9   4   1    2.00    3.80 
   9   4   1   -2.00    4.30 
  -9  -4  -1    2.90    9.40 
  10   4   1   17.10    5.40 
  10   4   1    4.80    5.50 
 -10  -4  -1   11.70   11.60 
  11   4   1   19.90    6.80 
  11   4   1   14.50    6.00 
 -11  -4  -1   -0.10   12.00 
 -10   4   2  103.19   11.60 
  10  -4  -2   85.29   11.10 
  -9   4   2   96.29   10.60 
   9  -4  -2   93.59   10.60 
  -8   4   2   53.99    7.40 
   8  -4  -2   63.99    8.00 
  -7   4   2   29.70    5.40 
   7  -4  -2   39.00    4.20 
   7  -4  -2   31.30    5.80 
  -6   4   2   61.79    6.80 
   6  -4  -2   75.59    7.70 
   6  -4  -2   69.69    6.10 
  -5   4   2  355.76   26.00 
   5  -4  -2  354.56   26.40 
   5  -4  -2  386.26   25.60 
  -4   4   2 1405.56   94.79 
   4  -4  -2 1357.86   95.29 
   4  -4  -2 1427.36   94.59 
  -3   4   2 2636.84  175.08 
   3  -4  -2 2591.84  175.08 
   3  -4  -2 2560.34  175.68 
  -2   4   2 1367.36   93.99 
   2  -4  -2 1415.16   93.79 
   2  -4  -2 1383.26   94.39 
   2  -4  -2 1381.26   93.49 
  -1   4   2 2012.80  146.39 
  -1   4   2 2169.28  147.19 
   1  -4  -2 2182.18  146.09 
   1  -4  -2 2293.97  145.99 
   0   4   2  552.74   37.80 
   0   4   2  460.85   37.40 
   0  -4  -2  537.85   37.10 
   0  -4  -2  606.24   37.10 
   1   4   2  379.46   27.80 
   1   4   2  368.76   27.80 
  -1  -4  -2  390.66   27.90 
  -1  -4  -2  441.16   27.30 
   2   4   2    8.20    2.00 
   2   4   2    6.00    1.90 
  -2  -4  -2   11.40    1.70 
  -2  -4  -2    8.50    2.80 
   3   4   2  548.85   37.70 
   3   4   2  538.75   37.70 
  -3  -4  -2  524.65   39.30 
  -3  -4  -2  576.74   37.40 
   4   4   2 2709.23  176.28 
   4   4   2 2644.64  176.08 
  -4  -4  -2 2601.94  175.58 
  -4  -4  -2 2484.45  178.18 
   5   4   2 1375.86   91.39 
   5   4   2 1340.27   91.19 
  -5  -4  -2 1315.97   93.89 
   6   4   2 1467.55  101.69 
   6   4   2 1503.65  101.89 
  -6  -4  -2 1539.35  105.09 
   7   4   2 1174.28   81.59 
   7   4   2 1189.58   81.79 
  -7  -4  -2 1244.48   85.79 
   8   4   2   19.70    4.50 
   8   4   2   16.80    4.10 
  -8  -4  -2   24.60    9.10 
   9   4   2   -0.40    4.40 
   9   4   2   -0.60    3.80 
  -9  -4  -2    9.50    8.60 
  10   4   2   25.90    5.80 
  10   4   2   30.10    6.60 
 -10  -4  -2   30.20   11.80 
  11   4   2  175.28   17.00 
  11   4   2  191.88   17.60 
 -11  -4  -2  224.68   26.10 
 -10   4   3    8.10    6.60 
  10  -4  -3   -7.10    5.60 
  -9   4   3   -0.70    5.60 
   9  -4  -3    7.40    5.50 
  -8   4   3    5.00    4.90 
   8  -4  -3   -4.40    4.40 
  -7   4   3    4.10    3.90 
   7  -4  -3   -0.60    2.20 
   7  -4  -3   -3.70    3.70 
  -6   4   3   -1.00    3.10 
   6  -4  -3   -7.00    3.20 
   6  -4  -3    0.90    2.10 
  -5   4   3    2.00    2.70 
   5  -4  -3    4.70    2.00 
   5  -4  -3    3.90    3.50 
  -4   4   3   27.00    3.70 
   4  -4  -3   28.10    4.70 
   4  -4  -3   27.10    3.40 
   4  -4  -3   54.69    6.20 
  -3   4   3    1.10    1.90 
   3  -4  -3    4.30    2.90 
   3  -4  -3    3.90    2.50 
   3  -4  -3    5.20    1.80 
  -2   4   3   -1.70    1.60 
  -2   4   3    4.00    2.90 
   2  -4  -3    0.30    1.40 
   2  -4  -3    0.20    1.40 
  -1   4   3    5.10    2.80 
  -1   4   3    4.20    1.80 
   1  -4  -3    2.70    1.50 
   1  -4  -3    1.60    1.30 
   0   4   3   46.10    5.00 
   0   4   3   46.20    5.50 
   0  -4  -3   54.39    4.40 
   0  -4  -3   59.59    5.00 
   1   4   3   74.09    7.20 
   1   4   3   82.49    6.30 
  -1  -4  -3   74.29    6.90 
  -1  -4  -3   77.49    5.90 
   2   4   3   72.59    6.70 
   2   4   3   73.59    5.80 
  -2  -4  -3   71.29    7.20 
  -2  -4  -3   71.49    5.50 
   3   4   3   70.89    6.40 
   3   4   3   73.39    6.00 
  -3  -4  -3   86.19    8.60 
  -3  -4  -3   69.69    5.30 
   4   4   3   16.40    2.70 
   4   4   3   16.10    2.70 
  -4  -4  -3   20.90    5.10 
  -4  -4  -3   17.70    1.70 
   5   4   3    1.40    2.30 
   5   4   3    0.90    2.10 
  -5  -4  -3    2.60    4.50 
   6   4   3    5.00    2.70 
   6   4   3    8.60    2.90 
  -6  -4  -3    5.90    5.40 
   7   4   3   57.19    6.20 
   7   4   3   55.39    6.10 
  -7  -4  -3   74.99   10.80 
   8   4   3   17.70    4.40 
   8   4   3    8.70    3.70 
  -8  -4  -3   14.50    7.90 
   9   4   3   50.89    7.00 
   9   4   3   49.60    6.60 
  -9  -4  -3   55.69   11.90 
  10   4   3   21.20    6.10 
  10   4   3   19.40    5.30 
 -10  -4  -3    6.10    9.90 
  11   4   3   12.80    5.60 
 -11  -4  -3   10.90   11.00 
 -11  -4  -3    4.90    6.60 
 -10   4   4  594.14   42.90 
  10  -4  -4  563.04   43.00 
  -9   4   4  281.67   23.50 
   9  -4  -4  291.77   23.60 
  -8   4   4  298.47   23.20 
   8  -4  -4  313.47   24.00 
   8  -4  -4  290.47   21.60 
  -7   4   4  225.58   18.30 
   7  -4  -4  228.98   19.10 
   7  -4  -4  243.48   17.10 
  -6   4   4   11.80    3.90 
   6  -4  -4   21.00    3.20 
   6  -4  -4   18.90    4.80 
  -5   4   4  118.39   10.70 
   5  -4  -4  134.79   12.10 
   5  -4  -4  228.68   19.70 
   5  -4  -4  129.79   10.10 
  -4   4   4  365.26   27.10 
   4  -4  -4  375.16   27.00 
   4  -4  -4  446.56   28.70 
  -3   4   4 1098.69   76.09 
  -3   4   4 1098.29   78.19 
   3  -4  -4 1097.29   76.09 
   3  -4  -4 1193.78   76.69 
  -2   4   4 2472.65  164.78 
  -2   4   4 2396.26  166.78 
   2  -4  -4 2548.25  165.18 
   2  -4  -4 2359.76  164.78 
  -1   4   4 1412.46   93.59 
  -1   4   4 1150.28   91.79 
   1  -4  -4 1461.25   92.19 
   1  -4  -4 1424.86   91.79 
   0   4   4 1654.83  123.69 
   0   4   4 1826.52  124.89 
   0  -4  -4 1898.41  124.19 
   0  -4  -4 1954.00  123.59 
   1   4   4  328.87   21.30 
   1   4   4  296.97   22.80 
  -1  -4  -4  309.97   22.40 
  -1  -4  -4  301.47   21.40 
   2   4   4   32.60    2.90 
   2   4   4   33.70    4.40 
  -2  -4  -4   34.70    4.50 
  -2  -4  -4   28.60    2.80 
   3   4   4  753.82   50.29 
   3   4   4  710.53   49.50 
  -3  -4  -4  750.12   51.19 
  -3  -4  -4  713.53   49.30 
   4   4   4  115.39    9.00 
   4   4   4  122.19    9.60 
  -4  -4  -4  118.29    8.30 
  -4  -4  -4  115.89   11.50 
   5   4   4  768.02   55.69 
   5   4   4  819.62   56.09 
  -5  -4  -4  889.71   58.29 
   6   4   4  757.82   53.69 
   6   4   4  775.72   53.89 
  -6  -4  -4  835.82   56.69 
   7   4   4  102.79    9.60 
   7   4   4  101.49    9.20 
  -7  -4  -4   92.49   12.20 
   8   4   4  899.31   65.49 
   8   4   4  954.70   65.39 
  -8  -4  -4 1018.90   69.19 
   9   4   4   11.40    4.30 
  -9  -4  -4   16.60    8.50 
  10   4   4    6.20    4.60 
 -10  -4  -4   13.20    9.50 
 -10  -4  -4   12.00    6.00 
  11   4   4   -6.40    4.80 
 -11  -4  -4   -2.80    9.50 
 -11  -4  -4    9.50    6.60 
   9  -4  -5    3.30    6.10 
  -8   4   5    3.00    5.10 
   8  -4  -5    0.30    5.20 
   8  -4  -5   -2.80    2.80 
  -7   4   5   -2.20    4.00 
   7  -4  -5   -1.80    2.40 
   7  -4  -5   -0.80    4.60 
  -6   4   5   22.30    4.50 
   6  -4  -5   34.20    6.40 
   6  -4  -5   30.90    3.80 
  -5   4   5   -1.90    2.60 
  -5   4   5    1.10    4.70 
   5  -4  -5    3.50    2.30 
   5  -4  -5    8.40    5.40 
  -4   4   5   37.20    4.30 
  -4   4   5   44.10    7.60 
   4  -4  -5   36.60    4.10 
   4  -4  -5   52.29    6.50 
  -3   4   5   -0.30    4.00 
  -3   4   5    1.20    1.90 
   3  -4  -5    0.40    2.60 
   3  -4  -5    0.90    1.80 
  -2   4   5   11.80    2.10 
  -2   4   5   17.90    5.00 
   2  -4  -5   11.00    2.10 
   2  -4  -5   10.70    2.90 
  -1   4   5    6.20    3.50 
   1  -4  -5    1.60    2.10 
   1  -4  -5    4.00    1.60 
   0   4   5   20.10    4.20 
   0  -4  -5   16.50    2.20 
   0  -4  -5   12.10    3.10 
   1   4   5   21.10    4.20 
  -1  -4  -5   27.50    2.70 
  -1  -4  -5   29.40    4.30 
   2   4   5   47.50    5.80 
   2   4   5   42.40    3.60 
  -2  -4  -5   43.80    5.60 
  -2  -4  -5   46.90    3.90 
   3   4   5   76.39    6.10 
   3   4   5   82.29    7.70 
  -3  -4  -5   75.39    5.90 
  -3  -4  -5   92.79    8.80 
   4   4   5   44.30    4.10 
   4   4   5   42.50    4.90 
  -4  -4  -5   44.50    6.40 
  -4  -4  -5   42.30    3.60 
   5   4   5   31.70    3.90 
   5   4   5   36.00    4.60 
  -5  -4  -5   42.90    6.80 
   6   4   5   13.40    3.90 
   6   4   5   21.40    3.60 
  -6  -4  -5   20.70    6.30 
   7   4   5   -4.30    3.10 
  -7  -4  -5    0.50    5.60 
   8   4   5    1.40    3.70 
  -8  -4  -5    6.60    4.30 
  -8  -4  -5   12.10    7.30 
   9   4   5    7.20    4.40 
  -9  -4  -5   13.00    8.40 
  -9  -4  -5    6.80    5.10 
  10   4   5   17.10    5.40 
 -10  -4  -5   10.50    9.40 
 -10  -4  -5   11.60    6.10 
  11   4   5   17.60    6.00 
 -11  -4  -5   16.50    7.10 
 -11  -4  -5    9.70   10.30 
  -9   4   6  136.39   17.70 
  -8   4   6  249.88   26.20 
   8  -4  -6  300.97   21.00 
  -7   4   6  202.88   21.50 
   7  -4  -6  231.68   16.70 
  -6   4   6  279.77   25.20 
   6  -4  -6  300.17   21.10 
  -5   4   6  128.29   15.80 
   5  -4  -6  183.58   15.30 
   5  -4  -6  144.59   11.60 
  -4   4   6   99.79   12.60 
   4  -4  -6  106.19    8.60 
   4  -4  -6  110.49   11.10 
  -3   4   6   41.70    7.60 
   3  -4  -6   36.30    4.10 
   3  -4  -6   42.00    5.60 
  -2   4   6  222.58   18.60 
   2  -4  -6  206.88   15.50 
   2  -4  -6  226.48   16.70 
  -1   4   6 1066.79   78.59 
   1  -4  -6 1145.49   76.49 
   1  -4  -6 1164.38   77.39 
   0   4   6  522.05   38.50 
   0  -4  -6  535.95   37.30 
   0  -4  -6  528.85   36.20 
   1   4   6 1149.98   80.79 
  -1  -4  -6 1200.88   80.39 
  -1  -4  -6 1152.28   78.89 
   2   4   6 1180.08   80.09 
  -2  -4  -6 1161.58   78.49 
  -2  -4  -6 1144.19   79.99 
   3   4   6  225.08   17.10 
  -3  -4  -6  200.98   15.40 
  -3  -4  -6  243.68   15.50 
  -3  -4  -6  208.68   17.50 
   4   4   6   76.19    6.00 
   4   4   6   69.59    7.30 
  -4  -4  -6   75.89    6.40 
  -4  -4  -6   69.79    8.60 
   5   4   6   29.50    4.70 
  -5  -4  -6   39.90    4.30 
  -5  -4  -6   37.50    6.80 
   6   4   6  349.07   25.50 
  -6  -4  -6  355.46   24.90 
  -6  -4  -6  337.87   27.40 
   7   4   6  427.16   31.90 
  -7  -4  -6  452.85   31.70 
  -7  -4  -6  455.65   34.30 
   8   4   6   48.30    6.70 
  -8  -4  -6   61.99    7.20 
  -8  -4  -6   51.19    9.60 
   9   4   6  207.78   19.30 
  -9  -4  -6  277.47   20.00 
  -9  -4  -6  264.27   23.60 
  10   4   6   88.29   10.50 
 -10  -4  -6  106.89   11.30 
 -10  -4  -6  112.59   14.90 
  -9   4   7   18.10   10.60 
  -8   4   7   -5.50    7.90 
   8  -4  -7    1.90    3.40 
  -7   4   7    7.90    7.80 
   7  -4  -7    1.40    2.90 
  -6   4   7   -4.50    6.40 
   6  -4  -7    3.70    2.80 
  -5   4   7   70.09   11.40 
   5  -4  -7   67.69    6.70 
   5  -4  -7   97.79   10.70 
  -4   4   7    9.20    6.50 
   4  -4  -7    6.60    4.50 
   4  -4  -7    4.80    2.50 
  -3   4   7  120.19   13.40 
   3  -4  -7  111.29    9.00 
   3  -4  -7  113.29   10.90 
  -2   4   7    9.80    5.20 
   2  -4  -7   11.90    2.50 
   2  -4  -7   16.00    3.90 
  -1   4   7   21.90    5.90 
   1  -4  -7   25.80    4.40 
   1  -4  -7   25.20    3.10 
   0   4   7    5.60    4.00 
   0  -4  -7    3.00    3.00 
   0  -4  -7    3.00    1.90 
   1   4   7   24.40    5.50 
  -1  -4  -7   24.60    2.80 
  -1  -4  -7   19.20    4.40 
   2   4   7   47.30    6.70 
  -2  -4  -7   44.10    6.50 
  -2  -4  -7   52.49    4.70 
   3   4   7   79.69    8.10 
  -3  -4  -7   71.79    8.60 
   4   4   7  103.89    9.80 
   4   4   7  105.19    8.00 
  -4  -4  -7   92.89   10.60 
   5   4   7   47.50    6.10 
  -5  -4  -7   52.49    8.10 
   6   4   7   22.10    4.90 
  -6  -4  -7   21.50    6.60 
   7   4   7    2.50    4.10 
  -7  -4  -7    7.80    6.40 
   8   4   7    2.90    4.40 
  -8  -4  -7   -6.50    6.20 
   9   4   7   13.10    5.40 
  -9  -4  -7   13.90    8.00 
  10   4   7    4.30    5.40 
 -10  -4  -7   10.10    8.90 
   8  -4  -8   95.79    8.90 
  -7   4   8  191.28   22.60 
   7  -4  -8  234.98   17.00 
  -6   4   8  108.39   15.10 
   6  -4  -8  110.69    9.70 
  -5   4   8  198.88   20.60 
   5  -4  -8  240.88   19.50 
   5  -4  -8  182.48   14.90 
  -4   4   8   70.49   11.90 
   4  -4  -8   98.69    8.20 
   4  -4  -8   99.69   10.90 
  -3   4   8   -6.60    5.30 
   3  -4  -8    6.30    2.40 
   3  -4  -8    2.90    4.20 
  -2   4   8  219.88   19.50 
   2  -4  -8  208.58   15.40 
   2  -4  -8  211.18   17.10 
  -1   4   8   72.09   10.10 
   1  -4  -8   68.99    7.50 
   1  -4  -8   51.29    5.30 
   0   4   8  351.66   27.10 
   0  -4  -8  353.46   25.70 
   0  -4  -8  334.67   24.10 
   1   4   8  457.55   31.30 
  -1  -4  -8  368.76   30.10 
  -1  -4  -8  427.66   28.70 
   2   4   8   24.60    5.30 
  -2  -4  -8   15.70    4.80 
   3   4   8  825.82   53.29 
   3   4   8  798.22   54.69 
  -3  -4  -8  701.53   55.19 
   4   4   8   21.70    4.80 
   4   4   8   23.30    3.40 
  -4  -4  -8   17.60    5.60 
   5   4   8    3.00    4.10 
  -5  -4  -8    3.50    5.30 
   6   4   8   11.10    4.70 
  -6  -4  -8    9.80    6.00 
   7   4   8  109.29   11.20 
  -7  -4  -8  120.99   13.90 
   8   4   8   24.20    5.90 
  -8  -4  -8   26.20    8.40 
   9   4   8   30.60    6.60 
  -9  -4  -8   23.10    9.10 
 -10  -4  -8    2.70    8.20 
   7  -4  -9   -2.90    3.60 
  -6   4   9   -7.30    8.80 
   6  -4  -9   -1.20    3.20 
  -5   4   9   -4.50    7.00 
   5  -4  -9    7.10    6.60 
   5  -4  -9    3.60    3.20 
  -4   4   9   14.40    8.20 
   4  -4  -9   33.80    7.20 
   4  -4  -9   24.60    4.00 
  -3   4   9   13.80    7.30 
   3  -4  -9   23.10    3.50 
   3  -4  -9   17.60    5.60 
  -2   4   9   53.99    9.60 
   2  -4  -9   51.89    7.30 
   2  -4  -9   48.80    5.10 
  -1   4   9   31.90    7.10 
   1  -4  -9   24.90    5.60 
   1  -4  -9   20.80    3.40 
   0   4   9   14.40    6.20 
   0  -4  -9   20.60    5.10 
   0  -4  -9   17.20    3.10 
   1   4   9    4.90    3.10 
   1   4   9   17.00    5.70 
  -1  -4  -9    7.80    4.30 
   2   4   9    2.30    4.50 
   2   4   9   -1.20    2.60 
  -2  -4  -9    0.00    4.00 
   3   4   9    7.00    4.70 
   3   4   9   19.20    3.30 
  -3  -4  -9    8.10    4.50 
   4   4   9   24.70    3.80 
   4   4   9   23.70    5.40 
  -4  -4  -9   28.10    6.70 
   5   4   9   41.60    6.50 
  -5  -4  -9   26.50    7.50 
   6   4   9   38.20    6.80 
  -6  -4  -9   35.40    8.20 
   7   4   9   16.30    5.70 
  -7  -4  -9    8.30    7.20 
   8   4   9    8.40    5.60 
  -8  -4  -9   13.20    7.80 
   9   4   9   -5.50    5.20 
  -9  -4  -9    9.20    8.40 
  -6   4  10  122.19   11.50 
   5  -4 -10   20.90    8.00 
   4  -4 -10  179.18   17.40 
  -3   4  10   56.99   11.20 
   3  -4 -10   55.19    8.70 
  -2   4  10  134.09   14.90 
   2  -4 -10  125.09   13.30 
  -1   4  10   51.19    9.80 
  -1   4  10   57.69    6.40 
   1  -4 -10   44.50    7.60 
   0   4  10   18.10    4.10 
   0   4  10   20.30    7.00 
   0  -4 -10    8.10    4.90 
   1   4  10   57.19    6.20 
   1   4  10   57.79    8.70 
  -1  -4 -10   50.49    7.80 
   2   4  10  641.54   44.70 
   2   4  10  653.93   43.00 
  -2  -4 -10  554.94   44.40 
   3   4  10   32.90    6.50 
   3   4  10   32.10    4.80 
  -3  -4 -10   29.00    6.40 
   4   4  10  270.97   17.80 
   4   4  10  222.98   19.30 
  -4  -4 -10  197.48   20.20 
   5   4  10   60.59    8.20 
  -5  -4 -10   35.20    8.30 
   6   4  10   -0.10    5.20 
  -6  -4 -10   -3.60    6.10 
   7   4  10   10.40    5.90 
  -7  -4 -10   27.80    8.80 
   8   4  10   13.00    6.30 
  -8  -4 -10   19.70    9.10 
  -5   4  11   -9.40    4.50 
   5  -4 -11   10.30    7.60 
  -4   4  11    2.60    4.60 
   4  -4 -11    5.50    6.30 
  -3   4  11    7.50    4.50 
   3  -4 -11   -1.90    5.40 
  -2   4  11   24.80    5.20 
   2  -4 -11   17.40    6.50 
  -1   4  11   30.70    5.40 
  -1   4  11   37.70    8.70 
   1  -4 -11   34.00    7.40 
   0   4  11   17.00    4.50 
   0   4  11   20.30    7.50 
   0  -4 -11   20.30    6.50 
   1   4  11    3.50    5.90 
   1   4  11   10.20    4.10 
  -1  -4 -11    8.50    5.30 
   2   4  11    1.90    3.80 
   2   4  11    6.20    5.70 
  -2  -4 -11    2.00    4.80 
   3   4  11   -0.50    5.10 
   3   4  11    5.30    3.80 
  -3  -4 -11    8.00    5.60 
   4   4  11    5.10    5.40 
  -4  -4 -11    1.70    5.70 
   5   4  11    2.80    5.70 
  -5  -4 -11    8.40    6.40 
   6   4  11    9.50    6.10 
  -6  -4 -11    5.10    6.80 
   7   4  11   32.70    7.60 
  -7  -4 -11   21.20    8.30 
  -4   4  12   24.30    6.40 
   4  -4 -12   12.20    7.50 
  -3   4  12    9.50    5.20 
   3  -4 -12    3.20    6.80 
  -2   4  12   16.90    5.10 
   2  -4 -12   16.90    7.10 
  -1   4  12   20.90    5.30 
   1  -4 -12   18.40    7.10 
   0   4  12    4.80    4.60 
   0  -4 -12   13.60    6.20 
   1   4  12    5.60    4.50 
  -1  -4 -12    0.40    5.50 
   2   4  12    5.60    4.40 
   2   4  12    6.10    6.00 
  -2  -4 -12    3.50    5.60 
   3   4  12   66.49    9.10 
   3   4  12   59.89    7.30 
  -3  -4 -12   45.60    8.90 
   4   4  12    9.90    6.20 
  -4  -4 -12    3.30    6.40 
   5   4  12   -4.90    5.90 
  -5  -4 -12    0.60    6.40 
  -1   4  13    3.20    5.10 
   1  -4 -13   -2.90    6.60 
   0   4  13    6.40    5.30 
   0  -4 -13    5.50    6.60 
   1   4  13   17.90    5.50 
  -1  -4 -13   14.30    7.30 
   2   4  13    7.10    5.00 
  -2  -4 -13    6.00    6.90 
   3   4  13   10.20    6.70 
  -3  -4 -13    6.20    7.50 
   2  -5  10   16.80    6.60 
   1  -5  10   93.69   10.90 
   0   5 -10  160.28   18.40 
   0  -5  10  201.98   17.00 
   1   5 -10  102.49   14.80 
  -1  -5  10  111.09   11.40 
   2   5 -10  105.49   15.40 
  -2  -5  10  111.79   11.50 
   3   5 -10   69.89   13.30 
  -3  -5  10   60.59    8.30 
  -4   5  -9   35.90   10.70 
   4  -5   9   30.50    7.50 
  -3   5  -9   66.09   11.80 
   3  -5   9   67.89    9.30 
  -2   5  -9  197.18   19.60 
   2  -5   9  187.88   17.30 
  -1   5  -9   -3.20    6.50 
   1  -5   9   11.00    5.30 
   0   5  -9  181.28   16.30 
   0   5  -9  170.08   17.30 
   0  -5   9  138.39   14.00 
   1   5  -9   19.80    5.50 
   1   5  -9   11.20    7.70 
  -1  -5   9   14.20    5.20 
   2   5  -9   -5.90    7.20 
   2   5  -9   -2.80    4.20 
  -2  -5   9    1.80    4.40 
   3   5  -9   11.30    5.10 
   3   5  -9   13.00    9.10 
  -3  -5   9   18.10    5.20 
   4   5  -9   98.89   15.50 
   4   5  -9   98.09   10.20 
  -4  -5   9   94.09   10.10 
   5   5  -9   26.60   11.60 
  -5  -5   9   12.30    5.20 
  -6   5  -8  198.78   21.80 
  -5   5  -8  174.38   21.10 
   5  -5   8  223.48   18.70 
  -4   5  -8   87.09   13.50 
   4  -5   8  101.69   11.10 
  -3   5  -8   75.29   12.40 
   3  -5   8  102.79   10.50 
  -2   5  -8   -2.40    6.30 
   2  -5   8    9.90    5.00 
  -1   5  -8   48.20    8.80 
  -1   5  -8   53.89    9.10 
   1  -5   8   57.69    7.50 
   0   5  -8  211.08   18.80 
   0   5  -8  204.98   19.80 
   0  -5   8  219.78   17.60 
   1   5  -8  599.94   46.40 
   1   5  -8  625.04   44.70 
  -1  -5   8  645.34   44.20 
   2   5  -8  648.44   46.60 
   2   5  -8  579.84   43.40 
  -2  -5   8  626.14   43.50 
   3   5  -8  471.85   34.00 
   3   5  -8  470.95   38.00 
  -3  -5   8  471.35   34.00 
   4   5  -8  162.28   15.00 
   4   5  -8  186.68   20.20 
  -4  -5   8  185.58   15.10 
   5   5  -8   25.60   10.70 
   5   5  -8   32.40    6.00 
  -5  -5   8   32.20    5.80 
   6   5  -8    1.80    9.30 
   6   5  -8   -3.20    4.80 
  -6  -5   8   -3.40    4.30 
   7   5  -8   20.40    6.10 
  -7  -5   8   17.10   16.60 
  -7   5  -7   79.19   13.20 
  -6   5  -7   15.40    8.50 
  -5   5  -7   11.00    7.80 
   5  -5   7   15.20    5.60 
  -4   5  -7   27.80    8.70 
   4  -5   7   37.20    6.70 
  -3   5  -7   46.00    9.70 
   3  -5   7   64.09    7.90 
  -2   5  -7   54.09    9.90 
   2  -5   7   74.59    8.10 
  -1   5  -7  248.78   19.80 
  -1   5  -7  202.98   18.70 
   1  -5   7  208.38   17.40 
   0   5  -7   65.49    9.20 
   0   5  -7   60.49    8.70 
   0  -5   7   57.49    6.90 
   1   5  -7  191.38   17.20 
   1   5  -7  170.58   15.50 
  -1  -5   7  164.68   14.40 
   2   5  -7    0.20    5.90 
   2   5  -7    5.70    3.90 
  -2  -5   7    3.20    3.60 
   3   5  -7    2.30    6.60 
   3   5  -7   -0.80    3.70 
  -3  -5   7   -0.70    3.40 
   4   5  -7   17.90    8.50 
   4   5  -7   14.30    4.70 
  -4  -5   7   15.90    4.30 
   5   5  -7   51.89   11.10 
   5   5  -7   34.90    6.10 
  -5  -5   7   49.80    6.20 
   6   5  -7   53.49    7.80 
  -6  -5   7   74.59    7.60 
   7   5  -7   12.90    5.50 
  -7  -5   7   28.60   13.30 
   8   5  -7   38.20    7.40 
  -8  -5   7   31.80   14.40 
  -7   5  -6   12.20    8.10 
   7  -5   6   11.30    8.90 
  -6   5  -6  184.98   20.00 
   6  -5   6  217.68   17.40 
  -5   5  -6  320.37   29.60 
   5  -5   6  390.66   27.40 
  -4   5  -6  529.15   44.20 
   4  -5   6  630.44   42.20 
  -3   5  -6  332.17   28.60 
   3  -5   6  357.86   26.00 
  -2   5  -6  266.17   23.10 
   2  -5   6  264.57   20.40 
  -1   5  -6   84.39   10.40 
  -1   5  -6   91.99    9.70 
   1  -5   6   73.19    8.10 
   0   5  -6    2.00    4.70 
   0   5  -6    2.20    4.50 
   0  -5   6    2.70    3.50 
   1   5  -6   76.69    9.10 
   1   5  -6   71.49    9.60 
  -1  -5   6   88.79    8.00 
   2   5  -6  487.15   37.50 
   2   5  -6  487.95   35.80 
  -2  -5   6  522.75   35.30 
   3   5  -6  904.31   63.19 
   3   5  -6  857.91   60.79 
  -3  -5   6  879.21   60.49 
   4   5  -6 1290.47   88.59 
   4   5  -6 1219.08   85.59 
  -4  -5   6 1245.18   85.29 
   5   5  -6  639.74   49.10 
   5   5  -6  635.74   45.80 
  -5  -5   6  669.33   45.30 
   6   5  -6  339.37   27.60 
  -6  -5   6  429.56   35.00 
  -6  -5   6  379.36   26.90 
   7   5  -6   29.50    6.20 
  -7  -5   6   27.10   12.20 
   8   5  -6   -3.10    5.40 
  -8  -5   6  -11.50   10.30 
   9   5  -6   73.09    9.80 
  -9  -5   6   83.19   21.70 
  -8   5  -5   43.40    9.50 
   8  -5   5   38.70    8.00 
  -7   5  -5   74.99   11.30 
   7  -5   5   76.49    9.50 
  -6   5  -5   34.90    8.20 
   6  -5   5   30.90    6.10 
   6  -5   5   38.90    5.90 
  -5   5  -5   59.99    9.70 
   5  -5   5   65.39    7.70 
   5  -5   5   58.29    7.20 
  -4   5  -5    0.40    5.50 
   4  -5   5   -0.50    3.40 
   4  -5   5   -1.90    3.60 
  -3   5  -5    2.60    5.20 
   3  -5   5    4.20    3.80 
  -2   5  -5   29.80    7.10 
   2  -5   5   34.10    5.30 
  -1   5  -5  144.49   15.60 
  -1   5  -5  183.68   14.70 
   1  -5   5  170.18   13.90 
   0   5  -5   91.99   10.50 
   0   5  -5   96.09   10.00 
   0  -5   5  101.39    9.00 
   1   5  -5   91.79    9.70 
   1   5  -5   82.09    9.80 
  -1  -5   5   98.79    8.50 
   2   5  -5  138.49   12.20 
   2   5  -5  130.99   13.70 
  -2  -5   5  140.39   11.30 
   3   5  -5   15.00    6.30 
   3   5  -5   18.30    4.10 
  -3  -5   5   19.60    3.70 
   4   5  -5    1.20    5.80 
   4   5  -5    5.40    3.60 
  -4  -5   5   11.30    3.20 
   5   5  -5    0.60    3.70 
  -5  -5   5    5.70    3.10 
   6   5  -5   34.10    5.80 
  -6  -5   5   35.60    4.90 
  -6  -5   5   28.40   11.10 
   7   5  -5    7.60    4.90 
  -7  -5   5    8.30    9.70 
   8   5  -5    9.50    5.70 
  -8  -5   5   22.20   11.60 
   9   5  -5    6.10    6.10 
  -9  -5   5   19.90   13.20 
  -9   5  -4   98.79   14.90 
   9  -5   4   66.19   10.30 
  -8   5  -4   79.29   11.40 
   8  -5   4   80.49   10.30 
  -7   5  -4    7.60    6.40 
   7  -5   4   10.00    5.70 
  -6   5  -4   37.00    8.10 
   6  -5   4   53.49    6.40 
   6  -5   4   52.99    7.30 
  -5   5  -4  315.57   25.50 
   5  -5   4  329.77   23.50 
   5  -5   4  301.87   23.60 
  -4   5  -4  914.11   64.09 
   4  -5   4  936.01   62.49 
   4  -5   4  859.91   62.09 
  -3   5  -4 1675.53  112.99 
   3  -5   4 1547.65  110.69 
   3  -5   4 1686.23  111.29 
  -2   5  -4 1307.47   93.39 
  -2   5  -4 1374.86   92.39 
   2  -5   4 1311.27   91.19 
   2  -5   4 1372.26   91.79 
  -1   5  -4  800.92   55.79 
  -1   5  -4  788.72   57.19 
   1  -5   4  817.82   55.59 
   0   5  -4  178.58   15.20 
   0   5  -4  174.38   15.70 
   0  -5   4  193.18   14.20 
   1   5  -4   18.50    4.70 
   1   5  -4   16.30    4.60 
  -1  -5   4   13.00    3.20 
   2   5  -4  190.68   15.90 
   2   5  -4  190.68   17.10 
  -2  -5   4  217.78   15.20 
   3   5  -4  711.53   48.60 
   3   5  -4  647.84   49.99 
  -3  -5   4  720.73   48.00 
   4   5  -4 1017.70   69.99 
   4   5  -4 1009.00   71.89 
  -4  -5   4 1017.80   69.29 
   5   5  -4 1268.07   91.89 
  -5  -5   4 1373.06   95.79 
  -5  -5   4 1392.36   91.29 
   6   5  -4 1069.59   77.19 
  -6  -5   4 1171.28   81.89 
  -6  -5   4 1134.49   76.39 
   7   5  -4  443.96   33.90 
  -7  -5   4  515.45   40.30 
   8   5  -4   60.29    8.40 
  -8  -5   4   81.69   15.30 
   9   5  -4    3.00    5.70 
  -9  -5   4   11.30   12.10 
  10   5  -4   68.59    9.70 
 -10  -5   4   59.19   16.50 
  -9   5  -3    9.60    7.00 
   9  -5   3    3.40    6.60 
  -8   5  -3   36.70    8.30 
   8  -5   3   43.30    7.70 
  -7   5  -3   18.40    6.70 
   7  -5   3   29.50    6.20 
  -6   5  -3   89.29   11.10 
   6  -5   3  107.09   10.60 
   6  -5   3  118.69    9.80 
  -5   5  -3   39.00    7.30 
   5  -5   3   43.40    5.70 
   5  -5   3   45.20    6.20 
  -4   5  -3   73.69    9.00 
   4  -5   3   59.79    6.90 
   4  -5   3   66.19    7.00 
  -3   5  -3    9.10    4.80 
   3  -5   3   13.50    3.50 
   3  -5   3    8.90    3.30 
  -2   5  -3    2.80    4.10 
  -2   5  -3   -1.80    2.40 
   2  -5   3   -0.60    2.70 
   2  -5   3    0.70    2.60 
  -1   5  -3   39.30    5.10 
  -1   5  -3   44.60    6.70 
   1  -5   3   39.20    5.00 
   1  -5   3   44.60    4.50 
   0   5  -3   14.40    3.80 
   0   5  -3   12.20    4.60 
   0  -5   3   24.80    3.60 
   1   5  -3  293.47   22.60 
   1   5  -3  311.47   22.50 
  -1  -5   3  284.37   21.30 
   2   5  -3    1.10    3.70 
   2   5  -3    1.80    2.90 
  -2  -5   3   -1.20    2.10 
   3   5  -3  157.18   15.50 
   3   5  -3  189.18   14.20 
  -3  -5   3  181.48   13.40 
   4   5  -3   20.90    4.30 
  -4  -5   3   22.10    3.30 
  -4  -5   3   20.20    6.60 
   5   5  -3   12.70    4.20 
  -5  -5   3   23.60    3.40 
  -5  -5   3   17.50    7.50 
   6   5  -3   91.89    9.80 
  -6  -5   3   81.19   13.90 
  -6  -5   3  119.69    8.90 
   7   5  -3  120.09   11.60 
  -7  -5   3  135.39   17.20 
   8   5  -3    9.60    5.40 
  -8  -5   3   -7.80    8.30 
   9   5  -3   26.60    6.90 
  -9  -5   3   25.60   12.40 
  10   5  -3   -2.90    6.00 
 -10  -5   3    3.70   11.70 
  -9   5  -2  365.96   30.20 
   9  -5   2  385.26   29.70 
  -8   5  -2  208.98   19.00 
   8  -5   2  200.48   18.20 
  -7   5  -2  189.98   17.00 
   7  -5   2  178.78   16.30 
   7  -5   2  183.28   14.40 
  -6   5  -2  114.69   12.10 
   6  -5   2  128.69   10.90 
   6  -5   2  137.69   12.40 
  -5   5  -2   45.60    7.20 
   5  -5   2   44.00    6.20 
   5  -5   2   54.99    5.90 
  -4   5  -2   56.39    8.10 
   4  -5   2   70.09    7.30 
   4  -5   2   85.79    7.50 
  -3   5  -2  696.03   51.99 
   3  -5   2  736.33   50.79 
   3  -5   2  770.42   51.09 
  -2   5  -2 1975.60  134.69 
  -2   5  -2 1980.70  136.39 
   2  -5   2 1934.61  134.79 
   2  -5   2 2084.79  135.29 
  -1   5  -2 2590.44  169.68 
  -1   5  -2 2573.14  171.08 
   1  -5   2 2487.75  169.78 
   1  -5   2 2392.56  169.28 
   0   5  -2 2611.24  178.48 
   0   5  -2 2858.31  177.18 
   0   5  -2 2523.95  177.58 
   0  -5   2 2495.05  177.28 
   1   5  -2 1421.16   95.49 
   1   5  -2 1257.57   94.79 
   1   5  -2 1465.75   93.69 
  -1  -5   2 1401.06   94.29 
   2   5  -2  181.28   14.80 
  -2  -5   2  201.08   15.90 
  -2  -5   2  179.58   13.90 
   3   5  -2    7.70    3.10 
  -3  -5   2   14.50    5.00 
  -3  -5   2    9.90    2.50 
   4   5  -2  447.16   33.00 
  -4  -5   2  459.65   32.20 
  -4  -5   2  500.15   35.60 
   5   5  -2  980.70   68.09 
  -5  -5   2  993.90   71.09 
  -5  -5   2  990.60   67.29 
   6   5  -2 1075.99   78.69 
  -6  -5   2 1247.18   82.89 
   7   5  -2 1524.25  107.29 
  -7  -5   2 1628.34  111.89 
   8   5  -2  880.81   63.49 
  -8  -5   2  960.50   69.19 
   9   5  -2  280.17   22.70 
  -9  -5   2  285.27   31.10 
  10   5  -2   76.79   10.00 
 -10  -5   2   81.39   17.10 
 -11  -5   2   12.40   13.90 
  -9   5  -1    8.80    6.50 
   9  -5   1   -3.40    5.70 
  -8   5  -1   -1.50    5.40 
   8  -5   1    6.50    5.50 
  -7   5  -1    5.40    5.10 
   7  -5   1    6.60    3.10 
   7  -5   1    5.90    4.70 
  -6   5  -1   73.09    8.30 
   6  -5   1   63.89    6.70 
   6  -5   1   70.39    8.10 
  -5   5  -1   10.40    4.50 
   5  -5   1   16.40    3.40 
   5  -5   1   13.40    4.20 
  -4   5  -1   73.29    8.10 
   4  -5   1   71.99    6.90 
   4  -5   1   68.69    7.20 
  -3   5  -1   23.30    4.90 
   3  -5   1   30.30    4.30 
   3  -5   1   24.30    4.10 
  -2   5  -1    4.40    3.60 
   2  -5   1    2.70    2.40 
   2  -5   1    2.40    2.40 
  -1   5  -1   25.50    5.10 
   1  -5   1   34.90    4.30 
   1  -5   1   38.10    4.10 
   1  -5   1   25.00    3.60 
   0   5  -1   25.50    3.60 
   0   5  -1   26.30    4.70 
   0  -5   1   30.50    3.90 
   0  -5   1   24.30    4.00 
   1   5  -1   38.30    3.80 
   1   5  -1   36.80    5.40 
  -1  -5   1   40.50    4.50 
  -1  -5   1   42.50    5.40 
   2   5  -1  130.29    9.40 
   2   5  -1  135.29   11.20 
  -2  -5   1  120.49   11.90 
  -2  -5   1  131.59   10.30 
   3   5  -1    6.10    3.00 
   3   5  -1    7.40    1.50 
  -3  -5   1   11.70    4.50 
  -3  -5   1   12.70    2.50 
   4   5  -1    2.90    1.60 
   4   5  -1    1.30    3.00 
  -4  -5   1    1.70    4.50 
  -4  -5   1    2.80    2.00 
   5   5  -1   16.60    2.70 
   5   5  -1    6.40    3.70 
  -5  -5   1   16.20    6.30 
  -5  -5   1   22.00    2.90 
   6   5  -1   19.40    4.60 
   6   5  -1   21.00    3.40 
  -6  -5   1   18.20    6.90 
   7   5  -1   31.90    5.80 
  -7  -5   1   30.50    9.70 
   8   5  -1    1.20    4.70 
  -8  -5   1   -3.80    7.50 
   9   5  -1   17.00    6.00 
  -9  -5   1   -0.30    9.60 
  10   5  -1   -7.90    5.30 
 -10  -5   1   -1.30   10.40 
  11   5  -1    4.90    6.50 
 -11  -5   1   -5.80   11.70 
 -10   5   0  159.88   16.10 
  -9   5   0  147.09   14.20 
   9  -5   0  143.09   14.60 
  -8   5   0  709.33   51.39 
   8  -5   0  745.23   51.89 
  -7   5   0  663.53   48.60 
   7  -5   0  721.73   47.70 
   7  -5   0  680.13   49.00 
  -6   5   0  285.47   22.00 
   6  -5   0  271.57   20.80 
   6  -5   0  310.67   22.20 
  -5   5   0  344.97   26.30 
   5  -5   0  360.36   26.30 
   5  -5   0  372.46   25.70 
  -4   5   0  140.99   12.80 
   4  -5   0  140.59   12.40 
   4  -5   0  163.68   12.10 
  -3   5   0  239.38   18.50 
   3  -5   0  227.98   17.60 
   3  -5   0  249.48   17.60 
  -2   5   0  743.83   52.09 
   2  -5   0  722.03   51.19 
   2  -5   0  768.12   51.29 
  -1   5   0 1642.94  115.19 
   1  -5   0 1587.74  114.19 
   1  -5   0 1659.93  114.29 
   1  -5   0 1831.52  113.79 
   0   5   0 1962.80  142.59 
   0   5   0 2127.59  141.99 
   0  -5   0 2254.77  141.99 
   0  -5   0 2018.80  141.79 
   1   5   0 2573.34  170.48 
  -1  -5   0 2656.13  171.38 
  -1  -5   0 2349.67  170.68 
   2   5   0 1830.02  120.09 
   2   5   0 1772.22  119.19 
  -2  -5   0 1640.04  119.39 
  -2  -5   0 1822.02  120.69 
   3   5   0  444.26   31.50 
   3   5   0  457.65   30.50 
  -3  -5   0  454.65   32.90 
  -3  -5   0  421.06   30.90 
   4   5   0    1.30    1.60 
   4   5   0    0.60    2.80 
  -4  -5   0    4.60    2.20 
  -4  -5   0    9.30    4.60 
   5   5   0  291.77   20.40 
   5   5   0  294.97   21.60 
  -5  -5   0  292.57   24.10 
  -5  -5   0  285.97   20.60 
   6   5   0  566.04   38.30 
   6   5   0  551.64   39.10 
  -6  -5   0  532.65   42.30 
   7   5   0  503.15   37.10 
   7   5   0  536.85   36.30 
  -7  -5   0  511.05   41.30 
   8   5   0  593.74   40.20 
   8   5   0  558.74   40.90 
  -8  -5   0  547.55   46.10 
   9   5   0  640.84   41.90 
   9   5   0  541.95   41.00 
  -9  -5   0  510.15   46.70 
  10   5   0  215.98   18.90 
 -10  -5   0  195.98   25.60 
  11   5   0  124.09   13.40 
 -11  -5   0  121.29   22.20 
 -10   5   1   -5.70    6.20 
  10  -5  -1   -3.20    7.40 
  -9   5   1    0.60    5.60 
   9  -5  -1    6.70    5.80 
  -8   5   1    6.60    5.10 
   8  -5  -1   -1.80    4.60 
  -7   5   1   -6.10    3.90 
   7  -5  -1   -3.10    2.30 
   7  -5  -1   -4.60    3.90 
  -6   5   1    4.10    3.70 
   6  -5  -1    4.70    2.60 
   6  -5  -1   -1.40    3.80 
  -5   5   1   -0.70    3.30 
   5  -5  -1   -1.70    3.10 
   5  -5  -1    1.10    2.30 
  -4   5   1   80.99    7.80 
   4  -5  -1   69.59    7.50 
   4  -5  -1   78.89    7.20 
  -3   5   1    9.50    3.30 
   3  -5  -1    8.80    2.60 
   3  -5  -1    4.50    3.00 
  -2   5   1   14.20    3.70 
   2  -5  -1   21.60    3.50 
   2  -5  -1   15.40    3.10 
  -1   5   1   33.30    5.00 
  -1   5   1   38.70    5.00 
   1  -5  -1   32.40    3.30 
   1  -5  -1   49.80    4.60 
   0   5   1  184.48   14.40 
   0   5   1  171.28   14.80 
   0  -5  -1  194.48   14.00 
   0  -5  -1  200.68   14.10 
   1   5   1  316.17   22.50 
   1   5   1  305.77   23.20 
  -1  -5  -1  335.07   23.10 
  -1  -5  -1  305.77   22.40 
   2   5   1  210.28   15.40 
   2   5   1  220.08   16.00 
  -2  -5  -1  227.68   16.90 
  -2  -5  -1  195.78   15.40 
   3   5   1  111.19    8.60 
   3   5   1  114.99    9.60 
  -3  -5  -1  105.19   11.10 
  -3  -5  -1  114.79    8.90 
   4   5   1    6.60    2.70 
   4   5   1    0.30    1.50 
  -4  -5  -1    4.80    2.10 
  -4  -5  -1   -1.00    3.70 
   5   5   1    0.60    1.80 
   5   5   1    0.70    3.00 
  -5  -5  -1    4.20    2.00 
  -5  -5  -1   -3.70    4.20 
   6   5   1   89.89    7.90 
   6   5   1   88.39    8.60 
  -6  -5  -1   94.59   12.60 
   7   5   1    3.50    3.90 
   7   5   1    8.70    3.10 
  -7  -5  -1   11.40    7.10 
   8   5   1   49.70    6.10 
   8   5   1   57.09    7.10 
  -8  -5  -1   52.99   12.30 
   9   5   1    5.80    5.10 
   9   5   1    6.00    4.20 
  -9  -5  -1    3.00    9.70 
  10   5   1    3.50    5.60 
  10   5   1    3.60    4.70 
 -10  -5  -1    5.70   10.90 
  11   5   1    9.90    7.00 
 -11  -5  -1    9.90   13.70 
 -10   5   2   21.20    7.40 
  -9   5   2   57.39    8.50 
   9  -5  -2   47.50    8.30 
  -8   5   2   92.79    9.70 
   8  -5  -2   78.99    9.70 
  -7   5   2  588.14   41.90 
   7  -5  -2  609.34   41.00 
   7  -5  -2  571.04   42.30 
  -6   5   2 1003.90   67.79 
   6  -5  -2  931.51   68.19 
   6  -5  -2 1013.00   67.19 
  -5   5   2  865.11   60.29 
   5  -5  -2  907.71   59.99 
   5  -5  -2  856.81   60.79 
  -4   5   2 1245.68   85.19 
   4  -5  -2 1220.28   85.69 
   4  -5  -2 1282.77   84.99 
  -3   5   2  120.79   10.60 
   3  -5  -2  129.39   10.90 
   3  -5  -2  129.19   10.00 
  -2   5   2   65.79    7.30 
   2  -5  -2   84.99    6.90 
  -1   5   2  531.55   43.30 
  -1   5   2  644.04   44.00 
   1  -5  -2  665.63   43.00 
   1  -5  -2  644.94   42.40 
   0   5   2 1827.42  119.49 
   0   5   2 1615.54  119.29 
   0  -5  -2 1648.44  118.69 
   0  -5  -2 1939.71  118.89 
   1   5   2 1943.31  139.19 
   1   5   2 2061.59  139.09 
  -1  -5  -2 2241.78  138.79 
  -1  -5  -2 1963.00  139.19 
   2   5   2 2822.82  181.78 
   2   5   2 2646.44  181.78 
  -2  -5  -2 2475.65  182.38 
  -2  -5  -2 2813.72  181.48 
   3   5   2 2348.36  148.29 
   3   5   2 2135.89  148.09 
  -3  -5  -2 2023.10  149.49 
  -3  -5  -2 2249.68  147.89 
   4   5   2  996.70   70.59 
   4   5   2 1094.19   71.09 
  -4  -5  -2 1003.40   72.89 
  -4  -5  -2 1059.29   70.39 
   5   5   2  281.37   20.10 
   5   5   2  264.87   19.40 
  -5  -5  -2  276.37   23.00 
   6   5   2   44.60    4.90 
   6   5   2   52.89    5.90 
  -6  -5  -2   43.80    8.90 
   7   5   2  464.85   32.80 
   7   5   2  450.65   32.20 
  -7  -5  -2  462.85   37.20 
   8   5   2  417.86   30.30 
   8   5   2  413.06   29.70 
  -8  -5  -2  423.56   35.70 
   9   5   2  409.86   30.70 
   9   5   2  429.16   31.20 
  -9  -5  -2  453.25   38.00 
  10   5   2  365.86   25.70 
  10   5   2  287.17   24.40 
 -10  -5  -2  347.07   33.00 
  11   5   2   98.09   11.00 
  11   5   2  109.09   11.90 
 -11  -5  -2   91.69   19.10 
  -9   5   3   16.50    6.30 
   9  -5  -3   16.40    6.40 
  -8   5   3   -4.20    4.80 
   8  -5  -3    0.70    5.00 
   8  -5  -3    0.00    3.60 
  -7   5   3    5.80    4.40 
   7  -5  -3    5.30    2.90 
   7  -5  -3   -0.70    4.40 
  -6   5   3   22.00    4.40 
   6  -5  -3   17.90    3.30 
   6  -5  -3    9.20    4.50 
  -5   5   3   49.50    5.70 
   5  -5  -3   50.99    6.60 
   5  -5  -3   55.39    5.30 
  -4   5   3  140.99   12.10 
   4  -5  -3  158.08   11.80 
   4  -5  -3  170.38   13.30 
  -3   5   3  111.59    9.70 
   3  -5  -3  118.09    9.10 
  -2   5   3  152.68   12.70 
  -2   5   3  153.58   13.90 
   2  -5  -3  173.98   11.80 
   2  -5  -3  161.18   12.20 
  -1   5   3   20.10    3.70 
  -1   5   3   24.20    4.70 
   1  -5  -3   30.70    3.40 
   1  -5  -3   32.90    3.40 
   0   5   3  158.68   12.70 
   0   5   3  130.69   12.10 
   0  -5  -3  161.68   11.80 
   0  -5  -3  170.78   11.60 
   1   5   3  506.45   37.70 
   1   5   3  503.15   37.20 
  -1  -5  -3  546.15   37.50 
  -1  -5  -3  580.94   36.80 
   2   5   3  519.85   34.30 
   2   5   3  463.45   34.90 
  -2  -5  -3  479.75   35.20 
  -2  -5  -3  509.55   34.00 
   3   5   3   71.99    6.30 
   3   5   3   72.29    6.70 
  -3  -5  -3   54.49    7.70 
  -3  -5  -3   69.79    5.50 
   4   5   3  145.59   11.60 
   4   5   3  154.88   11.90 
  -4  -5  -3  152.78   10.70 
  -4  -5  -3  158.48   14.30 
   5   5   3   31.10    4.00 
   5   5   3   32.10    4.20 
  -5  -5  -3   26.70    6.50 
   6   5   3    4.60    3.20 
   6   5   3    8.00    2.80 
  -6  -5  -3    9.20    5.80 
   7   5   3   46.10    5.70 
   7   5   3   54.99    6.20 
  -7  -5  -3   54.09   10.10 
   8   5   3    2.40    4.00 
   8   5   3    7.20    3.50 
  -8  -5  -3    1.70    7.80 
   9   5   3   16.10    5.30 
   9   5   3   12.50    4.50 
  -9  -5  -3    9.40    9.70 
  10   5   3   -0.70    5.50 
  10   5   3   -0.10    4.50 
 -10  -5  -3    3.10   10.60 
  11   5   3   14.10    6.90 
  11   5   3    2.50    5.10 
 -11  -5  -3    4.40   11.70 
  -9   5   4   37.20    7.70 
   9  -5  -4   32.60    7.50 
  -8   5   4  115.39   11.30 
   8  -5  -4  103.59   11.70 
   8  -5  -4  115.79   10.10 
  -7   5   4  130.99   13.10 
   7  -5  -4  152.18   11.60 
   7  -5  -4  149.39   14.10 
  -6   5   4  414.76   30.70 
   6  -5  -4  431.86   31.60 
   6  -5  -4  437.16   30.00 
  -5   5   4  576.24   42.10 
   5  -5  -4  630.84   43.30 
   5  -5  -4  616.54   41.80 
  -4   5   4  495.55   36.00 
   4  -5  -4  541.05   35.90 
  -3   5   4  801.92   60.89 
  -3   5   4  813.52   59.09 
   3  -5  -4  976.30   59.39 
   3  -5  -4  846.52   58.89 
  -2   5   4  316.97   23.80 
  -2   5   4  267.87   21.70 
   2  -5  -4  304.77   21.40 
   2  -5  -4  326.87   21.50 
  -1   5   4    0.80    2.20 
  -1   5   4    6.40    3.40 
   1  -5  -4    2.10    1.70 
   1  -5  -4   -2.20    1.70 
   0   5   4  141.09   12.70 
   0  -5  -4  162.88   11.30 
   0  -5  -4  151.28   11.80 
   1   5   4  693.33   50.39 
   1   5   4  764.52   49.10 
  -1  -5  -4  701.43   49.80 
  -1  -5  -4  709.93   48.90 
   2   5   4  808.12   52.39 
   2   5   4  744.73   53.59 
  -2  -5  -4  765.32   52.19 
  -2  -5  -4  751.82   53.49 
   3   5   4  765.32   51.79 
   3   5   4  770.92   52.79 
  -3  -5  -4  750.72   51.59 
  -3  -5  -4  759.62   53.59 
   4   5   4  801.92   54.99 
   4   5   4  819.52   55.49 
  -4  -5  -4  827.12   57.19 
  -4  -5  -4  787.32   54.49 
   5   5   4  484.55   34.90 
   5   5   4  489.05   34.70 
  -5  -5  -4  542.35   37.70 
   6   5   4  267.67   20.10 
   6   5   4  268.97   20.00 
  -6  -5  -4  300.27   23.60 
   7   5   4  168.08   13.50 
   7   5   4  156.58   13.30 
  -7  -5  -4  183.28   18.20 
   8   5   4   94.69    9.10 
   8   5   4   81.69    8.70 
  -8  -5  -4  117.29   14.20 
   9   5   4   42.80    6.90 
   9   5   4   37.10    6.00 
  -9  -5  -4   55.09   12.00 
  10   5   4  185.88   15.70 
  10   5   4  146.99   14.50 
 -10  -5  -4  166.48   20.60 
  11   5   4  160.28   15.90 
 -11  -5  -4  190.58   17.20 
 -11  -5  -4  165.78   22.60 
   9  -5  -5    9.30    6.40 
   8  -5  -5   -0.70    5.50 
   8  -5  -5    4.90    3.40 
  -7   5   5   -1.10    4.80 
   7  -5  -5    0.30    2.80 
   7  -5  -5   -7.40    4.70 
  -6   5   5    1.60    3.70 
   6  -5  -5    0.80    2.70 
  -5   5   5   -2.20    4.90 
  -5   5   5   -5.50    3.00 
   5  -5  -5   -0.10    2.30 
  -4   5   5   -0.20    4.40 
  -4   5   5    3.60    2.60 
   4  -5  -5    0.10    2.10 
   4  -5  -5    1.00    4.90 
  -3   5   5   10.50    2.80 
  -3   5   5    1.90    4.40 
   3  -5  -5    5.60    2.30 
   3  -5  -5    8.10    3.30 
  -2   5   5    8.70    2.60 
  -2   5   5   13.40    4.90 
   2  -5  -5    8.30    2.70 
   2  -5  -5   15.30    2.50 
  -1   5   5   50.29    6.90 
  -1   5   5   33.50    4.30 
   1  -5  -5   48.50    4.30 
   1  -5  -5   47.70    4.90 
   0   5   5   53.89    6.90 
   0  -5  -5   57.19    6.10 
   0  -5  -5   52.79    5.00 
   1   5   5   47.10    6.70 
   1   5   5   52.79    4.10 
  -1  -5  -5   47.50    4.50 
  -1  -5  -5   45.30    5.70 
   2   5   5   35.80    3.50 
   2   5   5   40.00    5.70 
  -2  -5  -5   39.80    5.60 
  -2  -5  -5   35.20    3.40 
   3   5   5   16.10    3.80 
   3   5   5   17.50    2.40 
  -3  -5  -5   21.90    4.70 
  -3  -5  -5   13.70    2.10 
   4   5   5    1.50    2.70 
   4   5   5    2.80    2.00 
  -4  -5  -5    0.60    1.20 
  -4  -5  -5    0.40    3.90 
   5   5   5   25.30    3.50 
   5   5   5   23.10    4.00 
  -5  -5  -5   30.30    6.60 
   6   5   5   36.30    4.70 
   6   5   5   37.60    5.30 
  -6  -5  -5   45.70    8.40 
   7   5   5   80.29    7.60 
   7   5   5   68.69    7.60 
  -7  -5  -5   86.99   11.70 
   8   5   5   35.40    5.70 
   8   5   5   34.80    5.80 
  -8  -5  -5   53.59   10.70 
   9   5   5    9.60    4.80 
  -9  -5  -5   28.30    9.90 
  10   5   5   15.30    5.40 
 -10  -5  -5    7.60    6.20 
 -10  -5  -5    9.70   10.10 
  11   5   5   -2.20    5.00 
 -11  -5  -5   -9.70   10.00 
 -11  -5  -5   -7.50    6.70 
  -9   5   6  238.28   24.90 
  -8   5   6   38.90   10.00 
   8  -5  -6   28.70    4.70 
  -7   5   6   19.10    8.40 
   7  -5  -6   32.10    4.50 
  -6   5   6  107.19   13.80 
   6  -5  -6  108.29    9.40 
  -5   5   6  302.87   27.00 
   5  -5  -6  334.57   23.20 
  -4   5   6  688.83   54.09 
   4  -5  -6  837.92   52.59 
   4  -5  -6  698.53   50.89 
  -3   5   6  495.35   37.20 
   3  -5  -6  467.15   33.90 
   3  -5  -6  512.85   35.00 
  -2   5   6  696.33   49.70 
   2  -5  -6  687.43   47.10 
   2  -5  -6  680.43   47.70 
  -1   5   6  516.95   36.40 
   1  -5  -6  490.75   33.80 
   1  -5  -6  473.55   34.40 
   0   5   6   98.59   10.50 
   0  -5  -6   82.49    8.40 
   0  -5  -6   88.59    7.10 
   1   5   6    6.60    4.00 
  -1  -5  -6   20.60    2.60 
  -1  -5  -6   19.30    4.10 
  -2  -5  -6  393.06   27.80 
  -2  -5  -6  365.06   25.90 
   3   5   6  779.32   52.49 
  -3  -5  -6  759.42   52.69 
  -3  -5  -6  714.63   50.59 
   4   5   6  603.14   40.10 
  -4  -5  -6  591.84   41.50 
  -4  -5  -6  528.55   38.50 
   5   5   6  440.26   29.30 
   5   5   6  357.16   28.50 
  -5  -5  -6  442.06   31.40 
   6   5   6  167.18   13.60 
   6   5   6  149.29   12.50 
  -6  -5  -6  183.48   16.80 
   7   5   6   26.80    5.20 
  -7  -5  -6   21.00    7.90 
   8   5   6   90.99    9.60 
  -8  -5  -6  105.89    9.90 
  -8  -5  -6   87.09   13.20 
   9   5   6   27.70    5.80 
  -9  -5  -6   24.30    6.20 
  -9  -5  -6   23.90    9.70 
  10   5   6   20.60    6.00 
 -10  -5  -6   16.50    9.90 
 -10  -5  -6   13.20    6.70 
  -8   5   7    6.20    8.50 
   8  -5  -7    6.20    3.80 
  -7   5   7    9.60    8.60 
   7  -5  -7   21.20    4.10 
  -6   5   7   21.40    8.40 
   6  -5  -7   27.10    4.20 
  -5   5   7    6.30    6.60 
   5  -5  -7    6.80    3.10 
  -4   5   7  112.79   13.40 
   4  -5  -7  107.09   10.50 
   4  -5  -7   82.19    7.90 
  -3   5   7   76.19   10.40 
   3  -5  -7   78.09    8.00 
   3  -5  -7   64.39    6.30 
  -2   5   7   -2.40    4.90 
   2  -5  -7    0.10    2.20 
   2  -5  -7    3.60    3.30 
  -1   5   7   42.40    7.60 
   1  -5  -7   38.40    4.10 
   1  -5  -7   34.70    5.10 
   0   5   7   89.19   10.90 
   0  -5  -7   83.99    7.00 
   0  -5  -7   78.69    8.30 
   1   5   7   16.20    5.40 
  -1  -5  -7   21.40    4.40 
  -1  -5  -7   14.00    2.50 
   2   5   7   67.99    8.60 
  -2  -5  -7   72.39    8.20 
  -2  -5  -7   64.49    5.80 
   3   5   7    4.20    4.00 
  -3  -5  -7    3.80    1.90 
  -3  -5  -7    7.50    4.50 
   4   5   7    4.30    3.80 
  -4  -5  -7    7.40    4.80 
   5   5   7    2.90    3.60 
  -5  -5  -7   -1.40    4.70 
   6   5   7    3.60    4.10 
  -6  -5  -7    3.00    6.00 
   7   5   7   23.50    5.30 
  -7  -5  -7   28.40    8.40 
   8   5   7    4.60    4.60 
  -8  -5  -7   10.20    7.70 
   9   5   7   47.30    7.40 
  -9  -5  -7   59.19   12.10 
  10   5   7   -1.40    5.10 
 -10  -5  -7    0.90    9.20 
  -8   5   8   54.79   12.30 
   8  -5  -8   59.39    6.70 
  -7   5   8   54.49   11.60 
   7  -5  -8   39.80    5.40 
  -6   5   8    9.10    7.80 
   6  -5  -8   -2.50    3.30 
  -5   5   8   18.50    8.00 
   5  -5  -8    7.70    3.30 
  -4   5   8  110.39   14.30 
   4  -5  -8  118.69   10.00 
   4  -5  -8  132.29   13.40 
  -3   5   8  196.88   20.10 
   3  -5  -8  210.28   15.70 
   3  -5  -8  224.38   17.70 
  -2   5   8  190.88   18.80 
   2  -5  -8  189.48   14.50 
   2  -5  -8  204.28   16.20 
  -1   5   8  141.39   15.10 
   1  -5  -8  126.59   11.60 
   1  -5  -8  124.99   10.00 
   0   5   8  142.49   14.90 
   0  -5  -8  141.29   11.10 
   0  -5  -8  151.58   12.70 
   1   5   8  131.79   13.30 
  -1  -5  -8  119.29   11.10 
  -1  -5  -8  101.09    8.60 
   2   5   8   61.49    8.60 
  -2  -5  -8   54.59    5.10 
  -2  -5  -8   60.39    8.10 
   3   5   8   -1.20    4.30 
  -3  -5  -8   -1.40    4.00 
  -3  -5  -8    1.40    2.00 
   4   5   8   77.39    6.70 
   4   5   8   79.69    8.90 
  -4  -5  -8   59.09    9.50 
   5   5   8  148.59   13.20 
  -5  -5  -8  134.89   14.60 
   6   5   8  213.58   17.20 
  -6  -5  -8  185.98   19.30 
   7   5   8   79.49    9.40 
  -7  -5  -8   90.59   12.50 
   8   5   8   28.70    6.30 
  -8  -5  -8   34.80    9.90 
   9   5   8   13.40    5.90 
  -9  -5  -8   44.50   10.90 
  -7   5   9    2.20    8.20 
   7  -5  -9   -2.10    3.70 
  -6   5   9   19.80    8.90 
   6  -5  -9    9.60    3.80 
  -5   5   9    1.20    7.60 
   5  -5  -9   22.50    4.10 
  -4   5   9   16.50    8.10 
   4  -5  -9    8.30    3.10 
   4  -5  -9   -4.20    5.30 
  -3   5   9   36.30    9.10 
   3  -5  -9   24.30    6.10 
   3  -5  -9   24.20    3.90 
  -2   5   9    2.60    6.70 
   2  -5  -9   -5.80    3.70 
   2  -5  -9   -1.20    2.40 
  -1   5   9    0.80    6.30 
   1  -5  -9   -0.70    2.40 
   1  -5  -9    1.70    3.90 
   0   5   9   28.50    8.00 
   0  -5  -9   22.60    5.20 
   0  -5  -9   25.40    3.50 
   1   5   9   22.60    7.10 
  -1  -5  -9   24.30    3.40 
  -1  -5  -9   24.70    5.50 
   2   5   9   81.59   10.50 
  -2  -5  -9   66.69    9.00 
  -2  -5  -9   74.09    6.70 
   3   5   9   31.20    6.80 
   3   5   9   39.00    4.80 
  -3  -5  -9   29.70    6.80 
   4   5   9   57.09    8.30 
   4   5   9   75.89    6.50 
  -4  -5  -9   50.39    9.40 
   5   5   9    2.70    4.70 
  -5  -5  -9    1.90    5.50 
   6   5   9   -2.40    4.90 
  -6  -5  -9   -0.80    6.40 
   7   5   9    1.70    5.00 
  -7  -5  -9    1.10    6.90 
   8   5   9   31.60    7.00 
  -8  -5  -9   44.20   10.60 
   9   5   9    6.50    5.80 
  -9  -5  -9   -4.20    7.90 
   6  -5 -10   34.20    5.40 
  -5   5  10    0.20    8.10 
   5  -5 -10    3.10    3.50 
  -4   5  10    8.80    8.50 
   4  -5 -10    0.60    5.90 
   4  -5 -10    3.80    3.30 
  -3   5  10   71.79   12.80 
   3  -5 -10   72.09    7.00 
   3  -5 -10   76.59    9.80 
  -2   5  10   97.99   13.60 
   2  -5 -10   90.49   10.40 
   2  -5 -10   88.29    8.30 
  -1   5  10  250.87   22.10 
   1  -5 -10  215.68   18.20 
   1  -5 -10  202.08   15.90 
   0   5  10   83.79   12.00 
   0  -5 -10   69.79    8.70 
   0  -5 -10   71.79    6.70 
   1   5  10   40.80    8.80 
  -1  -5 -10   21.40    5.80 
   2   5  10    7.90    3.60 
   2   5  10   13.50    6.50 
  -2  -5 -10    1.60    4.80 
   3   5  10    3.50    5.40 
   3   5  10    1.20    3.20 
  -3  -5 -10    3.00    5.50 
   4   5  10    3.20    5.40 
  -4  -5 -10   -0.70    5.50 
   5   5  10   12.30    5.70 
  -5  -5 -10    6.90    6.60 
   6   5  10    9.80    6.10 
  -6  -5 -10   17.50    7.90 
   7   5  10   52.79    8.30 
  -7  -5 -10   36.80   10.30 
   8   5  10   24.70    7.40 
  -8  -5 -10   12.90    9.00 
   4  -5 -11    7.70    6.70 
  -3   5  11   29.20   10.00 
   3  -5 -11   16.30    6.60 
  -2   5  11    6.20    9.00 
   2  -5 -11    0.80    5.30 
  -1   5  11   -7.00    7.60 
  -1   5  11   -8.90    3.60 
   1  -5 -11    6.80    5.30 
   0   5  11   -4.90    3.80 
   0   5  11   -1.70    7.30 
   0  -5 -11    3.30    4.80 
   1   5  11    4.70    4.00 
   1   5  11    8.30    7.10 
  -1  -5 -11    0.10    4.70 
   2   5  11   17.80    7.40 
   2   5  11   24.20    4.70 
  -2  -5 -11   16.70    6.10 
   3   5  11    3.30    4.00 
   3   5  11    6.80    6.10 
  -3  -5 -11    0.30    5.50 
   4   5  11   31.00    7.40 
  -4  -5 -11   21.40    7.10 
   5   5  11    1.10    6.00 
  -5  -5 -11   -2.20    6.40 
   6   5  11    9.90    6.70 
  -6  -5 -11    0.80    6.90 
   7   5  11   -5.60    6.20 
  -7  -5 -11    8.50    7.90 
  -3   5  12   11.30    5.30 
   3  -5 -12    7.20    6.70 
  -2   5  12   -0.60    4.70 
   2  -5 -12    1.40    6.30 
  -1   5  12    0.70    4.40 
   1  -5 -12   -0.90    5.40 
   0   5  12   47.10    6.80 
   0   5  12   62.49   11.10 
   0  -5 -12   33.10    8.00 
   1   5  12   47.20    9.80 
   1   5  12   59.69    7.10 
  -1  -5 -12   30.30    7.60 
   2   5  12   43.60    6.40 
   2   5  12   41.80    9.00 
  -2  -5 -12   31.80    7.80 
   3   5  12    7.00    6.80 
   3   5  12   16.60    5.10 
  -3  -5 -12    9.50    6.40 
   4   5  12   12.60    6.60 
  -4  -5 -12   -2.90    6.20 
   5   5  12   15.60    7.30 
  -5  -5 -12    0.50    6.90 
  -1   5  13   33.10    6.60 
   1  -5 -13   14.60    7.40 
   0   5  13    7.30    5.00 
   0  -5 -13    6.80    6.50 
   1   5  13   -1.70    4.90 
  -1  -5 -13    2.50    6.40 
   2   5  13    6.10    8.90 
   2   5  13    4.10    5.10 
  -2  -5 -13   -1.70    6.30 
   3   5  13   78.19   10.90 
  -3  -5 -13   72.49   13.60 
  -3   6  -9   42.80   10.90 
   3  -6   9   34.60    8.20 
  -2   6  -9   10.10    8.50 
   2  -6   9   -3.50    5.70 
  -1   6  -9    5.80    7.60 
   1  -6   9    2.00    5.80 
   0   6  -9   24.40    7.40 
   0  -6   9   30.30    7.00 
   1   6  -9   65.29    9.10 
   1   6  -9   71.29   12.40 
  -1  -6   9   79.29    9.60 
   2   6  -9   70.19   12.90 
   2   6  -9   59.79    8.40 
  -2  -6   9   79.99    9.40 
   3   6  -9   63.29   13.30 
   3   6  -9   53.09    7.90 
  -3  -6   9   57.09    8.20 
   4   6  -9   26.40    6.50 
   4   6  -9   24.30   11.40 
  -4  -6   9   44.00    7.10 
  -4   6  -8   22.90    9.70 
   4  -6   8   25.70    7.20 
  -3   6  -8  195.08   21.20 
   3  -6   8  214.88   19.00 
  -2   6  -8  126.79   15.40 
   2  -6   8  125.39   12.90 
  -1   6  -8  483.25   36.30 
   1  -6   8  437.46   34.00 
   0   6  -8  307.77   26.60 
   0  -6   8  339.87   25.40 
   1   6  -8  193.58   19.00 
   1   6  -8  166.88   16.40 
  -1  -6   8  177.98   16.10 
   2   6  -8   -3.50    4.30 
   2   6  -8    1.10    7.60 
  -2  -6   8    7.10    5.00 
   3   6  -8    4.10    4.50 
   3   6  -8   13.10    9.10 
  -3  -6   8    3.10    4.70 
   4   6  -8   88.49   13.90 
   4   6  -8   43.90    7.60 
  -4  -6   8   66.79    8.10 
   5   6  -8  186.68   21.50 
   5   6  -8  157.78   15.80 
  -5  -6   8  194.98   15.80 
   6   6  -8   45.90    7.40 
  -6  -6   8   36.80    6.80 
  -6  -6   8   57.19   17.20 
  -6   6  -7   62.19   13.10 
  -5   6  -7   43.80   11.00 
   5  -6   7   49.00    7.80 
  -4   6  -7  119.29   16.50 
   4  -6   7  145.29   13.80 
  -3   6  -7   40.40   10.30 
   3  -6   7   53.49    8.10 
  -2   6  -7   57.39   10.50 
   2  -6   7   55.49    7.90 
  -1   6  -7   29.30    7.60 
   1  -6   7   13.70    5.10 
   0   6  -7    9.40    6.20 
   0   6  -7   -7.30    5.30 
   0  -6   7   -2.00    4.30 
   1   6  -7   25.00    7.90 
   1   6  -7   28.70    6.30 
  -1  -6   7   10.80    5.10 
   2   6  -7   71.39    8.60 
   2   6  -7   70.99   11.40 
  -2  -6   7   86.79    8.90 
   3   6  -7  121.29   15.00 
   3   6  -7  100.39   10.60 
  -3  -6   7  117.29   10.90 
   4   6  -7   82.79   12.80 
   4   6  -7   61.39    7.90 
  -4  -6   7   67.19    7.90 
   5   6  -7   32.80    6.40 
   5   6  -7   58.39   12.20 
  -5  -6   7   44.10    6.40 
   6   6  -7    8.20    5.50 
  -6  -6   7   15.70    5.00 
  -6  -6   7    8.90   12.30 
   7   6  -7    8.20    5.60 
  -7  -6   7   30.90   14.10 
  -7   6  -6  254.37   25.40 
  -6   6  -6  286.77   27.60 
   6  -6   6  310.57   23.80 
  -5   6  -6  117.99   15.70 
   5  -6   6  124.89   12.20 
  -4   6  -6   -5.60    6.50 
   4  -6   6   -3.20    4.20 
  -3   6  -6   -3.00    6.40 
   3  -6   6   -1.10    4.40 
  -2   6  -6  234.98   22.80 
   2  -6   6  259.67   20.10 
  -1   6  -6  673.93   49.30 
   1  -6   6  662.63   47.30 
   0   6  -6  304.97   24.80 
   0   6  -6  303.97   25.10 
   0  -6   6  313.37   23.50 
   1   6  -6 2080.79  142.79 
   1   6  -6 2028.10  142.09 
  -1  -6   6 2111.49  141.19 
   2   6  -6  668.63   48.00 
   2   6  -6  599.04   45.70 
  -2  -6   6  668.73   45.40 
   3   6  -6  237.58   19.40 
   3   6  -6  255.97   23.20 
  -3  -6   6  255.87   19.40 
   4   6  -6   93.59   13.10 
   4   6  -6   77.19    8.90 
  -4  -6   6   98.99    9.00 
   5   6  -6  128.79   13.40 
  -5  -6   6  162.58   13.00 
   6   6  -6  198.08   18.30 
  -6  -6   6  242.88   18.00 
  -6  -6   6  253.17   27.50 
   7   6  -6  281.87   24.30 
  -7  -6   6  405.46   34.10 
   8   6  -6  285.67   24.60 
  -8  -6   6  366.16   35.40 
  -7   6  -5    1.80    7.60 
   7  -6   5    6.80    6.80 
  -6   6  -5    2.50    7.00 
   6  -6   5    6.10    4.40 
  -5   6  -5   43.00    9.70 
   5  -6   5   51.29    7.00 
  -4   6  -5   63.19   10.30 
   4  -6   5   61.49    8.00 
  -3   6  -5  132.59   16.10 
   3  -6   5  169.68   14.20 
  -2   6  -5   87.69   11.80 
   2  -6   5   92.89    9.70 
  -1   6  -5   66.39   10.10 
   1  -6   5   74.69    8.20 
   0   6  -5   70.19    9.50 
   0   6  -5   69.79    9.00 
   0  -6   5   75.69    8.00 
   1   6  -5   -3.40    4.00 
   1   6  -5    2.90    5.10 
  -1  -6   5   -2.90    3.30 
   2   6  -5   -7.70    4.80 
   2   6  -5    0.20    3.70 
  -2  -6   5    0.60    3.30 
   3   6  -5   32.70    7.70 
   3   6  -5   25.30    5.10 
  -3  -6   5   29.20    5.00 
   4   6  -5   76.79   11.70 
   4   6  -5   77.49    8.60 
  -4  -6   5   89.69    8.40 
   5   6  -5   60.39    7.90 
  -5  -6   5   74.49    7.60 
  -5  -6   5   71.89   13.10 
   6   6  -5   41.50    6.80 
  -6  -6   5   57.99    6.70 
  -6  -6   5   58.69   12.80 
   7   6  -5   24.10    6.00 
  -7  -6   5   -0.90   10.10 
   8   6  -5    4.30    5.80 
  -8  -6   5    9.30   11.40 
   9   6  -5   -4.10    6.00 
  -9  -6   5  -13.90   11.10 
  -8   6  -4  143.69   17.10 
   8  -6   4  164.98   15.50 
  -7   6  -4   81.59   12.70 
   7  -6   4   97.59   10.80 
  -6   6  -4  511.25   40.40 
   6  -6   4  544.55   37.60 
   6  -6   4  516.55   38.20 
  -5   6  -4  329.27   27.80 
   5  -6   4  313.97   25.00 
   5  -6   4  352.86   25.00 
  -4   6  -4  606.04   44.90 
   4  -6   4  577.54   42.10 
   4  -6   4  611.94   42.40 
  -3   6  -4   10.10    6.10 
   3  -6   4    8.70    4.00 
  -2   6  -4   -0.40    4.90 
   2  -6   4    0.10    3.40 
  -1   6  -4   82.39   11.10 
   1  -6   4  105.59    9.60 
   0   6  -4 1388.76   96.49 
   0   6  -4 1360.16   97.09 
   0  -6   4 1445.16   95.79 
   1   6  -4  132.59   12.80 
   1   6  -4  125.09   12.60 
  -1  -6   4  121.49   11.10 
   2   6  -4 1923.21  130.59 
   2   6  -4 1876.01  129.69 
  -2  -6   4 1894.51  128.89 
   3   6  -4 1044.30   78.59 
   3   6  -4 1134.29   77.09 
  -3  -6   4 1168.58   76.69 
   4   6  -4  552.54   41.00 
  -4  -6   4  573.94   40.50 
  -4  -6   4  625.94   44.70 
   5   6  -4  439.16   33.10 
  -5  -6   4  489.55   37.90 
  -5  -6   4  455.75   32.40 
   6   6  -4    0.40    4.30 
  -6  -6   4    2.50    3.80 
  -6  -6   4    7.60    8.20 
   7   6  -4  132.39   12.90 
  -7  -6   4  158.08   19.40 
   8   6  -4  240.68   21.70 
  -8  -6   4  316.37   29.90 
   9   6  -4  213.38   20.00 
  -9  -6   4  233.48   27.50 
  -8   6  -3   22.50    8.30 
   8  -6   3   22.60    7.00 
  -7   6  -3   26.80    7.90 
   7  -6   3   16.10    5.50 
   7  -6   3   35.00    7.20 
  -6   6  -3   -7.90    5.50 
   6  -6   3    1.90    3.50 
   6  -6   3    5.00    4.80 
  -5   6  -3   -4.00    5.30 
   5  -6   3   -4.30    4.00 
   5  -6   3   -3.20    3.00 
  -4   6  -3   20.70    6.80 
   4  -6   3   27.00    4.90 
   4  -6   3   27.50    5.20 
  -3   6  -3   37.00    7.80 
   3  -6   3   38.00    5.60 
   3  -6   3   47.30    5.80 
  -2   6  -3  107.09   12.80 
   2  -6   3  136.49   11.20 
   2  -6   3  120.29   10.40 
  -1   6  -3   81.39   10.80 
  -1   6  -3  108.79   10.80 
   1  -6   3  100.79    9.30 
   0   6  -3   31.00    6.30 
   0   6  -3   36.90    5.90 
   0  -6   3   42.50    5.40 
   1   6  -3   51.09    6.90 
   1   6  -3   34.50    6.50 
  -1  -6   3   50.59    5.80 
   2   6  -3    2.70    3.40 
  -2  -6   3   -0.60    2.80 
   3   6  -3    5.30    3.40 
  -3  -6   3    4.20    4.90 
  -3  -6   3   -1.70    2.60 
   4   6  -3    7.10    3.80 
  -4  -6   3    8.00    5.90 
  -4  -6   3    1.20    2.90 
   5   6  -3    6.10    4.10 
  -5  -6   3    7.70    3.20 
  -5  -6   3    7.10    6.80 
   6   6  -3   37.90    6.40 
  -6  -6   3   61.89   11.60 
   7   6  -3    4.60    4.90 
  -7  -6   3    2.60    8.30 
   8   6  -3   22.70    6.40 
  -8  -6   3   19.70   11.00 
   9   6  -3    6.50    6.20 
  -9  -6   3    1.10   10.60 
  10   6  -3    5.30    6.70 
 -10  -6   3   -9.50   10.80 
  -9   6  -2   15.40    8.90 
   9  -6   2    7.10    6.70 
  -8   6  -2    8.00    6.60 
   8  -6   2   -0.40    5.70 
  -7   6  -2  247.58   21.00 
   7  -6   2  231.08   17.80 
   7  -6   2  218.08   19.50 
  -6   6  -2  398.46   31.60 
   6  -6   2  431.26   29.60 
   6  -6   2  394.86   30.40 
  -5   6  -2  570.34   41.80 
   5  -6   2  567.94   39.90 
   5  -6   2  563.14   40.40 
  -4   6  -2 1410.66   98.39 
   4  -6   2 1363.96   96.89 
   4  -6   2 1478.35   96.89 
  -3   6  -2 1398.86   97.69 
   3  -6   2 1503.45   96.09 
   3  -6   2 1319.97   95.69 
  -2   6  -2  381.76   30.80 
   2  -6   2  378.76   28.60 
   2  -6   2  450.05   29.20 
  -1   6  -2  197.38   17.60 
   1  -6   2  189.38   15.10 
   1  -6   2  212.78   15.60 
   1  -6   2  203.48   15.70 
   0   6  -2  165.88   12.10 
   0   6  -2  145.89   14.10 
   0  -6   2  152.88   13.10 
   0  -6   2  144.29   12.50 
   1   6  -2 1587.34  113.09 
   1   6  -2 1687.23  111.19 
  -1  -6   2 1706.13  113.09 
  -1  -6   2 1596.24  112.09 
   2   6  -2 1130.39   81.39 
  -2  -6   2 1244.78   82.29 
  -2  -6   2 1166.88   80.59 
   3   6  -2 1612.04  108.69 
  -3  -6   2 1563.94  108.09 
  -3  -6   2 1600.24  110.19 
   4   6  -2 1974.30  136.99 
  -4  -6   2 1959.70  136.39 
  -4  -6   2 2121.89  139.39 
   5   6  -2  970.00   67.59 
  -5  -6   2  977.20   70.39 
  -5  -6   2  979.50   66.79 
   6   6  -2  326.57   26.10 
  -6  -6   2  388.56   30.70 
   7   6  -2  132.09   12.50 
  -7  -6   2  127.69   16.50 
   8   6  -2   83.79   10.30 
  -8  -6   2  108.69   16.80 
   9   6  -2  290.77   24.50 
  -9  -6   2  333.27   32.00 
  10   6  -2  206.08   19.80 
 -10  -6   2  233.38   27.60 
  -9   6  -1   13.80    7.30 
   9  -6   1    6.70    6.40 
  -8   6  -1   38.70    8.40 
   8  -6   1   49.40    8.30 
  -7   6  -1   13.40    6.40 
   7  -6   1   14.40    5.60 
   7  -6   1   10.70    3.70 
  -6   6  -1   29.40    6.90 
   6  -6   1   29.30    4.80 
   6  -6   1   39.10    6.50 
  -5   6  -1    7.70    5.20 
   5  -6   1    9.80    3.60 
   5  -6   1   11.20    4.30 
  -4   6  -1   -4.80    4.00 
   4  -6   1    0.00    2.90 
   4  -6   1    6.60    3.60 
  -3   6  -1    1.60    4.50 
   3  -6   1    1.10    3.10 
   3  -6   1    4.50    3.00 
  -2   6  -1   10.10    4.50 
   2  -6   1    9.90    3.10 
   2  -6   1    6.80    3.10 
  -1   6  -1   38.60    6.80 
   1  -6   1   55.79    5.50 
   1  -6   1   43.30    5.50 
   0   6  -1   49.80    7.40 
   0   6  -1   54.49    5.90 
   0  -6   1   53.09    5.90 
   0  -6   1   58.19    6.50 
   1   6  -1   32.60    3.60 
   1   6  -1   29.40    5.40 
  -1  -6   1   30.70    5.30 
  -1  -6   1   26.70    4.20 
   2   6  -1   25.30    2.90 
   2   6  -1   17.10    4.30 
  -2  -6   1   26.80    3.90 
  -2  -6   1   18.50    5.00 
   3   6  -1   11.50    1.80 
   3   6  -1    9.70    3.60 
  -3  -6   1    9.40    2.90 
  -3  -6   1   11.50    4.90 
   4   6  -1    0.30    3.40 
   4   6  -1    1.90    1.70 
  -4  -6   1    2.80    2.50 
  -4  -6   1    5.00    5.20 
   5   6  -1    1.80    3.80 
  -5  -6   1   -2.30    5.30 
  -5  -6   1    2.40    2.50 
   6   6  -1    6.20    4.50 
  -6  -6   1    5.10    6.20 
   7   6  -1   21.20    5.70 
  -7  -6   1    5.40    7.20 
   8   6  -1   -0.50    5.20 
  -8  -6   1    5.70    8.50 
   9   6  -1   17.00    6.80 
  -9  -6   1   17.50   11.20 
  10   6  -1   -0.10    6.30 
 -10  -6   1    8.30   10.90 
  -9   6   0  198.48   18.40 
   9  -6   0  189.68   18.30 
  -8   6   0   13.60    6.50 
   8  -6   0   14.00    5.90 
  -7   6   0    5.10    5.20 
   7  -6   0    5.90    3.10 
   7  -6   0   16.10    5.30 
  -6   6   0   34.00    6.80 
   6  -6   0   32.10    6.10 
   6  -6   0   44.30    5.30 
  -5   6   0  943.31   64.19 
   5  -6   0  900.41   63.49 
   5  -6   0  907.41   63.09 
  -4   6   0  168.48   16.30 
   4  -6   0  196.78   15.00 
   4  -6   0  197.18   15.40 
  -3   6   0 1371.76   91.19 
   3  -6   0 1284.47   89.89 
   3  -6   0 1300.37   89.99 
  -2   6   0 1595.34  107.09 
   2  -6   0 1478.05  105.69 
   2  -6   0 1596.54  105.79 
  -1   6   0  755.62   51.19 
  -1   6   0  653.13   51.79 
   1  -6   0  719.23   50.79 
   1  -6   0  779.42   50.19 
   0   6   0  988.90   74.39 
   0   6   0 1075.29   73.59 
   0  -6   0 1153.98   73.59 
   0  -6   0 1057.09   73.49 
   1   6   0  116.19   11.50 
   1   6   0  138.49   10.00 
  -1  -6   0  122.39   11.20 
  -1  -6   0  116.19   10.30 
   2   6   0  475.25   35.70 
   2   6   0  525.25   34.60 
  -2  -6   0  517.75   36.20 
  -2  -6   0  474.85   34.90 
   3   6   0 1021.40   68.39 
   3   6   0  968.10   67.29 
  -3  -6   0 1024.10   69.59 
  -3  -6   0  962.80   67.79 
   4   6   0 1081.39   71.29 
   4   6   0 1055.79   72.49 
  -4  -6   0 1066.69   74.09 
  -4  -6   0 1002.00   71.79 
   5   6   0 1702.83  111.59 
   5   6   0 1651.93  110.39 
  -5  -6   0 1645.94  113.79 
  -5  -6   0 1540.75  110.69 
   6   6   0  866.91   58.89 
   6   6   0  877.41   60.19 
  -6  -6   0  838.82   62.69 
   7   6   0  634.74   45.10 
   7   6   0  629.94   44.50 
  -7  -6   0  636.24   48.70 
   8   6   0  228.48   19.80 
  -8  -6   0  240.38   25.20 
   9   6   0   79.59    9.90 
  -9  -6   0   69.79   14.10 
  10   6   0   89.99   11.10 
 -10  -6   0   73.59   16.50 
  11   6   0  109.39   12.60 
 -11  -6   0   89.19   19.90 
  -9   6   1   11.30    6.90 
   9  -6  -1    9.60    6.60 
  -8   6   1   -0.80    5.60 
   8  -6  -1    2.20    5.40 
  -7   6   1   14.10    5.70 
   7  -6  -1   18.60    3.80 
   7  -6  -1   18.50    5.80 
  -6   6   1   10.90    5.00 
   6  -6  -1   12.00    5.00 
   6  -6  -1   16.80    3.50 
  -5   6   1   -1.70    3.90 
   5  -6  -1   -1.10    2.70 
   5  -6  -1    9.40    4.20 
  -4   6   1   23.50    5.20 
   4  -6  -1   17.30    3.70 
   4  -6  -1   30.60    5.00 
  -3   6   1    2.60    3.90 
   3  -6  -1    7.30    3.40 
   3  -6  -1    3.00    2.70 
  -2   6   1    0.40    3.40 
   2  -6  -1   -0.40    2.50 
  -1   6   1    7.80    3.60 
  -1   6   1    8.20    3.30 
   1  -6  -1    4.90    1.60 
   1  -6  -1   27.50    3.70 
   0   6   1   -1.50    3.00 
   0   6   1   -1.00    2.30 
   0  -6  -1    0.90    2.00 
   0  -6  -1    1.40    2.20 
   1   6   1    2.90    3.20 
   1   6   1   -0.20    1.90 
  -1  -6  -1    1.80    2.60 
  -1  -6  -1   -1.60    2.00 
   2   6   1    7.10    3.20 
   2   6   1   12.30    2.60 
  -2  -6  -1    3.60    3.30 
  -2  -6  -1    7.60    2.60 
   3   6   1   -0.40    2.70 
   3   6   1    1.70    1.90 
  -3  -6  -1   -0.90    2.10 
  -3  -6  -1   -1.50    3.40 
   4   6   1    3.10    3.30 
   4   6   1    2.20    1.70 
  -4  -6  -1   -3.10    2.20 
  -4  -6  -1    6.30    4.60 
   5   6   1    2.20    2.10 
   5   6   1    2.50    3.60 
  -5  -6  -1    3.50    2.60 
  -5  -6  -1   -1.70    4.50 
   6   6   1    1.90    2.50 
   6   6   1    5.50    4.30 
  -6  -6  -1   12.80    6.20 
   7   6   1    8.80    3.20 
   7   6   1    9.90    5.00 
  -7  -6  -1   11.90    7.30 
   8   6   1   37.20    6.80 
   8   6   1   37.00    5.30 
  -8  -6  -1   21.00    9.40 
   9   6   1   21.20    5.40 
   9   6   1   18.80    6.40 
  -9  -6  -1   11.20   10.50 
  10   6   1    3.60    6.40 
 -10  -6  -1   11.10   12.60 
  11   6   1    5.50    7.40 
 -11  -6  -1   -7.60   12.40 
  -9   6   2  217.98   20.40 
   9  -6  -2  229.88   20.30 
  -8   6   2  410.26   30.90 
   8  -6  -2  401.16   31.00 
  -7   6   2  135.89   13.10 
   7  -6  -2  146.39   13.60 
   7  -6  -2  137.89   11.60 
  -6   6   2   42.90    6.80 
   6  -6  -2   44.80    6.90 
   6  -6  -2   45.80    5.20 
  -5   6   2    6.10    4.20 
   5  -6  -2    4.00    4.10 
   5  -6  -2    7.10    3.00 
  -4   6   2 1044.50   71.79 
   4  -6  -2 1031.00   71.69 
   4  -6  -2 1038.20   70.99 
  -3   6   2 1011.10   69.29 
   3  -6  -2 1024.00   68.49 
   3  -6  -2  962.50   68.89 
  -2   6   2 1253.17   81.09 
  -2   6   2 1095.19   80.59 
   2  -6  -2 1161.68   79.69 
  -1   6   2 1808.42  135.39 
  -1   6   2 2112.19  135.79 
   1  -6  -2 2031.10  134.09 
   1  -6  -2 1995.20  134.69 
   0   6   2  797.42   54.19 
   0   6   2  712.13   54.29 
   0  -6  -2  846.32   53.79 
   0  -6  -2  764.42   53.39 
   1   6   2  118.99   11.70 
   1   6   2  141.49   11.20 
  -1  -6  -2  141.19   11.50 
  -1  -6  -2  141.69   11.10 
   2   6   2  811.02   54.99 
   2   6   2  751.12   55.09 
  -2  -6  -2  811.52   54.79 
  -2  -6  -2  818.52   55.89 
   3   6   2  285.27   21.10 
   3   6   2  279.17   20.70 
  -3  -6  -2  287.57   22.60 
  -3  -6  -2  294.97   20.60 
   4   6   2  733.93   51.19 
   4   6   2  768.82   51.89 
  -4  -6  -2  729.93   53.69 
  -4  -6  -2  755.12   51.19 
   5   6   2  543.15   38.60 
   5   6   2  580.34   39.50 
  -5  -6  -2  563.24   42.00 
   6   6   2 1332.07   92.99 
   6   6   2 1448.06   93.89 
  -6  -6  -2 1325.87   96.59 
   7   6   2  433.96   31.50 
   7   6   2  422.16   30.60 
  -7  -6  -2  455.85   35.90 
   8   6   2  257.47   20.30 
   8   6   2  252.67   19.10 
  -8  -6  -2  243.38   25.50 
   9   6   2   43.10    6.20 
   9   6   2   44.70    7.60 
  -9  -6  -2   30.80   11.70 
  10   6   2   82.49    9.30 
  10   6   2   81.59   10.10 
 -10  -6  -2   74.39   16.00 
  11   6   2    2.90    7.00 
 -11  -6  -2    7.20   13.60 
  -9   6   3   17.70    6.90 
   9  -6  -3    7.40    6.00 
  -8   6   3    3.80    5.60 
   8  -6  -3    9.60    3.80 
   8  -6  -3   15.30    5.90 
  -7   6   3    4.40    4.90 
   7  -6  -3   -1.80    4.40 
   7  -6  -3    4.60    3.10 
  -6   6   3   -3.10    3.90 
   6  -6  -3    0.60    4.40 
   6  -6  -3   -1.10    2.70 
  -5   6   3   39.20    5.80 
   5  -6  -3   34.60    4.60 
   5  -6  -3   36.30    6.20 
  -4   6   3   53.49    6.90 
   4  -6  -3   67.39    7.60 
   4  -6  -3   60.09    6.00 
  -3   6   3   31.50    5.60 
  -3   6   3   47.50    6.90 
   3  -6  -3   46.70    5.00 
  -2   6   3    2.20    3.30 
  -2   6   3    6.00    3.80 
   2  -6  -3    6.30    2.50 
   2  -6  -3    5.30    1.80 
  -1   6   3    2.70    2.80 
  -1   6   3   -0.10    3.00 
   1  -6  -3    1.10    2.20 
   1  -6  -3    1.00    1.60 
   0   6   3   10.30    3.40 
   0   6   3   18.40    3.90 
   0  -6  -3   11.60    2.70 
   0  -6  -3   15.70    2.90 
   1   6   3    8.00    3.10 
   1   6   3    3.90    2.90 
  -1  -6  -3    6.70    2.30 
  -1  -6  -3    8.30    3.00 
   2   6   3    5.30    3.00 
   2   6   3    5.30    2.70 
  -2  -6  -3   11.30    2.40 
  -2  -6  -3    7.70    3.50 
   3   6   3   30.80    4.30 
   3   6   3   26.20    4.40 
  -3  -6  -3   34.00    3.50 
  -3  -6  -3   26.40    5.80 
   4   6   3   11.60    3.50 
   4   6   3    5.80    2.50 
  -4  -6  -3    8.60    2.10 
  -4  -6  -3    7.90    5.10 
   5   6   3    3.60    2.30 
   5   6   3    8.90    3.60 
  -5  -6  -3    4.50    5.00 
   6   6   3    5.30    3.90 
   6   6   3    9.40    3.00 
  -6  -6  -3    7.10    6.10 
   7   6   3    4.30    4.20 
   7   6   3   -5.30    2.70 
  -7  -6  -3    0.40    6.50 
   8   6   3   -2.00    3.20 
   8   6   3    7.00    4.90 
  -8  -6  -3    0.70    7.90 
   9   6   3    8.30    4.30 
   9   6   3   16.90    5.80 
  -9  -6  -3    0.20    9.30 
  10   6   3    8.30    4.80 
  10   6   3    6.60    6.40 
 -10  -6  -3   -2.90   10.70 
  11   6   3   -0.80    7.30 
  11   6   3   15.50    5.80 
 -11  -6  -3   13.40   13.60 
  -9   6   4   65.69   10.70 
   9  -6  -4   71.89   10.30 
  -8   6   4  156.48   15.20 
   8  -6  -4  159.88   13.10 
   8  -6  -4  162.98   15.80 
  -7   6   4  290.47   24.00 
   7  -6  -4  316.07   24.90 
   7  -6  -4  336.27   23.00 
  -6   6   4  145.49   13.20 
   6  -6  -4  144.49   11.70 
   6  -6  -4  140.59   13.80 
  -5   6   4  169.68   14.90 
   5  -6  -4  189.38   13.90 
  -4   6   4  148.89   12.70 
  -4   6   4  151.18   14.60 
   4  -6  -4  146.79   11.80 
  -3   6   4  119.29   11.70 
  -3   6   4  143.49   13.40 
   3  -6  -4  145.39   11.00 
  -2   6   4  512.45   42.70 
  -2   6   4  668.73   44.50 
   2  -6  -4  655.23   42.10 
   2  -6  -4  614.84   42.20 
  -1   6   4  678.53   47.70 
   1  -6  -4  663.23   46.10 
   1  -6  -4  674.33   46.20 
   0   6   4 1993.40  121.19 
   0   6   4 1477.15  119.99 
   0  -6  -4 1830.22  119.59 
   0  -6  -4 1792.52  119.89 
   1   6   4  952.70   66.19 
   1   6   4 1031.60   67.29 
  -1  -6  -4  937.51   66.49 
  -1  -6  -4  955.20   65.69 
   2   6   4  455.55   29.70 
   2   6   4  408.26   30.60 
  -2  -6  -4  406.36   29.20 
  -2  -6  -4  420.16   30.70 
   3   6   4  376.96   27.30 
   3   6   4  390.76   26.40 
  -3  -6  -4  367.46   28.10 
  -3  -6  -4  361.76   25.90 
   4   6   4  237.98   17.10 
   4   6   4  229.48   16.70 
  -4  -6  -4  211.48   15.70 
  -4  -6  -4  223.48   19.10 
   5   6   4  187.38   14.80 
   5   6   4  191.38   14.90 
  -5  -6  -4  205.38   18.20 
   6   6   4  221.68   17.10 
   6   6   4  221.68   17.30 
  -6  -6  -4  248.08   21.10 
   7   6   4  339.07   25.30 
   7   6   4  356.36   25.70 
  -7  -6  -4  365.16   30.20 
   8   6   4  898.41   61.89 
   8   6   4  832.72   61.59 
  -8  -6  -4  983.60   66.99 
   9   6   4  108.99   10.70 
   9   6   4  108.59   11.20 
  -9  -6  -4  121.89   17.10 
  10   6   4  108.19   11.00 
  10   6   4   68.49    8.80 
 -10  -6  -4   83.09   16.10 
  11   6   4   46.60    8.90 
  11   6   4   39.80    7.20 
 -11  -6  -4   44.50   15.40 
   8  -6  -5   -0.70    3.40 
  -7   6   5   -0.70    6.50 
   7  -6  -5   -0.50    3.30 
  -6   6   5    6.30    6.10 
   6  -6  -5    1.70    2.90 
  -5   6   5   25.30    7.10 
   5  -6  -5   24.50    4.00 
  -4   6   5   13.30    5.00 
  -4   6   5   -5.90    4.30 
   4  -6  -5    4.30    2.80 
  -3   6   5   79.59    8.20 
  -3   6   5   72.99   10.10 
   3  -6  -5   81.39    7.50 
  -2   6   5    5.10    4.20 
  -2   6   5    1.20    2.80 
   2  -6  -5    3.30    2.30 
   2  -6  -5   -3.60    2.10 
  -1   6   5    6.40    4.00 
  -1   6   5    6.00    2.90 
   1  -6  -5    6.90    2.50 
   1  -6  -5    6.50    2.40 
   0   6   5    3.80    3.60 
   0   6   5    2.00    2.90 
   0  -6  -5    3.70    2.60 
   0  -6  -5    1.30    2.00 
   1   6   5   25.50    3.20 
   1   6   5   17.10    4.90 
  -1  -6  -5   14.70    3.70 
  -1  -6  -5   20.70    2.90 
   2   6   5   26.10    5.50 
   2   6   5   42.30    3.90 
  -2  -6  -5   29.50    5.40 
  -2  -6  -5   35.70    3.70 
   3   6   5   73.89    7.90 
   3   6   5   60.69    6.20 
  -3  -6  -5   65.99    5.60 
  -3  -6  -5   68.89    8.30 
   4   6   5   68.39    6.70 
   4   6   5   67.69    7.60 
  -4  -6  -5   74.99    9.20 
  -4  -6  -5   69.29    5.80 
   5   6   5   57.79    5.90 
   5   6   5   60.79    6.70 
  -5  -6  -5   64.79    9.50 
   6   6   5   15.00    3.80 
   6   6   5   14.10    3.80 
  -6  -6  -5   15.10    7.10 
   7   6   5   -0.50    3.70 
   7   6   5   -2.60    3.40 
  -7  -6  -5    3.60    6.80 
   8   6   5    4.70    4.50 
   8   6   5    6.20    4.10 
  -8  -6  -5   -3.00    7.40 
   9   6   5    5.20    5.20 
   9   6   5   -2.10    4.20 
  -9  -6  -5    6.70    9.40 
  10   6   5   14.40    6.50 
  10   6   5    5.50    5.10 
 -10  -6  -5    3.40   10.30 
  -8   6   6  173.18   20.80 
   8  -6  -6  198.38   15.40 
  -7   6   6  129.29   16.80 
   7  -6  -6  157.38   12.50 
  -6   6   6  302.77   27.10 
   6  -6  -6  313.77   22.60 
  -5   6   6  198.28   19.70 
   5  -6  -6  193.48   15.00 
  -4   6   6   10.10    5.90 
   4  -6  -6    5.40    2.80 
  -3   6   6  282.07   23.30 
   3  -6  -6  266.87   19.90 
   3  -6  -6  282.27   20.80 
  -2   6   6  131.79   13.40 
   2  -6  -6  135.89   10.80 
   2  -6  -6  117.39   10.10 
  -1   6   6  271.77   21.60 
   1  -6  -6  254.47   19.50 
   1  -6  -6  268.77   18.90 
   0   6   6  143.79   14.10 
   0  -6  -6  159.18   11.40 
   0  -6  -6  142.39   12.30 
   1   6   6 1254.47   85.89 
  -1  -6  -6 1219.88   84.89 
  -1  -6  -6 1231.28   83.59 
   2   6   6  182.38   16.00 
  -2  -6  -6  172.88   15.00 
  -2  -6  -6  186.08   13.20 
   3   6   6  413.96   29.90 
  -3  -6  -6  410.66   30.00 
  -3  -6  -6  382.46   27.40 
   4   6   6   13.30    4.20 
  -4  -6  -6   10.80    5.30 
  -4  -6  -6   11.30    2.10 
   5   6   6  170.08   14.10 
  -5  -6  -6  166.28   16.80 
   6   6   6    6.80    3.80 
  -6  -6  -6   12.40    7.00 
   7   6   6   69.29    8.00 
  -7  -6  -6   72.79   12.10 
   8   6   6    6.10    4.50 
  -8  -6  -6   14.80    8.80 
   9   6   6  307.97   25.10 
  -9  -6  -6  384.96   32.10 
  10   6   6   38.60    6.80 
 -10  -6  -6   29.90   11.00 
 -10  -6  -6   27.90   12.30 
  -8   6   7    6.10    8.90 
   8  -6  -7   -0.30    3.80 
  -7   6   7   10.90    8.10 
   7  -6  -7    0.20    3.70 
  -6   6   7   -5.60    6.40 
   6  -6  -7    2.40    3.30 
  -5   6   7   17.30    7.20 
   5  -6  -7   10.00    3.40 
  -4   6   7    7.40    6.60 
   4  -6  -7    4.20    2.90 
  -3   6   7    9.50    5.90 
   3  -6  -7    9.70    3.00 
   3  -6  -7   11.30    4.20 
  -2   6   7   48.00    8.20 
   2  -6  -7   26.20    4.80 
   2  -6  -7   25.20    3.80 
  -1   6   7   19.90    6.20 
   1  -6  -7   22.60    3.30 
   1  -6  -7   26.90    4.40 
   0   6   7   10.00    6.10 
   0  -6  -7    8.50    2.50 
   0  -6  -7    6.50    3.40 
   1   6   7    4.70    5.00 
  -1  -6  -7    7.70    2.30 
  -1  -6  -7    8.00    3.80 
   2   6   7    6.30    4.90 
  -2  -6  -7   -3.00    3.60 
  -2  -6  -7    1.30    2.00 
   3   6   7    1.60    4.50 
  -3  -6  -7    2.30    4.30 
  -3  -6  -7   -1.20    1.80 
   4   6   7   16.10    5.00 
  -4  -6  -7   15.30    2.80 
  -4  -6  -7   15.70    5.90 
   5   6   7   44.20    6.50 
  -5  -6  -7   39.50    8.30 
   6   6   7   30.80    5.70 
  -6  -6  -7   57.89    9.80 
   7   6   7   25.20    5.60 
  -7  -6  -7   32.60    9.10 
   8   6   7   21.70    5.90 
  -8  -6  -7   28.10    9.90 
   9   6   7    0.50    5.00 
  -9  -6  -7    4.90    9.20 
  10   6   7    3.40    5.50 
 -10  -6  -7   -3.40   10.00 
  -7   6   8   85.09   14.20 
   7  -6  -8   84.59    8.50 
  -6   6   8   80.89   13.00 
   6  -6  -8   71.89    7.40 
  -5   6   8  198.98   20.50 
   5  -6  -8  189.58   14.90 
  -4   6   8  379.46   31.30 
   4  -6  -8  371.96   26.80 
  -3   6   8   10.80    6.90 
   3  -6  -8    1.10    2.90 
   3  -6  -8    5.30    4.30 
  -2   6   8  174.08   17.50 
   2  -6  -8  165.78   13.70 
   2  -6  -8  143.99   12.30 
  -1   6   8    6.50    6.50 
   1  -6  -8   15.60    3.20 
   1  -6  -8   17.60    4.40 
   0   6   8   83.79   11.50 
   0  -6  -8   72.19    8.30 
   0  -6  -8   75.49    7.00 
   1   6   8   32.60    7.60 
  -1  -6  -8   18.30    4.80 
  -1  -6  -8   19.80    3.20 
   2   6   8  305.27   23.70 
  -2  -6  -8  281.17   19.80 
  -2  -6  -8  257.67   22.20 
   3   6   8  473.95   33.70 
  -3  -6  -8  425.26   30.40 
  -3  -6  -8  438.06   33.40 
   4   6   8  311.07   24.10 
  -4  -6  -8  296.97   25.10 
   5   6   8   16.80    5.20 
  -5  -6  -8   12.90    6.60 
   6   6   8   47.30    7.30 
  -6  -6  -8   69.29   10.80 
   7   6   8    9.10    5.30 
  -7  -6  -8   -6.30    6.80 
   8   6   8   24.70    6.50 
  -8  -6  -8   26.10   10.00 
   9   6   8   10.10    5.90 
  -9  -6  -8   -0.20    9.00 
  -6   6   9    6.70    8.10 
   6  -6  -9    6.80    3.90 
  -5   6   9   -0.30    7.70 
   5  -6  -9    3.20    3.60 
  -4   6   9   11.30    8.40 
   4  -6  -9    6.50    3.50 
  -3   6   9   13.20    8.00 
   3  -6  -9   14.40    5.50 
   3  -6  -9   13.70    3.50 
  -2   6   9   25.70    8.80 
   2  -6  -9   28.40    5.70 
   2  -6  -9   22.00    3.90 
  -1   6   9   42.10   10.00 
   1  -6  -9   29.40    4.20 
   1  -6  -9   33.60    5.80 
   0   6   9   28.90    8.70 
   0  -6  -9   23.70    5.30 
   0  -6  -9   30.20    3.90 
   1   6   9   17.40    7.30 
  -1  -6  -9   11.20    4.70 
  -1  -6  -9   12.90    2.80 
   2   6   9    4.70    6.10 
  -2  -6  -9    1.40    2.40 
  -2  -6  -9    4.90    4.60 
   3   6   9   14.20    6.10 
  -3  -6  -9    0.60    2.30 
  -3  -6  -9   -4.80    4.80 
   4   6   9    8.40    6.00 
  -4  -6  -9   16.10    6.80 
   5   6   9    9.30    5.50 
  -5  -6  -9   15.00    7.20 
   6   6   9    5.00    5.40 
  -6  -6  -9   18.70    8.10 
   7   6   9   15.30    6.20 
  -7  -6  -9   33.30    9.40 
   8   6   9    7.00    6.00 
  -8  -6  -9   10.80    8.90 
   9   6   9   13.20    9.00 
  -9  -6  -9   14.50   10.50 
  -6   6  10   30.00   11.10 
   6  -6 -10   31.40    5.40 
  -5   6  10   24.50   10.20 
   5  -6 -10   11.90    4.20 
  -4   6  10  148.79   17.80 
   4  -6 -10  122.79   11.20 
  -3   6  10   56.59   12.10 
   3  -6 -10   40.60    5.40 
   3  -6 -10   44.90    8.00 
  -2   6  10   40.50   11.20 
   2  -6 -10   44.90    7.40 
   2  -6 -10   39.00    5.10 
  -1   6  10    7.60    8.30 
   1  -6 -10   13.80    5.30 
   1  -6 -10   10.00    3.20 
   0   6  10   27.00    9.50 
   0  -6 -10   17.20    3.50 
   0  -6 -10   19.80    5.50 
   1   6  10    2.20    7.40 
  -1  -6 -10    0.20    2.70 
  -1  -6 -10    5.60    4.60 
   2   6  10   45.30    9.70 
  -2  -6 -10   49.10    7.70 
  -2  -6 -10   38.30    4.70 
   3   6  10   68.59   10.20 
   3   6  10   73.49    7.10 
  -3  -6 -10   47.50    8.90 
   4   6  10  187.98   17.60 
  -4  -6 -10  171.28   18.10 
   5   6  10   53.69    8.40 
  -5  -6 -10   30.10    9.10 
   6   6  10    7.00    6.20 
  -6  -6 -10    6.10    7.70 
   7   6  10   42.60    8.50 
  -7  -6 -10   28.20   10.00 
   8   6  10   -2.90    6.00 
  -8  -6 -10   -2.70    8.40 
  -4   6  11   -1.40    9.70 
   4  -6 -11    4.30    3.80 
  -3   6  11   -3.60    9.50 
   3  -6 -11    4.70    5.80 
   3  -6 -11   -1.30    3.30 
  -2   6  11   -1.30    9.00 
   2  -6 -11    7.40    3.60 
   2  -6 -11    3.20    5.20 
  -1   6  11    3.40    9.70 
   1  -6 -11    8.60    5.60 
   1  -6 -11   12.30    3.60 
   0   6  11    3.90    8.90 
   0  -6 -11   14.70    5.50 
   0  -6 -11   13.00    3.60 
   1   6  11   10.70    8.80 
  -1  -6 -11   11.10    5.70 
   2   6  11   23.50    5.20 
   2   6  11   29.00    9.20 
  -2  -6 -11   11.20    6.00 
   3   6  11    9.60    4.30 
   3   6  11    8.10    7.20 
  -3  -6 -11    6.00    5.80 
   4   6  11    4.60    6.60 
  -4  -6 -11   -2.90    6.20 
   5   6  11   -8.20    6.20 
  -5  -6 -11    0.50    6.80 
   6   6  11    3.90    7.00 
  -6  -6 -11    7.60    8.00 
   7   6  11    7.10    7.30 
  -7  -6 -11    9.70    9.30 
   3  -6 -12   34.80    8.20 
  -2   6  12   45.50   13.00 
   2  -6 -12   29.60    7.60 
  -1   6  12   96.29   15.90 
  -1   6  12   96.79   10.20 
   1  -6 -12   94.69   11.50 
   0   6  12    5.70    9.40 
   0   6  12    8.60    5.00 
   0  -6 -12    0.40    5.80 
   1   6  12   13.90    9.00 
   1   6  12    7.70    4.90 
  -1  -6 -12    4.10    5.60 
   2   6  12    1.00    4.50 
   2   6  12   -7.40    8.00 
  -2  -6 -12    1.30    5.80 
   3   6  12   98.69   10.60 
   3   6  12   83.09   12.10 
  -3  -6 -12   57.39   10.20 
   4   6  12   14.20    7.80 
  -4  -6 -12    5.50    6.90 
   5   6  12   16.50    7.60 
  -5  -6 -12   10.30    7.90 
   0   6  13   17.60   11.90 
   0   6  13   12.50    5.70 
   0  -6 -13   15.10    7.10 
   1   6  13    7.30    9.20 
   1   6  13   11.80    5.50 
  -1  -6 -13   -5.00    6.20 
   2   6  13    6.00    5.60 
   2   6  13   10.40    8.80 
  -2  -6 -13    4.40    6.50 
   3  -7   8  202.28   19.30 
  -2   7  -8  116.49   15.90 
   2  -7   8  145.39   14.50 
  -1   7  -8   62.69   11.50 
   1  -7   8   73.09   10.10 
   0   7  -8    3.70    6.80 
   0  -7   8    6.80    5.90 
   1   7  -8   53.79    8.80 
  -1  -7   8   65.99    9.00 
   2   7  -8  127.59   16.20 
   2   7  -8   92.39   11.20 
  -2  -7   8  138.99   12.70 
   3   7  -8  245.08   24.20 
   3   7  -8  211.38   18.80 
  -3  -7   8  219.88   19.30 
   4   7  -8  278.37   23.70 
   4   7  -8  287.57   29.40 
  -4  -7   8  330.87   24.20 
  -4   7  -7   -0.90    8.10 
   4  -7   7    1.60    5.70 
  -3   7  -7   -5.60    7.80 
   3  -7   7   16.90    6.40 
  -2   7  -7   20.30    8.40 
   2  -7   7   11.30    6.20 
  -1   7  -7   74.19   11.80 
   1  -7   7   91.79   10.70 
   0   7  -7   93.19   11.90 
   0  -7   7   82.19   10.00 
   1   7  -7   75.39   10.90 
   1   7  -7  162.08   22.80 
  -1  -7   7  110.69   11.10 
   2   7  -7   50.49    7.90 
   2   7  -7   71.29   11.90 
  -2  -7   7   58.99    8.20 
   3   7  -7   23.70    9.20 
   3   7  -7   25.00    5.70 
  -3  -7   7   14.20    5.70 
   4   7  -7    0.70    4.60 
  -4  -7   7    4.00    5.00 
   5   7  -7    3.40    5.30 
  -5  -7   7    2.90    5.10 
  -5  -7   7   -5.20   10.40 
   6   7  -7   13.50    5.90 
  -6  -7   7   25.70   14.00 
  -5   7  -6  171.68   20.40 
   5  -7   6  188.28   16.80 
  -4   7  -6  207.78   24.90 
   4  -7   6  321.17   22.70 
  -3   7  -6  320.07   30.80 
   3  -7   6  379.86   27.90 
  -2   7  -6  524.65   42.40 
   2  -7   6  556.44   40.00 
  -1   7  -6  372.26   31.10 
   1  -7   6  384.56   29.00 
   0   7  -6  204.38   19.10 
   0  -7   6  193.58   17.20 
   1   7  -6   13.10    7.00 
   1   7  -6    4.80    5.40 
  -1  -7   6    4.40    4.80 
   2   7  -6  106.79   11.80 
   2   7  -6  128.89   14.80 
  -2  -7   6  128.19   12.00 
   3   7  -6  350.26   30.10 
   3   7  -6  332.87   26.90 
  -3  -7   6  395.06   27.20 
   4   7  -6  510.45   40.10 
  -4  -7   6  612.94   46.30 
  -4  -7   6  580.74   40.20 
   5   7  -6  391.36   32.50 
  -5  -7   6  516.45   40.70 
  -5  -7   6  468.45   32.70 
   6   7  -6  268.47   23.00 
  -6  -7   6  354.56   32.10 
   7   7  -6  191.88   18.80 
  -7  -7   6  283.47   29.30 
  -6   7  -5   93.29   14.30 
   6  -7   5   74.79    9.00 
  -5   7  -5   58.29   11.40 
   5  -7   5   48.40    7.50 
  -4   7  -5   54.89   10.90 
   4  -7   5   44.90    7.30 
  -3   7  -5    8.80    7.90 
   3  -7   5   27.50    5.90 
  -2   7  -5    8.00    6.80 
   2  -7   5   -5.80    4.20 
  -1   7  -5   46.70    8.90 
   1  -7   5   33.70    6.70 
   0   7  -5   10.70    6.10 
   0  -7   5    3.90    4.40 
   1   7  -5  187.88   18.10 
   1   7  -5  219.08   19.20 
  -1  -7   5  186.88   16.60 
   2   7  -5   79.19   10.90 
   2   7  -5   70.29    9.00 
  -2  -7   5   74.29    8.40 
   3   7  -5  109.89   11.20 
  -3  -7   5  124.49   11.40 
   4   7  -5   48.20    7.20 
  -4  -7   5   53.19    7.00 
  -4  -7   5   55.59   11.90 
   5   7  -5    1.40    4.60 
  -5  -7   5   11.00    9.00 
  -5  -7   5    2.00    4.20 
   6   7  -5    7.10    5.10 
  -6  -7   5   14.70   10.30 
   7   7  -5   36.70    7.60 
  -7  -7   5   93.09   16.60 
   8   7  -5   -2.40    5.90 
  -8  -7   5    9.10   12.10 
  -7   7  -4   76.59   13.10 
   7  -7   4   81.29   12.30 
  -6   7  -4  160.38   18.90 
   6  -7   4  170.98   14.50 
  -5   7  -4   10.80    8.00 
   5  -7   4    4.90    4.30 
  -4   7  -4   61.89   11.60 
   4  -7   4   87.19    9.20 
  -3   7  -4  513.55   40.10 
   3  -7   4  509.85   37.10 
  -2   7  -4  552.54   44.30 
   2  -7   4  604.64   41.80 
  -1   7  -4  938.91   68.19 
   1  -7   4  958.00   66.19 
   0   7  -4  981.80   70.09 
   0  -7   4  988.80   68.59 
   1   7  -4  752.02   54.09 
   1   7  -4  736.43   54.09 
  -1  -7   4  769.82   52.89 
   2   7  -4  345.77   27.00 
  -2  -7   4  345.87   26.20 
  -2  -7   4  372.46   28.90 
   3   7  -4   -2.20    3.90 
  -3  -7   4    6.70    3.90 
  -3  -7   4    7.80    6.80 
   4   7  -4  147.19   14.80 
  -4  -7   4  190.08   19.20 
  -4  -7   4  191.08   14.70 
   5   7  -4  646.04   50.49 
  -5  -7   4  737.63   50.19 
  -5  -7   4  796.82   55.19 
   6   7  -4  749.42   58.09 
  -6  -7   4  974.60   64.29 
   7   7  -4  620.24   47.80 
  -7  -7   4  756.22   54.19 
   8   7  -4  341.87   29.40 
  -8  -7   4  478.75   38.00 
   9   7  -4  223.58   21.50 
  -9  -7   4  264.37   29.10 
  -7   7  -3    3.10    7.70 
   7  -7   3   -1.40    4.30 
   7  -7   3    8.00    5.90 
  -6   7  -3   42.00    9.70 
   6  -7   3   46.30    6.40 
   6  -7   3   43.60    7.40 
  -5   7  -3   49.90   10.00 
   5  -7   3   42.90    6.40 
   5  -7   3   53.09    7.20 
  -4   7  -3   72.59   11.00 
   4  -7   3   61.89    7.80 
   4  -7   3   73.19    7.90 
  -3   7  -3   51.79    9.80 
   3  -7   3   59.79    7.30 
  -2   7  -3   22.20    7.00 
   2  -7   3   18.80    4.60 
  -1   7  -3    5.40    5.60 
   1  -7   3    9.10    4.00 
   0   7  -3   -0.80    4.60 
   0  -7   3    3.40    4.10 
   0  -7   3    3.10    3.70 
   1   7  -3   34.20    6.60 
  -1  -7   3   21.60    5.00 
  -1  -7   3   31.20    6.60 
   2   7  -3    0.70    3.80 
  -2  -7   3   -2.80    3.30 
  -2  -7   3    1.90    5.00 
   3   7  -3   87.99    9.90 
  -3  -7   3   99.99    9.60 
  -3  -7   3  131.79   13.60 
   4   7  -3   32.10    5.70 
  -4  -7   3   24.50    8.10 
  -4  -7   3   32.90    5.20 
   5   7  -3   14.90    5.00 
  -5  -7   3   14.00    4.20 
  -5  -7   3    6.90    7.60 
   6   7  -3   57.69    8.10 
  -6  -7   3   54.99   11.90 
   7   7  -3    5.00    5.50 
  -7  -7   3   -0.30    8.70 
   8   7  -3    6.30    6.20 
  -8  -7   3   -7.00    9.20 
   9   7  -3    8.30    6.60 
  -9  -7   3  -10.50   10.00 
  -8   7  -2  203.78   19.50 
   8  -7   2  164.58   16.40 
  -7   7  -2  344.57   27.80 
   7  -7   2  307.17   23.70 
   7  -7   2  315.27   25.30 
  -6   7  -2  163.18   17.20 
   6  -7   2  154.48   14.90 
   6  -7   2  164.78   13.80 
  -5   7  -2  209.98   19.30 
   5  -7   2  179.78   16.20 
   5  -7   2  195.08   15.70 
  -4   7  -2    3.90    6.30 
   4  -7   2   17.30    4.20 
   4  -7   2    2.40    4.20 
  -3   7  -2   74.29   10.70 
   3  -7   2   64.19    7.70 
   3  -7   2   70.19    7.70 
  -2   7  -2  713.93   52.29 
   2  -7   2  734.53   50.09 
   2  -7   2  695.73   49.80 
  -1   7  -2 1047.90   82.19 
  -1   7  -2 1250.47   80.69 
   1  -7   2 1192.78   80.59 
   0   7  -2 1283.97   93.09 
   0  -7   2 1315.37   91.69 
   0  -7   2 1402.16   92.09 
   1   7  -2 1161.28   80.69 
  -1  -7   2 1129.29   79.39 
  -1  -7   2 1176.18   80.29 
   2   7  -2  588.44   42.40 
  -2  -7   2  613.54   43.20 
  -2  -7   2  568.94   41.50 
   3   7  -2  378.26   29.40 
  -3  -7   2  411.86   31.30 
  -3  -7   2  422.46   29.20 
   4   7  -2   44.30    6.40 
  -4  -7   2   43.70    5.70 
  -4  -7   2   39.20    8.60 
   5   7  -2   19.10    5.40 
  -5  -7   2   30.30    8.40 
  -5  -7   2   23.60    4.60 
   6   7  -2  259.57   20.70 
  -6  -7   2  250.77   24.40 
   7   7  -2  667.23   49.70 
  -7  -7   2  738.23   53.99 
   8   7  -2  462.85   36.10 
  -8  -7   2  518.95   41.40 
   9   7  -2  342.97   28.70 
  -9  -7   2  388.16   34.60 
  10   7  -2  218.58   21.20 
 -10  -7   2  207.38   26.20 
  -8   7  -1   15.10    7.80 
   8  -7   1    3.10    6.10 
  -7   7  -1   -2.30    6.50 
   7  -7   1   -0.20    5.20 
   7  -7   1   -5.70    3.20 
  -6   7  -1   25.40    7.90 
   6  -7   1   22.60    6.00 
   6  -7   1   28.80    5.00 
  -5   7  -1    4.20    6.00 
   5  -7   1    7.40    3.70 
   5  -7   1   11.90    5.00 
  -4   7  -1  190.38   17.00 
   4  -7   1  154.48   13.50 
   4  -7   1  154.48   14.00 
  -3   7  -1    0.60    5.10 
   3  -7   1    6.70    3.30 
   3  -7   1    2.20    3.70 
  -2   7  -1   43.80    8.20 
   2  -7   1   60.99    6.80 
   2  -7   1   50.69    6.40 
  -1   7  -1   80.39   10.80 
  -1   7  -1   98.49    9.50 
   1  -7   1   91.79    8.90 
   0   7  -1   55.39    5.90 
   0   7  -1   46.30    7.30 
   0  -7   1   46.00    6.20 
   0  -7   1   38.80    5.60 
   1   7  -1  139.29   14.00 
   1   7  -1  158.08   11.70 
  -1  -7   1  165.78   13.80 
  -1  -7   1  141.99   12.70 
   2   7  -1  303.47   24.10 
   2   7  -1  342.47   24.10 
  -2  -7   1  304.57   24.60 
  -2  -7   1  315.77   23.20 
   3   7  -1  101.69   10.40 
  -3  -7   1  127.99   12.90 
  -3  -7   1  116.19   10.10 
   4   7  -1   58.99    7.30 
  -4  -7   1   74.29   10.00 
  -4  -7   1   55.59    6.50 
   5   7  -1   -0.40    4.10 
  -5  -7   1    9.70    3.40 
  -5  -7   1    3.00    5.70 
   6   7  -1   30.90    6.20 
  -6  -7   1   34.40    8.90 
   7   7  -1   78.79    9.50 
  -7  -7   1   68.39   12.80 
   8   7  -1   43.50    8.20 
  -8  -7   1   47.80   11.60 
   9   7  -1    2.70    6.50 
  -9  -7   1   -5.80    9.40 
  10   7  -1   -5.20    7.00 
 -10  -7   1   10.20   10.90 
  -8   7   0  226.88   21.00 
   8  -7   0  204.28   19.20 
  -7   7   0  232.48   22.30 
   7  -7   0  253.07   18.90 
   7  -7   0  252.67   20.90 
  -6   7   0  492.55   37.50 
   6  -7   0  482.75   35.30 
   6  -7   0  517.55   36.50 
  -5   7   0  583.84   42.40 
   5  -7   0  583.94   41.20 
   5  -7   0  553.84   40.30 
  -4   7   0  403.66   31.00 
   4  -7   0  383.66   29.20 
   4  -7   0  409.66   29.00 
  -3   7   0  292.07   24.00 
   3  -7   0  271.37   21.30 
   3  -7   0  296.57   21.70 
  -2   7   0   36.90    7.20 
   2  -7   0   22.50    4.20 
  -1   7   0  291.17   20.90 
  -1   7   0  234.88   21.80 
   1  -7   0  274.27   20.20 
   0   7   0 1092.69   82.19 
   0   7   0 1187.38   81.19 
   0  -7   0 1286.97   81.09 
   0  -7   0 1143.39   80.99 
   1   7   0 1895.51  131.19 
   1   7   0 2014.10  129.79 
  -1  -7   0 1966.50  130.59 
  -1  -7   0 1775.72  129.99 
   2   7   0 2190.68  151.88 
   2   7   0 2376.16  150.78 
  -2  -7   0 2290.07  152.18 
  -2  -7   0 2055.49  150.98 
   3   7   0 1263.77   83.69 
   3   7   0 1225.98   84.79 
  -3  -7   0 1272.27   85.89 
  -3  -7   0 1167.88   84.09 
   4   7   0  703.03   47.80 
   4   7   0  704.63   49.40 
  -4  -7   0  688.63   48.60 
  -4  -7   0  711.53   50.89 
   5   7   0  122.79   12.30 
  -5  -7   0  134.89   11.10 
  -5  -7   0  145.89   14.70 
   6   7   0    8.90    5.00 
  -6  -7   0   -1.60    5.40 
   7   7   0  110.99   11.40 
  -7  -7   0   94.49   14.50 
   8   7   0  370.16   29.30 
  -8  -7   0  379.96   33.10 
   9   7   0  637.04   45.50 
  -9  -7   0  583.14   49.60 
  10   7   0  293.37   25.80 
 -10  -7   0  317.07   32.50 
  -8   7   1   -4.90    6.70 
   8  -7  -1   -2.30    6.00 
  -7   7   1    7.60    6.30 
   7  -7  -1    2.20    3.30 
   7  -7  -1    4.10    5.50 
  -6   7   1   13.60    6.10 
   6  -7  -1   21.50    4.10 
   6  -7  -1   12.60    5.50 
  -5   7   1   29.30    6.80 
   5  -7  -1   33.60    5.10 
   5  -7  -1   35.10    6.30 
  -4   7   1   25.70    6.50 
   4  -7  -1   32.90    5.90 
   4  -7  -1   31.80    4.80 
  -3   7   1   25.80    6.30 
   3  -7  -1   30.20    4.70 
   3  -7  -1   22.00    4.90 
  -2   7   1   -0.20    4.50 
  -2   7   1    0.10    3.40 
   2  -7  -1   -1.10    2.90 
  -1   7   1    2.40    3.20 
  -1   7   1    1.30    4.10 
   1  -7  -1   -3.90    2.50 
   0   7   1   29.00    4.50 
   0   7   1   22.10    5.60 
   0  -7  -1   32.80    4.50 
   0  -7  -1   36.60    4.50 
   1   7   1    2.10    2.40 
   1   7   1    6.20    3.90 
  -1  -7  -1    0.70    3.10 
  -1  -7  -1    2.60    2.50 
   2   7   1   76.79    7.30 
   2   7   1   74.99    8.20 
  -2  -7  -1   82.79    8.90 
  -2  -7  -1   70.89    7.10 
   3   7   1   14.60    4.30 
   3   7   1   22.40    3.50 
  -3  -7  -1   29.30    5.80 
  -3  -7  -1   18.60    3.60 
   4   7   1   47.30    6.40 
   4   7   1   45.80    4.70 
  -4  -7  -1   50.39    5.30 
  -4  -7  -1   36.40    7.20 
   5   7   1   -5.30    3.70 
   5   7   1    1.50    2.10 
  -5  -7  -1    5.00    5.00 
   6   7   1    2.70    2.50 
   6   7   1    9.80    5.10 
  -6  -7  -1   -1.80    5.50 
   7   7   1   17.20    5.80 
   7   7   1   16.20    3.80 
  -7  -7  -1    6.80    7.30 
   8   7   1   -0.20    5.50 
  -8  -7  -1    4.20    7.90 
   9   7   1    1.90    6.50 
  -9  -7  -1   -6.70    9.20 
  10   7   1   11.40    7.50 
 -10  -7  -1    9.10   11.90 
  -8   7   2   -0.50    6.30 
   8  -7  -2    9.10    6.10 
   8  -7  -2    0.50    6.10 
  -7   7   2  229.58   20.60 
   7  -7  -2  235.18   19.70 
   7  -7  -2  230.88   17.80 
  -6   7   2  367.96   27.20 
   6  -7  -2  344.27   26.70 
   6  -7  -2  331.97   25.10 
  -5   7   2  511.45   37.10 
   5  -7  -2  493.35   35.40 
   5  -7  -2  496.75   36.40 
  -4   7   2  626.44   47.80 
   4  -7  -2  650.73   46.40 
   4  -7  -2  720.93   47.50 
  -3   7   2  281.97   21.50 
  -3   7   2  235.18   21.40 
   3  -7  -2  267.37   19.70 
  -2   7   2  142.99   14.80 
  -2   7   2  192.58   14.90 
   2  -7  -2  157.58   13.10 
  -1   7   2   61.19    8.10 
  -1   7   2   66.69    7.80 
   1  -7  -2   60.09    6.50 
   0   7   2   19.00    4.10 
   0   7   2   10.10    4.20 
   0  -7  -2   10.80    3.40 
   0  -7  -2   16.00    3.10 
   1   7   2  299.27   20.40 
   1   7   2  243.08   20.90 
  -1  -7  -2  239.18   19.90 
  -1  -7  -2  298.37   20.70 
   2   7   2  809.42   59.99 
   2   7   2  900.81   59.79 
  -2  -7  -2  810.12   59.49 
  -2  -7  -2  942.91   60.69 
   3   7   2 1272.77   83.99 
   3   7   2 1188.78   84.19 
  -3  -7  -2 1153.48   83.69 
  -3  -7  -2 1300.77   85.49 
   4   7   2 1009.50   68.59 
   4   7   2 1041.70   69.49 
  -4  -7  -2 1032.10   71.09 
  -4  -7  -2  938.21   68.59 
   5   7   2  617.04   43.40 
   5   7   2  600.44   42.20 
  -5  -7  -2  623.04   45.60 
   6   7   2  109.69    9.40 
   6   7   2  132.19   12.00 
  -6  -7  -2   96.99   13.40 
   7   7   2   55.09    8.10 
   7   7   2   60.99    6.30 
  -7  -7  -2   55.19   11.20 
   8   7   2    9.50    3.80 
   8   7   2   10.20    6.20 
  -8  -7  -2   10.50    8.70 
   9   7   2   15.10    6.90 
   9   7   2   16.00    5.00 
  -9  -7  -2    9.50   10.20 
  10   7   2  201.98   19.20 
 -10  -7  -2  234.18   27.00 
 -11  -7  -2  133.69   24.20 
  -8   7   3    4.90    6.20 
   8  -7  -3   -5.30    5.40 
   8  -7  -3   -1.70    3.80 
  -7   7   3    2.90    5.70 
   7  -7  -3   -7.20    3.30 
   7  -7  -3    4.40    5.60 
  -6   7   3   -0.70    5.00 
   6  -7  -3   -0.40    3.20 
   6  -7  -3    4.70    5.00 
  -5   7   3   12.70    5.30 
   5  -7  -3   15.10    5.20 
   5  -7  -3   12.00    3.50 
  -4   7   3   23.00    5.70 
  -4   7   3   35.10    7.10 
   4  -7  -3   26.80    4.50 
  -3   7   3   64.39    8.80 
  -3   7   3   55.29    7.90 
   3  -7  -3   59.09    6.30 
  -2   7   3   53.09    7.80 
  -2   7   3   68.69    8.70 
   2  -7  -3   63.19    6.50 
  -1   7   3   -0.10    3.30 
  -1   7   3   -5.10    3.30 
   1  -7  -3    0.10    1.80 
   1  -7  -3   -0.10    2.60 
   0   7   3    3.00    3.20 
   0   7   3   -0.60    3.30 
   0  -7  -3    2.00    2.10 
   0  -7  -3    1.50    2.60 
   1   7   3  153.48   14.80 
   1   7   3  199.48   14.90 
  -1  -7  -3  186.98   14.50 
  -1  -7  -3  186.28   14.10 
   2   7   3   56.89    6.50 
   2   7   3   65.79    6.90 
  -2  -7  -3   56.89    7.20 
  -2  -7  -3   50.49    5.80 
   3   7   3   50.29    6.40 
   3   7   3   54.49    6.50 
  -3  -7  -3   52.69    5.60 
  -3  -7  -3   68.79    8.80 
   4   7   3   10.40    3.90 
   4   7   3    2.90    2.80 
  -4  -7  -3    6.40    2.60 
  -4  -7  -3   21.60    6.10 
   5   7   3   13.40    4.60 
   5   7   3    8.70    2.90 
  -5  -7  -3    8.40    5.50 
   6   7   3   -0.10    2.70 
   6   7   3    0.00    4.40 
  -6  -7  -3   -2.60    5.80 
   7   7   3   28.40    6.20 
   7   7   3   34.90    4.80 
  -7  -7  -3   27.00    8.80 
   8   7   3   40.50    5.90 
   8   7   3   37.20    7.30 
  -8  -7  -3   38.30   11.00 
   9   7   3   18.00    5.00 
   9   7   3   27.20    7.30 
  -9  -7  -3   24.70   11.40 
  10   7   3   11.40    5.20 
  10   7   3   13.40    7.10 
 -10  -7  -3   -1.90   11.30 
   8  -7  -4   23.40    7.30 
   8  -7  -4   30.60    5.20 
  -7   7   4   43.90    7.40 
   7  -7  -4   29.00    5.20 
  -6   7   4   72.69   11.20 
  -6   7   4   64.89    8.60 
   6  -7  -4   61.19    6.90 
  -5   7   4  330.77   26.30 
  -5   7   4  308.37   24.50 
   5  -7  -4  309.97   23.00 
  -4   7   4  525.75   39.00 
  -4   7   4  560.04   40.50 
   4  -7  -4  536.75   37.80 
  -3   7   4 1352.46   87.89 
  -3   7   4 1208.48   86.49 
   3  -7  -4 1215.18   85.39 
  -2   7   4  730.93   47.80 
  -2   7   4  573.74   46.50 
   2  -7  -4  681.73   45.70 
  -1   7   4  294.57   22.10 
  -1   7   4  222.28   21.40 
   1  -7  -4  302.07   20.40 
   1  -7  -4  304.37   20.70 
   0   7   4   63.39    7.90 
   0   7   4   77.09    8.10 
   0  -7  -4   77.99    7.10 
   0  -7  -4   75.49    7.00 
   1   7   4   19.60    4.60 
   1   7   4   15.80    4.00 
  -1  -7  -4   20.60    3.40 
  -1  -7  -4   18.90    4.10 
   2   7   4  121.39   10.70 
   2   7   4  117.59   11.20 
  -2  -7  -4  120.89   11.60 
  -2  -7  -4  130.89   10.00 
   3   7   4  456.15   33.30 
   3   7   4  512.25   33.00 
  -3  -7  -4  452.15   34.20 
  -3  -7  -4  433.96   32.00 
   4   7   4  797.82   56.59 
   4   7   4  867.81   56.49 
  -4  -7  -4  801.12   55.49 
  -4  -7  -4  786.72   58.19 
   5   7   4  755.22   51.29 
   5   7   4  723.83   51.09 
  -5  -7  -4  730.43   53.89 
   6   7   4  530.05   38.20 
   6   7   4  556.44   38.70 
  -6  -7  -4  550.24   42.00 
   7   7   4  129.19   11.90 
   7   7   4  127.99   11.30 
  -7  -7  -4  120.69   15.80 
   8   7   4   -2.70    5.00 
   8   7   4   -0.10    3.60 
  -8  -7  -4   -8.90    7.80 
   9   7   4   -1.50    4.00 
   9   7   4   10.60    5.90 
  -9  -7  -4    5.50    9.70 
  10   7   4   13.40    7.50 
  10   7   4   17.10    5.50 
 -10  -7  -4   24.70   12.50 
  -8   7   5   -0.60    7.70 
   8  -7  -5    4.60    4.30 
  -7   7   5    0.90    6.90 
   7  -7  -5    0.30    3.70 
  -6   7   5   12.10    6.80 
   6  -7  -5   12.50    3.90 
  -5   7   5    4.70    5.90 
   5  -7  -5    8.60    3.60 
  -4   7   5   46.30    8.30 
   4  -7  -5   41.70    5.30 
  -3   7   5   90.69   10.60 
   3  -7  -5   64.59    6.90 
  -2   7   5   19.10    5.70 
   2  -7  -5   20.00    3.70 
  -1   7   5   44.00    6.90 
   1  -7  -5   49.60    5.20 
   1  -7  -5   44.80    5.30 
   0   7   5   35.40    6.20 
   0  -7  -5   38.40    4.50 
   0  -7  -5   34.70    4.90 
   1   7   5   -3.30    3.80 
  -1  -7  -5    2.90    2.40 
  -1  -7  -5    4.10    3.20 
   2   7   5   63.69    8.70 
  -2  -7  -5   72.89    8.40 
  -2  -7  -5   82.99    6.90 
   3   7   5    2.40    3.60 
   3   7   5    1.00    3.10 
  -3  -7  -5    1.10    4.10 
  -3  -7  -5    5.70    2.40 
   4   7   5   -0.20    3.30 
   4   7   5    6.40    3.20 
  -4  -7  -5   -0.10    1.90 
  -4  -7  -5    3.20    4.80 
   5   7   5    7.00    3.60 
   5   7   5    0.50    3.40 
  -5  -7  -5    1.50    5.80 
   6   7   5    3.60    3.40 
   6   7   5    6.20    4.00 
  -6  -7  -5    2.10    6.60 
   7   7   5   26.70    5.50 
   7   7   5   18.00    4.80 
  -7  -7  -5   35.90    9.50 
   8   7   5    4.50    4.30 
   8   7   5   -5.40    4.70 
  -8  -7  -5    1.10    8.00 
   9   7   5   42.10    7.50 
   9   7   5   36.20    6.40 
  -9  -7  -5   30.90   11.60 
  10   7   5    0.50    4.80 
  10   7   5   -1.10    6.70 
 -10  -7  -5   -6.70   10.20 
  -8   7   6   49.50   11.70 
   8  -7  -6   43.40    6.20 
  -7   7   6    2.10    7.40 
   7  -7  -6    2.10    4.00 
  -6   7   6    7.30    7.10 
   6  -7  -6    0.40    3.70 
  -5   7   6   -0.30    6.20 
   5  -7  -6    1.40    3.20 
  -4   7   6  123.39   14.20 
   4  -7  -6  118.09   10.30 
  -3   7   6   42.40    8.20 
   3  -7  -6   50.19    5.70 
  -2   7   6  606.94   42.30 
   2  -7  -6  547.15   39.70 
  -1   7   6  519.05   35.00 
   1  -7  -6  442.96   32.70 
   1  -7  -6  450.75   32.40 
   0   7   6  301.67   22.40 
   0  -7  -6  269.27   19.60 
   0  -7  -6  255.67   20.30 
   1   7   6  153.48   14.60 
  -1  -7  -6  154.88   13.10 
  -1  -7  -6  143.89   11.60 
   2   7   6    6.90    4.90 
  -2  -7  -6    8.00    4.10 
  -2  -7  -6    7.00    2.40 
   3   7   6    1.80    4.20 
  -3  -7  -6    4.80    4.80 
  -3  -7  -6    2.30    2.20 
   4   7   6   19.90    5.20 
  -4  -7  -6   13.30    3.00 
  -4  -7  -6   25.90    6.50 
   5   7   6  154.58   13.70 
  -5  -7  -6  147.49   16.10 
   6   7   6  168.18   14.30 
  -6  -7  -6  166.58   17.80 
   7   7   6  200.48   16.90 
  -7  -7  -6  217.98   22.00 
   8   7   6  265.17   22.40 
  -8  -7  -6  366.76   29.30 
   9   7   6    5.40    5.30 
  -9  -7  -6   19.60   10.80 
  10   7   6   10.90    5.70 
 -10  -7  -6   13.90   12.20 
  -7   7   7    1.60    7.90 
   7  -7  -7    7.90    4.20 
  -6   7   7    8.00    7.60 
   6  -7  -7    5.60    3.90 
  -5   7   7    0.60    6.50 
   5  -7  -7    6.70    3.70 
  -4   7   7   20.50    7.60 
   4  -7  -7   14.30    4.10 
  -3   7   7   -4.80    5.20 
   3  -7  -7   -0.20    3.00 
  -2   7   7    2.50    5.30 
   2  -7  -7    5.90    3.00 
   2  -7  -7   -1.20    3.20 
  -1   7   7    0.20    5.00 
   1  -7  -7   -1.20    2.80 
   1  -7  -7    1.40    2.70 
   0   7   7   14.00    6.40 
   0  -7  -7   14.50    3.20 
   0  -7  -7    9.60    3.70 
   1   7   7   24.30    6.40 
  -1  -7  -7   23.40    3.70 
  -1  -7  -7   21.30    5.10 
   2   7   7   23.30    6.90 
  -2  -7  -7   35.50    6.30 
  -2  -7  -7   37.20    4.20 
   3   7   7   47.30    7.90 
  -3  -7  -7   53.09    8.10 
  -3  -7  -7   42.80    4.60 
   4   7   7   49.30    7.60 
  -4  -7  -7   39.00    8.00 
   5   7   7   15.70    5.40 
  -5  -7  -7   19.60    7.90 
   6   7   7    0.00    4.20 
  -6  -7  -7   -0.70    6.70 
   7   7   7    1.30    4.70 
  -7  -7  -7    3.40    7.80 
   8   7   7   16.40    5.50 
  -8  -7  -7   16.90    9.80 
   9   7   7   20.60    6.40 
  -9  -7  -7   23.90   11.30 
 -10  -7  -7   13.00   13.00 
  -7   7   8  127.29   17.00 
   7  -7  -8  129.39   11.50 
  -6   7   8    4.40    7.80 
   6  -7  -8   14.00    4.40 
  -5   7   8    7.20    7.20 
   5  -7  -8    5.40    3.80 
  -4   7   8    1.60    6.90 
   4  -7  -8    1.10    3.30 
  -3   7   8  173.48   17.00 
   3  -7  -8  128.19   11.50 
  -2   7   8   45.10    8.80 
   2  -7  -8   28.30    4.50 
   2  -7  -8   27.20    5.50 
  -1   7   8  258.67   20.90 
   1  -7  -8  199.38   15.40 
   1  -7  -8  193.88   16.50 
   0   7   8  259.47   22.20 
   0  -7  -8  215.98   18.30 
   0  -7  -8  240.58   17.30 
   1   7   8  191.28   18.40 
  -1  -7  -8  161.18   14.90 
  -1  -7  -8  175.08   13.20 
   2   7   8   74.59   11.40 
  -2  -7  -8   90.29    7.70 
  -2  -7  -8   83.19   10.30 
   3   7   8   -9.00    4.90 
  -3  -7  -8   -2.70    2.30 
  -3  -7  -8    0.80    5.00 
   4   7   8   35.60    7.30 
  -4  -7  -8   23.60    7.30 
   5   7   8   29.80    6.20 
  -5  -7  -8   16.60    7.70 
   6   7   8   54.49    7.80 
  -6  -7  -8   28.40    9.00 
   7   7   8   19.20    6.10 
  -7  -7  -8   14.70    9.10 
   8   7   8    8.20    5.80 
  -8  -7  -8    0.30    9.40 
   9   7   8   49.00    8.50 
  -9  -7  -8   54.59   13.80 
  -6   7   9    5.10    8.20 
   6  -7  -9    6.10    4.30 
  -5   7   9   15.80    8.70 
   5  -7  -9    7.70    3.90 
  -4   7   9    0.40    7.80 
   4  -7  -9    5.90    3.60 
  -3   7   9   18.70    8.50 
   3  -7  -9   10.80    3.80 
  -2   7   9   13.20    8.20 
   2  -7  -9    9.10    4.70 
   2  -7  -9    6.70    3.40 
  -1   7   9   -4.50    7.40 
   1  -7  -9   -1.20    3.50 
   1  -7  -9    4.20    3.10 
   0   7   9    2.10    7.10 
   0  -7  -9    4.70    2.90 
   0  -7  -9    1.50    3.70 
   1   7   9   -3.00    6.80 
  -1  -7  -9   -1.40    2.70 
  -1  -7  -9   -3.10    3.70 
   2   7   9   46.40    9.90 
  -2  -7  -9   52.79    5.40 
  -2  -7  -9   48.30    8.00 
   3   7   9   12.40    7.10 
  -3  -7  -9    2.00    5.60 
  -3  -7  -9   10.30    3.00 
   4   7   9   90.09   11.50 
  -4  -7  -9   84.09   12.10 
   5   7   9   10.10    6.00 
  -5  -7  -9   -0.10    6.80 
   6   7   9   20.80    6.40 
  -6  -7  -9    7.70    8.10 
   7   7   9    7.60    6.20 
  -7  -7  -9   11.20    9.00 
   8   7   9    8.10    6.40 
  -8  -7  -9   27.90   10.90 
  -5   7  10   28.60   10.30 
   5  -7 -10   14.00    4.60 
  -4   7  10   13.80    9.40 
   4  -7 -10   19.10    4.50 
  -3   7  10    6.90    9.10 
   3  -7 -10   -5.90    3.30 
  -2   7  10   14.50   10.30 
   2  -7 -10    9.00    5.20 
   2  -7 -10   10.50    3.90 
  -1   7  10    5.00    8.90 
   1  -7 -10    5.70    3.30 
   1  -7 -10    6.10    4.60 
   0   7  10   14.40    9.30 
   0  -7 -10   14.40    5.10 
   0  -7 -10    7.10    3.30 
   1   7  10   43.20   10.60 
  -1  -7 -10   41.80    7.10 
  -1  -7 -10   31.20    4.60 
   2   7  10   51.39   11.10 
  -2  -7 -10   60.49    9.00 
  -2  -7 -10   50.99    5.70 
   3   7  10  106.49   13.40 
  -3  -7 -10  104.49   12.50 
  -3  -7 -10   89.89    8.70 
   4   7  10   35.60    8.70 
  -4  -7 -10   41.90    9.30 
   5   7  10    9.70    6.70 
  -5  -7 -10   -3.10    7.10 
   6   7  10    4.20    6.30 
  -6  -7 -10    6.50    8.50 
   7   7  10   25.80    7.80 
  -7  -7 -10    5.80    9.40 
  -4   7  11   -1.40   10.30 
   4  -7 -11    1.90    4.20 
  -3   7  11   34.70   12.90 
   3  -7 -11   22.90    4.80 
  -2   7  11  -15.20    8.90 
   2  -7 -11   -2.50    5.30 
   2  -7 -11    2.00    3.50 
  -1   7  11   27.70   11.90 
   1  -7 -11   26.60    4.80 
   1  -7 -11   27.50    6.70 
   0   7  11   -4.70    9.10 
   0  -7 -11    2.60    3.40 
   0  -7 -11   -0.10    4.60 
   1   7  11   -0.60    9.20 
  -1  -7 -11    0.80    5.00 
  -1  -7 -11   -1.30    3.20 
   2   7  11  -10.90    7.90 
  -2  -7 -11    1.40    5.60 
  -2  -7 -11    3.20    3.30 
   3   7  11   64.39   11.90 
   3   7  11   89.09    8.80 
  -3  -7 -11   56.59   10.10 
   4   7  11    5.10    7.40 
  -4  -7 -11    0.70    6.60 
   5   7  11   54.89    9.80 
  -5  -7 -11   39.80   10.20 
   6   7  11    4.30    7.10 
  -6  -7 -11   -7.00    7.60 
  -2   7  12   -6.60   10.60 
   2  -7 -12    0.60    4.00 
   2  -7 -12   -1.00    6.00 
  -1   7  12   15.90   11.60 
   1  -7 -12    4.80    3.90 
   1  -7 -12    9.50    5.70 
   0   7  12   18.20   11.60 
   0  -7 -12   12.10    6.10 
   1   7  12   -1.20   10.10 
   1   7  12    5.10    5.20 
  -1  -7 -12    5.50    6.00 
   2   7  12    7.70    5.40 
   2   7  12    8.20    9.20 
  -2  -7 -12    5.10    6.40 
   3   7  12  -10.20    7.70 
  -3  -7 -12   -2.70    6.60 
   4   7  12   -4.20    8.10 
  -4  -7 -12    3.90    7.20 
   5   7  12    0.80    8.00 
  -5  -7 -12    5.10    9.00 
  -3   8  -7   64.09   13.40 
   3  -8   7   81.69   10.70 
  -2   8  -7   98.59   14.10 
   2  -8   7   71.29   11.00 
  -1   8  -7   35.10   10.30 
   1  -8   7   54.29    9.10 
   0   8  -7   35.40    9.70 
   0  -8   7   51.99    9.10 
   1   8  -7    2.70    6.10 
  -1  -8   7   -0.40    5.70 
   2   8  -7   -0.40    5.10 
  -2  -8   7    7.60    5.90 
   3   8  -7   13.30    5.80 
  -3  -8   7   21.50   11.80 
  -3  -8   7   20.80    6.50 
   4   8  -7   22.00    6.70 
  -4  -8   7   49.90   14.30 
  -4  -8   7   26.30    6.90 
  -5  -8   7   65.49    8.90 
  -5  -8   7   39.40   14.70 
  -4   8  -6  178.48   21.40 
   4  -8   6  201.98   18.10 
  -3   8  -6   61.09   12.40 
   3  -8   6   58.69    8.90 
  -2   8  -6    2.70    7.90 
   2  -8   6    0.20    5.50 
  -1   8  -6   -7.90    6.40 
   1  -8   6    0.00    5.50 
   0   8  -6  219.28   22.50 
   0  -8   6  267.27   21.30 
   1   8  -6  436.06   35.20 
  -1  -8   6  475.85   34.50 
   2   8  -6  476.45   38.70 
  -2  -8   6  545.95   38.80 
  -2  -8   6  571.74   42.60 
   3   8  -6  184.48   17.60 
  -3  -8   6  232.18   23.20 
  -3  -8   6  199.98   18.10 
   4   8  -6  377.76   31.50 
  -4  -8   6  511.25   39.00 
  -4  -8   6  425.56   31.90 
   5   8  -6   53.69    8.60 
  -5  -8   6   65.19   14.90 
  -5  -8   6   88.59    9.70 
   6   8  -6   -0.20    5.30 
  -6  -8   6   14.40   12.30 
  -5   8  -5    8.00    9.40 
   5  -8   5   -5.70    4.60 
  -4   8  -5    4.20    8.60 
   4  -8   5   18.60    6.00 
  -3   8  -5   44.40   10.70 
   3  -8   5   33.90    7.10 
  -2   8  -5   51.99   11.30 
   2  -8   5   61.89    8.70 
  -1   8  -5   93.49   13.10 
   1  -8   5  101.79   11.20 
   0   8  -5   86.49   11.70 
   0  -8   5   73.49    9.70 
   1   8  -5   28.10    7.70 
  -1  -8   5   39.40    7.30 
   2   8  -5    1.70    5.00 
  -2  -8   5   17.90    8.10 
  -2  -8   5   -0.70    4.90 
   3   8  -5   -7.90    4.30 
  -3  -8   5   -6.90    7.10 
  -3  -8   5    0.60    4.80 
   4   8  -5   15.40    5.80 
  -4  -8   5   25.80   10.10 
  -4  -8   5   23.70    6.10 
   5   8  -5    8.40    5.40 
  -5  -8   5   11.00    5.40 
  -5  -8   5    3.90    9.40 
   6   8  -5   20.80    6.60 
  -6  -8   5   47.10   13.20 
   7   8  -5   -1.70    5.80 
  -7  -8   5   16.10   11.90 
  -6   8  -4  282.77   28.70 
   6  -8   4  305.07   23.30 
  -5   8  -4  406.76   36.20 
   5  -8   4  427.26   31.20 
  -4   8  -4  457.95   41.40 
   4  -8   4  561.84   38.10 
  -3   8  -4  247.18   25.70 
   3  -8   4  286.07   22.00 
  -2   8  -4  374.26   34.20 
   2  -8   4  453.15   31.70 
  -1   8  -4   55.39   10.00 
   1  -8   4   46.90    7.50 
   0   8  -4   39.80    8.90 
   0  -8   4   51.79    7.80 
   1   8  -4   34.40    7.50 
  -1  -8   4   28.90    6.20 
   2   8  -4 1090.69   83.09 
  -2  -8   4 1235.98   84.89 
  -2  -8   4 1268.37   83.09 
   3   8  -4 1059.59   77.69 
  -3  -8   4 1176.28   77.69 
  -3  -8   4 1124.29   80.19 
   4   8  -4  629.44   48.70 
  -4  -8   4  708.23   48.80 
  -4  -8   4  738.93   52.69 
   5   8  -4  653.23   51.49 
  -5  -8   4  748.43   51.39 
  -5  -8   4  805.42   56.39 
   6   8  -4  137.09   13.60 
  -6  -8   4  144.99   19.10 
   7   8  -4    0.10    5.90 
  -7  -8   4   -6.70    9.80 
   8   8  -4   -0.50    6.30 
  -8  -8   4   -4.10   11.00 
  -6   8  -3   18.90    9.30 
   6  -8   3   13.90    4.90 
  -5   8  -3   16.50    8.90 
   5  -8   3   14.90    4.80 
  -4   8  -3    1.40    7.50 
   4  -8   3    0.90    4.10 
  -3   8  -3   -4.80    6.60 
   3  -8   3    5.70    4.30 
  -2   8  -3   25.40    8.20 
   2  -8   3   35.90    6.00 
  -1   8  -3   26.40    7.80 
   1  -8   3   26.10    5.80 
   0   8  -3   52.09    9.30 
   0  -8   3   65.89    7.90 
   1   8  -3   89.39   11.30 
  -1  -8   3  106.59   10.50 
  -1  -8   3   98.49   11.70 
   2   8  -3   37.50    7.20 
  -2  -8   3   34.50    6.20 
  -2  -8   3   52.39    8.80 
   3   8  -3   23.60    5.70 
  -3  -8   3   40.70    6.20 
  -3  -8   3   40.20    8.70 
   4   8  -3   10.20    5.00 
  -4  -8   3   10.90    4.70 
  -4  -8   3    4.00    7.00 
   5   8  -3   -2.90    4.50 
  -5  -8   3    2.80    4.30 
  -5  -8   3   12.30    8.20 
   6   8  -3    4.10    5.20 
  -6  -8   3   10.20    9.10 
   7   8  -3    9.40    6.10 
  -7  -8   3   17.50   10.00 
   8   8  -3    3.60    6.40 
  -8  -8   3   -4.70    9.80 
   9   8  -3   14.10   12.00 
  -9  -8   3    6.50   12.60 
  -7   8  -2   -0.30    8.20 
   7  -8   2   -2.60    5.70 
   7  -8   2   -4.30    3.90 
  -6   8  -2   17.20    8.80 
   6  -8   2   -5.50    5.20 
   6  -8   2    4.20    4.40 
  -5   8  -2  190.38   19.90 
   5  -8   2  176.38   16.50 
   5  -8   2  181.78   15.50 
  -4   8  -2  398.26   32.00 
   4  -8   2  368.06   27.70 
   4  -8   2  372.56   28.20 
  -3   8  -2  896.41   67.09 
   3  -8   2  935.11   63.99 
  -2   8  -2  447.56   36.00 
   2  -8   2  455.45   33.00 
  -1   8  -2  686.73   52.39 
   1  -8   2  731.73   50.19 
   0   8  -2  229.78   20.90 
   0  -8   2  238.48   18.80 
   1   8  -2    8.30    5.40 
  -1  -8   2    1.10    3.80 
  -1  -8   2   -1.30    4.50 
   2   8  -2   19.10    5.50 
  -2  -8   2   18.40    6.00 
  -2  -8   2   15.70    4.60 
   3   8  -2  287.27   22.70 
  -3  -8   2  290.37   24.60 
  -3  -8   2  304.37   22.30 
   4   8  -2  940.11   69.39 
  -4  -8   2 1060.79   71.89 
  -4  -8   2 1003.90   69.09 
   5   8  -2  760.92   55.79 
  -5  -8   2  806.82   55.29 
  -5  -8   2  806.32   58.59 
   6   8  -2  747.43   54.59 
  -6  -8   2  798.62   57.99 
   7   8  -2  720.13   53.49 
  -7  -8   2  782.12   57.39 
   8   8  -2   16.00    7.10 
  -8  -8   2   10.00   10.00 
   9   8  -2   23.60    8.30 
  -9  -8   2   39.30   12.50 
  -7   8  -1   29.10    9.20 
   7  -8   1   11.00    4.30 
   7  -8   1  -11.30    5.50 
  -6   8  -1   54.89   10.90 
   6  -8   1   57.19    8.90 
   6  -8   1   74.39    7.80 
  -5   8  -1   -5.70    6.60 
   5  -8   1    6.10    5.00 
   5  -8   1   -2.50    3.80 
  -4   8  -1   54.79    9.90 
   4  -8   1   42.50    6.80 
   4  -8   1   38.90    5.90 
  -3   8  -1   -3.90    6.00 
   3  -8   1    0.20    4.30 
   3  -8   1    1.80    3.40 
  -2   8  -1    4.40    4.30 
  -2   8  -1    3.20    6.30 
   2  -8   1    4.20    3.60 
  -1   8  -1    9.30    6.20 
  -1   8  -1   13.30    4.80 
   1  -8   1    6.50    3.70 
   0   8  -1   11.00    5.70 
   0   8  -1   19.50    4.00 
   0  -8   1    7.10    3.80 
   1   8  -1    6.10    5.00 
  -1  -8   1   -3.40    3.60 
  -1  -8   1    1.40    3.40 
   2   8  -1   10.10    4.70 
  -2  -8   1   14.20    4.10 
  -2  -8   1   11.90    5.10 
   3   8  -1    4.30    4.10 
  -3  -8   1   -3.50    4.40 
  -3  -8   1   -0.50    3.30 
   4   8  -1   -4.50    4.00 
  -4  -8   1    5.80    3.50 
  -4  -8   1    2.40    5.60 
   5   8  -1    4.50    4.70 
  -5  -8   1    0.50    6.10 
  -5  -8   1    6.40    3.80 
   6   8  -1    1.70    5.20 
  -6  -8   1    6.80    7.50 
   7   8  -1    4.50    6.20 
  -7  -8   1    0.50    7.20 
   8   8  -1    8.60    7.10 
  -8  -8   1    3.20    9.10 
   9   8  -1   -2.80    6.90 
  -9  -8   1    1.20    9.80 
  -8   8   0  137.89   16.50 
  -7   8   0  131.69   15.30 
   7  -8   0  120.59   11.10 
   7  -8   0  117.09   13.00 
  -6   8   0   22.20    8.10 
   6  -8   0    2.20    3.80 
   6  -8   0    9.70    5.40 
  -5   8   0   24.80    8.20 
   5  -8   0   24.50    5.10 
   5  -8   0   28.60    6.30 
  -4   8   0   32.30    8.70 
   4  -8   0   37.30    6.60 
   4  -8   0   43.00    6.00 
  -3   8   0  667.93   51.39 
   3  -8   0  713.53   48.80 
  -2   8   0 1297.37   95.99 
  -2   8   0 1518.25   95.19 
   2  -8   0 1294.47   93.79 
  -1   8   0  983.80   62.09 
  -1   8   0  818.02   63.09 
   1  -8   0  840.02   61.09 
   0   8   0 1253.07   90.29 
   0   8   0 1361.56   88.69 
   0  -8   0 1254.17   88.59 
   1   8   0  388.56   31.30 
   1   8   0  437.56   29.50 
  -1  -8   0  398.76   29.80 
  -1  -8   0  418.96   30.30 
   2   8   0    4.50    4.30 
   2   8   0    8.90    3.10 
  -2  -8   0    6.40    4.40 
  -2  -8   0    9.90    3.40 
   3   8   0   13.30    4.50 
  -3  -8   0    6.80    3.40 
  -3  -8   0    3.90    4.40 
   4   8   0  152.98   14.20 
  -4  -8   0  151.88   12.70 
  -4  -8   0  160.48   15.40 
   5   8   0  623.54   44.80 
  -5  -8   0  625.54   46.50 
   6   8   0  513.05   38.20 
  -6  -8   0  532.15   40.70 
   7   8   0  476.65   36.30 
  -7  -8   0  493.15   39.20 
   8   8   0  548.35   41.50 
  -8  -8   0  564.14   44.60 
   9   8   0   80.99   11.40 
  -9  -8   0   84.29   15.20 
  10   8   0    1.60    8.10 
 -10  -8   0    0.20   11.00 
  -8   8   1    8.40    7.90 
   8  -8  -1   14.00    6.90 
  -7   8   1   11.40    7.70 
   7  -8  -1    2.40    3.80 
   7  -8  -1    9.20    6.10 
  -6   8   1    1.30    6.40 
   6  -8  -1    2.20    5.30 
   6  -8  -1    7.50    3.80 
  -5   8   1   44.30    8.80 
   5  -8  -1   42.40    7.40 
   5  -8  -1   43.60    6.00 
  -4   8   1   -1.10    6.10 
   4  -8  -1   -4.90    3.20 
   4  -8  -1    1.50    4.60 
  -3   8   1   29.00    7.80 
  -3   8   1   52.09    7.90 
   3  -8  -1   34.00    5.50 
  -2   8   1   -0.80    3.90 
  -2   8   1   -3.10    5.00 
   2  -8  -1    4.10    3.60 
  -1   8   1   11.30    4.20 
  -1   8   1   13.00    5.60 
   1  -8  -1    8.40    3.70 
   0   8   1    0.50    4.60 
   0   8   1    1.30    3.10 
   0  -8  -1   -2.80    2.90 
   1   8   1    4.10    4.50 
   1   8   1    6.60    3.20 
  -1  -8  -1    8.10    3.30 
  -1  -8  -1   -4.30    3.00 
   2   8   1    3.40    3.90 
   2   8   1    1.70    2.80 
  -2  -8  -1   25.50    4.00 
  -2  -8  -1    5.80    3.90 
   3   8   1    2.30    2.80 
   3   8   1    9.40    4.20 
  -3  -8  -1    8.40    3.20 
  -3  -8  -1    5.70    4.50 
   4   8   1   -3.00    4.00 
   4   8   1   -0.40    2.20 
  -4  -8  -1   -2.50    2.60 
  -4  -8  -1    2.30    4.60 
   5   8   1   -0.60    4.40 
   5   8   1   -0.70    4.60 
  -5  -8  -1   -2.30    4.90 
   6   8   1   -7.80    4.90 
  -6  -8  -1   -4.30    5.60 
   7   8   1    3.70    6.00 
  -7  -8  -1    8.10    7.30 
   8   8   1    0.80    6.40 
  -8  -8  -1   -5.70    8.30 
   9   8   1   -1.50    7.00 
  -9  -8  -1    1.20    9.70 
  10   8   1   15.70    8.60 
 -10  -8  -1    5.80   11.50 
  -8   8   2  208.58   20.40 
   8  -8  -2  224.68   20.20 
   8  -8  -2  202.58   19.80 
  -7   8   2  121.19   15.40 
   7  -8  -2  162.78   15.20 
   7  -8  -2  152.48   12.80 
  -6   8   2  228.18   20.80 
   6  -8  -2  200.08   17.20 
   6  -8  -2  242.08   19.40 
  -5   8   2   83.59   11.40 
   5  -8  -2   91.89    8.90 
  -4   8   2   -5.70    5.50 
  -4   8   2   -1.50    5.00 
   4  -8  -2   -1.40    3.20 
  -3   8   2    2.20    4.70 
  -3   8   2    1.60    5.30 
   3  -8  -2   -2.50    3.30 
  -2   8   2   91.19   11.20 
  -2   8   2  106.29   11.10 
   2  -8  -2   89.99    8.90 
  -1   8   2  921.81   57.99 
  -1   8   2  803.32   58.49 
   1  -8  -2  743.53   56.69 
   0   8   2  924.41   60.19 
   0   8   2  852.11   60.89 
   0  -8  -2  809.42   59.59 
   1   8   2  832.62   62.89 
   1   8   2  967.80   62.29 
  -1  -8  -2  825.32   61.89 
  -1  -8  -2  953.30   62.39 
   2   8   2 1792.02  137.99 
   2   8   2 2330.17  138.09 
  -2  -8  -2 2188.48  138.69 
  -2  -8  -2 1804.02  137.49 
   3   8   2    1.30    3.00 
   3   8   2   -4.40    3.50 
  -3  -8  -2    5.10    4.50 
  -3  -8  -2    1.80    3.20 
   4   8   2   76.99    8.70 
   4   8   2   89.09    7.90 
  -4  -8  -2   81.69   10.40 
  -4  -8  -2   72.29    7.70 
   5   8   2   17.50    3.40 
   5   8   2   10.70    5.00 
  -5  -8  -2   13.90    6.60 
   6   8   2  408.76   29.90 
   6   8   2  385.76   27.70 
  -6  -8  -2  382.86   31.90 
   7   8   2  136.89   13.40 
   7   8   2  123.79   11.20 
  -7  -8  -2  146.59   16.80 
   8   8   2  528.15   39.40 
  -8  -8  -2  524.45   42.80 
   9   8   2  244.08   23.10 
  -9  -8  -2  268.27   27.40 
  10   8   2  324.87   27.90 
 -10  -8  -2  321.57   32.70 
  -8   8   3   -6.90    7.00 
   8  -8  -3    4.00    9.80 
   8  -8  -3    2.30    4.30 
  -7   8   3   13.30    6.80 
   7  -8  -3   -0.10    3.80 
  -6   8   3    8.00    6.40 
   6  -8  -3   -2.10    3.60 
  -5   8   3   -4.30    5.60 
  -5   8   3   -0.80    5.80 
   5  -8  -3    2.20    3.50 
  -4   8   3   -7.70    5.00 
  -4   8   3   -2.90    4.80 
   4  -8  -3    0.20    3.30 
  -3   8   3   -1.10    4.90 
  -3   8   3    0.60    4.90 
   3  -8  -3    0.50    3.20 
  -2   8   3   -1.20    4.00 
  -2   8   3    7.20    5.00 
   2  -8  -3    2.70    3.20 
  -1   8   3    3.10    3.70 
  -1   8   3   -4.30    4.10 
   1  -8  -3    5.50    3.40 
   0   8   3    7.70    4.40 
   0   8   3    6.60    3.80 
   0  -8  -3    5.80    2.90 
   0  -8  -3    6.20    3.20 
   1   8   3   14.90    4.60 
   1   8   3   20.00    4.50 
  -1  -8  -3    6.30    3.30 
  -1  -8  -3   18.20    4.20 
   2   8   3    0.70    3.10 
   2   8   3    7.80    3.80 
  -2  -8  -3    4.70    4.00 
  -2  -8  -3    5.70    3.10 
   3   8   3   48.50    6.70 
   3   8   3   56.99    6.70 
  -3  -8  -3   54.89    7.90 
  -3  -8  -3   42.00    5.60 
   4   8   3   18.80    5.10 
   4   8   3   12.00    3.70 
  -4  -8  -3   12.60    3.30 
  -4  -8  -3   15.00    6.10 
   5   8   3   19.80    5.50 
   5   8   3   15.70    3.60 
  -5  -8  -3   10.20    6.40 
   6   8   3   22.60    6.20 
   6   8   3   13.10    3.50 
  -6  -8  -3   13.90    7.00 
   7   8   3    7.70    6.10 
   7   8   3    5.50    3.50 
  -7  -8  -3    6.50    7.40 
   8   8   3   -0.80    6.30 
   8   8   3    9.60    4.00 
  -8  -8  -3   10.10    8.90 
   9   8   3   18.70    7.70 
   9   8   3    3.10    5.50 
  -9  -8  -3   -1.20    9.60 
  10   8   3   23.80    8.90 
 -10  -8  -3   21.70   12.40 
  -7   8   4  294.37   25.50 
   7  -8  -4  245.38   19.90 
  -6   8   4  228.98   20.40 
   6  -8  -4  169.08   15.30 
  -5   8   4  433.56   33.10 
  -5   8   4  383.06   31.90 
   5  -8  -4  409.06   29.60 
  -4   8   4   84.19   10.80 
  -4   8   4  103.99   12.30 
   4  -8  -4   84.09    8.60 
  -3   8   4    4.40    5.10 
  -3   8   4   10.30    5.40 
   3  -8  -4   -2.30    3.10 
  -2   8   4  140.29   13.10 
  -2   8   4  116.79   12.60 
   2  -8  -4  121.29   11.20 
  -1   8   4   43.90    6.60 
  -1   8   4   25.80    6.00 
   1  -8  -4   42.50    5.40 
   0   8   4  460.95   31.50 
   0   8   4  369.26   31.00 
   0  -8  -4  456.05   30.20 
   0  -8  -4  406.16   30.30 
   1   8   4  664.53   42.10 
   1   8   4  487.85   41.00 
  -1  -8  -4  593.84   41.00 
  -1  -8  -4  588.14   40.60 
   2   8   4   82.69    8.30 
   2   8   4   73.09    8.80 
  -2  -8  -4   80.29    7.80 
  -2  -8  -4   84.39    9.40 
   3   8   4 1574.24  102.39 
   3   8   4 1508.05  101.99 
  -3  -8  -4 1424.66  101.19 
  -3  -8  -4 1454.95  102.89 
   4   8   4   42.50    6.30 
   4   8   4   56.29    6.80 
  -4  -8  -4   39.20    4.90 
  -4  -8  -4   49.30    8.40 
   5   8   4    7.40    3.70 
   5   8   4   17.70    5.50 
  -5  -8  -4   15.40    6.70 
   6   8   4    3.50    5.10 
   6   8   4    8.40    3.50 
  -6  -8  -4    8.30    7.10 
   7   8   4  148.49   13.10 
   7   8   4  167.18   14.70 
  -7  -8  -4  150.48   18.30 
   8   8   4   55.69    8.70 
   8   8   4   43.70    6.50 
  -8  -8  -4   60.49   12.40 
   9   8   4   60.89    9.80 
   9   8   4   56.89    7.50 
  -9  -8  -4   49.60   13.20 
  10   8   4   31.80    6.40 
  10   8   4   42.30    9.40 
 -10  -8  -4   43.60   13.70 
  -7   8   5    1.00    7.60 
   7  -8  -5   -2.10    4.00 
  -6   8   5    2.50    7.00 
   6  -8  -5    6.20    4.30 
  -5   8   5   -2.70    5.60 
   5  -8  -5    5.80    3.90 
  -4   8   5    2.10    5.70 
   4  -8  -5    0.20    3.50 
  -3   8   5   33.30    7.50 
   3  -8  -5   36.70    5.30 
  -2   8   5    4.50    4.60 
   2  -8  -5    4.80    3.60 
  -1   8   5   13.50    5.10 
   1  -8  -5    8.70    3.50 
   0   8   5   21.10    5.30 
   0  -8  -5   15.80    3.80 
   0  -8  -5   10.30    3.50 
   1   8   5    5.40    4.60 
  -1  -8  -5    1.00    2.90 
  -1  -8  -5   -0.60    3.20 
   2   8   5   -0.50    4.20 
  -2  -8  -5   -0.10    3.60 
  -2  -8  -5    0.50    2.80 
   3   8   5    0.50    4.00 
  -3  -8  -5    4.70    4.70 
  -3  -8  -5    3.00    2.80 
   4   8   5   13.20    4.80 
  -4  -8  -5   17.40    3.70 
  -4  -8  -5   20.70    6.70 
   5   8   5   16.80    4.60 
  -5  -8  -5   23.20    7.50 
   6   8   5   15.40    7.60 
   6   8   5    7.00    4.00 
  -6  -8  -5   12.00    7.60 
   7   8   5    8.90    6.90 
   7   8   5    4.60    4.10 
  -7  -8  -5    6.20    8.10 
   8   8   5   24.40    5.40 
  -8  -8  -5   29.40   10.60 
   9   8   5   -6.60    4.70 
  -9  -8  -5   -1.60    9.50 
  10   8   5  -10.30    4.80 
 -10  -8  -5    3.20   11.40 
  -7   8   6   12.00    8.90 
   7  -8  -6    7.30    4.60 
  -6   8   6  124.99   15.90 
   6  -8  -6  130.49   11.90 
  -5   8   6  117.99   14.30 
   5  -8  -6  107.59   10.10 
  -4   8   6  193.58   19.00 
   4  -8  -6  191.58   15.60 
  -3   8   6  572.84   42.90 
   3  -8  -6  575.34   40.40 
  -2   8   6   34.60    7.20 
   2  -8  -6   26.00    4.70 
  -1   8   6    6.10    4.90 
   1  -8  -6    0.60    3.10 
   0   8   6    4.80    5.00 
   0  -8  -6    7.90    3.50 
   0  -8  -6    5.40    3.20 
   1   8   6  418.16   29.00 
  -1  -8  -6  352.46   26.30 
  -1  -8  -6  351.06   27.10 
   2   8   6  195.88   17.50 
  -2  -8  -6  177.38   14.40 
  -2  -8  -6  197.78   16.20 
   3   8   6  215.08   18.60 
  -3  -8  -6  202.38   15.80 
  -3  -8  -6  228.38   18.90 
   4   8   6  315.37   23.10 
  -4  -8  -6  253.67   23.50 
   5   8   6  397.16   29.60 
  -5  -8  -6  396.66   32.00 
   6   8   6   23.90    5.40 
  -6  -8  -6   38.20    9.50 
   7   8   6   13.00    4.90 
  -7  -8  -6    6.70    8.50 
   8   8   6    2.40    4.60 
  -8  -8  -6    3.60    9.20 
   9   8   6  157.78   15.00 
  -9  -8  -6  168.98   21.60 
 -10  -8  -6   35.20   23.30 
  -6   8   7   -5.00    7.00 
   6  -8  -7    2.90    4.40 
  -5   8   7   -5.40    6.30 
   5  -8  -7   -3.90    3.90 
  -4   8   7    9.30    6.40 
   4  -8  -7    3.80    3.90 
  -3   8   7   -3.80    5.50 
   3  -8  -7   -6.00    3.00 
  -2   8   7   58.69    9.30 
   2  -8  -7   46.10    5.90 
  -1   8   7   17.40    6.50 
   1  -8  -7   20.20    4.00 
   0   8   7   21.30    6.70 
   0  -8  -7   14.80    4.20 
   0  -8  -7   12.10    3.50 
   1   8   7   18.10    6.40 
  -1  -8  -7    9.00    3.30 
  -1  -8  -7   17.90    5.00 
   2   8   7    0.10    5.70 
  -2  -8  -7    0.20    4.30 
  -2  -8  -7    2.90    2.80 
   3   8   7   -1.90    5.10 
  -3  -8  -7   -1.90    2.70 
  -3  -8  -7    8.60    5.40 
   4   8   7    8.00    5.50 
  -4  -8  -7    2.00    6.00 
   5   8   7   27.70    6.40 
  -5  -8  -7   25.80    8.50 
   6   8   7   22.50    5.70 
  -6  -8  -7   17.40    8.50 
   7   8   7   19.20    5.90 
  -7  -8  -7   23.90    9.80 
   8   8   7   -5.90    4.90 
  -8  -8  -7   -1.80    9.00 
   9   8   7    1.30    5.60 
  -9  -8  -7    6.20   10.70 
  -6   8   8    3.40    7.60 
   6  -8  -8    3.10    4.30 
  -5   8   8   48.10    9.90 
   5  -8  -8   40.40    6.10 
  -4   8   8  158.28   16.80 
   4  -8  -8  134.39   12.60 
  -3   8   8   31.00    8.50 
   3  -8  -8   23.50    4.90 
  -2   8   8  480.75   34.60 
   2  -8  -8  403.86   30.90 
  -1   8   8    9.10    7.00 
   1  -8  -8    3.50    3.40 
   1  -8  -8    7.00    4.60 
   0   8   8   -5.50    6.40 
   0  -8  -8    7.40    3.80 
   0  -8  -8    1.20    3.10 
   1   8   8   24.90    7.90 
  -1  -8  -8   31.80    4.60 
  -1  -8  -8   34.90    6.30 
   2   8   8  152.58   16.00 
  -2  -8  -8  137.19   14.00 
  -2  -8  -8  140.49   11.60 
   3   8   8   22.90    7.60 
  -3  -8  -8   19.00    3.70 
  -3  -8  -8   24.70    7.00 
   4   8   8   55.09    9.00 
  -4  -8  -8   42.30    9.00 
   5   8   8   -0.40    5.70 
  -5  -8  -8    4.70    6.90 
   6   8   8  117.19   12.30 
  -6  -8  -8  120.29   15.70 
   7   8   8   13.70    6.00 
  -7  -8  -8    4.70    9.20 
   8   8   8   13.80    6.50 
  -8  -8  -8   15.20   10.80 
   9   8   8   11.30    6.90 
  -9  -8  -8   30.10   13.90 
  -5   8   9   -8.30    7.00 
   5  -8  -9    7.80    4.60 
  -4   8   9   -6.90    7.00 
   4  -8  -9    3.00    4.10 
  -3   8   9    9.20    7.60 
   3  -8  -9   -0.40    3.80 
  -2   8   9   -2.90    7.20 
   2  -8  -9    3.00    3.60 
  -1   8   9   17.00    9.20 
   1  -8  -9   10.20    4.50 
   1  -8  -9   16.40    4.20 
   0   8   9   14.20    8.30 
   0  -8  -9   14.30    4.80 
   0  -8  -9   12.00    3.90 
   1   8   9    7.10    8.30 
  -1  -8  -9   11.80    3.70 
  -1  -8  -9    7.70    4.70 
   2   8   9    6.20    7.30 
  -2  -8  -9   21.60    6.30 
  -2  -8  -9   18.80    3.90 
   3   8   9    6.00    7.30 
  -3  -8  -9    4.10    6.20 
  -3  -8  -9    9.60    3.30 
   4   8   9    4.30    6.70 
  -4  -8  -9    1.90    6.70 
   5   8   9   -3.20    5.80 
  -5  -8  -9    1.20    7.50 
   6   8   9    8.00    6.20 
  -6  -8  -9    7.80    8.50 
   7   8   9    5.80    6.20 
  -7  -8  -9   24.10   10.20 
   8   8   9    1.70    6.70 
  -8  -8  -9   -6.70    9.80 
  -4   8  10   35.10   10.80 
   4  -8 -10   23.60    5.30 
  -3   8  10  120.69   16.20 
   3  -8 -10   90.99    9.20 
  -2   8  10    3.40    9.70 
   2  -8 -10    0.40    3.80 
  -1   8  10   89.69   13.80 
   1  -8 -10   65.79    7.30 
   1  -8 -10   59.69    8.40 
   0   8  10   62.69   12.90 
   0  -8 -10   52.29    7.80 
   0  -8 -10   49.80    6.10 
   1   8  10   -1.10    8.20 
  -1  -8 -10    3.40    4.80 
  -1  -8 -10    5.50    3.50 
   2   8  10    9.60    8.80 
  -2  -8 -10    9.00    5.90 
  -2  -8 -10    9.80    3.60 
   3   8  10   -0.80    7.90 
  -3  -8 -10    5.50    6.20 
   4   8  10   96.09   13.10 
  -4  -8 -10   95.59   13.60 
   5   8  10   43.70    9.20 
  -5  -8 -10   35.50   10.00 
   6   8  10    5.50    6.90 
  -6  -8 -10    5.40    9.10 
   7   8  10   28.50    8.30 
  -7  -8 -10   24.60   10.90 
  -3   8  11   16.20   11.90 
   3  -8 -11    4.70    4.30 
  -2   8  11    5.90   10.70 
   2  -8 -11    4.20    4.10 
  -1   8  11   -1.30   10.40 
   1  -8 -11    6.30    4.00 
   1  -8 -11    8.10    5.70 
   0   8  11   23.00   11.80 
   0  -8 -11    9.80    4.10 
   0  -8 -11    7.40    5.30 
   1   8  11   15.70   10.50 
  -1  -8 -11    9.20    4.00 
  -1  -8 -11   14.50    5.70 
   2   8  11   -0.30    9.40 
  -2  -8 -11    0.90    5.60 
  -2  -8 -11    3.60    3.60 
   3   8  11    3.00    8.70 
  -3  -8 -11    9.30    7.30 
   4   8  11    9.60    8.30 
  -4  -8 -11   -0.10    7.10 
   5   8  11   -2.50    7.70 
  -5  -8 -11   10.10    9.00 
   6   8  11    3.70    8.40 
  -6  -8 -11  -15.30    8.40 
  -1   8  12  -23.30   11.10 
   1  -8 -12    1.60    4.10 
   1  -8 -12    0.20    6.50 
   0   8  12   -3.30   10.70 
   0  -8 -12   -6.30    5.40 
   0  -8 -12   -1.40    3.90 
   1   8  12   20.70   12.20 
  -1  -8 -12    7.80    6.00 
  -1  -8 -12   18.70    4.50 
   2   8  12   -0.20   10.50 
  -2  -8 -12    0.60    6.10 
   3   8  12   -8.60    8.80 
  -3  -8 -12   10.90    7.30 
   4   8  12   44.50   11.10 
  -4  -8 -12   15.10    8.50 
  -2   9  -6  197.08   23.50 
   2  -9   6  272.17   21.70 
  -1   9  -6  401.46   35.50 
   1  -9   6  431.96   32.70 
   0   9  -6  459.25   37.70 
   0  -9   6  477.55   36.20 
   1   9  -6  157.78   17.70 
  -1  -9   6  226.98   19.10 
   2   9  -6   59.39    9.40 
  -2  -9   6   79.09   10.50 
   3   9  -6   12.90    6.00 
  -3  -9   6    5.60    6.60 
   4   9  -6   21.30    7.00 
  -4  -9   6   39.00   12.30 
  -4  -9   6   41.00    8.20 
   4  -9   5   28.80    7.10 
  -3   9  -5   94.29   14.70 
   3  -9   5   84.29   10.70 
  -2   9  -5   14.90    9.10 
   2  -9   5   16.50    6.00 
  -1   9  -5    3.40    8.00 
   1  -9   5    5.40    5.70 
   0   9  -5   27.40    8.70 
   0  -9   5   19.30    6.80 
   1   9  -5   94.09   12.60 
  -1  -9   5  105.89   11.80 
   2   9  -5    4.90    5.80 
  -2  -9   5    1.90    5.70 
   3   9  -5  101.39   11.70 
  -3  -9   5  130.89   12.90 
  -3  -9   5  103.99   15.60 
   4   9  -5   18.00    6.40 
  -4  -9   5   13.90    6.70 
  -4  -9   5   25.90   11.00 
   5   9  -5    9.60    6.20 
  -5  -9   5   24.60    7.30 
  -5  -9   5   15.70   11.10 
   6   9  -5   38.50    8.30 
  -6  -9   5   84.19   15.90 
   5  -9   4   32.40    6.40 
  -4   9  -4    8.10    9.20 
   4  -9   4   11.10    5.60 
  -3   9  -4   12.80    9.20 
   3  -9   4   12.00    5.50 
  -2   9  -4   87.29   14.50 
   2  -9   4  120.69   11.90 
  -1   9  -4  371.66   33.20 
   1  -9   4  417.46   30.50 
   0   9  -4  517.95   41.30 
   0  -9   4  539.85   39.10 
   1   9  -4  771.32   56.49 
  -1  -9   4  772.82   55.09 
   2   9  -4  387.46   30.70 
  -2  -9   4  398.16   30.30 
   3   9  -4  128.09   14.00 
  -3  -9   4  171.68   15.10 
  -3  -9   4  170.08   18.20 
   4   9  -4    0.80    5.20 
  -4  -9   4   13.30    5.80 
  -4  -9   4    9.40    8.90 
   5   9  -4   35.40    7.20 
  -5  -9   4   15.60   10.40 
  -5  -9   4   35.00    7.30 
   6   9  -4   76.99   10.10 
  -6  -9   4   96.09   16.10 
   7   9  -4   97.69   12.50 
  -7  -9   4  170.58   20.50 
  -5   9  -3   -1.80    8.40 
   5  -9   3   -2.70    4.40 
  -4   9  -3   84.09   14.40 
   4  -9   3   94.99   10.00 
  -3   9  -3    8.30    8.90 
   3  -9   3    3.70    4.60 
  -2   9  -3   93.09   14.10 
   2  -9   3   96.49   10.70 
  -1   9  -3   44.60   10.30 
   1  -9   3   54.39    7.90 
   0   9  -3    8.20    7.00 
   0  -9   3   14.00    5.40 
   1   9  -3  108.19   13.10 
  -1  -9   3  122.29   12.20 
   2   9  -3   89.49   11.10 
  -2  -9   3  105.59   11.10 
   3   9  -3   -0.80    4.80 
  -3  -9   3   13.80    7.10 
  -3  -9   3  -11.10    4.30 
   4   9  -3   52.59    8.10 
  -4  -9   3   49.70    7.70 
  -4  -9   3   54.79   10.90 
   5   9  -3   10.00    5.70 
  -5  -9   3   23.00    6.20 
  -5  -9   3   24.60    9.20 
   6   9  -3    2.20    5.60 
  -6  -9   3   -1.30    8.30 
   7   9  -3   16.30    6.70 
  -7  -9   3   22.20   10.80 
   8   9  -3    8.60    7.80 
  -8  -9   3   11.30   10.70 
  -6   9  -2  243.48   24.10 
   6  -9   2  203.88   17.80 
  -5   9  -2  425.56   38.10 
   5  -9   2  454.95   32.80 
  -4   9  -2  297.37   27.20 
   4  -9   2  267.47   21.60 
  -3   9  -2   78.79   13.10 
   3  -9   2   77.89    8.90 
  -2   9  -2   -2.70    7.00 
   2  -9   2   -1.40    4.20 
  -1   9  -2   32.30    9.10 
   1  -9   2   50.99    7.00 
   0   9  -2  382.76   31.50 
   0  -9   2  392.36   29.00 
   1   9  -2  609.64   45.80 
  -1  -9   2  622.24   44.10 
   2   9  -2 1057.79   76.79 
  -2  -9   2 1066.69   75.79 
  -2  -9   2 1155.28   77.29 
   3   9  -2 1015.90   74.39 
  -3  -9   2 1086.99   75.99 
  -3  -9   2 1105.79   74.19 
   4   9  -2  539.05   41.10 
  -4  -9   2  581.14   43.30 
  -4  -9   2  587.84   40.90 
   5   9  -2  143.79   14.40 
  -5  -9   2  172.18   14.80 
  -5  -9   2  143.99   17.20 
   6   9  -2    2.00    5.40 
  -6  -9   2  -10.50    7.00 
   7   9  -2  149.99   15.50 
  -7  -9   2  178.78   20.30 
   8   9  -2  101.59   13.00 
  -8  -9   2  142.89   18.90 
  -6   9  -1    5.50    8.80 
   6  -9   1    5.20    4.40 
   6  -9   1   10.60    6.30 
  -5   9  -1   -4.20    8.10 
   5  -9   1    7.20    4.50 
   5  -9   1    4.70    5.70 
  -4   9  -1   16.00    8.90 
   4  -9   1    4.20    4.20 
  -3   9  -1    1.90    7.30 
  -3   9  -1    7.80    5.90 
   3  -9   1    2.40    4.00 
  -2   9  -1   32.10    8.90 
   2  -9   1   21.10    5.00 
  -1   9  -1   15.50    7.50 
   1  -9   1   23.70    5.30 
   0   9  -1    2.10    6.00 
   0  -9   1   15.60    4.70 
   1   9  -1   20.00    6.80 
  -1  -9   1   25.20    5.10 
   2   9  -1    0.50    4.80 
  -2  -9   1    3.90    4.80 
  -2  -9   1    1.50    3.70 
   3   9  -1   37.00    6.90 
  -3  -9   1   49.10    8.20 
  -3  -9   1   45.70    6.40 
   4   9  -1   -1.40    4.70 
  -4  -9   1   -3.90    3.60 
  -4  -9   1   -2.80    5.40 
   5   9  -1    3.10    5.10 
  -5  -9   1    0.50    6.40 
   6   9  -1    1.90    5.70 
  -6  -9   1    2.40    7.00 
   7   9  -1   22.50    7.70 
  -7  -9   1   47.20   11.00 
   8   9  -1    4.30    7.10 
  -8  -9   1    0.20    8.50 
   9   9  -1   -5.80    7.60 
  -9  -9   1   -2.10    9.40 
  -7   9   0   47.90   11.30 
   7  -9   0   26.70    5.60 
  -6   9   0  175.98   19.10 
   6  -9   0  151.58   14.30 
   6  -9   0  173.48   16.40 
  -5   9   0  234.78   22.00 
   5  -9   0  195.28   16.70 
   5  -9   0  194.78   18.20 
  -4   9   0  505.25   34.00 
  -4   9   0  375.46   34.70 
   4  -9   0  394.06   30.80 
  -3   9   0  402.36   35.60 
  -3   9   0  476.25   34.00 
   3  -9   0  425.16   31.90 
  -2   9   0  209.98   21.80 
  -2   9   0  270.07   20.00 
   2  -9   0  205.08   17.90 
  -1   9   0    5.50    6.50 
  -1   9   0    4.30    4.20 
   1  -9   0    4.60    3.80 
   0   9   0   30.90    7.40 
   0   9   0   28.40    5.20 
   0  -9   0   27.60    5.10 
   1   9   0  201.48   18.10 
  -1  -9   0  189.88   15.70 
   2   9   0  384.06   29.80 
  -2  -9   0  420.86   29.70 
  -2  -9   0  368.26   28.50 
   3   9   0  424.06   31.60 
  -3  -9   0  428.96   32.30 
  -3  -9   0  422.86   30.70 
   4   9   0  643.54   47.20 
  -4  -9   0  659.83   46.30 
  -4  -9   0  680.93   48.60 
   5   9   0  478.95   35.70 
  -5  -9   0  481.45   37.20 
   6   9   0  242.38   21.60 
  -6  -9   0  286.97   24.30 
   7   9   0   73.49   10.90 
  -7  -9   0  116.69   14.80 
   8   9   0   25.40    8.20 
  -8  -9   0   28.50   10.30 
   9   9   0   25.90    9.30 
  -9  -9   0   46.50   12.60 
  -7   9   1   23.00    9.40 
   7  -9  -1   19.30    5.00 
   7  -9  -1   13.70    7.00 
  -6   9   1    9.70    8.20 
   6  -9  -1    7.70    4.50 
  -5   9   1   33.80    9.20 
  -5   9   1   30.20    9.40 
   5  -9  -1   18.00    5.10 
  -4   9   1  125.09   13.90 
  -4   9   1  103.79   14.10 
   4  -9  -1   88.19    9.80 
  -3   9   1   75.69   11.90 
  -3   9   1   97.89   11.80 
   3  -9  -1   69.49    8.40 
  -2   9   1   15.90    5.80 
  -2   9   1    4.50    6.50 
   2  -9  -1    4.70    4.00 
  -1   9   1    7.70    4.20 
  -1   9   1   14.80    6.70 
   1  -9  -1    4.10    3.80 
   0   9   1   23.90    6.80 
   0   9   1   29.80    5.10 
   0  -9  -1   19.40    4.60 
   1   9   1   29.10    6.80 
   1   9   1   34.90    5.20 
  -1  -9  -1   19.20    4.50 
   2   9   1   48.80    7.80 
   2   9   1   68.99    7.20 
  -2  -9  -1   60.39    7.00 
  -2  -9  -1   69.49    8.60 
   3   9   1   66.39    8.60 
  -3  -9  -1   73.49    7.80 
  -3  -9  -1   97.69   10.60 
   4   9   1   35.40    6.40 
  -4  -9  -1   33.00    7.50 
  -4  -9  -1   33.30    5.20 
   5   9   1   -3.10    5.00 
  -5  -9  -1    2.90    5.70 
   6   9   1   -4.90    5.40 
  -6  -9  -1    5.10    6.60 
   7   9   1   17.80    7.40 
  -7  -9  -1   26.90    9.00 
   8   9   1    1.00    7.10 
  -8  -9  -1   -3.90    8.40 
   9   9   1  -16.30    7.50 
  -9  -9  -1  -10.60    9.10 
  -7   9   2    4.50    7.60 
   7  -9  -2   -2.70    4.00 
  -6   9   2   11.30    8.10 
  -6   9   2   17.30    8.20 
   6  -9  -2    8.50    4.60 
  -5   9   2  233.08   21.30 
  -5   9   2  259.77   21.50 
   5  -9  -2  169.58   16.60 
  -4   9   2  270.07   24.50 
  -4   9   2  312.67   23.60 
   4  -9  -2  228.38   20.10 
  -3   9   2  571.34   43.00 
  -3   9   2  634.04   42.20 
   3  -9  -2  496.25   39.60 
  -2   9   2  590.74   44.20 
  -2   9   2  654.13   43.40 
   2  -9  -2  533.55   41.50 
  -1   9   2  677.63   43.80 
  -1   9   2  578.34   44.70 
   1  -9  -2  559.14   42.60 
   0   9   2  156.78   13.30 
   0   9   2  143.89   14.70 
   0  -9  -2  139.19   12.60 
   1   9   2   -0.70    4.40 
   1   9   2    4.70    3.70 
  -1  -9  -2   -0.30    3.40 
   2   9   2  214.18   15.50 
   2   9   2  161.78   15.90 
  -2  -9  -2  163.18   15.20 
  -2  -9  -2  214.38   16.60 
   3   9   2  444.46   35.50 
   3   9   2  552.74   35.40 
  -3  -9  -2  443.86   34.90 
  -3  -9  -2  526.35   36.60 
   4   9   2  510.45   33.00 
   4   9   2  407.56   33.80 
  -4  -9  -2  421.66   32.90 
  -4  -9  -2  501.85   35.30 
   5   9   2  520.45   35.40 
   5   9   2  449.16   36.90 
  -5  -9  -2  532.85   38.80 
   6   9   2  300.57   25.40 
  -6  -9  -2  328.87   27.30 
   7   9   2  225.38   20.90 
  -7  -9  -2  225.38   22.80 
   8   9   2   76.19   11.20 
  -8  -9  -2   63.49   12.60 
   9   9   2   -6.30    8.00 
  -9  -9  -2   17.90   10.30 
  -7   9   3   13.80    9.30 
  -7   9   3   -4.20    7.70 
   7  -9  -3   -7.40    4.00 
  -6   9   3    5.40    7.70 
  -6   9   3   -3.60    7.20 
   6  -9  -3   -2.50    3.90 
  -5   9   3    3.10    6.80 
  -5   9   3   14.00    7.70 
   5  -9  -3    6.40    4.20 
  -4   9   3    9.40    6.70 
  -4   9   3   17.90    7.60 
   4  -9  -3   10.50    4.50 
  -3   9   3   29.10    7.30 
  -3   9   3   30.40    7.90 
   3  -9  -3   19.40    4.90 
  -2   9   3    2.20    4.70 
  -2   9   3    0.60    5.30 
   2  -9  -3    4.00    3.80 
  -1   9   3   -3.70    5.00 
  -1   9   3    8.70    4.60 
   1  -9  -3    5.70    3.70 
   0   9   3    7.60    4.30 
   0   9   3    2.80    4.80 
   0  -9  -3    5.60    3.60 
   1   9   3    3.70    4.50 
   1   9   3    9.80    4.20 
  -1  -9  -3    2.90    4.40 
  -1  -9  -3    0.30    3.40 
   2   9   3    2.00    3.80 
   2   9   3    2.60    3.70 
  -2  -9  -3   -0.40    4.00 
  -2  -9  -3   -3.80    3.00 
   3   9   3   -0.60    4.20 
   3   9   3    1.20    3.70 
  -3  -9  -3   -1.70    3.10 
  -3  -9  -3    4.40    4.70 
   4   9   3    2.50    3.70 
   4   9   3    1.00    4.80 
  -4  -9  -3    3.00    5.40 
  -4  -9  -3    4.80    3.70 
   5   9   3    9.50    3.70 
   5   9   3    3.10    5.50 
  -5  -9  -3   17.20    7.00 
   6   9   3    2.90    6.00 
   6   9   3    2.80    3.30 
  -6  -9  -3   -6.90    6.10 
   7   9   3   20.70    7.20 
   7   9   3    5.90    3.90 
  -7  -9  -3    7.30    7.70 
   8   9   3    7.10    7.60 
  -8  -9  -3   10.20    9.00 
   9   9   3   14.30    8.70 
  -9  -9  -3   12.30   10.60 
  -7   9   4   77.79   13.60 
   7  -9  -4   40.00    6.60 
  -6   9   4  -12.40    7.00 
   6  -9  -4   -9.50    4.00 
  -5   9   4   -8.10    6.50 
   5  -9  -4    4.90    4.20 
  -4   9   4  161.08   15.70 
   4  -9  -4  101.99   10.60 
  -3   9   4  129.89   13.60 
   3  -9  -4   98.39   10.00 
  -2   9   4  239.88   19.70 
  -2   9   4  211.98   22.60 
   2  -9  -4  226.08   18.10 
  -1   9   4  208.78   16.50 
  -1   9   4  172.98   16.80 
   1  -9  -4  173.18   15.10 
   0   9   4  346.47   28.30 
   0   9   4  423.86   28.40 
   0  -9  -4  349.17   27.10 
   1   9   4  324.87   21.30 
   1   9   4  212.18   19.90 
  -1  -9  -4  273.17   19.80 
  -1  -9  -4  223.48   19.30 
   2   9   4   90.69    9.80 
   2   9   4  112.79   10.90 
  -2  -9  -4   86.79    9.20 
  -2  -9  -4  113.89   11.00 
   3   9   4    3.90    4.50 
   3   9   4   -2.40    3.80 
  -3  -9  -4    0.40    3.40 
  -3  -9  -4    3.80    4.70 
   4   9   4  124.09   11.30 
   4   9   4  102.49   10.80 
  -4  -9  -4   84.39    9.70 
  -4  -9  -4  113.69   12.70 
   5   9   4  173.58   14.80 
   5   9   4  207.48   17.30 
  -5  -9  -4  171.08   18.00 
   6   9   4  270.47   19.90 
   6   9   4  255.07   22.10 
  -6  -9  -4  246.68   23.90 
   7   9   4  123.69   12.80 
   7   9   4  103.59   10.50 
  -7  -9  -4  115.69   15.70 
   8   9   4  158.68   15.20 
   8   9   4  120.69   12.40 
  -8  -9  -4  139.89   18.10 
   9   9   4   76.69   11.40 
  -9  -9  -4   45.70   13.10 
  -6   9   5  -13.80    6.80 
   6  -9  -5    3.10    4.40 
  -5   9   5   -4.10    6.70 
   5  -9  -5   -1.40    4.10 
  -4   9   5    3.80    6.40 
   4  -9  -5    7.60    4.30 
  -3   9   5    0.60    5.40 
   3  -9  -5    0.30    3.70 
  -2   9   5   20.10    6.10 
   2  -9  -5   13.50    4.50 
  -1   9   5   -1.50    4.50 
   1  -9  -5    5.50    3.70 
   0   9   5   -3.20    4.30 
   0  -9  -5    3.20    3.50 
   1   9   5   10.10    5.50 
  -1  -9  -5    4.10    3.50 
  -1  -9  -5    5.60    3.90 
   2   9   5   34.60    7.00 
  -2  -9  -5   39.90    5.70 
  -2  -9  -5   54.99    7.30 
   3   9   5   44.40    7.40 
  -3  -9  -5   45.70    5.80 
  -3  -9  -5   45.70    7.90 
   4   9   5   -1.70    4.20 
  -4  -9  -5   -0.30    5.50 
   5   9   5   46.20    6.60 
  -5  -9  -5   38.50    9.10 
   6   9   5    1.30    4.00 
  -6  -9  -5   -0.10    6.90 
   7   9   5    8.40    4.50 
  -7  -9  -5   21.00    8.90 
   8   9   5   -2.50    4.40 
  -8  -9  -5   -2.50    8.70 
   9   9   5   61.19    8.20 
  -9  -9  -5   47.50   13.80 
  -6   9   6  128.29   16.70 
   6  -9  -6  133.19   12.30 
  -5   9   6   16.30    8.00 
   5  -9  -6   14.60    5.30 
  -4   9   6   -0.50    5.90 
   4  -9  -6   -0.30    4.00 
  -3   9   6   51.89    9.00 
   3  -9  -6   63.79    7.40 
  -2   9   6  265.47   21.70 
   2  -9  -6  239.58   19.40 
  -1   9   6  278.77   22.90 
   1  -9  -6  274.47   21.10 
   0   9   6  166.98   15.90 
   0  -9  -6  155.98   13.70 
   1   9   6  177.88   16.10 
  -1  -9  -6  160.68   13.50 
  -1  -9  -6  148.99   14.10 
   2   9   6   82.29   10.50 
  -2  -9  -6   79.19    9.70 
  -2  -9  -6   78.19    8.00 
   3   9   6   45.70    8.00 
  -3  -9  -6   31.00    5.20 
  -3  -9  -6   48.30    8.30 
   4   9   6    7.80    5.40 
  -4  -9  -6    4.10    6.30 
   5   9   6   39.30    7.00 
  -5  -9  -6   40.90    9.30 
   6   9   6   52.19    7.70 
  -6  -9  -6   69.69   12.20 
   7   9   6  105.39   11.10 
  -7  -9  -6  119.99   16.30 
   8   9   6   74.49    9.30 
  -8  -9  -6   65.39   13.80 
   9   9   6   21.30    6.30 
  -9  -9  -6   -0.40   10.70 
  -6   9   7    9.20    8.40 
   6  -9  -7   -6.90    4.40 
  -5   9   7   -2.00    6.50 
   5  -9  -7    5.30    4.60 
  -4   9   7   17.80    7.00 
   4  -9  -7   11.50    4.70 
  -3   9   7   -3.80    5.50 
   3  -9  -7   -4.90    3.80 
  -2   9   7    8.60    6.10 
   2  -9  -7    4.40    3.90 
  -1   9   7   -2.80    5.40 
   1  -9  -7    3.10    3.90 
   0   9   7    3.80    6.00 
   0  -9  -7    1.70    3.70 
   1   9   7   -1.70    5.50 
  -1  -9  -7    0.90    4.10 
  -1  -9  -7   -1.20    3.40 
   2   9   7   34.10    8.20 
  -2  -9  -7   31.00    6.60 
  -2  -9  -7   22.50    4.50 
   3   9   7    3.80    5.80 
  -3  -9  -7   -0.40    3.30 
  -3  -9  -7   -0.20    5.20 
   4   9   7  115.19   13.10 
  -4  -9  -7  111.89   13.80 
   5   9   7    7.80    5.60 
  -5  -9  -7   19.50    8.30 
   6   9   7    5.60    5.20 
  -6  -9  -7   13.40    8.20 
   7   9   7    3.10    5.10 
  -7  -9  -7    4.00    8.70 
   8   9   7    6.80    5.70 
  -8  -9  -7   25.00   11.10 
  -9  -9  -7   37.10   20.10 
  -5   9   8   36.00    9.50 
   5  -9  -8   28.90    6.10 
  -4   9   8   63.39   10.50 
   4  -9  -8   53.79    7.40 
  -3   9   8    9.90    7.20 
   3  -9  -8    5.80    4.70 
  -2   9   8   36.20    8.80 
   2  -9  -8   33.00    5.80 
  -1   9   8   52.19   10.10 
   1  -9  -8   38.70    6.00 
   0   9   8   99.59   12.60 
   0  -9  -8   76.39    8.40 
   1   9   8  124.59   14.00 
  -1  -9  -8   79.99    8.90 
  -1  -9  -8  100.89   10.80 
   2   9   8   83.59   12.80 
  -2  -9  -8   89.49    8.70 
  -2  -9  -8   94.59   11.00 
   3   9   8   46.70    9.70 
  -3  -9  -8   43.50    5.60 
  -3  -9  -8   47.40    8.90 
   4   9   8    9.70    7.10 
  -4  -9  -8   33.00    8.50 
   5   9   8   32.20    7.70 
  -5  -9  -8   27.20    9.20 
   6   9   8    2.90    5.80 
  -6  -9  -8   -3.80    7.90 
   7   9   8   -3.30    5.40 
  -7  -9  -8    8.30   10.10 
   8   9   8   19.70    7.30 
  -8  -9  -8   25.50   11.70 
  -4   9   9    2.30    7.90 
   4  -9  -9    2.00    4.60 
  -3   9   9   42.50    9.80 
   3  -9  -9   16.60    5.00 
  -2   9   9   13.20    8.10 
   2  -9  -9    7.90    4.50 
  -1   9   9   22.70    9.70 
   1  -9  -9    9.70    4.30 
   0   9   9    2.50    7.60 
   0  -9  -9    4.20    3.80 
   1   9   9  -10.40    7.10 
  -1  -9  -9    1.50    3.80 
  -1  -9  -9   -3.80    4.50 
   2   9   9   -4.00    7.30 
  -2  -9  -9    0.60    3.80 
  -2  -9  -9    6.90    5.40 
   3   9   9   -1.10    7.10 
  -3  -9  -9    4.10    6.20 
   4   9   9   15.00    7.70 
  -4  -9  -9   16.70    7.90 
   5   9   9   34.00    8.50 
  -5  -9  -9   24.40    9.40 
   6   9   9    5.20    6.90 
  -6  -9  -9   19.60    9.60 
   7   9   9   -1.80    6.30 
  -7  -9  -9   -4.00    9.50 
  -3   9  10   10.10    9.30 
   3  -9 -10   14.70    5.30 
  -2   9  10   19.70   10.80 
   2  -9 -10    0.60    4.40 
  -1   9  10   11.80    9.30 
   1  -9 -10    6.80    4.40 
   0   9  10   18.70   10.50 
   0  -9 -10   11.10    4.50 
   1   9  10   17.10   10.30 
  -1  -9 -10   25.60    6.30 
  -1  -9 -10   17.80    4.80 
   2   9  10   24.70   10.50 
  -2  -9 -10   22.20    4.70 
  -2  -9 -10   17.80    6.80 
   3   9  10   33.50   10.40 
  -3  -9 -10   29.50    8.10 
   4   9  10    6.00    8.20 
  -4  -9 -10   -5.40    7.10 
   5   9  10   -1.30    7.20 
  -5  -9 -10    3.10    8.30 
   6   9  10   -5.00    6.80 
  -6  -9 -10    3.00    9.20 
  -2   9  11    4.90   10.90 
   2  -9 -11    0.10    4.80 
  -1   9  11   42.00   13.00 
   1  -9 -11   41.80    6.30 
   0   9  11   -0.10   10.80 
   0  -9 -11    0.90    4.20 
   1   9  11    0.60    9.90 
  -1  -9 -11    3.20    5.50 
  -1  -9 -11    0.40    3.90 
   2   9  11    5.50   10.70 
  -2  -9 -11   17.60    4.70 
  -2  -9 -11    8.70    6.50 
   3   9  11   35.20   10.90 
  -3  -9 -11   20.30    8.10 
   4   9  11   46.20   10.90 
  -4  -9 -11   25.40    9.10 
   5   9  11   25.20    9.70 
  -5  -9 -11    9.40    9.60 
  -1  10  -5   40.70   11.50 
   1 -10   5   36.50    8.50 
   0  10  -5   43.40   10.60 
   0 -10   5   42.50    9.20 
   1  10  -5   74.49   11.30 
  -1 -10   5   60.99   10.00 
   2  10  -5   50.79    9.10 
  -2 -10   5   43.80    8.80 
   3  10  -5   17.10    6.70 
  -3 -10   5   28.20    7.70 
   4  10  -5    1.60    6.60 
  -4 -10   5    3.90    6.90 
  -3  10  -4  256.37   27.60 
   3 -10   4  230.28   20.70 
   2 -10   4  407.66   31.30 
  -1  10  -4  213.68   22.60 
   1 -10   4  212.78   19.50 
   0  10  -4  217.58   21.20 
   0 -10   4  184.38   17.80 
   1  10  -4   57.09   10.10 
  -1 -10   4   42.70    8.40 
   2  10  -4   65.79   10.10 
  -2 -10   4   73.09   10.10 
   3  10  -4  105.59   12.70 
  -3 -10   4  138.29   13.40 
   4  10  -4  119.99   14.00 
  -4 -10   4  170.58   19.90 
  -4 -10   4  168.48   15.10 
   5  10  -4  423.16   34.40 
  -5 -10   4  494.35   39.40 
  -4  10  -3   68.09   14.10 
   4 -10   3   51.79    7.90 
  -3  10  -3   23.30    9.80 
   3 -10   3   -1.70    4.70 
  -2  10  -3   -3.70    8.10 
   2 -10   3    6.60    5.40 
  -1  10  -3    7.80    8.50 
   1 -10   3    4.90    5.50 
   0  10  -3   13.40    8.30 
   0 -10   3   17.00    6.10 
   1  10  -3   20.10    8.20 
  -1 -10   3   21.60    6.30 
   2  10  -3   25.00    7.20 
  -2 -10   3   30.30    7.00 
   3  10  -3   16.70    6.40 
  -3 -10   3   19.80    6.50 
   4  10  -3   11.10    6.00 
  -4 -10   3   14.20    8.60 
  -4 -10   3   14.90    6.10 
   5  10  -3   -4.20    5.50 
  -5 -10   3   -5.00    7.80 
   6  10  -3    3.10    6.10 
  -6 -10   3    7.40    9.50 
  -5  10  -2   20.60   15.20 
  -4  10  -2  159.68   19.50 
   4 -10   2  134.39   13.40 
  -3  10  -2  174.98   21.50 
   3 -10   2  215.88   17.40 
  -2  10  -2  322.97   30.00 
   2 -10   2  323.37   25.10 
  -1  10  -2  630.34   47.50 
   1 -10   2  586.24   43.50 
   0  10  -2  410.46   34.50 
   0 -10   2  417.16   31.10 
   1  10  -2  303.57   26.40 
  -1 -10   2  305.07   24.00 
   2  10  -2  138.39   14.40 
  -2 -10   2  136.49   13.20 
   3  10  -2   -2.00    5.30 
  -3 -10   2    8.30    5.00 
   4  10  -2  277.77   24.10 
  -4 -10   2  309.37   23.80 
  -4 -10   2  322.67   26.80 
   5  10  -2  142.99   14.50 
  -5 -10   2  159.68   17.60 
   6  10  -2  331.87   28.00 
  -6 -10   2  379.56   31.70 
   7  10  -2  309.07   27.90 
  -7 -10   2  408.66   32.50 
  -5  10  -1   24.50   10.90 
   5 -10   1   14.10    5.20 
  -4  10  -1    0.20    9.00 
   4 -10   1    8.40    5.10 
  -3  10  -1   33.20   10.90 
   3 -10   1   37.60    6.50 
  -2  10  -1    9.50    9.00 
   2 -10   1    0.80    4.20 
  -1  10  -1    6.60    7.90 
   1 -10   1   -0.40    4.10 
   0  10  -1    5.20    7.00 
   0 -10   1    2.90    4.40 
   1  10  -1    3.50    6.50 
  -1 -10   1    6.30    4.60 
   2  10  -1    3.70    5.60 
  -2 -10   1   10.00    4.60 
   3  10  -1   20.30    6.10 
  -3 -10   1   24.70    5.50 
  -3 -10   1   24.90    8.80 
   4  10  -1   16.40    5.90 
  -4 -10   1   12.60    6.90 
  -4 -10   1    8.80    4.60 
   5  10  -1   17.90    6.50 
  -5 -10   1   23.80    8.40 
   6  10  -1    4.60    6.20 
  -6 -10   1   -2.00    7.50 
   7  10  -1   -3.80    6.50 
  -7 -10   1   -4.50    8.20 
   8  10  -1   -3.00    7.10 
  -8 -10   1   -4.60    8.60 
  -5  10   0  154.88   16.60 
  -5  10   0  126.19   17.30 
   5 -10   0   98.29   10.80 
  -4  10   0   99.29   15.50 
  -4  10   0  148.09   15.50 
   4 -10   0   88.29   10.30 
  -3  10   0   82.89   13.70 
  -3  10   0   98.99   12.00 
   3 -10   0   66.89    8.90 
  -2  10   0  133.39   16.20 
   2 -10   0  116.69   11.60 
  -1  10   0  227.78   22.20 
   1 -10   0  229.28   18.60 
   0  10   0  764.12   53.99 
   0 -10   0  700.63   51.09 
   1  10   0  328.57   25.40 
  -1 -10   0  271.27   22.10 
   2  10   0  592.24   42.20 
  -2 -10   0  556.84   40.70 
   3  10   0  200.88   18.20 
  -3 -10   0  227.58   19.10 
  -3 -10   0  204.68   17.00 
   4  10   0  207.28   18.20 
  -4 -10   0  203.98   19.30 
  -4 -10   0  218.68   17.10 
   5  10   0   72.79   10.00 
  -5 -10   0   91.49   12.10 
   6  10   0   90.09   11.30 
  -6 -10   0   97.99   13.50 
   7  10   0  156.48   16.40 
  -7 -10   0  180.38   19.40 
   8  10   0  607.74   46.50 
  -8 -10   0  632.64   49.20 
  -6  10   1   -1.30    8.20 
  -6  10   1    5.30    9.00 
   6 -10  -1    2.70    4.30 
  -5  10   1   32.40    9.30 
  -5  10   1    9.30    9.60 
   5 -10  -1   13.20    4.90 
  -4  10   1   -2.30    6.50 
  -4  10   1   -8.50    7.80 
   4 -10  -1    3.40    4.30 
  -3  10   1   19.60    8.90 
  -3  10   1   17.60    7.40 
   3 -10  -1    5.30    4.40 
  -2  10   1    1.10    5.30 
  -2  10   1   -4.00    7.10 
   2 -10  -1   -4.60    3.90 
  -1  10   1   10.70    7.30 
  -1  10   1    4.70    4.60 
   1 -10  -1   -4.20    4.00 
   0  10   1    2.20    4.10 
   0  10   1    3.40    6.20 
   0 -10  -1   -4.90    3.70 
   1  10   1    0.00    5.50 
  -1 -10  -1    5.40    4.10 
   2  10   1    5.00    5.00 
  -2 -10  -1    4.20    3.90 
   3  10   1    7.80    4.90 
  -3 -10  -1   10.60    5.80 
  -3 -10  -1    5.90    3.80 
   4  10   1   -2.90    4.90 
  -4 -10  -1    9.80    6.20 
  -4 -10  -1    1.10    3.60 
   5  10   1    3.00    5.50 
  -5 -10  -1    4.20    6.30 
   6  10   1   -9.90    5.70 
  -6 -10  -1    5.40    7.30 
   7  10   1   10.00    7.30 
  -7 -10  -1    3.10    8.20 
   8  10   1    2.70    7.90 
  -8 -10  -1    0.80    8.90 
  -9 -10  -1    6.70   11.10 
  -6  10   2  198.98   20.80 
  -6  10   2  183.38   19.90 
   6 -10  -2  140.99   14.10 
  -5  10   2  169.68   18.60 
  -5  10   2  174.98   18.60 
   5 -10  -2  118.49   12.50 
  -4  10   2   35.50   10.30 
  -4  10   2   46.00    9.80 
   4 -10  -2   36.90    6.30 
  -3  10   2  163.98   17.80 
  -3  10   2  182.98   17.20 
   3 -10  -2  124.79   12.80 
  -2  10   2   16.30    6.40 
  -2  10   2    2.60    7.40 
   2 -10  -2   15.10    4.70 
  -1  10   2  203.38   17.30 
  -1  10   2  192.78   19.30 
   1 -10  -2  196.68   16.40 
   0  10   2  153.08   16.50 
   0  10   2  201.98   15.40 
   0 -10  -2  157.08   14.40 
   1  10   2  719.03   43.30 
   1  10   2  562.94   43.80 
  -1 -10  -2  518.15   42.10 
   2  10   2  402.56   32.50 
   2  10   2  533.35   32.50 
  -2 -10  -2  383.66   31.50 
   3  10   2   68.99    9.40 
  -3 -10  -2   85.59    8.80 
  -3 -10  -2  106.09   11.30 
   4  10   2  150.68   14.90 
  -4 -10  -2  146.09   13.40 
  -4 -10  -2  174.98   16.00 
   5  10   2   93.69   11.60 
  -5 -10  -2  124.69   13.80 
   6  10   2    3.50    6.50 
  -6 -10  -2    5.40    7.00 
   7  10   2   -6.40    6.80 
  -7 -10  -2    8.40    8.10 
   8  10   2   42.10   10.10 
  -8 -10  -2   59.99   12.40 
   9  10   2  193.28   19.40 
  -9 -10  -2  185.38   21.50 
  -6  10   3    1.20    8.20 
   6 -10  -3   -5.00    4.10 
  -5  10   3    9.40   10.60 
  -5  10   3   15.60    8.30 
   5 -10  -3    5.60    4.70 
  -4  10   3   14.40    7.30 
  -4  10   3   15.00    8.50 
   4 -10  -3    3.40    4.60 
  -3  10   3   12.00    7.60 
  -3  10   3    2.30    5.80 
   3 -10  -3    1.70    4.20 
  -2  10   3    0.30    4.90 
  -2  10   3    1.20    6.40 
   2 -10  -3    9.10    4.30 
  -1  10   3    8.30    4.80 
  -1  10   3    2.90    6.20 
   1 -10  -3    2.30    4.00 
   0  10   3    3.70    5.80 
   0  10   3    9.50    4.70 
   0 -10  -3    7.30    4.10 
   1  10   3   -2.40    4.70 
   1  10   3    5.90    4.60 
  -1 -10  -3   -4.50    3.30 
   2  10   3   -0.60    4.30 
   2  10   3    2.90    4.30 
  -2 -10  -3    1.70    3.60 
   3  10   3    0.80    4.20 
   3  10   3    2.50    4.60 
  -3 -10  -3    2.50    3.60 
  -3 -10  -3    4.90    5.10 
   4  10   3   -1.50    5.00 
   4  10   3   -7.90    3.50 
  -4 -10  -3    0.80    5.30 
  -4 -10  -3   -5.70    5.80 
   5  10   3    2.80    5.60 
   5  10   3    3.50    4.00 
  -5 -10  -3    2.60    6.40 
   6  10   3   12.90    7.20 
  -6 -10  -3    9.30    7.40 
   7  10   3   -1.40    7.20 
  -7 -10  -3    0.50    7.70 
   8  10   3   -1.00    8.00 
  -8 -10  -3    2.10    8.60 
   9  10   3  -10.80    8.70 
  -9 -10  -3    9.40   10.20 
  -6  10   4   84.99   13.70 
   6 -10  -4   54.99    7.70 
  -5  10   4  251.17   22.70 
   5 -10  -4  190.08   17.50 
  -4  10   4  135.89   14.20 
   4 -10  -4   69.59    9.00 
  -3  10   4  230.18   18.70 
   3 -10  -4  157.08   15.30 
  -2  10   4   75.69    9.60 
   2 -10  -4   44.90    7.10 
  -1  10   4  192.38   16.70 
   1 -10  -4  162.48   15.10 
   0  10   4   47.00    7.40 
   0 -10  -4   44.60    6.40 
   1  10   4  160.88   13.60 
  -1 -10  -4   95.99   10.60 
   2  10   4  113.99   10.90 
  -2 -10  -4   65.49    8.40 
  -2 -10  -4   91.69   12.80 
   3  10   4 1480.25   88.59 
   3  10   4 1155.08   90.19 
  -3 -10  -4 1070.09   87.09 
  -3 -10  -4 1389.16   88.99 
   4  10   4   42.70    6.90 
   4  10   4   36.60    7.90 
  -4 -10  -4   27.60    7.80 
   5  10   4  195.78   21.00 
   5  10   4  250.87   19.00 
  -5 -10  -4  247.88   21.80 
   6  10   4  117.19   14.00 
   6  10   4  122.49   11.70 
  -6 -10  -4  129.09   15.70 
   7  10   4  -13.10    7.50 
   7  10   4    4.60    5.00 
  -7 -10  -4    4.70    8.20 
   8  10   4    9.30   10.70 
  -8 -10  -4   -1.80    8.50 
  -9 -10  -4   24.20   11.20 
  -5  10   5    2.20    7.00 
   5 -10  -5    2.10    4.60 
  -4  10   5   -2.70    5.90 
   4 -10  -5    3.10    4.80 
  -3  10   5    6.10    5.70 
   3 -10  -5   -1.30    4.40 
  -2  10   5   20.90    6.40 
   2 -10  -5   18.30    5.10 
  -1  10   5    8.80    5.30 
   1 -10  -5    4.90    4.20 
   0  10   5   22.80    6.40 
   0 -10  -5   20.40    4.70 
   1  10   5    4.90    5.50 
  -1 -10  -5   -7.20    3.40 
   2  10   5    1.50    5.20 
  -2 -10  -5   -2.30    4.40 
  -2 -10  -5   -0.20    3.70 
   3  10   5   -3.30    4.60 
  -3 -10  -5    0.70    5.10 
  -3 -10  -5   -0.60    3.80 
   4  10   5   17.70    6.00 
  -4 -10  -5   13.50    7.00 
   5  10   5    0.20    4.50 
  -5 -10  -5    2.60    6.90 
   6  10   5    7.20    4.70 
  -6 -10  -5    1.10    7.40 
   7  10   5    8.50    4.80 
  -7 -10  -5   14.80    9.10 
   8  10   5    5.20    5.30 
  -8 -10  -5   17.00    9.90 
  -9 -10  -5  -15.30   10.50 
  -5  10   6   27.10    8.90 
   5 -10  -6   15.60    5.50 
  -4  10   6  213.68   20.20 
   4 -10  -6  201.78   17.60 
  -3  10   6   54.99    9.60 
   3 -10  -6   59.89    7.80 
  -2  10   6   89.69   11.10 
   2 -10  -6   65.39    8.40 
  -1  10   6    1.40    5.20 
   1 -10  -6   -4.70    4.00 
   0  10   6   83.39   10.70 
   0 -10  -6   61.69    7.90 
   1  10   6    1.30    5.40 
  -1 -10  -6    4.70    4.20 
   2  10   6   29.50    7.40 
  -2 -10  -6   19.60    6.10 
  -2 -10  -6   31.80    5.60 
   3  10   6   17.50    6.50 
  -3 -10  -6   16.70    6.70 
  -3 -10  -6   12.10    4.60 
   4  10   6  444.26   32.00 
  -4 -10  -6  381.46   32.10 
   5  10   6   62.09    8.90 
  -5 -10  -6   63.89   11.10 
   6  10   6   28.70    6.60 
  -6 -10  -6   34.80   10.00 
   7  10   6   55.69    8.00 
  -7 -10  -6   70.89   13.40 
   8  10   6   -3.00    5.20 
  -8 -10  -6    6.00    9.60 
  -5  10   7   -4.20    7.40 
   5 -10  -7    5.20    5.30 
  -4  10   7    0.40    6.90 
   4 -10  -7   -4.90    4.60 
  -3  10   7    6.90    6.60 
   3 -10  -7   -1.50    4.60 
  -2  10   7    2.30    6.20 
   2 -10  -7   -4.50    4.40 
  -1  10   7   10.40    6.60 
   1 -10  -7    1.80    4.40 
   0  10   7   10.90    6.80 
   0 -10  -7    1.30    4.30 
   1  10   7   19.80    7.40 
  -1 -10  -7   23.40    5.50 
   2  10   7   17.10    7.60 
  -2 -10  -7   12.20    5.80 
  -2 -10  -7   10.90    4.50 
   3  10   7    0.10    6.20 
  -3 -10  -7    7.60    6.00 
  -3 -10  -7    6.50    4.10 
   4  10   7    7.10    6.40 
  -4 -10  -7   -0.10    6.60 
   5  10   7   -2.90    5.70 
  -5 -10  -7    6.10    7.80 
   6  10   7    5.00    6.00 
  -6 -10  -7    3.90    8.20 
   7  10   7   -0.60    5.40 
  -7 -10  -7    5.20    9.10 
   8  10   7   -4.70    5.70 
  -8 -10  -7   -5.80    9.30 
  -4  10   8    1.50    7.30 
   4 -10  -8   15.40    5.90 
  -3  10   8    8.60    7.10 
   3 -10  -8   16.30    5.60 
  -2  10   8  338.67   25.50 
   2 -10  -8  243.38   21.50 
  -1  10   8   73.49   11.10 
   1 -10  -8   39.00    6.70 
   0  10   8   26.70    8.60 
   0 -10  -8   18.30    5.00 
   1  10   8   62.49   10.90 
  -1 -10  -8   48.50    7.00 
   2  10   8   25.60    8.60 
  -2 -10  -8   14.10    6.10 
  -2 -10  -8   15.90    5.00 
   3  10   8    2.90    7.10 
  -3 -10  -8   -2.00    5.90 
   4  10   8    2.00    6.80 
  -4 -10  -8   -1.60    6.90 
   5  10   8   49.50    9.40 
  -5 -10  -8   48.70   11.00 
   6  10   8   64.39   10.10 
  -6 -10  -8   88.09   14.00 
   7  10   8   10.20    6.40 
  -7 -10  -8    8.40   10.20 
  -3  10   9   -5.70    7.10 
   3 -10  -9   -2.10    4.90 
  -2  10   9    4.20    8.10 
   2 -10  -9   -1.50    4.80 
  -1  10   9    5.60    8.40 
   1 -10  -9    5.40    4.90 
   0  10   9   13.80    8.40 
   0 -10  -9    9.80    4.80 
   1  10   9   -4.90    7.90 
  -1 -10  -9    2.10    4.40 
   2  10   9   11.40    8.30 
  -2 -10  -9    5.30    6.10 
  -2 -10  -9   11.90    4.60 
   3  10   9    8.30    8.30 
  -3 -10  -9    3.00    6.70 
   4  10   9    1.30    7.70 
  -4 -10  -9    0.20    7.50 
   5  10   9    5.40    7.30 
  -5 -10  -9    4.00    8.30 
   6  10   9    5.40    7.20 
  -6 -10  -9   -4.50    8.80 
  -2  10  10   41.40   12.00 
   2 -10 -10   22.10    6.00 
  -1  10  10   70.09   13.30 
   1 -10 -10   54.49    7.70 
   0  10  10   14.20   10.70 
   0 -10 -10   13.00    5.30 
   1  10  10    0.80    9.40 
  -1 -10 -10   -0.50    4.60 
   2  10  10   25.90   10.50 
  -2 -10 -10   29.20    5.70 
  -2 -10 -10   19.80    7.40 
   3  10  10   10.10    9.40 
  -3 -10 -10    2.90    6.60 
   4  10  10   23.60    9.80 
  -4 -10 -10   21.90    9.30 
   5  10  10   14.50    8.80 
  -5 -10 -10   13.50    9.60 
   0  10  11   -1.10   13.80 
   0 -10 -11    0.00    4.80 
   1  10  11   -0.60   10.50 
  -1 -10 -11    3.90    4.90 
   2  10  11   -1.50   10.40 
  -2 -10 -11    4.00    6.50 
  -2 -10 -11    4.70    5.00 
   3  10  11    5.90   10.60 
  -3 -10 -11   -3.50    6.90 
   1  11  -4  445.66   38.80 
  -1 -11   4  405.46   32.90 
   2  11  -4  306.27   29.90 
  -2 -11   4  333.97   26.80 
  -1  11  -3   36.50   11.40 
   1 -11   3   16.50    6.70 
   0  11  -3    8.70    8.80 
   0 -11   3   15.00    6.60 
   1  11  -3  108.59   14.80 
  -1 -11   3  135.19   13.40 
   2  11  -3   29.20    8.00 
  -2 -11   3   17.90    6.90 
   3  11  -3   31.60    8.00 
  -3 -11   3   37.40    7.50 
   4  11  -3   13.90    6.70 
  -4 -11   3    0.00    6.00 
  -3  11  -2   39.70   12.60 
   3 -11   2   47.40    8.20 
  -2  11  -2  138.39   18.40 
   2 -11   2  136.49   13.40 
  -1  11  -2   18.50   10.20 
   1 -11   2   39.30    7.00 
   0  11  -2   11.20    9.10 
   0 -11   2   11.70    5.70 
   1  11  -2   33.20    9.50 
  -1 -11   2   41.50    7.50 
   2  11  -2  307.17   26.10 
  -2 -11   2  317.87   25.00 
   3  11  -2  316.37   26.70 
  -3 -11   2  337.57   25.80 
   4  11  -2  251.47   22.40 
  -4 -11   2  265.27   21.60 
   5  11  -2  201.18   19.40 
  -5 -11   2  225.38   22.90 
   6  11  -2   79.49   11.80 
  -6 -11   2   71.49   13.50 
  -3  11  -1   35.90   12.10 
   3 -11   1   28.10    6.40 
  -2  11  -1   -7.40    8.70 
   2 -11   1    9.70    5.20 
  -1  11  -1   36.20   10.70 
   1 -11   1   29.90    6.50 
   0  11  -1   13.00    8.90 
   0 -11   1   12.90    5.50 
   1  11  -1   -0.80    6.80 
  -1 -11   1   -1.60    4.70 
   2  11  -1   58.79    9.60 
  -2 -11   1   60.49    8.20 
   3  11  -1    5.80    6.00 
  -3 -11   1    1.20    4.70 
   4  11  -1   -3.50    5.50 
  -4 -11   1    6.10    4.90 
   5  11  -1    1.50    6.10 
  -5 -11   1   11.80    7.90 
   6  11  -1   -7.70    6.00 
  -6 -11   1    9.80    7.90 
  -4  11   0  188.68   21.30 
   4 -11   0  155.28   14.70 
  -3  11   0  533.35   42.40 
   3 -11   0  482.65   36.50 
  -2  11   0  203.98   21.70 
   2 -11   0  186.78   17.10 
  -1  11   0  221.08   22.40 
   1 -11   0  218.48   18.50 
   0  11   0  104.29   13.90 
   0 -11   0   98.29   10.50 
   1  11   0   21.70    7.80 
  -1 -11   0    6.50    4.60 
   2  11   0   15.30    6.50 
  -2 -11   0   10.90    4.80 
   3  11   0  179.68   17.00 
  -3 -11   0  174.28   15.40 
   4  11   0  404.06   29.00 
  -4 -11   0  341.07   27.40 
   5  11   0  371.56   30.10 
  -5 -11   0  394.66   31.70 
   6  11   0  200.98   21.90 
  -6 -11   0  308.77   24.90 
   7  11   0  117.89   14.90 
  -7 -11   0  179.18   19.20 
  -4  11   1   46.80   10.10 
  -4  11   1   18.00   10.20 
   4 -11  -1   14.20    5.60 
  -3  11   1   -6.90    6.20 
  -3  11   1   18.30    9.70 
   3 -11  -1   -5.30    4.10 
  -2  11   1    2.50    8.50 
   2 -11  -1    5.70    4.70 
  -1  11   1    7.80    8.20 
   1 -11  -1   -2.20    4.30 
   0  11   1    1.00    7.10 
   0 -11  -1    2.80    4.50 
   1  11   1    4.40    6.50 
  -1 -11  -1   -0.10    4.20 
   2  11   1    3.60    5.70 
  -2 -11  -1    4.70    4.20 
   3  11   1    1.60    5.30 
  -3 -11  -1    4.70    4.20 
   4  11   1   13.80    5.90 
  -4 -11  -1   12.70    7.00 
  -4 -11  -1    5.10    4.60 
   5  11   1    2.80    6.10 
  -5 -11  -1   -1.90    6.80 
   6  11   1   -5.90    6.10 
  -6 -11  -1   -9.10    7.10 
   7  11   1   -5.80    7.10 
  -7 -11  -1   -4.90    8.20 
  -4  11   2   25.20    8.50 
  -4  11   2   19.60   10.20 
   4 -11  -2    8.80    5.10 
  -3  11   2   76.69   13.80 
  -3  11   2   85.19   11.70 
   3 -11  -2   69.19    8.80 
  -2  11   2  333.67   25.10 
  -2  11   2  306.47   28.10 
   2 -11  -2  274.27   23.30 
  -1  11   2  239.68   22.40 
  -1  11   2  263.47   19.50 
   1 -11  -2  174.38   17.50 
   0  11   2  194.68   16.10 
   0  11   2  179.08   17.80 
   0 -11  -2  144.29   14.60 
   1  11   2  128.69   13.30 
  -1 -11  -2  100.89   10.70 
   2  11   2   30.60    6.80 
  -2 -11  -2   25.50    5.40 
   3  11   2    9.20    5.50 
  -3 -11  -2    9.00    4.30 
   4  11   2    1.40    5.50 
  -4 -11  -2    4.90    6.10 
   5  11   2   74.89   10.70 
  -5 -11  -2  104.79   12.80 
   6  11   2  168.38   17.10 
  -6 -11  -2  192.28   19.10 
   7  11   2  148.99   16.70 
  -7 -11  -2  182.38   19.20 
   8  11   2  156.58   18.50 
  -8 -11  -2  234.98   22.60 
  -4  11   3   -1.00    6.70 
   4 -11  -3   10.20    5.30 
  -3  11   3   14.20    7.10 
   3 -11  -3   19.80    5.70 
  -2  11   3    0.90    9.10 
  -2  11   3    7.70    6.00 
   2 -11  -3    0.40    4.30 
  -1  11   3   -4.60    6.40 
  -1  11   3   -1.10    5.20 
   1 -11  -3    2.30    4.30 
   0  11   3   -0.30    4.80 
   0  11   3   -2.00    6.40 
   0 -11  -3   -5.20    4.00 
   1  11   3    2.50    5.60 
   1  11   3    1.80    5.30 
  -1 -11  -3   -0.10    4.00 
   2  11   3   -0.70    5.00 
   2  11   3   -6.90    4.60 
  -2 -11  -3    0.80    3.90 
   3  11   3   27.00    6.40 
  -3 -11  -3   31.20    5.60 
   4  11   3   -1.50    5.50 
  -4 -11  -3   -4.50    5.50 
   5  11   3    6.70    6.50 
  -5 -11  -3   18.00    7.70 
   6  11   3    9.90    7.30 
  -6 -11  -3  -10.40    6.70 
   7  11   3   -2.50    7.70 
  -7 -11  -3  -15.60    7.60 
   8  11   3   -6.00    8.60 
  -8 -11  -3    5.60    9.70 
  -4  11   4    2.00    6.80 
   4 -11  -4    2.80    4.70 
  -3  11   4    3.30    6.00 
   3 -11  -4   -0.80    4.60 
  -2  11   4   70.49    9.80 
   2 -11  -4   55.69    7.80 
  -1  11   4  200.58   16.00 
   1 -11  -4  126.69   13.50 
   0  11   4  402.26   27.00 
   0 -11  -4  278.67   25.10 
   1  11   4  286.17   20.70 
  -1 -11  -4  194.08   18.50 
   2  11   4  149.39   13.60 
  -2 -11  -4   98.19   10.90 
   3  11   4    9.30    5.80 
  -3 -11  -4    3.00    4.30 
   4  11   4   -7.20    4.80 
  -4 -11  -4    5.80    6.10 
  -5 -11  -4   11.70    7.60 
  -6 -11  -4   41.10   10.20 
  -7 -11  -4   42.30   11.20 
  -8 -11  -4   77.79   14.10 
  -4  11   5   -0.20    6.50 
   4 -11  -5   -5.00    4.80 
  -3  11   5   10.00    6.80 
   3 -11  -5   -4.90    4.70 
  -2  11   5    5.40    6.20 
   2 -11  -5   -2.90    4.30 
  -1  11   5   10.00    5.80 
   1 -11  -5    3.00    4.50 
   0  11   5    4.30    5.70 
   0 -11  -5    1.70    4.00 
   1  11   5    4.30    5.70 
  -1 -11  -5   -0.30    4.10 
   2  11   5   25.00    7.10 
  -2 -11  -5   15.30    4.90 
   3  11   5    6.90    5.70 
  -3 -11  -5   -1.40    4.20 
   4  11   5   16.50    6.20 
  -4 -11  -5   14.10    6.90 
   5  11   5   -3.50    4.80 
  -5 -11  -5    1.50    7.10 
   6  11   5   -5.00    4.80 
  -6 -11  -5    3.20    7.80 
  -7 -11  -5   -1.50    8.10 
  -8 -11  -5   -7.50    8.70 
  -4  11   6   61.89   10.90 
   4 -11  -6   54.29    8.20 
  -3  11   6    3.80    6.40 
   3 -11  -6   -0.30    5.00 
  -2  11   6    5.50    6.40 
   2 -11  -6    0.00    4.70 
  -1  11   6    3.80    6.30 
   1 -11  -6    4.70    5.00 
   0  11   6    8.90    7.00 
   0 -11  -6   -2.80    4.50 
   1  11   6   99.69   12.10 
  -1 -11  -6   92.69   10.10 
   2  11   6  157.18   16.10 
  -2 -11  -6  133.99   13.00 
   3  11   6  180.58   17.00 
  -3 -11  -6  143.59   13.90 
   4  11   6   60.89   10.00 
  -4 -11  -6   76.69   11.40 
   5  11   6    4.80    5.70 
  -5 -11  -6    7.10    7.50 
   6  11   6    5.90    5.70 
  -6 -11  -6    3.40    8.10 
   7  11   6    7.10    5.90 
  -7 -11  -6   23.10   10.10 
  -3  11   7    9.30    7.00 
   3 -11  -7   -1.30    5.30 
  -2  11   7   33.80    8.40 
   2 -11  -7   21.90    6.50 
  -1  11   7    3.40    6.40 
   1 -11  -7   -2.20    4.90 
   0  11   7   10.90    7.30 
   0 -11  -7    6.30    4.90 
   1  11   7   -0.30    6.20 
  -1 -11  -7    0.90    4.80 
   2  11   7    7.30    7.30 
  -2 -11  -7    5.80    5.00 
   3  11   7   -8.50    6.10 
  -3 -11  -7   -1.20    6.50 
   4  11   7   74.59   11.70 
  -4 -11  -7   94.59   12.60 
   5  11   7   -4.00    5.90 
  -5 -11  -7    6.70    8.30 
   6  11   7   43.90    8.20 
  -6 -11  -7   34.30   10.80 
   7  11   7    0.80    5.90 
  -7 -11  -7    1.50    9.10 
  -3  11   8   45.40   12.90 
  -2  11   8    1.40    7.00 
   2 -11  -8   -5.40    5.00 
  -1  11   8    5.60    7.70 
   1 -11  -8    7.40    5.40 
   0  11   8   33.30    9.10 
   0 -11  -8   20.00    6.00 
   1  11   8    4.40    7.80 
  -1 -11  -8    7.20    5.20 
   2  11   8   17.30    8.20 
  -2 -11  -8   10.40    5.20 
   3  11   8    7.40    7.80 
  -3 -11  -8   20.20    7.90 
   4  11   8   11.90    8.20 
  -4 -11  -8   19.10    8.50 
   5  11   8   34.60    9.10 
  -5 -11  -8   47.30   10.70 
   6  11   8   -0.50    6.50 
  -6 -11  -8    8.80    9.50 
  -1  11   9   33.20   10.10 
   1 -11  -9   26.50    6.90 
   0  11   9   13.60    8.60 
   0 -11  -9    4.40    5.60 
   1  11   9    5.70    8.80 
  -1 -11  -9   10.40    5.50 
   2  11   9    6.80    8.80 
  -2 -11  -9    2.20    5.10 
   3  11   9    6.70    8.70 
  -3 -11  -9    9.20    7.80 
   4  11   9   53.89   10.70 
  -4 -11  -9   30.40   10.00 
   5  11   9   39.10    9.90 
  -5 -11  -9   39.90   11.20 
   1  11  10    4.70    9.40 
  -1 -11 -10    2.70    5.20 
   2  11  10    8.50    9.90 
  -2 -11 -10    0.20    5.80 
   3  11  10    4.60    9.80 
  -3 -11 -10   12.80    8.00 
   1  12  -2  313.17   27.40 
  -1 -12   2  261.67   23.10 
   2  12  -2  415.46   32.40 
  -2 -12   2  385.86   30.70 
  -3 -12   2    4.40    5.90 
  -1  12  -1   16.50   10.90 
   1 -12   1   22.50    6.70 
   0  12  -1    5.70    9.20 
   0 -12   1   12.30    5.60 
   1  12  -1   15.30    8.70 
  -1 -12   1    5.10    5.30 
   2  12  -1    0.40    6.60 
  -2 -12   1   -0.70    4.80 
   3  12  -1   -7.50    6.10 
  -3 -12   1    2.50    5.00 
   4  12  -1   -8.50    6.00 
  -2  12   0   14.60   10.40 
   2 -12   0    0.10    5.30 
  -1  12   0   22.60   10.80 
   1 -12   0   17.80    6.00 
   0  12   0  147.99   17.40 
   0 -12   0  133.69   13.30 
   1  12   0  106.59   13.30 
  -1 -12   0   74.59    9.60 
   2  12   0  331.87   27.00 
  -2 -12   0  326.47   25.40 
   3  12   0  197.98   18.10 
  -3 -12   0  170.78   16.10 
   4  12   0  130.59   13.80 
   5  12   0    5.40    6.70 
  -2  12   1   24.20   10.80 
   2 -12  -1   13.20    5.40 
  -1  12   1    4.20    8.80 
   1 -12  -1   -0.10    4.70 
   0  12   1   -6.30    7.70 
   0 -12  -1    3.80    4.90 
   1  12   1   15.90    7.90 
  -1 -12  -1   13.20    5.50 
   2  12   1    3.80    6.10 
  -2 -12  -1   -0.10    4.80 
   3  12   1    5.90    5.90 
  -3 -12  -1    2.30    4.70 
   4  12   1    2.70    5.90 
   5  12   1  -11.80    5.90 
   6  12   1   -1.80    6.50 
  -6 -12  -1   -4.90    7.80 
  -3  12   2  400.46   34.90 
   3 -12  -2  362.86   30.20 
  -2  12   2   -9.80    8.70 
   2 -12  -2    8.50    5.10 
  -1  12   2   38.10   10.70 
   1 -12  -2   38.10    6.70 
   0  12   2    0.00    7.50 
   0 -12  -2    1.40    4.50 
   1  12   2  125.99   13.50 
  -1 -12  -2   98.49   10.70 
   2  12   2   21.40    6.60 
  -2 -12  -2   16.00    5.10 
   3  12   2  248.58   21.40 
  -3 -12  -2  249.38   19.80 
   4  12   2  132.89   13.80 
   5  12   2  312.97   26.10 
   6  12   2    8.10    7.20 
  -6 -12  -2   16.20    8.70 
  -3  12   3    2.10    6.90 
   3 -12  -3   -4.10    4.90 
  -2  12   3   14.70    7.10 
   2 -12  -3    7.60    4.90 
  -1  12   3    0.10    5.70 
   1 -12  -3   -1.30    4.40 
   0  12   3    4.50    7.70 
   0 -12  -3   -2.30    4.40 
  -1 -12  -3    3.20    4.40 
  -2 -12  -3   -3.30    4.10 
  -3 -12  -3   -4.50    4.10 
   4  12   3    2.80    9.80 
   5  12   3    5.40   11.10 
  -5 -12  -3   18.70   13.50 
  -6 -12  -3   14.00    8.60 
  -3  12   4   31.30    8.80 
   3 -12  -4   11.80    5.90 
  -2  12   4  238.08   19.20 
   2 -12  -4  147.89   15.40 
  -1  12   4   56.09    9.20 
   1 -12  -4   39.40    7.20 
   0  12   4    2.60    6.50 
   0 -12  -4   -4.70    4.50 
   1  12   4    6.20    6.00 
  -1 -12  -4    2.30    4.60 
   2  12   4   48.20    8.50 
  -2 -12  -4   14.60    5.50 
  -3 -12  -4   49.80    7.30 
  -5 -12  -4   75.99   11.70 
  -6 -12  -4  160.08   18.40 
  -3  12   5   12.10    7.20 
  -2  12   5   -9.20    5.80 
   2 -12  -5    2.60    5.00 
  -1  12   5    3.80    6.50 
   1 -12  -5   -2.00    4.70 
   0  12   5   -0.50    6.10 
   0 -12  -5   -1.90    4.40 
   1  12   5   -4.70    5.50 
  -1 -12  -5   -3.40    4.20 
   2  12   5    2.30    6.40 
  -2 -12  -5   -6.20    4.30 
   3  12   5    2.40    6.50 
  -3 -12  -5    8.70    5.70 
   4  12   5   -2.60    5.90 
  -5 -12  -5   -2.70    7.40 
  -6 -12  -5   -1.00    8.00 
  -2  12   6   72.69   11.00 
   2 -12  -6   52.79    8.20 
  -1  12   6   49.80    9.70 
   1 -12  -6   38.40    7.40 
   0  12   6  230.48   20.70 
   0 -12  -6  177.08   17.40 
   1  12   6   12.50    7.00 
  -1 -12  -6    6.30    5.30 
   2  12   6   -6.20    6.60 
  -2 -12  -6    0.40    5.00 
   3  12   6    9.80    6.90 
   4  12   6  187.28   18.30 
   5  12   6   17.80    7.00 
  -5 -12  -6   18.40    8.60 
   6  12   6   16.50    6.80 
  -6 -12  -6   14.80    8.90 
  -1  12   7    4.00    7.40 
   1 -12  -7   -2.60    5.50 
   0  12   7    2.20    7.20 
   0 -12  -7   10.40    5.80 
   1  12   7   16.70    7.80 
  -1 -12  -7    5.10    5.50 
   2  12   7    2.70    7.40 
  -2 -12  -7   -9.30    4.80 
   3  12   7  -10.70    6.60 
   4  12   7    0.00    7.10 
   5  12   7   -3.80    6.10 
  -5 -12  -7    0.70    8.10 
   0  12   8   -4.80    7.30 
   0 -12  -8   -0.30    5.20 
   1  12   8   72.79   11.90 
  -1 -12  -8   42.80    7.90 
   2  12   8   10.00    8.40 
  -2 -12  -8    1.40    5.40 
   3  12   8   16.30    8.90 
   4  12   8   18.60    8.50 
   2  13   1   -2.10    6.80 
  -2 -13  -1   -2.40    4.80 
   0  13   2  134.99   18.40 
   0 -13  -2   89.29   10.40 
   1  13   2  139.39   14.60 
  -1 -13  -2  113.29   11.90 
   2  13   2   84.59   11.00 
  -2 -13  -2   73.59    8.90 
   3  13   2   65.09    9.70 
  -3 -13  -2   49.40    7.30 
   0 -13  -3    1.00    4.70 
  -1 -13  -3   -1.10    4.60 
  -2 -13  -3  -10.80    4.00 
  -3 -13  -3    3.80    5.80 
   0 -13  -4   11.60    5.50 
  -1 -13  -4   29.90    6.30 
  -2 -13  -4   57.29    8.00 
   0  13   5   23.10    8.50 
   0 -13  -5   11.40    5.40 
   1  13   5    3.50    7.00 
  -1 -13  -5   -6.10    4.50 
   2  13   5   10.80   14.30 
  -2 -13  -5    0.80    4.70 
   1  13   6   34.80    9.10 
  -1 -13  -6   21.50    6.30 
   2  13   6   28.40    9.30 
  -2 -13  -6   16.80    6.10 
   3  13   6   74.19   11.90 
  
_computing_structure_solution     'SHELXT 2014/4 (Sheldrick, 2014)' 
;
_shelx_hkl_checksum              85939
loop_
_space_group_symop_operation_xyz
'x, y, z'
'-x, -y, -z'
loop_
_atom_site_label
_atom_site_type_symbol
_atom_site_fract_x
_atom_site_fract_y
_atom_site_fract_z
_atom_site_U_iso_or_equiv
_atom_site_adp_type
_atom_site_occupancy
_atom_site_site_symmetry_order
_atom_site_calc_flag
_atom_site_refinement_flags_posn
_atom_site_refinement_flags_adp
C1 C 0.3263(2) 0.6582(2) 0.1951(2) 0.0181(4) Uani 1 1 d . .
Br1 Br 0.44050(3) 0.80095(2) 0.05493(3) 0.03151(10) Uani 1 1 d . .
C2 C 0.4094(2) 0.5208(2) 0.2602(2) 0.0208(4) Uani 1 1 d . .
H2 H 0.3498 0.4522 0.3295 0.025 Uiso 1 1 calc R U
C3 C 0.5791(2) 0.4675(2) 0.2352(2) 0.0209(4) Uani 1 1 d . .
H3 H 0.6357 0.5327 0.1591 0.025 Uiso 1 1 calc R U
C4 C 0.6665(2) 0.3355(2) 0.3079(2) 0.0191(4) Uani 1 1 d . .
Br2 Br 0.56466(3) 0.19547(3) 0.46164(3) 0.03497(10) Uani 1 1 d . .
C5 C 0.1518(2) 0.7108(2) 0.2228(2) 0.0167(4) Uani 1 1 d . .
C6 C 0.0834(2) 0.8628(2) 0.1790(2) 0.0206(4) Uani 1 1 d . .
H6 H 0.1505 0.9360 0.1301 0.025 Uiso 1 1 calc R U
C7 C -0.0812(3) 0.9092(2) 0.2056(2) 0.0234(4) Uani 1 1 d . .
H7 H -0.1255 1.0133 0.1742 0.028 Uiso 1 1 calc R U
C8 C -0.1809(3) 0.8044(3) 0.2776(2) 0.0230(4) Uani 1 1 d . .
H8 H -0.2936 0.8361 0.2955 0.028 Uiso 1 1 calc R U
C9 C -0.1146(3) 0.6527(2) 0.3233(2) 0.0226(4) Uani 1 1 d . .
H9 H -0.1822 0.5806 0.3740 0.027 Uiso 1 1 calc R U
C10 C 0.0488(2) 0.6051(2) 0.2958(2) 0.0190(4) Uani 1 1 d . .
H10 H 0.0919 0.5007 0.3263 0.023 Uiso 1 1 calc R U
C11 C 0.8415(2) 0.2888(2) 0.2787(2) 0.0158(4) Uani 1 1 d . .
C12 C 0.9066(2) 0.3303(2) 0.1328(2) 0.0199(4) Uani 1 1 d . .
H12 H 0.8366 0.3855 0.0534 0.024 Uiso 1 1 calc R U
C13 C 1.0714(3) 0.2918(2) 0.1030(2) 0.0223(4) Uani 1 1 d . .
H13 H 1.1134 0.3195 0.0035 0.027 Uiso 1 1 calc R U
C14 C 1.1759(3) 0.2126(2) 0.2184(2) 0.0217(4) Uani 1 1 d . .
H14 H 1.2894 0.1878 0.1984 0.026 Uiso 1 1 calc R U
C15 C 1.1127(2) 0.1703(2) 0.3629(2) 0.0203(4) Uani 1 1 d . .
H15 H 1.1835 0.1156 0.4418 0.024 Uiso 1 1 calc R U
C16 C 0.9479(2) 0.2067(2) 0.3936(2) 0.0184(4) Uani 1 1 d . .
H16 H 0.9063 0.1759 0.4930 0.022 Uiso 1 1 calc R U
loop_
_atom_site_aniso_label
_atom_site_aniso_U_11
_atom_site_aniso_U_22
_atom_site_aniso_U_33
_atom_site_aniso_U_23
_atom_site_aniso_U_13
_atom_site_aniso_U_12
C1 0.0186(10) 0.0159(10) 0.0194(9) -0.0027(7) -0.0017(7) -0.0046(8)
Br1 0.02226(14) 0.02377(15) 0.03784(15) 0.00854(10) 0.00375(10) -0.00485(9)
C2 0.0194(10) 0.0181(10) 0.0240(9) -0.0027(8) -0.0011(8) -0.0050(8)
C3 0.0186(10) 0.0177(10) 0.0246(10) -0.0022(8) -0.0009(8) -0.0036(8)
C4 0.0209(10) 0.0157(10) 0.0197(9) -0.0028(7) -0.0005(7) -0.0034(8)
Br2 0.02149(14) 0.02676(15) 0.04242(16) 0.01166(11) 0.00590(10) -0.00312(10)
C5 0.0200(10) 0.0153(10) 0.0145(8) -0.0025(7) -0.0038(7) -0.0029(7)
C6 0.0273(11) 0.0151(10) 0.0186(9) -0.0030(7) -0.0008(8) -0.0038(8)
C7 0.0289(11) 0.0165(10) 0.0220(9) -0.0044(8) -0.0019(8) 0.0036(8)
C8 0.0209(10) 0.0285(12) 0.0199(9) -0.0096(8) -0.0009(8) 0.0003(9)
C9 0.0241(11) 0.0240(12) 0.0213(9) -0.0065(8) -0.0010(8) -0.0075(9)
C10 0.0220(10) 0.0157(10) 0.0190(9) -0.0030(7) -0.0028(7) -0.0041(8)
C11 0.0184(9) 0.0104(9) 0.0188(8) -0.0030(7) -0.0015(7) -0.0042(7)
C12 0.0258(10) 0.0156(10) 0.0169(9) -0.0009(7) -0.0029(7) -0.0042(8)
C13 0.0275(11) 0.0204(11) 0.0182(9) -0.0044(8) 0.0036(8) -0.0051(8)
C14 0.0178(10) 0.0202(11) 0.0272(10) -0.0069(8) 0.0036(8) -0.0039(8)
C15 0.0224(10) 0.0169(10) 0.0200(9) -0.0026(7) -0.0039(8) -0.0011(8)
C16 0.0240(10) 0.0160(10) 0.0140(8) -0.0018(7) -0.0010(7) -0.0036(8)
loop_
_atom_type_symbol
_atom_type_description
_atom_type_scat_dispersion_real
_atom_type_scat_dispersion_imag
_atom_type_scat_source
C C 0.0033 0.0016 'International Tables Vol C Tables 4.2.6.8 and 6.1.1.4'
H H 0.0000 0.0000 'International Tables Vol C Tables 4.2.6.8 and 6.1.1.4'
Br Br -0.2901 2.4595 'International Tables Vol C Tables 4.2.6.8 and 6.1.1.4'
loop_
_geom_angle_atom_site_label_1
_geom_angle_atom_site_label_2
_geom_angle_atom_site_label_3
_geom_angle
C2 C1 C5 125.74(19)
C2 C1 Br1 118.43(16)
C5 C1 Br1 115.83(14)
C1 C2 C3 126.6(2)
C1 C2 H2 116.7
C3 C2 H2 116.7
C4 C3 C2 127.2(2)
C4 C3 H3 116.4
C2 C3 H3 116.4
C3 C4 C11 124.44(19)
C3 C4 Br2 119.90(16)
C11 C4 Br2 115.65(14)
C6 C5 C10 117.92(19)
C6 C5 C1 122.34(18)
C10 C5 C1 119.74(18)
C7 C6 C5 121.19(19)
C7 C6 H6 119.4
C5 C6 H6 119.4
C8 C7 C6 120.3(2)
C8 C7 H7 119.8
C6 C7 H7 119.8
C7 C8 C9 119.3(2)
C7 C8 H8 120.3
C9 C8 H8 120.3
C10 C9 C8 120.8(2)
C10 C9 H9 119.6
C8 C9 H9 119.6
C9 C10 C5 120.43(19)
C9 C10 H10 119.8
C5 C10 H10 119.8
C16 C11 C12 118.25(18)
C16 C11 C4 122.00(17)
C12 C11 C4 119.73(16)
C13 C12 C11 120.87(17)
C13 C12 H12 119.6
C11 C12 H12 119.6
C12 C13 C14 120.22(18)
C12 C13 H13 119.9
C14 C13 H13 119.9
C15 C14 C13 119.36(19)
C15 C14 H14 120.3
C13 C14 H14 120.3
C16 C15 C14 120.84(18)
C16 C15 H15 119.6
C14 C15 H15 119.6
C15 C16 C11 120.44(18)
C15 C16 H16 119.8
C11 C16 H16 119.8
loop_
_geom_bond_atom_site_label_1
_geom_bond_atom_site_label_2
_geom_bond_distance
C1 C2 1.349(3)
C1 C5 1.478(3)
C1 Br1 1.913(2)
C2 C3 1.439(3)
C2 H2 0.9500
C3 C4 1.346(3)
C3 H3 0.9500
C4 C11 1.473(3)
C4 Br2 1.906(2)
C5 C6 1.394(3)
C5 C10 1.411(3)
C6 C7 1.388(3)
C6 H6 0.9500
C7 C8 1.385(3)
C7 H7 0.9500
C8 C9 1.388(3)
C8 H8 0.9500
C9 C10 1.384(3)
C9 H9 0.9500
C10 H10 0.9500
C11 C16 1.404(3)
C11 C12 1.404(3)
C12 C13 1.384(3)
C12 H12 0.9500
C13 C14 1.392(3)
C13 H13 0.9500
C14 C15 1.388(3)
C14 H14 0.9500
C15 C16 1.383(3)
C15 H15 0.9500
C16 H16 0.9500
loop_
_geom_torsion_atom_site_label_1
_geom_torsion_atom_site_label_2
_geom_torsion_atom_site_label_3
_geom_torsion_atom_site_label_4
_geom_torsion
C5 C1 C2 C3 -179.8(2)
Br1 C1 C2 C3 -0.2(3)
C1 C2 C3 C4 174.24(19)
C2 C3 C4 C11 -178.8(2)
C2 C3 C4 Br2 0.5(3)
C2 C1 C5 C6 164.9(2)
Br1 C1 C5 C6 -14.7(2)
C2 C1 C5 C10 -15.1(3)
Br1 C1 C5 C10 165.22(14)
C10 C5 C6 C7 -0.3(3)
C1 C5 C6 C7 179.63(18)
C5 C6 C7 C8 0.4(3)
C6 C7 C8 C9 0.2(3)
C7 C8 C9 C10 -0.9(3)
C8 C9 C10 C5 1.1(3)
C6 C5 C10 C9 -0.4(3)
C1 C5 C10 C9 179.64(17)
C3 C4 C11 C16 143.2(2)
Br2 C4 C11 C16 -36.2(2)
C3 C4 C11 C12 -35.1(3)
Br2 C4 C11 C12 145.59(16)
C16 C11 C12 C13 -0.3(3)
C4 C11 C12 C13 178.05(19)
C11 C12 C13 C14 -0.8(3)
C12 C13 C14 C15 1.2(3)
C13 C14 C15 C16 -0.5(3)
C14 C15 C16 C11 -0.7(3)
C12 C11 C16 C15 1.0(3)
C4 C11 C16 C15 -177.27(19)
